REMARK SMILES COc1ccc(CCN2/C(=[NH+]/C(=O)CCC(=O)NCCCCNC(=O)c3ccc(-c4c5nc(c(-c6c(F)c(F)c(F)c(F)c6F)c6ccc([nH]6)c(-c6c(F)c(F)c(F)c(F)c6F)c6nc(c(-c7c(F)c(F)c(F)c(F)c7F)c7ccc4[nH]7)C=C6)C=C5)cc3)S[C@@H]3CS(=O)(=O)C[C@@H]32)cc1
REMARK SMILES IDX 16 1 17 2 18 3 15 5 14 6 12 7 9 8 10 9 96 10 11 11 89 12
REMARK SMILES IDX 90 13 95 14 91 16 92 17 13 18 93 19 94 20 8 21 7 22 6 23
REMARK SMILES IDX 3 24 4 25 98 26 5 27 97 28 2 29 1 30 19 31 20 32 21 33 22 34
REMARK SMILES IDX 23 35 24 36 25 38 26 39 27 40 88 41 28 42 87 43 29 44 30 45
REMARK SMILES IDX 31 46 81 47 32 48 86 49 80 50 82 51 33 52 85 53 79 54 78 55
REMARK SMILES IDX 34 57 66 58 46 59 65 60 47 61 50 62 64 63 83 64 48 65 49 66
REMARK SMILES IDX 63 68 84 69 51 70 35 71 36 72 44 73 37 74 38 75 42 76 45 77
REMARK SMILES IDX 39 78 40 79 43 80 41 81 67 82 68 83 76 84 69 85 70 86 74 87
REMARK SMILES IDX 77 88 71 89 72 90 75 91 73 92 52 93 53 94 61 95 54 96 55 97
REMARK SMILES IDX 59 98 62 99 56 100 57 101 60 102 58 103
REMARK H PARENT 18 4 11 15 23 37 82 56 50 67
REMARK Flexibility Score: inf
ROOT
ATOM      1  C   UNL     1       1.756  -3.819   3.257  1.00  0.00     0.220 C 
ATOM      2  O   UNL     1       2.621  -2.986   2.988  1.00  0.00    -0.275 OA
ATOM      3  N   UNL     1       2.156  -5.097   3.558  1.00  0.00    -0.356 N 
ATOM      4  H   UNL     1       3.114  -5.237   3.737  1.00  0.00     0.163 HD
ENDROOT
BRANCH   1   5
ATOM      5  C   UNL     1       0.259  -3.478   3.235  1.00  0.00     0.112 C 
BRANCH   5   6
ATOM      6  C   UNL     1      -0.260  -3.200   1.815  1.00  0.00     0.138 C 
BRANCH   6   7
ATOM      7  C   UNL     1      -1.248  -4.219   1.233  1.00  0.00     0.308 C 
ATOM      8  N   UNL     1      -0.699  -6.885  -1.307  1.00  0.00    -0.251 N 
ATOM      9  C   UNL     1      -1.293  -6.033  -0.343  1.00  0.00     0.314 C 
ATOM     10  C   UNL     1      -1.143  -8.315  -1.306  1.00  0.00     0.206 C 
ATOM     11  N   UNL     1      -0.770  -4.943   0.134  1.00  0.00    -0.205 N 
ATOM     12  S   UNL     1      -2.845  -6.659   0.325  1.00  0.00    -0.030 SA
ATOM     13  C   UNL     1      -2.785  -8.360  -0.273  1.00  0.00     0.120 C 
ATOM     14  C   UNL     1       0.245  -9.644  -0.665  1.00  0.00     0.187 C 
ATOM     15  H   UNL     1       0.033  -4.596  -0.317  1.00  0.00     0.316 HD
ATOM     16  C   UNL     1      -2.791  -9.733   1.161  1.00  0.00     0.156 C 
ATOM     17  S   UNL     1      -0.842 -10.965   1.082  1.00  0.00     0.155 S 
ATOM     18  O   UNL     1      -2.316  -4.369   1.824  1.00  0.00    -0.247 OA
ATOM     19  O   UNL     1      -0.168 -10.961   2.369  1.00  0.00    -0.229 OA
ATOM     20  O   UNL     1      -1.283 -12.303   0.717  1.00  0.00    -0.229 OA
BRANCH   8  21
ATOM     21  C   UNL     1       0.535  -6.717  -2.112  1.00  0.00     0.242 C 
BRANCH  21  22
ATOM     22  C   UNL     1       0.915  -5.447  -2.875  1.00  0.00     0.081 C 
BRANCH  22  23
ATOM     23  C   UNL     1       1.051  -4.138  -2.160  1.00  0.00    -0.044 A 
ATOM     24  C   UNL     1       1.162  -1.710  -0.790  1.00  0.00     0.118 A 
ATOM     25  C   UNL     1       0.029  -2.029  -1.533  1.00  0.00     0.046 A 
ATOM     26  C   UNL     1       2.257  -2.575  -0.747  1.00  0.00     0.046 A 
ATOM     27  C   UNL     1      -0.016  -3.231  -2.231  1.00  0.00     0.007 A 
ATOM     28  C   UNL     1       2.201  -3.792  -1.433  1.00  0.00     0.007 A 
BRANCH  24  29
ATOM     29  O   UNL     1       1.080  -0.692   0.122  1.00  0.00    -0.497 OA
ATOM     30  C   UNL     1       1.490   0.544  -0.444  1.00  0.00     0.278 C 
ENDBRANCH  24  29
ENDBRANCH  22  23
ENDBRANCH  21  22
ENDBRANCH   8  21
ENDBRANCH   6   7
ENDBRANCH   5   6
ENDBRANCH   1   5
BRANCH   3  31
ATOM     31  C   UNL     1       1.296  -6.258   3.635  1.00  0.00     0.116 C 
BRANCH  31  32
ATOM     32  C   UNL     1       0.595  -6.405   2.302  1.00  0.00     0.023 C 
BRANCH  32  33
ATOM     33  C   UNL     1       1.154  -7.449   1.387  1.00  0.00     0.023 C 
BRANCH  33  34
ATOM     34  C   UNL     1       0.390  -8.736   1.571  1.00  0.00     0.116 C 
BRANCH  34  35
ATOM     35  N   UNL     1      -1.020  -8.995   0.553  1.00  0.00    -0.352 N 
ATOM     36  C   UNL     1      -1.710 -10.256  -0.764  1.00  0.00     0.251 C 
ATOM     37  H   UNL     1      -1.670  -8.269   0.693  1.00  0.00     0.163 HD
ATOM     38  O   UNL     1      -2.885 -10.343  -1.150  1.00  0.00    -0.269 OA
BRANCH  36  39
ATOM     39  C   UNL     1      -0.906 -11.495  -1.679  1.00  0.00     0.039 A 
ATOM     40  C   UNL     1      -1.390 -11.753  -2.972  1.00  0.00     0.014 A 
ATOM     41  C   UNL     1       0.319 -12.142  -1.330  1.00  0.00     0.014 A 
ATOM     42  C   UNL     1      -0.605 -12.470  -3.901  1.00  0.00     0.010 A 
ATOM     43  C   UNL     1       1.147 -12.694  -2.276  1.00  0.00     0.010 A 
ATOM     44  C   UNL     1       0.698 -12.877  -3.574  1.00  0.00    -0.014 A 
BRANCH  44  45
ATOM     45  C   UNL     1       1.704 -13.438  -4.504  1.00  0.00     0.031 A 
ATOM     46  C   UNL     1       2.412 -14.724  -4.139  1.00  0.00     0.074 A 
ATOM     47  C   UNL     1       2.183 -12.653  -5.489  1.00  0.00     0.049 A 
ATOM     48  N   UNL     1       3.474 -15.266  -4.676  1.00  0.00    -0.248 NA
ATOM     49  C   UNL     1       1.918 -15.440  -2.946  1.00  0.00     0.031 C 
ATOM     50  C   UNL     1       1.707 -11.306  -5.815  1.00  0.00     0.029 A 
ATOM     51  N   UNL     1       3.212 -12.860  -6.370  1.00  0.00    -0.354 N 
ATOM     52  C   UNL     1       3.787 -16.352  -3.866  1.00  0.00     0.074 A 
ATOM     53  C   UNL     1       2.880 -16.325  -2.744  1.00  0.00     0.031 C 
ATOM     54  C   UNL     1       2.411 -10.829  -6.854  1.00  0.00     0.029 A 
ATOM     55  C   UNL     1       3.404 -11.822  -7.248  1.00  0.00     0.049 A 
ATOM     56  H   UNL     1       3.763 -13.677  -6.374  1.00  0.00     0.167 HD
ATOM     57  C   UNL     1       4.713 -17.319  -4.070  1.00  0.00     0.037 A 
ATOM     58  C   UNL     1       4.273 -11.702  -8.268  1.00  0.00     0.037 A 
ATOM     59  C   UNL     1       5.558 -17.366  -5.231  1.00  0.00     0.049 A 
ATOM     60  C   UNL     1       5.226 -12.835  -8.541  1.00  0.00     0.074 A 
ATOM     61  C   UNL     1       6.412 -18.372  -5.639  1.00  0.00     0.029 A 
ATOM     62  N   UNL     1       5.645 -16.352  -6.174  1.00  0.00    -0.354 N 
ATOM     63  N   UNL     1       5.395 -13.953  -7.877  1.00  0.00    -0.248 NA
ATOM     64  C   UNL     1       6.097 -12.696  -9.716  1.00  0.00     0.031 C 
ATOM     65  C   UNL     1       7.052 -17.947  -6.808  1.00  0.00     0.029 A 
ATOM     66  C   UNL     1       6.559 -16.697  -7.152  1.00  0.00     0.049 A 
ATOM     67  H   UNL     1       5.133 -15.512  -6.150  1.00  0.00     0.167 HD
ATOM     68  C   UNL     1       6.364 -14.665  -8.570  1.00  0.00     0.074 A 
ATOM     69  C   UNL     1       6.736 -13.857  -9.713  1.00  0.00     0.031 C 
ATOM     70  C   UNL     1       6.900 -15.878  -8.287  1.00  0.00     0.037 A 
BRANCH  57  71
ATOM     71  C   UNL     1       4.813 -18.422  -3.053  1.00  0.00     0.064 A 
ATOM     72  C   UNL     1       3.756 -19.322  -2.837  1.00  0.00     0.173 A 
ATOM     73  C   UNL     1       5.983 -18.600  -2.300  1.00  0.00     0.173 A 
ATOM     74  F   UNL     1       2.612 -19.199  -3.526  1.00  0.00    -0.203 F 
ATOM     75  C   UNL     1       3.848 -20.325  -1.876  1.00  0.00     0.198 A 
ATOM     76  C   UNL     1       6.086 -19.630  -1.366  1.00  0.00     0.198 A 
ATOM     77  F   UNL     1       7.029 -17.778  -2.468  1.00  0.00    -0.203 F 
ATOM     78  F   UNL     1       2.799 -21.126  -1.645  1.00  0.00    -0.200 F 
ATOM     79  C   UNL     1       5.016 -20.483  -1.146  1.00  0.00     0.200 A 
ATOM     80  F   UNL     1       7.222 -19.792  -0.673  1.00  0.00    -0.200 F 
ATOM     81  F   UNL     1       5.106 -21.453  -0.226  1.00  0.00    -0.200 F 
ENDBRANCH  57  71
BRANCH  58  82
ATOM     82  C   UNL     1       4.208 -10.522  -9.168  1.00  0.00     0.064 A 
ATOM     83  C   UNL     1       3.707 -10.658 -10.471  1.00  0.00     0.173 A 
ATOM     84  C   UNL     1       4.622  -9.248  -8.759  1.00  0.00     0.173 A 
ATOM     85  F   UNL     1       3.304 -11.861 -10.909  1.00  0.00    -0.203 F 
ATOM     86  C   UNL     1       3.651  -9.573 -11.342  1.00  0.00     0.198 A 
ATOM     87  C   UNL     1       4.542  -8.155  -9.623  1.00  0.00     0.198 A 
ATOM     88  F   UNL     1       5.089  -9.058  -7.517  1.00  0.00    -0.203 F 
ATOM     89  F   UNL     1       3.209  -9.744 -12.595  1.00  0.00    -0.200 F 
ATOM     90  C   UNL     1       4.066  -8.321 -10.916  1.00  0.00     0.200 A 
ATOM     91  F   UNL     1       4.925  -6.942  -9.203  1.00  0.00    -0.200 F 
ATOM     92  F   UNL     1       4.009  -7.275 -11.752  1.00  0.00    -0.200 F 
ENDBRANCH  58  82
BRANCH  70  93
ATOM     93  C   UNL     1       7.919 -16.420  -9.244  1.00  0.00     0.064 A 
ATOM     94  C   UNL     1       9.212 -15.885  -9.319  1.00  0.00     0.173 A 
ATOM     95  C   UNL     1       7.615 -17.529 -10.049  1.00  0.00     0.173 A 
ATOM     96  F   UNL     1       9.544 -14.816  -8.579  1.00  0.00    -0.203 F 
ATOM     97  C   UNL     1      10.160 -16.429 -10.180  1.00  0.00     0.198 A 
ATOM     98  C   UNL     1       8.575 -18.090 -10.885  1.00  0.00     0.198 A 
ATOM     99  F   UNL     1       6.393 -18.081 -10.007  1.00  0.00    -0.203 F 
ATOM    100  F   UNL     1      11.378 -15.876 -10.267  1.00  0.00    -0.200 F 
ATOM    101  C   UNL     1       9.844 -17.536 -10.954  1.00  0.00     0.200 A 
ATOM    102  F   UNL     1       8.273 -19.170 -11.619  1.00  0.00    -0.200 F 
ATOM    103  F   UNL     1      10.764 -18.068 -11.771  1.00  0.00    -0.200 F 
ENDBRANCH  70  93
ENDBRANCH  44  45
ENDBRANCH  36  39
ENDBRANCH  34  35
ENDBRANCH  33  34
ENDBRANCH  32  33
ENDBRANCH  31  32
ENDBRANCH   3  31
TORSDOF 17
