REMARK SMILES CC[NH2+][C@@]1(C(=O)NCCCCNC(=O)c2ccc(-c3c4nc(c(-c5c(F)c(F)c(F)c(F)c5F)c5ccc([nH]5)c(-c5c(F)c(F)c(F)c(F)c5F)c5nc(c(-c6c(F)c(F)c(F)c(F)c6F)c6ccc3[nH]6)C=C5)C=C4)cc2)CCC[C@@H]1CC[NH+]1CCS(=O)(=O)CC1
REMARK SMILES IDX 9 1 8 2 7 3 5 4 6 5 4 7 78 8 81 9 79 10 80 11 3 12 2 15 1 16
REMARK SMILES IDX 82 17 83 18 84 19 85 20 91 21 86 23 90 24 87 25 88 26 89 27
REMARK SMILES IDX 10 28 11 29 12 30 13 31 14 33 15 34 16 35 77 36 17 37 76 38
REMARK SMILES IDX 18 39 19 40 20 41 70 42 21 43 75 44 69 45 71 46 22 47 74 48
REMARK SMILES IDX 68 49 67 50 23 52 55 53 35 54 54 55 36 56 39 57 53 58 72 59
REMARK SMILES IDX 37 60 38 61 52 63 73 64 40 65 24 66 25 67 33 68 26 69 27 70
REMARK SMILES IDX 31 71 34 72 28 73 29 74 32 75 30 76 56 77 57 78 65 79 58 80
REMARK SMILES IDX 59 81 63 82 66 83 60 84 61 85 64 86 62 87 41 88 42 89 50 90
REMARK SMILES IDX 43 91 44 92 48 93 51 94 45 95 46 96 49 97 47 98
REMARK H PARENT 7 6 3 13 3 14 84 22 12 32 71 51 39 62
REMARK Flexibility Score: inf
ROOT
ATOM      1  C   UNL     1       0.032  -2.252   7.282  1.00  0.00     0.023 C 
ENDROOT
BRANCH   1   2
ATOM      2  C   UNL     1      -0.977  -1.257   6.696  1.00  0.00     0.116 C 
BRANCH   2   3
ATOM      3  N   UNL     1      -0.447  -0.187   5.863  1.00  0.00    -0.351 N 
ATOM      4  C   UNL     1      -0.368   0.144   4.549  1.00  0.00     0.281 C 
ATOM      5  O   UNL     1      -0.235   1.378   4.423  1.00  0.00    -0.268 OA
ATOM      6  H   UNL     1      -0.017   0.502   6.419  1.00  0.00     0.163 HD
BRANCH   4   7
ATOM      7  C   UNL     1      -0.422  -0.772   3.226  1.00  0.00     0.178 C 
ATOM      8  C   UNL     1      -1.904  -1.178   3.056  1.00  0.00     0.079 C 
ATOM      9  C   UNL     1       0.313  -2.133   3.156  1.00  0.00     0.066 C 
ATOM     10  C   UNL     1      -2.041  -2.570   3.667  1.00  0.00     0.008 C 
ATOM     11  C   UNL     1      -0.623  -3.105   3.888  1.00  0.00     0.011 C 
BRANCH   7  12
ATOM     12  N   UNL     1       0.011   0.107   2.086  1.00  0.00    -0.334 N 
ATOM     13  H   UNL     1      -0.571   0.944   2.118  1.00  0.00     0.347 HD
ATOM     14  H   UNL     1       1.011   0.233   2.247  1.00  0.00     0.347 HD
BRANCH  12  15
ATOM     15  C   UNL     1      -0.053  -0.403   0.717  1.00  0.00     0.257 C 
ATOM     16  C   UNL     1       0.740   0.468  -0.251  1.00  0.00     0.071 C 
ENDBRANCH  12  15
ENDBRANCH   7  12
BRANCH   9  17
ATOM     17  C   UNL     1       1.836  -2.384   3.380  1.00  0.00     0.072 C 
BRANCH  17  18
ATOM     18  C   UNL     1       2.966  -1.450   2.834  1.00  0.00     0.262 C 
BRANCH  18  19
ATOM     19  N   UNL     1       3.571  -0.321   3.556  1.00  0.00    -0.333 N 
ATOM     20  C   UNL     1       4.973  -0.416   3.963  1.00  0.00     0.278 C 
ATOM     21  C   UNL     1       2.818   0.423   4.536  1.00  0.00     0.278 C 
ATOM     22  H   UNL     1       3.527   0.253   2.714  1.00  0.00     0.348 HD
ATOM     23  C   UNL     1       5.224  -1.239   5.210  1.00  0.00     0.198 C 
ATOM     24  C   UNL     1       2.624  -0.334   5.816  1.00  0.00     0.198 C 
ATOM     25  S   UNL     1       4.155  -0.802   6.558  1.00  0.00     0.161 S 
ATOM     26  O   UNL     1       3.916  -2.013   7.321  1.00  0.00    -0.228 OA
ATOM     27  O   UNL     1       4.686   0.379   7.217  1.00  0.00    -0.228 OA
ENDBRANCH  18  19
ENDBRANCH  17  18
ENDBRANCH   9  17
ENDBRANCH   4   7
ENDBRANCH   2   3
ENDBRANCH   1   2
BRANCH   1  28
ATOM     28  C   UNL     1       0.891  -1.799   8.459  1.00  0.00     0.023 C 
BRANCH  28  29
ATOM     29  C   UNL     1       0.172  -1.186   9.639  1.00  0.00     0.116 C 
BRANCH  29  30
ATOM     30  N   UNL     1      -0.839  -2.058  10.206  1.00  0.00    -0.352 N 
ATOM     31  C   UNL     1      -1.030  -2.406  11.520  1.00  0.00     0.251 C 
ATOM     32  H   UNL     1      -1.471  -2.453   9.563  1.00  0.00     0.163 HD
ATOM     33  O   UNL     1      -1.829  -3.291  11.812  1.00  0.00    -0.269 OA
BRANCH  31  34
ATOM     34  C   UNL     1      -0.263  -1.719  12.582  1.00  0.00     0.039 A 
ATOM     35  C   UNL     1       0.212  -2.459  13.667  1.00  0.00     0.014 A 
ATOM     36  C   UNL     1      -0.026  -0.344  12.516  1.00  0.00     0.014 A 
ATOM     37  C   UNL     1       0.936  -1.819  14.674  1.00  0.00     0.010 A 
ATOM     38  C   UNL     1       0.798   0.266  13.450  1.00  0.00     0.010 A 
ATOM     39  C   UNL     1       1.240  -0.452  14.569  1.00  0.00    -0.014 A 
BRANCH  39  40
ATOM     40  C   UNL     1       1.922   0.275  15.666  1.00  0.00     0.031 A 
ATOM     41  C   UNL     1       1.198   1.394  16.370  1.00  0.00     0.074 A 
ATOM     42  C   UNL     1       3.188  -0.039  15.999  1.00  0.00     0.049 A 
ATOM     43  N   UNL     1       1.615   2.185  17.326  1.00  0.00    -0.248 NA
ATOM     44  C   UNL     1      -0.169   1.694  15.908  1.00  0.00     0.031 C 
ATOM     45  C   UNL     1       4.008  -1.058  15.342  1.00  0.00     0.029 A 
ATOM     46  N   UNL     1       4.005   0.469  16.975  1.00  0.00    -0.354 N 
ATOM     47  C   UNL     1       0.578   3.081  17.553  1.00  0.00     0.074 A 
ATOM     48  C   UNL     1      -0.454   2.795  16.584  1.00  0.00     0.031 C 
ATOM     49  C   UNL     1       5.198  -1.128  15.960  1.00  0.00     0.029 A 
ATOM     50  C   UNL     1       5.235  -0.140  17.033  1.00  0.00     0.049 A 
ATOM     51  H   UNL     1       3.737   1.200  17.577  1.00  0.00     0.167 HD
ATOM     52  C   UNL     1       0.475   4.032  18.511  1.00  0.00     0.037 A 
ATOM     53  C   UNL     1       6.268   0.076  17.870  1.00  0.00     0.037 A 
ATOM     54  C   UNL     1       1.491   4.278  19.498  1.00  0.00     0.049 A 
ATOM     55  C   UNL     1       6.116   1.114  18.950  1.00  0.00     0.074 A 
ATOM     56  C   UNL     1       1.477   5.173  20.551  1.00  0.00     0.029 A 
ATOM     57  N   UNL     1       2.708   3.611  19.552  1.00  0.00    -0.354 N 
ATOM     58  N   UNL     1       5.103   1.908  19.203  1.00  0.00    -0.248 NA
ATOM     59  C   UNL     1       7.246   1.272  19.875  1.00  0.00     0.031 C 
ATOM     60  C   UNL     1       2.704   5.081  21.216  1.00  0.00     0.029 A 
ATOM     61  C   UNL     1       3.458   4.084  20.616  1.00  0.00     0.049 A 
ATOM     62  H   UNL     1       2.995   2.907  18.927  1.00  0.00     0.167 HD
ATOM     63  C   UNL     1       5.456   2.631  20.335  1.00  0.00     0.074 A 
ATOM     64  C   UNL     1       6.771   2.167  20.728  1.00  0.00     0.031 C 
ATOM     65  C   UNL     1       4.759   3.593  20.991  1.00  0.00     0.037 A 
BRANCH  52  66
ATOM     66  C   UNL     1      -0.781   4.858  18.539  1.00  0.00     0.064 A 
ATOM     67  C   UNL     1      -2.030   4.297  18.855  1.00  0.00     0.173 A 
ATOM     68  C   UNL     1      -0.738   6.231  18.253  1.00  0.00     0.173 A 
ATOM     69  F   UNL     1      -2.133   2.986  19.122  1.00  0.00    -0.203 F 
ATOM     70  C   UNL     1      -3.189   5.068  18.843  1.00  0.00     0.198 A 
ATOM     71  C   UNL     1      -1.895   7.007  18.279  1.00  0.00     0.198 A 
ATOM     72  F   UNL     1       0.426   6.823  17.947  1.00  0.00    -0.203 F 
ATOM     73  F   UNL     1      -4.376   4.493  19.081  1.00  0.00    -0.200 F 
ATOM     74  C   UNL     1      -3.120   6.423  18.562  1.00  0.00     0.200 A 
ATOM     75  F   UNL     1      -1.824   8.320  18.021  1.00  0.00    -0.200 F 
ATOM     76  F   UNL     1      -4.236   7.166  18.555  1.00  0.00    -0.200 F 
ENDBRANCH  52  66
BRANCH  53  77
ATOM     77  C   UNL     1       7.505  -0.740  17.755  1.00  0.00     0.064 A 
ATOM     78  C   UNL     1       7.851  -1.669  18.748  1.00  0.00     0.173 A 
ATOM     79  C   UNL     1       8.369  -0.611  16.658  1.00  0.00     0.173 A 
ATOM     80  F   UNL     1       7.066  -1.820  19.825  1.00  0.00    -0.203 F 
ATOM     81  C   UNL     1       9.025  -2.413  18.663  1.00  0.00     0.198 A 
ATOM     82  C   UNL     1       9.527  -1.379  16.558  1.00  0.00     0.198 A 
ATOM     83  F   UNL     1       8.082   0.256  15.675  1.00  0.00    -0.203 F 
ATOM     84  F   UNL     1       9.357  -3.253  19.653  1.00  0.00    -0.200 F 
ATOM     85  C   UNL     1       9.860  -2.272  17.565  1.00  0.00     0.200 A 
ATOM     86  F   UNL     1      10.324  -1.251  15.487  1.00  0.00    -0.200 F 
ATOM     87  F   UNL     1      10.989  -2.989  17.482  1.00  0.00    -0.200 F 
ENDBRANCH  53  77
BRANCH  65  88
ATOM     88  C   UNL     1       5.385   4.162  22.232  1.00  0.00     0.064 A 
ATOM     89  C   UNL     1       6.522   4.980  22.181  1.00  0.00     0.173 A 
ATOM     90  C   UNL     1       4.821   3.897  23.490  1.00  0.00     0.173 A 
ATOM     91  F   UNL     1       7.105   5.255  21.004  1.00  0.00    -0.203 F 
ATOM     92  C   UNL     1       7.099   5.476  23.347  1.00  0.00     0.198 A 
ATOM     93  C   UNL     1       5.378   4.426  24.650  1.00  0.00     0.198 A 
ATOM     94  F   UNL     1       3.725   3.130  23.593  1.00  0.00    -0.203 F 
ATOM     95  F   UNL     1       8.225   6.200  23.279  1.00  0.00    -0.200 F 
ATOM     96  C   UNL     1       6.523   5.204  24.579  1.00  0.00     0.200 A 
ATOM     97  F   UNL     1       4.809   4.178  25.838  1.00  0.00    -0.200 F 
ATOM     98  F   UNL     1       7.079   5.683  25.700  1.00  0.00    -0.200 F 
ENDBRANCH  65  88
ENDBRANCH  39  40
ENDBRANCH  31  34
ENDBRANCH  29  30
ENDBRANCH  28  29
ENDBRANCH   1  28
TORSDOF 16
