REMARK SMILES O=C(NCCCCNC(=O)[C@H]1CCCN(C(=O)CCOc2ccc(F)cc2)C1)c1ccc(-c2c3nc(c(-c4c(F)c(F)c(F)c(F)c4F)c4ccc([nH]4)c(-c4c(F)c(F)c(F)c(F)c4F)c4nc(c(-c5c(F)c(F)c(F)c(F)c5F)c5ccc2[nH]5)C=C4)C=C3)cc1
REMARK SMILES IDX 7 1 6 2 5 3 4 4 3 5 1 6 2 7 29 9 30 10 91 11 31 12 90 13
REMARK SMILES IDX 32 14 33 15 34 16 84 17 35 18 89 19 83 20 85 21 36 22 88 23
REMARK SMILES IDX 82 24 81 25 37 27 69 28 49 29 68 30 50 31 53 32 67 33 86 34
REMARK SMILES IDX 51 35 52 36 66 38 87 39 54 40 38 41 39 42 47 43 40 44 41 45
REMARK SMILES IDX 45 46 48 47 42 48 43 49 46 50 44 51 70 52 71 53 79 54 72 55
REMARK SMILES IDX 73 56 77 57 80 58 74 59 75 60 78 61 76 62 55 63 56 64 64 65
REMARK SMILES IDX 57 66 58 67 62 68 65 69 59 70 60 71 63 72 61 73 8 74 9 75
REMARK SMILES IDX 10 77 11 78 12 79 28 80 13 81 15 82 14 83 16 84 17 85 18 86
REMARK SMILES IDX 19 87 20 88 21 89 22 90 27 91 23 92 26 93 24 94 25 95
REMARK H PARENT 3 8 85 26 53 37 8 76
REMARK Flexibility Score: inf
ROOT
ATOM      1  C   UNL     1       5.053  -4.829   8.023  1.00  0.00     0.116 C 
ENDROOT
BRANCH   1   2
ATOM      2  C   UNL     1       6.059  -5.527   8.993  1.00  0.00     0.023 C 
BRANCH   2   3
ATOM      3  C   UNL     1       6.197  -4.848  10.357  1.00  0.00     0.023 C 
BRANCH   3   4
ATOM      4  C   UNL     1       5.111  -5.344  11.285  1.00  0.00     0.116 C 
BRANCH   4   5
ATOM      5  N   UNL     1       5.187  -6.795  11.480  1.00  0.00    -0.352 N 
ATOM      6  O   UNL     1       5.196  -8.717  12.667  1.00  0.00    -0.269 OA
ATOM      7  C   UNL     1       4.966  -7.517  12.616  1.00  0.00     0.251 C 
ATOM      8  H   UNL     1       5.430  -7.319  10.683  1.00  0.00     0.163 HD
BRANCH   7   9
ATOM      9  C   UNL     1       4.483  -6.779  13.781  1.00  0.00     0.039 A 
ATOM     10  C   UNL     1       3.419  -5.886  13.624  1.00  0.00     0.014 A 
ATOM     11  C   UNL     1       5.187  -6.886  14.977  1.00  0.00     0.014 A 
ATOM     12  C   UNL     1       3.151  -4.981  14.628  1.00  0.00     0.010 A 
ATOM     13  C   UNL     1       4.825  -6.062  16.031  1.00  0.00     0.010 A 
ATOM     14  C   UNL     1       3.819  -5.097  15.854  1.00  0.00    -0.014 A 
BRANCH  14  15
ATOM     15  C   UNL     1       3.381  -4.276  16.995  1.00  0.00     0.031 A 
ATOM     16  C   UNL     1       4.322  -3.326  17.658  1.00  0.00     0.074 A 
ATOM     17  C   UNL     1       2.132  -4.465  17.457  1.00  0.00     0.049 A 
ATOM     18  N   UNL     1       4.152  -2.644  18.759  1.00  0.00    -0.248 NA
ATOM     19  C   UNL     1       5.630  -3.126  17.015  1.00  0.00     0.031 C 
ATOM     20  C   UNL     1       1.143  -5.366  16.861  1.00  0.00     0.029 A 
ATOM     21  N   UNL     1       1.487  -3.928  18.537  1.00  0.00    -0.354 N 
ATOM     22  C   UNL     1       5.340  -1.960  18.962  1.00  0.00     0.074 A 
ATOM     23  C   UNL     1       6.232  -2.325  17.882  1.00  0.00     0.031 C 
ATOM     24  C   UNL     1       0.011  -5.306  17.570  1.00  0.00     0.029 A 
ATOM     25  C   UNL     1       0.228  -4.438  18.720  1.00  0.00     0.049 A 
ATOM     26  H   UNL     1       1.886  -3.244  19.122  1.00  0.00     0.167 HD
ATOM     27  C   UNL     1       5.643  -1.108  19.968  1.00  0.00     0.037 A 
ATOM     28  C   UNL     1      -0.643  -4.270  19.730  1.00  0.00     0.037 A 
ATOM     29  C   UNL     1       4.726  -0.766  21.025  1.00  0.00     0.049 A 
ATOM     30  C   UNL     1      -0.262  -3.372  20.866  1.00  0.00     0.074 A 
ATOM     31  C   UNL     1       4.911   0.127  22.064  1.00  0.00     0.029 A 
ATOM     32  N   UNL     1       3.461  -1.318  21.190  1.00  0.00    -0.354 N 
ATOM     33  N   UNL     1       0.849  -2.699  21.040  1.00  0.00    -0.248 NA
ATOM     34  C   UNL     1      -1.243  -3.208  21.944  1.00  0.00     0.031 C 
ATOM     35  C   UNL     1       3.803   0.045  22.908  1.00  0.00     0.029 A 
ATOM     36  C   UNL     1       2.878  -0.821  22.344  1.00  0.00     0.049 A 
ATOM     37  H   UNL     1       3.042  -1.966  20.578  1.00  0.00     0.167 HD
ATOM     38  C   UNL     1       0.694  -2.008  22.231  1.00  0.00     0.074 A 
ATOM     39  C   UNL     1      -0.619  -2.348  22.741  1.00  0.00     0.031 C 
ATOM     40  C   UNL     1       1.563  -1.163  22.835  1.00  0.00     0.037 A 
BRANCH  27  41
ATOM     41  C   UNL     1       7.025  -0.523  20.005  1.00  0.00     0.064 A 
ATOM     42  C   UNL     1       7.893  -0.835  21.064  1.00  0.00     0.173 A 
ATOM     43  C   UNL     1       7.483   0.378  19.032  1.00  0.00     0.173 A 
ATOM     44  F   UNL     1       7.507  -1.686  22.027  1.00  0.00    -0.203 F 
ATOM     45  C   UNL     1       9.158  -0.263  21.151  1.00  0.00     0.198 A 
ATOM     46  C   UNL     1       8.766   0.916  19.099  1.00  0.00     0.198 A 
ATOM     47  F   UNL     1       6.700   0.708  17.993  1.00  0.00    -0.203 F 
ATOM     48  F   UNL     1       9.951  -0.552  22.192  1.00  0.00    -0.200 F 
ATOM     49  C   UNL     1       9.598   0.603  20.163  1.00  0.00     0.200 A 
ATOM     50  F   UNL     1       9.201   1.729  18.127  1.00  0.00    -0.200 F 
ATOM     51  F   UNL     1      10.827   1.133  20.234  1.00  0.00    -0.200 F 
ENDBRANCH  27  41
BRANCH  28  52
ATOM     52  C   UNL     1      -1.942  -4.981  19.667  1.00  0.00     0.064 A 
ATOM     53  C   UNL     1      -2.011  -6.381  19.758  1.00  0.00     0.173 A 
ATOM     54  C   UNL     1      -3.121  -4.285  19.377  1.00  0.00     0.173 A 
ATOM     55  F   UNL     1      -0.902  -7.093  20.010  1.00  0.00    -0.203 F 
ATOM     56  C   UNL     1      -3.203  -7.059  19.516  1.00  0.00     0.198 A 
ATOM     57  C   UNL     1      -4.319  -4.962  19.166  1.00  0.00     0.198 A 
ATOM     58  F   UNL     1      -3.102  -2.947  19.285  1.00  0.00    -0.203 F 
ATOM     59  F   UNL     1      -3.226  -8.398  19.537  1.00  0.00    -0.200 F 
ATOM     60  C   UNL     1      -4.356  -6.348  19.220  1.00  0.00     0.200 A 
ATOM     61  F   UNL     1      -5.435  -4.273  18.891  1.00  0.00    -0.200 F 
ATOM     62  F   UNL     1      -5.501  -7.000  18.976  1.00  0.00    -0.200 F 
ENDBRANCH  28  52
BRANCH  40  63
ATOM     63  C   UNL     1       1.133  -0.495  24.108  1.00  0.00     0.064 A 
ATOM     64  C   UNL     1       0.930   0.894  24.133  1.00  0.00     0.173 A 
ATOM     65  C   UNL     1       1.087  -1.190  25.324  1.00  0.00     0.173 A 
ATOM     66  F   UNL     1       0.971   1.604  22.995  1.00  0.00    -0.203 F 
ATOM     67  C   UNL     1       0.751   1.570  25.335  1.00  0.00     0.198 A 
ATOM     68  C   UNL     1       0.874  -0.514  26.523  1.00  0.00     0.198 A 
ATOM     69  F   UNL     1       1.258  -2.520  25.350  1.00  0.00    -0.203 F 
ATOM     70  F   UNL     1       0.637   2.905  25.341  1.00  0.00    -0.200 F 
ATOM     71  C   UNL     1       0.728   0.866  26.529  1.00  0.00     0.200 A 
ATOM     72  F   UNL     1       0.830  -1.196  27.675  1.00  0.00    -0.200 F 
ATOM     73  F   UNL     1       0.575   1.520  27.689  1.00  0.00    -0.200 F 
ENDBRANCH  40  63
ENDBRANCH  14  15
ENDBRANCH   7   9
ENDBRANCH   4   5
ENDBRANCH   3   4
ENDBRANCH   2   3
ENDBRANCH   1   2
BRANCH   1  74
ATOM     74  N   UNL     1       5.433  -3.680   7.109  1.00  0.00    -0.356 N 
ATOM     75  C   UNL     1       6.166  -3.340   5.964  1.00  0.00     0.224 C 
ATOM     76  H   UNL     1       5.001  -2.863   7.449  1.00  0.00     0.163 HD
ATOM     77  O   UNL     1       6.013  -2.155   5.616  1.00  0.00    -0.275 OA
BRANCH  75  78
ATOM     78  C   UNL     1       7.181  -4.389   4.841  1.00  0.00     0.098 C 
ATOM     79  C   UNL     1       8.389  -6.189   5.349  1.00  0.00     0.017 C 
ATOM     80  C   UNL     1       5.462  -4.756   3.997  1.00  0.00     0.132 C 
ATOM     81  C   UNL     1       7.275  -7.837   5.155  1.00  0.00     0.022 C 
ATOM     82  N   UNL     1       5.167  -6.265   3.400  1.00  0.00    -0.342 N 
ATOM     83  C   UNL     1       5.546  -7.648   4.363  1.00  0.00     0.119 C 
BRANCH  82  84
ATOM     84  C   UNL     1       5.332  -6.215   1.969  1.00  0.00     0.226 C 
ATOM     85  O   UNL     1       4.725  -5.384   1.286  1.00  0.00    -0.275 OA
BRANCH  84  86
ATOM     86  C   UNL     1       6.507  -6.998   1.311  1.00  0.00     0.141 C 
BRANCH  86  87
ATOM     87  C   UNL     1       7.837  -6.170   1.077  1.00  0.00     0.239 C 
BRANCH  87  88
ATOM     88  O   UNL     1       8.880  -5.882   2.061  1.00  0.00    -0.493 OA
BRANCH  88  89
ATOM     89  C   UNL     1       8.510  -5.351   3.262  1.00  0.00     0.119 A 
ATOM     90  C   UNL     1       7.216  -6.059   3.962  1.00  0.00     0.049 A 
ATOM     91  C   UNL     1       9.495  -4.456   4.223  1.00  0.00     0.049 A 
ATOM     92  C   UNL     1       6.660  -5.837   5.815  1.00  0.00     0.043 A 
ATOM     93  C   UNL     1       9.194  -4.154   5.862  1.00  0.00     0.043 A 
ATOM     94  C   UNL     1       7.861  -4.779   6.721  1.00  0.00     0.123 A 
ATOM     95  F   UNL     1       7.728  -4.197   7.918  1.00  0.00    -0.207 F 
ENDBRANCH  88  89
ENDBRANCH  87  88
ENDBRANCH  86  87
ENDBRANCH  84  86
ENDBRANCH  82  84
ENDBRANCH  75  78
ENDBRANCH   1  74
TORSDOF 16
