REMARK SMILES CC(C)C[C@H](C)NS(=O)(=O)c1cc(C(=O)NCCCCNC(=O)c2ccc(-c3c4nc(c(-c5c(F)c(F)c(F)c(F)c5F)c5ccc([nH]5)c(-c5c(F)c(F)c(F)c(F)c5F)c5nc(c(-c6c(F)c(F)c(F)c(F)c6F)c6ccc3[nH]6)C=C5)C=C4)cc2)ccc1Cl
REMARK SMILES IDX 17 1 16 2 14 3 15 4 13 6 11 7 12 8 89 9 88 10 90 11 87 12
REMARK SMILES IDX 8 13 9 14 10 15 7 16 5 18 6 19 4 20 2 21 1 22 3 23 18 24
REMARK SMILES IDX 19 25 20 26 21 27 22 28 23 30 24 31 25 32 86 33 26 34 85 35
REMARK SMILES IDX 27 36 28 37 29 38 79 39 30 40 84 41 78 42 80 43 31 44 83 45
REMARK SMILES IDX 77 46 76 47 32 49 64 50 44 51 63 52 45 53 48 54 62 55 81 56
REMARK SMILES IDX 46 57 47 58 61 60 82 61 49 62 33 63 34 64 42 65 35 66 36 67
REMARK SMILES IDX 40 68 43 69 37 70 38 71 41 72 39 73 65 74 66 75 74 76 67 77
REMARK SMILES IDX 68 78 72 79 75 80 69 81 70 82 73 83 71 84 50 85 51 86 59 87
REMARK SMILES IDX 52 88 53 89 57 90 60 91 54 92 55 93 58 94 56 95
REMARK H PARENT 16 5 7 17 21 29 80 48 48 59
REMARK Flexibility Score: inf
ROOT
ATOM      1  C   UNL     1      -1.187   1.578   6.614  1.00  0.00     0.116 C 
ENDROOT
BRANCH   1   2
ATOM      2  N   UNL     1      -1.243   0.562   5.577  1.00  0.00    -0.352 N 
ATOM      3  C   UNL     1      -1.652   0.542   4.266  1.00  0.00     0.251 C 
ATOM      4  O   UNL     1      -1.542  -0.526   3.661  1.00  0.00    -0.269 OA
ATOM      5  H   UNL     1      -0.912  -0.313   5.885  1.00  0.00     0.163 HD
BRANCH   3   6
ATOM      6  C   UNL     1      -2.247   1.701   3.538  1.00  0.00     0.041 A 
ATOM      7  C   UNL     1      -3.639   2.462   1.663  1.00  0.00     0.101 A 
ATOM      8  C   UNL     1      -3.055   1.423   2.419  1.00  0.00     0.037 A 
ATOM      9  C   UNL     1      -3.540   3.777   2.107  1.00  0.00     0.061 A 
ATOM     10  C   UNL     1      -2.680   4.059   3.172  1.00  0.00     0.023 A 
ATOM     11  Cl  UNL     1      -4.380   5.129   1.452  1.00  0.00    -0.083 Cl
ATOM     12  C   UNL     1      -1.988   3.037   3.829  1.00  0.00     0.015 A 
BRANCH   7  13
ATOM     13  S   UNL     1      -4.417   2.013   0.139  1.00  0.00     0.242 S 
ATOM     14  O   UNL     1      -4.744   3.187  -0.640  1.00  0.00    -0.207 OA
ATOM     15  O   UNL     1      -5.439   1.042   0.450  1.00  0.00    -0.207 OA
BRANCH  13  16
ATOM     16  N   UNL     1      -3.252   1.212  -0.795  1.00  0.00    -0.208 NA
ATOM     17  H   UNL     1      -3.361   0.220  -0.582  1.00  0.00     0.141 HD
BRANCH  16  18
ATOM     18  C   UNL     1      -1.792   1.478  -0.722  1.00  0.00     0.067 C 
ATOM     19  C   UNL     1      -1.129   0.110  -0.958  1.00  0.00     0.025 C 
BRANCH  18  20
ATOM     20  C   UNL     1      -1.274   2.453  -1.798  1.00  0.00     0.022 C 
BRANCH  20  21
ATOM     21  C   UNL     1      -1.653   3.938  -1.653  1.00  0.00    -0.016 C 
ATOM     22  C   UNL     1      -1.131   4.569  -0.363  1.00  0.00     0.007 C 
ATOM     23  C   UNL     1      -1.106   4.738  -2.841  1.00  0.00     0.007 C 
ENDBRANCH  20  21
ENDBRANCH  18  20
ENDBRANCH  16  18
ENDBRANCH  13  16
ENDBRANCH   7  13
ENDBRANCH   3   6
ENDBRANCH   1   2
BRANCH   1  24
ATOM     24  C   UNL     1      -2.260   1.431   7.686  1.00  0.00     0.023 C 
BRANCH  24  25
ATOM     25  C   UNL     1      -2.042   0.307   8.698  1.00  0.00     0.023 C 
BRANCH  25  26
ATOM     26  C   UNL     1      -0.659   0.230   9.341  1.00  0.00     0.116 C 
BRANCH  26  27
ATOM     27  N   UNL     1      -0.186   1.484   9.907  1.00  0.00    -0.352 N 
ATOM     28  C   UNL     1       0.633   1.697  10.991  1.00  0.00     0.251 C 
ATOM     29  H   UNL     1      -0.497   2.298   9.448  1.00  0.00     0.163 HD
ATOM     30  O   UNL     1       0.901   2.843  11.338  1.00  0.00    -0.269 OA
BRANCH  28  31
ATOM     31  C   UNL     1       1.146   0.552  11.777  1.00  0.00     0.039 A 
ATOM     32  C   UNL     1       1.067   0.617  13.171  1.00  0.00     0.014 A 
ATOM     33  C   UNL     1       1.679  -0.583  11.160  1.00  0.00     0.014 A 
ATOM     34  C   UNL     1       1.444  -0.485  13.941  1.00  0.00     0.010 A 
ATOM     35  C   UNL     1       1.991  -1.707  11.924  1.00  0.00     0.010 A 
ATOM     36  C   UNL     1       1.868  -1.672  13.320  1.00  0.00    -0.014 A 
BRANCH  36  37
ATOM     37  C   UNL     1       2.148  -2.888  14.124  1.00  0.00     0.031 A 
ATOM     38  C   UNL     1       3.538  -3.453  14.203  1.00  0.00     0.074 A 
ATOM     39  C   UNL     1       1.130  -3.517  14.742  1.00  0.00     0.049 A 
ATOM     40  N   UNL     1       3.966  -4.505  14.854  1.00  0.00    -0.248 NA
ATOM     41  C   UNL     1       4.578  -2.764  13.426  1.00  0.00     0.031 C 
ATOM     42  C   UNL     1      -0.276  -3.112  14.680  1.00  0.00     0.029 A 
ATOM     43  N   UNL     1       1.119  -4.632  15.543  1.00  0.00    -0.354 N 
ATOM     44  C   UNL     1       5.318  -4.609  14.557  1.00  0.00     0.074 A 
ATOM     45  C   UNL     1       5.629  -3.545  13.627  1.00  0.00     0.031 C 
ATOM     46  C   UNL     1      -1.008  -3.946  15.436  1.00  0.00     0.029 A 
ATOM     47  C   UNL     1      -0.128  -4.955  16.018  1.00  0.00     0.049 A 
ATOM     48  H   UNL     1       1.928  -5.151  15.755  1.00  0.00     0.167 HD
ATOM     49  C   UNL     1       6.223  -5.497  15.035  1.00  0.00     0.037 A 
ATOM     50  C   UNL     1      -0.516  -5.946  16.843  1.00  0.00     0.037 A 
ATOM     51  C   UNL     1       5.919  -6.539  15.981  1.00  0.00     0.049 A 
ATOM     52  C   UNL     1       0.517  -6.884  17.401  1.00  0.00     0.074 A 
ATOM     53  C   UNL     1       6.778  -7.451  16.570  1.00  0.00     0.029 A 
ATOM     54  N   UNL     1       4.652  -6.804  16.480  1.00  0.00    -0.354 N 
ATOM     55  N   UNL     1       1.807  -6.923  17.176  1.00  0.00    -0.248 NA
ATOM     56  C   UNL     1       0.040  -7.907  18.343  1.00  0.00     0.031 C 
ATOM     57  C   UNL     1       6.026  -8.288  17.402  1.00  0.00     0.029 A 
ATOM     58  C   UNL     1       4.705  -7.872  17.363  1.00  0.00     0.049 A 
ATOM     59  H   UNL     1       3.836  -6.308  16.242  1.00  0.00     0.167 HD
ATOM     60  C   UNL     1       2.301  -7.951  17.966  1.00  0.00     0.074 A 
ATOM     61  C   UNL     1       1.173  -8.501  18.689  1.00  0.00     0.031 C 
ATOM     62  C   UNL     1       3.575  -8.401  18.081  1.00  0.00     0.037 A 
BRANCH  49  63
ATOM     63  C   UNL     1       7.637  -5.370  14.549  1.00  0.00     0.064 A 
ATOM     64  C   UNL     1       8.457  -4.304  14.952  1.00  0.00     0.173 A 
ATOM     65  C   UNL     1       8.190  -6.337  13.697  1.00  0.00     0.173 A 
ATOM     66  F   UNL     1       7.971  -3.346  15.755  1.00  0.00    -0.203 F 
ATOM     67  C   UNL     1       9.768  -4.197  14.497  1.00  0.00     0.198 A 
ATOM     68  C   UNL     1       9.511  -6.241  13.266  1.00  0.00     0.198 A 
ATOM     69  F   UNL     1       7.451  -7.379  13.286  1.00  0.00    -0.203 F 
ATOM     70  F   UNL     1      10.516  -3.144  14.856  1.00  0.00    -0.200 F 
ATOM     71  C   UNL     1      10.296  -5.168  13.660  1.00  0.00     0.200 A 
ATOM     72  F   UNL     1      10.024  -7.186  12.465  1.00  0.00    -0.200 F 
ATOM     73  F   UNL     1      11.560  -5.065  13.226  1.00  0.00    -0.200 F 
ENDBRANCH  49  63
BRANCH  50  74
ATOM     74  C   UNL     1      -1.942  -6.062  17.239  1.00  0.00     0.064 A 
ATOM     75  C   UNL     1      -2.355  -5.727  18.537  1.00  0.00     0.173 A 
ATOM     76  C   UNL     1      -2.918  -6.506  16.337  1.00  0.00     0.173 A 
ATOM     77  F   UNL     1      -1.452  -5.315  19.440  1.00  0.00    -0.203 F 
ATOM     78  C   UNL     1      -3.687  -5.850  18.923  1.00  0.00     0.198 A 
ATOM     79  C   UNL     1      -4.255  -6.606  16.716  1.00  0.00     0.198 A 
ATOM     80  F   UNL     1      -2.574  -6.831  15.082  1.00  0.00    -0.203 F 
ATOM     81  F   UNL     1      -4.047  -5.562  20.181  1.00  0.00    -0.200 F 
ATOM     82  C   UNL     1      -4.637  -6.285  18.011  1.00  0.00     0.200 A 
ATOM     83  F   UNL     1      -5.173  -7.014  15.830  1.00  0.00    -0.200 F 
ATOM     84  F   UNL     1      -5.920  -6.401  18.381  1.00  0.00    -0.200 F 
ENDBRANCH  50  74
BRANCH  62  85
ATOM     85  C   UNL     1       3.817  -9.521  19.048  1.00  0.00     0.064 A 
ATOM     86  C   UNL     1       3.396 -10.831  18.777  1.00  0.00     0.173 A 
ATOM     87  C   UNL     1       4.490  -9.282  20.256  1.00  0.00     0.173 A 
ATOM     88  F   UNL     1       2.734 -11.106  17.643  1.00  0.00    -0.203 F 
ATOM     89  C   UNL     1       3.614 -11.856  19.694  1.00  0.00     0.198 A 
ATOM     90  C   UNL     1       4.729 -10.314  21.158  1.00  0.00     0.198 A 
ATOM     91  F   UNL     1       4.917  -8.047  20.559  1.00  0.00    -0.203 F 
ATOM     92  F   UNL     1       3.157 -13.090  19.438  1.00  0.00    -0.200 F 
ATOM     93  C   UNL     1       4.284 -11.598  20.881  1.00  0.00     0.200 A 
ATOM     94  F   UNL     1       5.385 -10.065  22.300  1.00  0.00    -0.200 F 
ATOM     95  F   UNL     1       4.490 -12.585  21.763  1.00  0.00    -0.200 F 
ENDBRANCH  62  85
ENDBRANCH  36  37
ENDBRANCH  28  31
ENDBRANCH  26  27
ENDBRANCH  25  26
ENDBRANCH  24  25
ENDBRANCH   1  24
TORSDOF 16
