REMARK SMILES CC1=C([C@H](NC(=O)[C@@H]2[C@H](C)c3cc(F)ccc3N2C)C(=O)NCCCCNC(=O)c2ccc(-c3c4nc(c(-c5c(F)c(F)c(F)c(F)c5F)c5ccc([nH]5)c(-c5c(F)c(F)c(F)c(F)c5F)c5nc(c(-c6c(F)c(F)c(F)c(F)c6F)c6ccc3[nH]6)C=C5)C=C4)cc2)[C@@H](C)N=N1
REMARK SMILES IDX 24 1 23 2 22 3 20 4 21 5 4 7 3 8 1 9 2 10 96 11 93 12 95 13
REMARK SMILES IDX 94 14 5 15 6 16 7 18 8 19 9 20 18 21 11 22 10 23 17 24 19 25
REMARK SMILES IDX 12 26 16 27 13 28 15 29 14 30 25 31 26 32 27 33 28 34 29 36
REMARK SMILES IDX 30 37 31 38 92 39 32 40 91 41 33 42 34 43 35 44 85 45 36 46
REMARK SMILES IDX 90 47 84 48 86 49 37 50 89 51 83 52 82 53 38 55 70 56 50 57
REMARK SMILES IDX 69 58 51 59 54 60 68 61 87 62 52 63 53 64 67 66 88 67 55 68
REMARK SMILES IDX 39 69 40 70 48 71 41 72 42 73 46 74 49 75 43 76 44 77 47 78
REMARK SMILES IDX 45 79 71 80 72 81 80 82 73 83 74 84 78 85 81 86 75 87 76 88
REMARK SMILES IDX 79 89 77 90 56 91 57 92 65 93 58 94 59 95 63 96 66 97 60 98
REMARK SMILES IDX 61 99 64 100 62 101
REMARK H PARENT 22 6 5 17 27 35 86 54 54 65
REMARK Flexibility Score: inf
ROOT
ATOM      1  C   UNL     1      -0.675  -1.420   5.806  1.00  0.00     0.023 C 
ENDROOT
BRANCH   1   2
ATOM      2  C   UNL     1      -1.433  -0.180   5.339  1.00  0.00     0.116 C 
BRANCH   2   3
ATOM      3  N   UNL     1      -0.708   1.085   5.418  1.00  0.00    -0.354 N 
ATOM      4  C   UNL     1      -0.220   1.905   4.446  1.00  0.00     0.247 C 
ATOM      5  O   UNL     1       0.167   3.030   4.774  1.00  0.00    -0.272 OA
ATOM      6  H   UNL     1      -0.541   1.401   6.335  1.00  0.00     0.163 HD
BRANCH   4   7
ATOM      7  C   UNL     1      -0.315   1.520   2.975  1.00  0.00     0.202 C 
BRANCH   7   8
ATOM      8  C   UNL     1      -1.785   1.650   2.600  1.00  0.00     0.011 C 
ATOM      9  C   UNL     1      -2.174   0.399   0.382  1.00  0.00     0.069 C 
ATOM     10  C   UNL     1      -2.536   1.186   1.590  1.00  0.00     0.064 C 
ATOM     11  N   UNL     1      -3.861   1.539   1.694  1.00  0.00    -0.160 NA
ATOM     12  C   UNL     1      -2.788   2.410   3.460  1.00  0.00     0.156 C 
ATOM     13  N   UNL     1      -4.061   2.234   2.718  1.00  0.00    -0.181 NA
ATOM     14  C   UNL     1      -2.566   3.906   3.652  1.00  0.00     0.040 C 
ENDBRANCH   7   8
BRANCH   7  15
ATOM     15  N   UNL     1       0.249   0.176   2.845  1.00  0.00    -0.339 N 
ATOM     16  C   UNL     1       1.500  -0.305   3.201  1.00  0.00     0.244 C 
ATOM     17  H   UNL     1      -0.354  -0.490   2.442  1.00  0.00     0.164 HD
ATOM     18  O   UNL     1       1.688  -1.494   2.920  1.00  0.00    -0.273 OA
BRANCH  16  19
ATOM     19  C   UNL     1       2.590   0.572   3.954  1.00  0.00     0.178 C 
ATOM     20  C   UNL     1       4.090   0.242   3.600  1.00  0.00     0.050 C 
ATOM     21  N   UNL     1       2.493   0.430   5.461  1.00  0.00    -0.362 N 
ATOM     22  C   UNL     1       4.619  -0.349   4.878  1.00  0.00    -0.016 A 
ATOM     23  C   UNL     1       4.376  -0.646   2.399  1.00  0.00     0.015 C 
ATOM     24  C   UNL     1       3.651  -0.276   5.873  1.00  0.00     0.041 A 
ATOM     25  C   UNL     1       2.319   1.616   6.303  1.00  0.00     0.144 C 
ATOM     26  C   UNL     1       5.910  -0.775   5.174  1.00  0.00     0.045 A 
ATOM     27  C   UNL     1       3.936  -0.694   7.173  1.00  0.00     0.029 A 
ATOM     28  C   UNL     1       6.200  -1.154   6.483  1.00  0.00     0.123 A 
ATOM     29  C   UNL     1       5.225  -1.133   7.480  1.00  0.00     0.041 A 
ATOM     30  F   UNL     1       7.452  -1.510   6.804  1.00  0.00    -0.207 F 
ENDBRANCH  16  19
ENDBRANCH   7  15
ENDBRANCH   4   7
ENDBRANCH   2   3
ENDBRANCH   1   2
BRANCH   1  31
ATOM     31  C   UNL     1      -0.097  -1.425   7.219  1.00  0.00     0.023 C 
BRANCH  31  32
ATOM     32  C   UNL     1      -0.642  -0.414   8.211  1.00  0.00     0.116 C 
BRANCH  32  33
ATOM     33  N   UNL     1      -1.952  -0.705   8.755  1.00  0.00    -0.352 N 
ATOM     34  C   UNL     1      -2.335  -1.229   9.962  1.00  0.00     0.251 C 
ATOM     35  H   UNL     1      -2.699  -0.488   8.151  1.00  0.00     0.163 HD
ATOM     36  O   UNL     1      -3.533  -1.302  10.232  1.00  0.00    -0.269 OA
BRANCH  34  37
ATOM     37  C   UNL     1      -1.345  -1.836  10.872  1.00  0.00     0.039 A 
ATOM     38  C   UNL     1      -0.078  -1.299  11.104  1.00  0.00     0.014 A 
ATOM     39  C   UNL     1      -1.692  -3.065  11.434  1.00  0.00     0.014 A 
ATOM     40  C   UNL     1       0.928  -2.111  11.599  1.00  0.00     0.010 A 
ATOM     41  C   UNL     1      -0.717  -3.828  12.052  1.00  0.00     0.010 A 
ATOM     42  C   UNL     1       0.617  -3.407  12.011  1.00  0.00    -0.014 A 
BRANCH  42  43
ATOM     43  C   UNL     1       1.706  -4.289  12.441  1.00  0.00     0.031 A 
ATOM     44  C   UNL     1       2.566  -3.804  13.570  1.00  0.00     0.074 A 
ATOM     45  C   UNL     1       1.802  -5.549  11.965  1.00  0.00     0.049 A 
ATOM     46  N   UNL     1       3.855  -3.877  13.722  1.00  0.00    -0.248 NA
ATOM     47  C   UNL     1       1.877  -3.105  14.670  1.00  0.00     0.031 C 
ATOM     48  C   UNL     1       0.880  -6.244  11.057  1.00  0.00     0.029 A 
ATOM     49  N   UNL     1       2.670  -6.535  12.325  1.00  0.00    -0.354 N 
ATOM     50  C   UNL     1       4.122  -3.357  14.989  1.00  0.00     0.074 A 
ATOM     51  C   UNL     1       2.884  -2.821  15.493  1.00  0.00     0.031 C 
ATOM     52  C   UNL     1       1.071  -7.575  11.164  1.00  0.00     0.029 A 
ATOM     53  C   UNL     1       2.211  -7.809  12.031  1.00  0.00     0.049 A 
ATOM     54  H   UNL     1       3.539  -6.359  12.754  1.00  0.00     0.167 HD
ATOM     55  C   UNL     1       5.306  -3.513  15.644  1.00  0.00     0.037 A 
ATOM     56  C   UNL     1       2.667  -8.970  12.555  1.00  0.00     0.037 A 
ATOM     57  C   UNL     1       6.397  -3.830  14.776  1.00  0.00     0.049 A 
ATOM     58  C   UNL     1       4.001  -8.707  13.144  1.00  0.00     0.074 A 
ATOM     59  C   UNL     1       7.063  -3.158  13.770  1.00  0.00     0.029 A 
ATOM     60  N   UNL     1       6.819  -5.130  14.684  1.00  0.00    -0.354 N 
ATOM     61  N   UNL     1       5.071  -8.424  12.456  1.00  0.00    -0.248 NA
ATOM     62  C   UNL     1       4.063  -8.381  14.561  1.00  0.00     0.031 C 
ATOM     63  C   UNL     1       7.452  -4.166  12.841  1.00  0.00     0.029 A 
ATOM     64  C   UNL     1       7.003  -5.385  13.348  1.00  0.00     0.049 A 
ATOM     65  H   UNL     1       6.962  -5.758  15.429  1.00  0.00     0.167 HD
ATOM     66  C   UNL     1       5.784  -7.543  13.254  1.00  0.00     0.074 A 
ATOM     67  C   UNL     1       5.170  -7.638  14.573  1.00  0.00     0.031 C 
ATOM     68  C   UNL     1       6.626  -6.620  12.707  1.00  0.00     0.037 A 
BRANCH  55  69
ATOM     69  C   UNL     1       5.402  -3.591  17.141  1.00  0.00     0.064 A 
ATOM     70  C   UNL     1       6.609  -3.321  17.809  1.00  0.00     0.173 A 
ATOM     71  C   UNL     1       4.375  -4.161  17.925  1.00  0.00     0.173 A 
ATOM     72  F   UNL     1       7.664  -2.834  17.141  1.00  0.00    -0.203 F 
ATOM     73  C   UNL     1       6.771  -3.601  19.171  1.00  0.00     0.198 A 
ATOM     74  C   UNL     1       4.522  -4.392  19.290  1.00  0.00     0.198 A 
ATOM     75  F   UNL     1       3.233  -4.589  17.369  1.00  0.00    -0.203 F 
ATOM     76  F   UNL     1       7.959  -3.400  19.756  1.00  0.00    -0.200 F 
ATOM     77  C   UNL     1       5.725  -4.127  19.911  1.00  0.00     0.200 A 
ATOM     78  F   UNL     1       3.506  -4.926  19.983  1.00  0.00    -0.200 F 
ATOM     79  F   UNL     1       5.888  -4.421  21.207  1.00  0.00    -0.200 F 
ENDBRANCH  55  69
BRANCH  56  80
ATOM     80  C   UNL     1       1.882 -10.183  12.879  1.00  0.00     0.064 A 
ATOM     81  C   UNL     1       2.518 -11.415  13.088  1.00  0.00     0.173 A 
ATOM     82  C   UNL     1       0.524 -10.106  13.249  1.00  0.00     0.173 A 
ATOM     83  F   UNL     1       3.822 -11.556  12.808  1.00  0.00    -0.203 F 
ATOM     84  C   UNL     1       1.841 -12.502  13.650  1.00  0.00     0.198 A 
ATOM     85  C   UNL     1      -0.154 -11.195  13.796  1.00  0.00     0.198 A 
ATOM     86  F   UNL     1      -0.148  -8.948  13.176  1.00  0.00    -0.203 F 
ATOM     87  F   UNL     1       2.499 -13.644  13.894  1.00  0.00    -0.200 F 
ATOM     88  C   UNL     1       0.508 -12.389  14.010  1.00  0.00     0.200 A 
ATOM     89  F   UNL     1      -1.434 -11.060  14.172  1.00  0.00    -0.200 F 
ATOM     90  F   UNL     1      -0.125 -13.412  14.601  1.00  0.00    -0.200 F 
ENDBRANCH  56  80
BRANCH  68  91
ATOM     91  C   UNL     1       6.927  -6.743  11.241  1.00  0.00     0.064 A 
ATOM     92  C   UNL     1       5.956  -6.544  10.243  1.00  0.00     0.173 A 
ATOM     93  C   UNL     1       8.252  -6.915  10.826  1.00  0.00     0.173 A 
ATOM     94  F   UNL     1       4.690  -6.258  10.568  1.00  0.00    -0.203 F 
ATOM     95  C   UNL     1       6.289  -6.571   8.891  1.00  0.00     0.198 A 
ATOM     96  C   UNL     1       8.589  -6.905   9.474  1.00  0.00     0.198 A 
ATOM     97  F   UNL     1       9.230  -7.041  11.736  1.00  0.00    -0.203 F 
ATOM     98  F   UNL     1       5.340  -6.392   7.961  1.00  0.00    -0.200 F 
ATOM     99  C   UNL     1       7.608  -6.746   8.508  1.00  0.00     0.200 A 
ATOM    100  F   UNL     1       9.873  -7.021   9.107  1.00  0.00    -0.200 F 
ATOM    101  F   UNL     1       7.938  -6.730   7.209  1.00  0.00    -0.200 F 
ENDBRANCH  68  91
ENDBRANCH  42  43
ENDBRANCH  34  37
ENDBRANCH  32  33
ENDBRANCH  31  32
ENDBRANCH   1  31
TORSDOF 14
