REMARK SMILES Cc1ccc(C(=O)N2C[C@@H](C(=O)NCCCCNC(=O)c3ccc(-c4c5nc(c(-c6c(F)c(F)c(F)c(F)c6F)c6ccc([nH]6)c(-c6c(F)c(F)c(F)c(F)c6F)c6nc(c(-c7c(F)c(F)c(F)c(F)c7F)c7ccc4[nH]7)C=C6)C=C5)cc3)C[C@H](C(=O)N3CCOCC3)C2)cc1F
REMARK SMILES IDX 15 1 14 2 13 3 11 4 12 5 10 7 8 8 9 9 94 10 85 11 84 12 6 13
REMARK SMILES IDX 7 14 5 15 1 16 2 17 3 18 96 19 4 20 95 21 97 22 86 23 87 24
REMARK SMILES IDX 88 25 89 26 93 27 90 28 92 29 91 30 16 31 17 32 18 33 19 34
REMARK SMILES IDX 20 36 21 37 22 38 83 39 23 40 82 41 24 42 25 43 26 44 76 45
REMARK SMILES IDX 27 46 81 47 75 48 77 49 28 50 80 51 74 52 73 53 29 55 61 56
REMARK SMILES IDX 41 57 60 58 42 59 45 60 59 61 78 62 43 63 44 64 58 66 79 67
REMARK SMILES IDX 46 68 30 69 31 70 39 71 32 72 33 73 37 74 40 75 34 76 35 77
REMARK SMILES IDX 38 78 36 79 62 80 63 81 71 82 64 83 65 84 69 85 72 86 66 87
REMARK SMILES IDX 67 88 70 89 68 90 47 91 48 92 56 93 49 94 50 95 54 96 57 97
REMARK SMILES IDX 51 98 52 99 55 100 53 101
REMARK H PARENT 13 6 18 35 77 54 45 65
REMARK Flexibility Score: inf
ROOT
ATOM      1  C   UNL     1      -9.217   1.064   0.617  1.00  0.00     0.023 C 
ENDROOT
BRANCH   1   2
ATOM      2  C   UNL     1      -8.001   0.716   1.474  1.00  0.00     0.116 C 
BRANCH   2   3
ATOM      3  N   UNL     1      -8.203  -0.545   2.156  1.00  0.00    -0.356 N 
ATOM      4  C   UNL     1      -7.729  -1.780   1.853  1.00  0.00     0.224 C 
ATOM      5  O   UNL     1      -8.224  -2.749   2.432  1.00  0.00    -0.275 OA
ATOM      6  H   UNL     1      -8.768  -0.500   2.961  1.00  0.00     0.163 HD
BRANCH   4   7
ATOM      7  C   UNL     1      -6.601  -1.967   0.859  1.00  0.00     0.099 C 
ATOM      8  N   UNL     1      -4.275  -1.196   0.379  1.00  0.00    -0.337 N 
ATOM      9  C   UNL     1      -5.343  -1.277   1.362  1.00  0.00     0.133 C 
ATOM     10  C   UNL     1      -4.631  -0.749  -0.966  1.00  0.00     0.133 C 
ATOM     11  C   UNL     1      -5.826  -1.514  -1.565  1.00  0.00     0.099 C 
ATOM     12  C   UNL     1      -6.991  -1.690  -0.596  1.00  0.00     0.030 C 
BRANCH   8  13
ATOM     13  C   UNL     1      -2.980  -1.341   0.868  1.00  0.00     0.254 C 
ATOM     14  O   UNL     1      -2.724  -2.019   1.862  1.00  0.00    -0.269 OA
BRANCH  13  15
ATOM     15  C   UNL     1      -1.859  -0.570   0.289  1.00  0.00     0.042 A 
ATOM     16  C   UNL     1       1.701   1.784  -0.218  1.00  0.00     0.047 C 
ATOM     17  C   UNL     1       0.442   0.974  -0.136  1.00  0.00    -0.015 A 
ATOM     18  C   UNL     1      -0.816   1.587  -0.084  1.00  0.00     0.007 A 
ATOM     19  C   UNL     1       0.520  -0.418  -0.028  1.00  0.00     0.126 A 
ATOM     20  C   UNL     1      -1.965   0.819   0.134  1.00  0.00     0.014 A 
ATOM     21  C   UNL     1      -0.612  -1.192   0.190  1.00  0.00     0.053 A 
ATOM     22  F   UNL     1       1.717  -1.021  -0.069  1.00  0.00    -0.207 F 
ENDBRANCH  13  15
ENDBRANCH   8  13
BRANCH  11  23
ATOM     23  C   UNL     1      -5.315  -2.707  -2.382  1.00  0.00     0.227 C 
ATOM     24  O   UNL     1      -5.056  -2.513  -3.576  1.00  0.00    -0.275 OA
ATOM     25  N   UNL     1      -4.899  -3.858  -1.766  1.00  0.00    -0.338 N 
ATOM     26  C   UNL     1      -5.624  -4.695  -0.810  1.00  0.00     0.148 C 
ATOM     27  C   UNL     1      -3.643  -4.470  -2.190  1.00  0.00     0.148 C 
ATOM     28  C   UNL     1      -4.730  -4.995   0.401  1.00  0.00     0.181 C 
ATOM     29  C   UNL     1      -2.794  -4.747  -0.944  1.00  0.00     0.181 C 
ATOM     30  O   UNL     1      -3.496  -5.604  -0.024  1.00  0.00    -0.378 OA
ENDBRANCH  11  23
ENDBRANCH   4   7
ENDBRANCH   2   3
ENDBRANCH   1   2
BRANCH   1  31
ATOM     31  C   UNL     1     -10.512   1.274   1.406  1.00  0.00     0.023 C 
BRANCH  31  32
ATOM     32  C   UNL     1     -10.364   2.294   2.515  1.00  0.00     0.116 C 
BRANCH  32  33
ATOM     33  N   UNL     1      -9.934   3.591   1.997  1.00  0.00    -0.352 N 
ATOM     34  C   UNL     1      -9.880   4.784   2.684  1.00  0.00     0.251 C 
ATOM     35  H   UNL     1      -9.653   3.616   1.054  1.00  0.00     0.163 HD
ATOM     36  O   UNL     1      -9.836   5.859   2.113  1.00  0.00    -0.269 OA
BRANCH  34  37
ATOM     37  C   UNL     1      -9.823   4.696   4.145  1.00  0.00     0.039 A 
ATOM     38  C   UNL     1     -10.614   5.499   4.974  1.00  0.00     0.014 A 
ATOM     39  C   UNL     1      -8.952   3.741   4.659  1.00  0.00     0.014 A 
ATOM     40  C   UNL     1     -10.538   5.315   6.351  1.00  0.00     0.010 A 
ATOM     41  C   UNL     1      -9.018   3.436   5.980  1.00  0.00     0.010 A 
ATOM     42  C   UNL     1      -9.731   4.284   6.832  1.00  0.00    -0.014 A 
BRANCH  42  43
ATOM     43  C   UNL     1      -9.447   4.021   8.227  1.00  0.00     0.031 A 
ATOM     44  C   UNL     1     -10.485   3.480   9.103  1.00  0.00     0.074 A 
ATOM     45  C   UNL     1      -8.136   4.098   8.545  1.00  0.00     0.049 A 
ATOM     46  N   UNL     1     -10.467   3.574  10.383  1.00  0.00    -0.248 NA
ATOM     47  C   UNL     1     -11.669   2.799   8.592  1.00  0.00     0.031 C 
ATOM     48  C   UNL     1      -7.402   3.574   9.681  1.00  0.00     0.029 A 
ATOM     49  N   UNL     1      -7.166   4.813   7.820  1.00  0.00    -0.354 N 
ATOM     50  C   UNL     1     -11.397   2.678  10.867  1.00  0.00     0.074 A 
ATOM     51  C   UNL     1     -12.224   2.359   9.728  1.00  0.00     0.031 C 
ATOM     52  C   UNL     1      -6.223   4.223   9.762  1.00  0.00     0.029 A 
ATOM     53  C   UNL     1      -6.245   5.285   8.763  1.00  0.00     0.049 A 
ATOM     54  H   UNL     1      -7.140   4.953   6.846  1.00  0.00     0.167 HD
ATOM     55  C   UNL     1     -11.204   2.173  12.122  1.00  0.00     0.037 A 
ATOM     56  C   UNL     1      -6.222   6.628   9.018  1.00  0.00     0.037 A 
ATOM     57  C   UNL     1     -10.008   2.785  12.714  1.00  0.00     0.049 A 
ATOM     58  C   UNL     1      -6.666   6.909  10.428  1.00  0.00     0.074 A 
ATOM     59  C   UNL     1      -8.698   2.340  12.804  1.00  0.00     0.029 A 
ATOM     60  N   UNL     1      -9.976   4.157  12.950  1.00  0.00    -0.354 N 
ATOM     61  N   UNL     1      -7.524   6.172  11.082  1.00  0.00    -0.248 NA
ATOM     62  C   UNL     1      -6.117   7.995  11.227  1.00  0.00     0.031 C 
ATOM     63  C   UNL     1      -7.867   3.471  13.018  1.00  0.00     0.029 A 
ATOM     64  C   UNL     1      -8.671   4.599  13.074  1.00  0.00     0.049 A 
ATOM     65  H   UNL     1     -10.771   4.732  13.018  1.00  0.00     0.167 HD
ATOM     66  C   UNL     1      -7.603   6.620  12.372  1.00  0.00     0.074 A 
ATOM     67  C   UNL     1      -6.714   7.769  12.409  1.00  0.00     0.031 C 
ATOM     68  C   UNL     1      -8.368   6.002  13.320  1.00  0.00     0.037 A 
BRANCH  55  69
ATOM     69  C   UNL     1     -11.848   0.920  12.696  1.00  0.00     0.064 A 
ATOM     70  C   UNL     1     -11.246   0.247  13.788  1.00  0.00     0.173 A 
ATOM     71  C   UNL     1     -13.017   0.299  12.216  1.00  0.00     0.173 A 
ATOM     72  F   UNL     1     -10.178   0.752  14.420  1.00  0.00    -0.203 F 
ATOM     73  C   UNL     1     -11.717  -0.972  14.286  1.00  0.00     0.198 A 
ATOM     74  C   UNL     1     -13.475  -0.936  12.695  1.00  0.00     0.198 A 
ATOM     75  F   UNL     1     -13.800   0.879  11.303  1.00  0.00    -0.203 F 
ATOM     76  F   UNL     1     -11.087  -1.558  15.313  1.00  0.00    -0.200 F 
ATOM     77  C   UNL     1     -12.821  -1.576  13.725  1.00  0.00     0.200 A 
ATOM     78  F   UNL     1     -14.566  -1.495  12.151  1.00  0.00    -0.200 F 
ATOM     79  F   UNL     1     -13.267  -2.750  14.191  1.00  0.00    -0.200 F 
ENDBRANCH  55  69
BRANCH  56  80
ATOM     80  C   UNL     1      -6.585   7.433   7.803  1.00  0.00     0.064 A 
ATOM     81  C   UNL     1      -5.768   7.281   6.660  1.00  0.00     0.173 A 
ATOM     82  C   UNL     1      -7.883   7.924   7.599  1.00  0.00     0.173 A 
ATOM     83  F   UNL     1      -4.512   6.824   6.793  1.00  0.00    -0.203 F 
ATOM     84  C   UNL     1      -6.280   7.436   5.373  1.00  0.00     0.198 A 
ATOM     85  C   UNL     1      -8.381   8.112   6.304  1.00  0.00     0.198 A 
ATOM     86  F   UNL     1      -8.710   8.114   8.636  1.00  0.00    -0.203 F 
ATOM     87  F   UNL     1      -5.524   7.119   4.311  1.00  0.00    -0.200 F 
ATOM     88  C   UNL     1      -7.597   7.821   5.196  1.00  0.00     0.200 A 
ATOM     89  F   UNL     1      -9.656   8.491   6.127  1.00  0.00    -0.200 F 
ATOM     90  F   UNL     1      -8.118   7.877   3.963  1.00  0.00    -0.200 F 
ENDBRANCH  56  80
BRANCH  68  91
ATOM     91  C   UNL     1      -8.796   6.624  14.627  1.00  0.00     0.064 A 
ATOM     92  C   UNL     1      -8.858   8.010  14.845  1.00  0.00     0.173 A 
ATOM     93  C   UNL     1      -9.320   5.823  15.673  1.00  0.00     0.173 A 
ATOM     94  F   UNL     1      -8.541   8.887  13.884  1.00  0.00    -0.203 F 
ATOM     95  C   UNL     1      -9.315   8.551  16.047  1.00  0.00     0.198 A 
ATOM     96  C   UNL     1      -9.850   6.370  16.838  1.00  0.00     0.198 A 
ATOM     97  F   UNL     1      -9.370   4.486  15.585  1.00  0.00    -0.203 F 
ATOM     98  F   UNL     1      -9.288   9.879  16.225  1.00  0.00    -0.200 F 
ATOM     99  C   UNL     1      -9.822   7.733  17.038  1.00  0.00     0.200 A 
ATOM    100  F   UNL     1     -10.408   5.567  17.755  1.00  0.00    -0.200 F 
ATOM    101  F   UNL     1     -10.307   8.260  18.169  1.00  0.00    -0.200 F 
ENDBRANCH  68  91
ENDBRANCH  42  43
ENDBRANCH  34  37
ENDBRANCH  32  33
ENDBRANCH  31  32
ENDBRANCH   1  31
TORSDOF 14
