REMARK SMILES Cc1ccc(NC(=O)c2ccccc2NC(=O)[C@H]2CCCC[C@H]2C(=O)NCCCCNC(=O)c2ccc(-c3c4nc(c(-c5c(F)c(F)c(F)c(F)c5F)c5ccc([nH]5)c(-c5c(F)c(F)c(F)c(F)c5F)c5nc(c(-c6c(F)c(F)c(F)c(F)c6F)c6ccc3[nH]6)C=C5)C=C4)cc2)cc1
REMARK SMILES IDX 27 1 26 2 24 3 25 4 23 6 18 7 19 8 20 9 22 10 21 11 16 12
REMARK SMILES IDX 15 13 17 15 14 16 9 17 10 18 11 19 13 20 12 21 7 22 6 23
REMARK SMILES IDX 8 25 5 26 1 27 2 28 3 29 98 30 4 31 97 32 28 33 29 34 30 35
REMARK SMILES IDX 31 36 32 37 33 39 34 40 35 41 96 42 36 43 95 44 37 45 38 46
REMARK SMILES IDX 39 47 89 48 40 49 94 50 88 51 90 52 41 53 93 54 87 55 86 56
REMARK SMILES IDX 42 58 74 59 54 60 73 61 55 62 58 63 72 64 91 65 56 66 57 67
REMARK SMILES IDX 71 69 92 70 59 71 43 72 44 73 52 74 45 75 46 76 50 77 53 78
REMARK SMILES IDX 47 79 48 80 51 81 49 82 75 83 76 84 84 85 77 86 78 87 82 88
REMARK SMILES IDX 85 89 79 90 80 91 83 92 81 93 60 94 61 95 69 96 62 97 63 98
REMARK SMILES IDX 67 99 70 100 64 101 65 102 68 103 66 104
REMARK H PARENT 26 5 15 14 6 24 31 38 90 57 58 68
REMARK Flexibility Score: inf
ROOT
ATOM      1  C   UNL     1       0.701  -0.754   6.926  1.00  0.00     0.116 C 
ENDROOT
BRANCH   1   2
ATOM      2  N   UNL     1      -0.621  -0.289   6.531  1.00  0.00    -0.356 N 
ATOM      3  C   UNL     1      -1.559  -0.751   5.671  1.00  0.00     0.223 C 
ATOM      4  O   UNL     1      -2.506   0.018   5.455  1.00  0.00    -0.275 OA
ATOM      5  H   UNL     1      -0.890   0.541   6.987  1.00  0.00     0.163 HD
BRANCH   3   6
ATOM      6  C   UNL     1      -1.534  -2.097   4.939  1.00  0.00     0.091 C 
ATOM      7  C   UNL     1      -0.800  -2.070   3.581  1.00  0.00     0.091 C 
ATOM      8  C   UNL     1      -1.011  -3.391   2.814  1.00  0.00     0.014 C 
ATOM      9  C   UNL     1      -0.783  -4.643   3.671  1.00  0.00     0.001 C 
ATOM     10  C   UNL     1      -1.311  -3.351   5.785  1.00  0.00     0.014 C 
ATOM     11  C   UNL     1      -1.589  -4.614   4.967  1.00  0.00     0.001 C 
BRANCH   7  12
ATOM     12  C   UNL     1       0.688  -1.855   3.717  1.00  0.00     0.228 C 
ATOM     13  N   UNL     1       1.389  -0.869   3.104  1.00  0.00    -0.325 N 
ATOM     14  H   UNL     1       2.313  -0.846   3.442  1.00  0.00     0.169 HD
ATOM     15  O   UNL     1       1.344  -2.582   4.474  1.00  0.00    -0.274 OA
BRANCH  13  16
ATOM     16  C   UNL     1       1.199   0.129   2.133  1.00  0.00     0.054 A 
ATOM     17  C   UNL     1       2.162   1.167   1.981  1.00  0.00     0.063 A 
ATOM     18  C   UNL     1       1.905   2.211   1.065  1.00  0.00     0.016 A 
ATOM     19  C   UNL     1       0.753   2.228   0.286  1.00  0.00     0.001 A 
ATOM     20  C   UNL     1       0.084   0.132   1.286  1.00  0.00     0.027 A 
ATOM     21  C   UNL     1      -0.148   1.180   0.388  1.00  0.00     0.002 A 
BRANCH  17  22
ATOM     22  C   UNL     1       3.373   1.427   2.822  1.00  0.00     0.257 C 
ATOM     23  N   UNL     1       4.284   0.505   3.280  1.00  0.00    -0.322 N 
ATOM     24  H   UNL     1       4.941   0.899   3.899  1.00  0.00     0.170 HD
ATOM     25  O   UNL     1       3.554   2.592   3.200  1.00  0.00    -0.269 OA
BRANCH  23  26
ATOM     26  C   UNL     1       4.495  -0.861   3.072  1.00  0.00     0.041 A 
ATOM     27  C   UNL     1       4.069  -5.117   3.272  1.00  0.00     0.044 C 
ATOM     28  C   UNL     1       4.360  -3.651   3.146  1.00  0.00    -0.051 A 
ATOM     29  C   UNL     1       3.967  -2.950   1.998  1.00  0.00     0.005 A 
ATOM     30  C   UNL     1       4.954  -2.953   4.199  1.00  0.00     0.005 A 
ATOM     31  C   UNL     1       4.049  -1.556   1.953  1.00  0.00     0.026 A 
ATOM     32  C   UNL     1       5.048  -1.563   4.150  1.00  0.00     0.026 A 
ENDBRANCH  23  26
ENDBRANCH  17  22
ENDBRANCH  13  16
ENDBRANCH   7  12
ENDBRANCH   3   6
ENDBRANCH   1   2
BRANCH   1  33
ATOM     33  C   UNL     1       1.794  -0.066   6.105  1.00  0.00     0.023 C 
BRANCH  33  34
ATOM     34  C   UNL     1       2.300   1.279   6.592  1.00  0.00     0.023 C 
BRANCH  34  35
ATOM     35  C   UNL     1       3.217   1.189   7.788  1.00  0.00     0.116 C 
BRANCH  35  36
ATOM     36  N   UNL     1       4.603   0.798   7.506  1.00  0.00    -0.352 N 
ATOM     37  C   UNL     1       5.642   0.537   8.386  1.00  0.00     0.251 C 
ATOM     38  H   UNL     1       4.827   0.708   6.551  1.00  0.00     0.163 HD
ATOM     39  O   UNL     1       6.737   0.240   7.978  1.00  0.00    -0.269 OA
BRANCH  37  40
ATOM     40  C   UNL     1       5.338   0.477   9.851  1.00  0.00     0.039 A 
ATOM     41  C   UNL     1       5.763  -0.651  10.561  1.00  0.00     0.014 A 
ATOM     42  C   UNL     1       4.370   1.310  10.388  1.00  0.00     0.014 A 
ATOM     43  C   UNL     1       4.985  -1.106  11.623  1.00  0.00     0.010 A 
ATOM     44  C   UNL     1       3.492   0.758  11.294  1.00  0.00     0.010 A 
ATOM     45  C   UNL     1       3.764  -0.485  11.874  1.00  0.00    -0.014 A 
BRANCH  45  46
ATOM     46  C   UNL     1       2.665  -1.118  12.603  1.00  0.00     0.031 A 
ATOM     47  C   UNL     1       2.111  -0.486  13.825  1.00  0.00     0.074 A 
ATOM     48  C   UNL     1       2.063  -2.218  12.089  1.00  0.00     0.049 A 
ATOM     49  N   UNL     1       1.423  -1.113  14.719  1.00  0.00    -0.248 NA
ATOM     50  C   UNL     1       2.320   0.917  14.161  1.00  0.00     0.031 C 
ATOM     51  C   UNL     1       0.776  -2.784  12.493  1.00  0.00     0.029 A 
ATOM     52  N   UNL     1       2.588  -3.166  11.190  1.00  0.00    -0.354 N 
ATOM     53  C   UNL     1       0.881  -0.181  15.578  1.00  0.00     0.074 A 
ATOM     54  C   UNL     1       1.506   1.065  15.208  1.00  0.00     0.031 C 
ATOM     55  C   UNL     1       0.727  -4.070  12.114  1.00  0.00     0.029 A 
ATOM     56  C   UNL     1       2.028  -4.410  11.572  1.00  0.00     0.049 A 
ATOM     57  H   UNL     1       3.215  -2.999  10.450  1.00  0.00     0.167 HD
ATOM     58  C   UNL     1      -0.120  -0.560  16.426  1.00  0.00     0.037 A 
ATOM     59  C   UNL     1       2.803  -5.446  12.003  1.00  0.00     0.037 A 
ATOM     60  C   UNL     1      -0.369  -1.997  16.326  1.00  0.00     0.049 A 
ATOM     61  C   UNL     1       2.500  -5.904  13.410  1.00  0.00     0.074 A 
ATOM     62  C   UNL     1      -1.328  -2.742  15.659  1.00  0.00     0.029 A 
ATOM     63  N   UNL     1       0.617  -2.893  16.726  1.00  0.00    -0.354 N 
ATOM     64  N   UNL     1       1.808  -5.205  14.266  1.00  0.00    -0.248 NA
ATOM     65  C   UNL     1       2.990  -7.156  13.982  1.00  0.00     0.031 C 
ATOM     66  C   UNL     1      -0.895  -4.090  15.627  1.00  0.00     0.029 A 
ATOM     67  C   UNL     1       0.320  -4.168  16.285  1.00  0.00     0.049 A 
ATOM     68  H   UNL     1       1.415  -2.652  17.249  1.00  0.00     0.167 HD
ATOM     69  C   UNL     1       1.795  -5.846  15.477  1.00  0.00     0.074 A 
ATOM     70  C   UNL     1       2.523  -7.077  15.240  1.00  0.00     0.031 C 
ATOM     71  C   UNL     1       1.204  -5.286  16.575  1.00  0.00     0.037 A 
BRANCH  58  72
ATOM     72  C   UNL     1      -1.060   0.394  17.142  1.00  0.00     0.064 A 
ATOM     73  C   UNL     1      -2.358  -0.022  17.520  1.00  0.00     0.173 A 
ATOM     74  C   UNL     1      -0.779   1.741  17.437  1.00  0.00     0.173 A 
ATOM     75  F   UNL     1      -2.739  -1.302  17.429  1.00  0.00    -0.203 F 
ATOM     76  C   UNL     1      -3.322   0.862  18.015  1.00  0.00     0.198 A 
ATOM     77  C   UNL     1      -1.758   2.639  17.878  1.00  0.00     0.198 A 
ATOM     78  F   UNL     1       0.465   2.225  17.384  1.00  0.00    -0.203 F 
ATOM     79  F   UNL     1      -4.538   0.404  18.343  1.00  0.00    -0.200 F 
ATOM     80  C   UNL     1      -3.035   2.203  18.154  1.00  0.00     0.200 A 
ATOM     81  F   UNL     1      -1.444   3.933  18.042  1.00  0.00    -0.200 F 
ATOM     82  F   UNL     1      -3.969   3.060  18.585  1.00  0.00    -0.200 F 
ENDBRANCH  58  72
BRANCH  59  83
ATOM     83  C   UNL     1       4.138  -5.487  11.357  1.00  0.00     0.064 A 
ATOM     84  C   UNL     1       4.199  -5.782   9.982  1.00  0.00     0.173 A 
ATOM     85  C   UNL     1       5.250  -4.870  11.939  1.00  0.00     0.173 A 
ATOM     86  F   UNL     1       3.157  -6.376   9.379  1.00  0.00    -0.203 F 
ATOM     87  C   UNL     1       5.276  -5.369   9.200  1.00  0.00     0.198 A 
ATOM     88  C   UNL     1       6.331  -4.463  11.153  1.00  0.00     0.198 A 
ATOM     89  F   UNL     1       5.239  -4.540  13.238  1.00  0.00    -0.203 F 
ATOM     90  F   UNL     1       5.256  -5.568   7.874  1.00  0.00    -0.200 F 
ATOM     91  C   UNL     1       6.326  -4.680   9.782  1.00  0.00     0.200 A 
ATOM     92  F   UNL     1       7.332  -3.764  11.708  1.00  0.00    -0.200 F 
ATOM     93  F   UNL     1       7.312  -4.189   9.018  1.00  0.00    -0.200 F 
ENDBRANCH  59  83
BRANCH  71  94
ATOM     94  C   UNL     1       1.328  -5.765  18.002  1.00  0.00     0.064 A 
ATOM     95  C   UNL     1       2.439  -6.460  18.506  1.00  0.00     0.173 A 
ATOM     96  C   UNL     1       0.360  -5.389  18.967  1.00  0.00     0.173 A 
ATOM     97  F   UNL     1       3.479  -6.775  17.722  1.00  0.00    -0.203 F 
ATOM     98  C   UNL     1       2.548  -6.803  19.857  1.00  0.00     0.198 A 
ATOM     99  C   UNL     1       0.500  -5.680  20.323  1.00  0.00     0.198 A 
ATOM    100  F   UNL     1      -0.739  -4.700  18.625  1.00  0.00    -0.203 F 
ATOM    101  F   UNL     1       3.611  -7.501  20.280  1.00  0.00    -0.200 F 
ATOM    102  C   UNL     1       1.587  -6.402  20.767  1.00  0.00     0.200 A 
ATOM    103  F   UNL     1      -0.415  -5.238  21.198  1.00  0.00    -0.200 F 
ATOM    104  F   UNL     1       1.721  -6.690  22.068  1.00  0.00    -0.200 F 
ENDBRANCH  71  94
ENDBRANCH  45  46
ENDBRANCH  37  40
ENDBRANCH  35  36
ENDBRANCH  34  35
ENDBRANCH  33  34
ENDBRANCH   1  33
TORSDOF 15
