REMARK SMILES O=C(NCCCCNC(=O)[C@@H]1[C@H](C(=O)Nc2ccc(Cn3cncn3)cc2)[C@@H]2C=C[C@H]1CC2)c1ccc(-c2c3nc(c(-c4c(F)c(F)c(F)c(F)c4F)c4ccc([nH]4)c(-c4c(F)c(F)c(F)c(F)c4F)c4nc(c(-c5c(F)c(F)c(F)c(F)c5F)c5ccc2[nH]5)C=C4)C=C3)cc1
REMARK SMILES IDX 6 1 5 2 4 3 3 4 1 5 2 6 34 8 35 9 96 10 36 11 95 12 37 13
REMARK SMILES IDX 38 14 39 15 89 16 40 17 94 18 88 19 90 20 41 21 93 22 87 23
REMARK SMILES IDX 86 24 42 26 74 27 54 28 73 29 55 30 58 31 72 32 91 33 56 34
REMARK SMILES IDX 57 35 71 37 92 38 59 39 43 40 44 41 52 42 45 43 46 44 50 45
REMARK SMILES IDX 53 46 47 47 48 48 51 49 49 50 75 51 76 52 84 53 77 54 78 55
REMARK SMILES IDX 82 56 85 57 79 58 80 59 83 60 81 61 60 62 61 63 69 64 62 65
REMARK SMILES IDX 63 66 67 67 70 68 64 69 65 70 68 71 66 72 7 73 8 74 9 75
REMARK SMILES IDX 10 77 11 78 12 79 31 80 28 81 30 82 32 83 29 84 33 85 13 86
REMARK SMILES IDX 14 87 15 88 16 90 17 91 27 92 18 93 26 94 19 95 20 96 21 97
REMARK SMILES IDX 22 98 25 99 23 100 24 101
REMARK H PARENT 3 7 90 25 58 36 8 76 15 89
REMARK Flexibility Score: inf
ROOT
ATOM      1  C   UNL     1       3.994   3.517   0.123  1.00  0.00     0.023 C 
ENDROOT
BRANCH   1   2
ATOM      2  C   UNL     1       4.652   2.253  -0.466  1.00  0.00     0.023 C 
BRANCH   2   3
ATOM      3  C   UNL     1       4.490   0.978   0.359  1.00  0.00     0.116 C 
BRANCH   3   4
ATOM      4  N   UNL     1       3.114   0.683   0.696  1.00  0.00    -0.352 N 
ATOM      5  O   UNL     1       1.017   0.032   0.732  1.00  0.00    -0.269 OA
ATOM      6  C   UNL     1       2.059   0.079   0.073  1.00  0.00     0.251 C 
ATOM      7  H   UNL     1       2.880   0.996   1.600  1.00  0.00     0.163 HD
BRANCH   6   8
ATOM      8  C   UNL     1       2.061  -0.511  -1.299  1.00  0.00     0.039 A 
ATOM      9  C   UNL     1       3.163  -0.643  -2.143  1.00  0.00     0.014 A 
ATOM     10  C   UNL     1       0.820  -1.000  -1.757  1.00  0.00     0.014 A 
ATOM     11  C   UNL     1       3.029  -1.240  -3.403  1.00  0.00     0.010 A 
ATOM     12  C   UNL     1       0.683  -1.602  -3.010  1.00  0.00     0.010 A 
ATOM     13  C   UNL     1       1.790  -1.717  -3.846  1.00  0.00    -0.014 A 
BRANCH  13  14
ATOM     14  C   UNL     1       1.721  -2.378  -5.156  1.00  0.00     0.031 A 
ATOM     15  C   UNL     1       2.472  -3.663  -5.330  1.00  0.00     0.074 A 
ATOM     16  C   UNL     1       0.903  -2.009  -6.163  1.00  0.00     0.049 A 
ATOM     17  N   UNL     1       3.353  -3.970  -6.232  1.00  0.00    -0.248 NA
ATOM     18  C   UNL     1       2.171  -4.755  -4.394  1.00  0.00     0.031 C 
ATOM     19  C   UNL     1      -0.183  -1.029  -6.139  1.00  0.00     0.029 A 
ATOM     20  N   UNL     1       0.833  -2.529  -7.427  1.00  0.00    -0.354 N 
ATOM     21  C   UNL     1       3.635  -5.326  -6.061  1.00  0.00     0.074 A 
ATOM     22  C   UNL     1       2.912  -5.749  -4.887  1.00  0.00     0.031 C 
ATOM     23  C   UNL     1      -0.922  -1.161  -7.264  1.00  0.00     0.029 A 
ATOM     24  C   UNL     1      -0.282  -2.130  -8.141  1.00  0.00     0.049 A 
ATOM     25  H   UNL     1       1.516  -3.134  -7.796  1.00  0.00     0.167 HD
ATOM     26  C   UNL     1       4.352  -6.058  -6.960  1.00  0.00     0.037 A 
ATOM     27  C   UNL     1      -0.684  -2.591  -9.348  1.00  0.00     0.037 A 
ATOM     28  C   UNL     1       5.114  -5.240  -7.858  1.00  0.00     0.049 A 
ATOM     29  C   UNL     1       0.466  -3.236 -10.020  1.00  0.00     0.074 A 
ATOM     30  C   UNL     1       6.132  -4.318  -7.714  1.00  0.00     0.029 A 
ATOM     31  N   UNL     1       4.706  -5.125  -9.162  1.00  0.00    -0.354 N 
ATOM     32  N   UNL     1       1.493  -2.605 -10.514  1.00  0.00    -0.248 NA
ATOM     33  C   UNL     1       0.615  -4.679  -9.905  1.00  0.00     0.031 C 
ATOM     34  C   UNL     1       5.947  -3.383  -8.775  1.00  0.00     0.029 A 
ATOM     35  C   UNL     1       4.821  -3.798  -9.486  1.00  0.00     0.049 A 
ATOM     36  H   UNL     1       4.392  -5.851  -9.748  1.00  0.00     0.167 HD
ATOM     37  C   UNL     1       2.543  -3.500 -10.400  1.00  0.00     0.074 A 
ATOM     38  C   UNL     1       1.919  -4.793 -10.164  1.00  0.00     0.031 C 
ATOM     39  C   UNL     1       3.824  -3.064 -10.226  1.00  0.00     0.037 A 
BRANCH  26  40
ATOM     40  C   UNL     1       4.210  -7.542  -7.170  1.00  0.00     0.064 A 
ATOM     41  C   UNL     1       5.220  -8.268  -7.832  1.00  0.00     0.173 A 
ATOM     42  C   UNL     1       2.993  -8.226  -6.971  1.00  0.00     0.173 A 
ATOM     43  F   UNL     1       6.400  -7.695  -8.115  1.00  0.00    -0.203 F 
ATOM     44  C   UNL     1       5.016  -9.575  -8.284  1.00  0.00     0.198 A 
ATOM     45  C   UNL     1       2.808  -9.547  -7.381  1.00  0.00     0.198 A 
ATOM     46  F   UNL     1       1.921  -7.604  -6.463  1.00  0.00    -0.203 F 
ATOM     47  F   UNL     1       5.973 -10.194  -8.991  1.00  0.00    -0.200 F 
ATOM     48  C   UNL     1       3.812 -10.215  -8.055  1.00  0.00     0.200 A 
ATOM     49  F   UNL     1       1.626 -10.145  -7.174  1.00  0.00    -0.200 F 
ATOM     50  F   UNL     1       3.601 -11.453  -8.521  1.00  0.00    -0.200 F 
ENDBRANCH  26  40
BRANCH  27  51
ATOM     51  C   UNL     1      -2.057  -2.681  -9.889  1.00  0.00     0.064 A 
ATOM     52  C   UNL     1      -2.296  -2.753 -11.270  1.00  0.00     0.173 A 
ATOM     53  C   UNL     1      -3.149  -2.956  -9.044  1.00  0.00     0.173 A 
ATOM     54  F   UNL     1      -1.296  -2.554 -12.140  1.00  0.00    -0.203 F 
ATOM     55  C   UNL     1      -3.554  -3.091 -11.777  1.00  0.00     0.198 A 
ATOM     56  C   UNL     1      -4.407  -3.283  -9.551  1.00  0.00     0.198 A 
ATOM     57  F   UNL     1      -2.993  -3.000  -7.713  1.00  0.00    -0.203 F 
ATOM     58  F   UNL     1      -3.732  -3.205 -13.100  1.00  0.00    -0.200 F 
ATOM     59  C   UNL     1      -4.606  -3.362 -10.917  1.00  0.00     0.200 A 
ATOM     60  F   UNL     1      -5.407  -3.577  -8.709  1.00  0.00    -0.200 F 
ATOM     61  F   UNL     1      -5.798  -3.736 -11.402  1.00  0.00    -0.200 F 
ENDBRANCH  27  51
BRANCH  39  62
ATOM     62  C   UNL     1       4.117  -1.622 -10.517  1.00  0.00     0.064 A 
ATOM     63  C   UNL     1       3.552  -0.557  -9.794  1.00  0.00     0.173 A 
ATOM     64  C   UNL     1       5.105  -1.313 -11.461  1.00  0.00     0.173 A 
ATOM     65  F   UNL     1       2.684  -0.784  -8.800  1.00  0.00    -0.203 F 
ATOM     66  C   UNL     1       3.921   0.762 -10.049  1.00  0.00     0.198 A 
ATOM     67  C   UNL     1       5.499   0.004 -11.687  1.00  0.00     0.198 A 
ATOM     68  F   UNL     1       5.726  -2.296 -12.133  1.00  0.00    -0.203 F 
ATOM     69  F   UNL     1       3.356   1.763  -9.358  1.00  0.00    -0.200 F 
ATOM     70  C   UNL     1       4.898   1.040 -10.991  1.00  0.00     0.200 A 
ATOM     71  F   UNL     1       6.482   0.266 -12.560  1.00  0.00    -0.200 F 
ATOM     72  F   UNL     1       5.283   2.306 -11.207  1.00  0.00    -0.200 F 
ENDBRANCH  39  62
ENDBRANCH  13  14
ENDBRANCH   6   8
ENDBRANCH   3   4
ENDBRANCH   2   3
ENDBRANCH   1   2
BRANCH   1  73
ATOM     73  C   UNL     1       4.336   3.842   1.586  1.00  0.00     0.116 C 
BRANCH  73  74
ATOM     74  N   UNL     1       5.769   3.925   1.789  1.00  0.00    -0.356 N 
ATOM     75  C   UNL     1       6.529   4.965   1.333  1.00  0.00     0.224 C 
ATOM     76  H   UNL     1       6.216   3.198   2.279  1.00  0.00     0.163 HD
ATOM     77  O   UNL     1       7.407   4.680   0.526  1.00  0.00    -0.275 OA
BRANCH  75  78
ATOM     78  C   UNL     1       6.181   6.384   1.760  1.00  0.00     0.098 C 
ATOM     79  C   UNL     1       7.062   7.512   1.161  1.00  0.00     0.098 C 
ATOM     80  C   UNL     1       6.002   6.642   3.296  1.00  0.00     0.025 C 
ATOM     81  C   UNL     1       7.199   8.677   2.188  1.00  0.00     0.025 C 
ATOM     82  C   UNL     1       7.287   7.085   3.972  1.00  0.00    -0.027 C 
ATOM     83  C   UNL     1       5.104   7.903   3.426  1.00  0.00     0.009 C 
ATOM     84  C   UNL     1       7.880   8.159   3.425  1.00  0.00    -0.027 C 
ATOM     85  C   UNL     1       5.770   9.084   2.660  1.00  0.00     0.009 C 
BRANCH  79  86
ATOM     86  C   UNL     1       8.348   7.218   0.356  1.00  0.00     0.228 C 
ATOM     87  O   UNL     1       8.340   7.526  -0.850  1.00  0.00    -0.274 OA
ATOM     88  N   UNL     1       9.556   6.803   0.833  1.00  0.00    -0.326 N 
ATOM     89  H   UNL     1      10.264   6.818   0.149  1.00  0.00     0.169 HD
BRANCH  88  90
ATOM     90  C   UNL     1      10.009   6.362   2.079  1.00  0.00     0.041 A 
ATOM     91  C   UNL     1      11.092   7.034   2.647  1.00  0.00     0.026 A 
ATOM     92  C   UNL     1       9.494   5.254   2.744  1.00  0.00     0.026 A 
ATOM     93  C   UNL     1      11.493   6.744   3.955  1.00  0.00     0.008 A 
ATOM     94  C   UNL     1       9.905   4.940   4.042  1.00  0.00     0.008 A 
ATOM     95  C   UNL     1      10.855   5.735   4.687  1.00  0.00    -0.026 A 
BRANCH  95  96
ATOM     96  C   UNL     1      11.145   5.525   6.149  1.00  0.00     0.181 C 
BRANCH  96  97
ATOM     97  N   UNL     1      12.047   4.418   6.378  1.00  0.00    -0.249 N 
ATOM     98  C   UNL     1      13.387   4.383   6.151  1.00  0.00     0.220 A 
ATOM     99  N   UNL     1      11.630   3.292   6.993  1.00  0.00    -0.160 NA
ATOM    100  N   UNL     1      13.877   3.247   6.590  1.00  0.00    -0.224 NA
ATOM    101  C   UNL     1      12.775   2.612   7.090  1.00  0.00     0.246 A 
ENDBRANCH  96  97
ENDBRANCH  95  96
ENDBRANCH  88  90
ENDBRANCH  79  86
ENDBRANCH  75  78
ENDBRANCH  73  74
ENDBRANCH   1  73
TORSDOF 15
