REMARK SMILES CC[C@H](C)[C@H](NS(=O)(=O)c1ccc(C)cc1)C(=O)NCCCCNC(=O)c1ccc(-c2c3nc(c(-c4c(F)c(F)c(F)c(F)c4F)c4ccc([nH]4)c(-c4c(F)c(F)c(F)c(F)c4F)c4nc(c(-c5c(F)c(F)c(F)c(F)c5F)c5ccc2[nH]5)C=C4)C=C3)cc1
REMARK SMILES IDX 21 1 20 2 19 3 17 4 18 5 5 7 3 8 4 9 2 10 1 11 6 12 7 14
REMARK SMILES IDX 8 15 9 16 10 17 11 18 16 19 12 20 15 21 13 22 14 23 22 24
REMARK SMILES IDX 23 25 24 26 25 27 26 29 27 30 28 31 89 32 29 33 88 34 30 35
REMARK SMILES IDX 31 36 32 37 82 38 33 39 87 40 81 41 83 42 34 43 86 44 80 45
REMARK SMILES IDX 79 46 35 48 67 49 47 50 66 51 48 52 51 53 65 54 84 55 49 56
REMARK SMILES IDX 50 57 64 59 85 60 52 61 36 62 37 63 45 64 38 65 39 66 43 67
REMARK SMILES IDX 46 68 40 69 41 70 44 71 42 72 68 73 69 74 77 75 70 76 71 77
REMARK SMILES IDX 75 78 78 79 72 80 73 81 76 82 74 83 53 84 54 85 62 86 55 87
REMARK SMILES IDX 56 88 60 89 63 90 57 91 58 92 61 93 59 94
REMARK H PARENT 19 6 6 13 24 28 83 47 51 58
REMARK Flexibility Score: inf
ROOT
ATOM      1  C   UNL     1       3.580   3.376   4.343  1.00  0.00     0.023 C 
ENDROOT
BRANCH   1   2
ATOM      2  C   UNL     1       3.018   2.149   5.101  1.00  0.00     0.116 C 
BRANCH   2   3
ATOM      3  N   UNL     1       1.575   2.132   5.161  1.00  0.00    -0.355 N 
ATOM      4  C   UNL     1       0.622   1.230   4.839  1.00  0.00     0.238 C 
ATOM      5  O   UNL     1      -0.432   1.411   5.478  1.00  0.00    -0.273 OA
ATOM      6  H   UNL     1       1.200   2.969   5.517  1.00  0.00     0.163 HD
BRANCH   4   7
ATOM      7  C   UNL     1       0.668   0.064   3.833  1.00  0.00     0.161 C 
BRANCH   7   8
ATOM      8  C   UNL     1       0.773  -1.412   4.365  1.00  0.00     0.013 C 
ATOM      9  C   UNL     1       2.135  -2.057   4.167  1.00  0.00     0.010 C 
BRANCH   8  10
ATOM     10  C   UNL     1       0.215  -1.732   5.766  1.00  0.00     0.002 C 
ATOM     11  C   UNL     1       1.193  -1.586   6.923  1.00  0.00     0.004 C 
ENDBRANCH   8  10
ENDBRANCH   7   8
BRANCH   7  12
ATOM     12  N   UNL     1       1.004   0.080   2.392  1.00  0.00    -0.198 NA
ATOM     13  H   UNL     1       0.182   0.512   1.968  1.00  0.00     0.142 HD
BRANCH  12  14
ATOM     14  S   UNL     1       2.255   0.713   1.514  1.00  0.00     0.241 S 
ATOM     15  O   UNL     1       1.947   0.388   0.141  1.00  0.00    -0.207 OA
ATOM     16  O   UNL     1       2.420   2.092   1.909  1.00  0.00    -0.207 OA
BRANCH  14  17
ATOM     17  C   UNL     1       3.704  -0.220   1.941  1.00  0.00     0.082 A 
ATOM     18  C   UNL     1       3.940  -1.479   1.387  1.00  0.00     0.022 A 
ATOM     19  C   UNL     1       4.623   0.301   2.842  1.00  0.00     0.022 A 
ATOM     20  C   UNL     1       4.983  -2.266   1.892  1.00  0.00     0.005 A 
ATOM     21  C   UNL     1       5.601  -0.502   3.406  1.00  0.00     0.005 A 
ATOM     22  C   UNL     1       5.775  -1.799   2.948  1.00  0.00    -0.051 A 
ATOM     23  C   UNL     1       6.876  -2.622   3.520  1.00  0.00     0.044 C 
ENDBRANCH  14  17
ENDBRANCH  12  14
ENDBRANCH   7  12
ENDBRANCH   4   7
ENDBRANCH   2   3
ENDBRANCH   1   2
BRANCH   1  24
ATOM     24  C   UNL     1       4.940   3.953   4.764  1.00  0.00     0.023 C 
BRANCH  24  25
ATOM     25  C   UNL     1       6.000   2.967   5.204  1.00  0.00     0.116 C 
BRANCH  25  26
ATOM     26  N   UNL     1       7.086   2.609   4.316  1.00  0.00    -0.352 N 
ATOM     27  C   UNL     1       8.246   1.906   4.629  1.00  0.00     0.251 C 
ATOM     28  H   UNL     1       6.992   2.897   3.380  1.00  0.00     0.163 HD
ATOM     29  O   UNL     1       9.120   1.790   3.772  1.00  0.00    -0.269 OA
BRANCH  27  30
ATOM     30  C   UNL     1       8.399   1.147   5.914  1.00  0.00     0.039 A 
ATOM     31  C   UNL     1       9.461   0.232   6.060  1.00  0.00     0.014 A 
ATOM     32  C   UNL     1       7.404   1.147   6.879  1.00  0.00     0.014 A 
ATOM     33  C   UNL     1       9.397  -0.769   7.031  1.00  0.00     0.010 A 
ATOM     34  C   UNL     1       7.224   0.064   7.675  1.00  0.00     0.010 A 
ATOM     35  C   UNL     1       8.216  -0.902   7.737  1.00  0.00    -0.014 A 
BRANCH  35  36
ATOM     36  C   UNL     1       7.853  -1.927   8.681  1.00  0.00     0.031 A 
ATOM     37  C   UNL     1       7.922  -1.560  10.106  1.00  0.00     0.074 A 
ATOM     38  C   UNL     1       7.039  -2.874   8.165  1.00  0.00     0.049 A 
ATOM     39  N   UNL     1       7.688  -2.378  11.061  1.00  0.00    -0.248 NA
ATOM     40  C   UNL     1       8.273  -0.220  10.584  1.00  0.00     0.031 C 
ATOM     41  C   UNL     1       5.991  -3.656   8.809  1.00  0.00     0.029 A 
ATOM     42  N   UNL     1       7.090  -3.400   6.858  1.00  0.00    -0.354 N 
ATOM     43  C   UNL     1       7.526  -1.637  12.213  1.00  0.00     0.074 A 
ATOM     44  C   UNL     1       8.050  -0.334  11.897  1.00  0.00     0.031 C 
ATOM     45  C   UNL     1       5.744  -4.742   8.048  1.00  0.00     0.029 A 
ATOM     46  C   UNL     1       6.773  -4.767   7.014  1.00  0.00     0.049 A 
ATOM     47  H   UNL     1       7.299  -2.922   6.023  1.00  0.00     0.167 HD
ATOM     48  C   UNL     1       6.819  -2.207  13.229  1.00  0.00     0.037 A 
ATOM     49  C   UNL     1       7.771  -5.700   6.942  1.00  0.00     0.037 A 
ATOM     50  C   UNL     1       6.386  -3.546  12.821  1.00  0.00     0.049 A 
ATOM     51  C   UNL     1       7.992  -6.460   8.232  1.00  0.00     0.074 A 
ATOM     52  C   UNL     1       5.193  -4.075  12.360  1.00  0.00     0.029 A 
ATOM     53  N   UNL     1       7.357  -4.482  12.520  1.00  0.00    -0.354 N 
ATOM     54  N   UNL     1       7.562  -6.075   9.401  1.00  0.00    -0.248 NA
ATOM     55  C   UNL     1       8.788  -7.676   8.304  1.00  0.00     0.031 C 
ATOM     56  C   UNL     1       5.467  -5.370  11.823  1.00  0.00     0.029 A 
ATOM     57  C   UNL     1       6.817  -5.626  11.982  1.00  0.00     0.049 A 
ATOM     58  H   UNL     1       8.320  -4.345  12.673  1.00  0.00     0.167 HD
ATOM     59  C   UNL     1       8.014  -6.931  10.371  1.00  0.00     0.074 A 
ATOM     60  C   UNL     1       8.810  -7.896   9.630  1.00  0.00     0.031 C 
ATOM     61  C   UNL     1       7.715  -6.734  11.695  1.00  0.00     0.037 A 
BRANCH  48  62
ATOM     62  C   UNL     1       6.313  -1.565  14.505  1.00  0.00     0.064 A 
ATOM     63  C   UNL     1       5.441  -2.298  15.348  1.00  0.00     0.173 A 
ATOM     64  C   UNL     1       6.597  -0.264  14.961  1.00  0.00     0.173 A 
ATOM     65  F   UNL     1       5.138  -3.579  15.099  1.00  0.00    -0.203 F 
ATOM     66  C   UNL     1       4.849  -1.751  16.489  1.00  0.00     0.198 A 
ATOM     67  C   UNL     1       6.004   0.284  16.106  1.00  0.00     0.198 A 
ATOM     68  F   UNL     1       7.472   0.533  14.348  1.00  0.00    -0.203 F 
ATOM     69  F   UNL     1       4.009  -2.496  17.221  1.00  0.00    -0.200 F 
ATOM     70  C   UNL     1       5.120  -0.454  16.863  1.00  0.00     0.200 A 
ATOM     71  F   UNL     1       6.301   1.541  16.468  1.00  0.00    -0.200 F 
ATOM     72  F   UNL     1       4.547   0.076  17.951  1.00  0.00    -0.200 F 
ENDBRANCH  48  62
BRANCH  49  73
ATOM     73  C   UNL     1       8.880  -5.319   6.014  1.00  0.00     0.064 A 
ATOM     74  C   UNL     1       8.670  -5.371   4.626  1.00  0.00     0.173 A 
ATOM     75  C   UNL     1       9.961  -4.550   6.471  1.00  0.00     0.173 A 
ATOM     76  F   UNL     1       7.644  -6.079   4.128  1.00  0.00    -0.203 F 
ATOM     77  C   UNL     1       9.432  -4.596   3.748  1.00  0.00     0.198 A 
ATOM     78  C   UNL     1      10.707  -3.761   5.591  1.00  0.00     0.198 A 
ATOM     79  F   UNL     1      10.221  -4.463   7.783  1.00  0.00    -0.203 F 
ATOM     80  F   UNL     1       9.134  -4.581   2.440  1.00  0.00    -0.200 F 
ATOM     81  C   UNL     1      10.410  -3.747   4.238  1.00  0.00     0.200 A 
ATOM     82  F   UNL     1      11.660  -2.947   6.066  1.00  0.00    -0.200 F 
ATOM     83  F   UNL     1      11.026  -2.882   3.421  1.00  0.00    -0.200 F 
ENDBRANCH  49  73
BRANCH  61  84
ATOM     84  C   UNL     1       8.296  -7.502  12.868  1.00  0.00     0.064 A 
ATOM     85  C   UNL     1       8.696  -8.841  12.801  1.00  0.00     0.173 A 
ATOM     86  C   UNL     1       8.446  -6.904  14.150  1.00  0.00     0.173 A 
ATOM     87  F   UNL     1       8.418  -9.595  11.730  1.00  0.00    -0.203 F 
ATOM     88  C   UNL     1       9.346  -9.473  13.867  1.00  0.00     0.198 A 
ATOM     89  C   UNL     1       9.051  -7.548  15.224  1.00  0.00     0.198 A 
ATOM     90  F   UNL     1       8.023  -5.667  14.431  1.00  0.00    -0.203 F 
ATOM     91  F   UNL     1       9.786 -10.730  13.719  1.00  0.00    -0.200 F 
ATOM     92  C   UNL     1       9.537  -8.822  15.072  1.00  0.00     0.200 A 
ATOM     93  F   UNL     1       9.166  -6.909  16.397  1.00  0.00    -0.200 F 
ATOM     94  F   UNL     1      10.166  -9.427  16.087  1.00  0.00    -0.200 F 
ENDBRANCH  61  84
ENDBRANCH  35  36
ENDBRANCH  27  30
ENDBRANCH  25  26
ENDBRANCH  24  25
ENDBRANCH   1  24
TORSDOF 16
