REMARK SMILES Cc1ccc(C(F)(F)F)cc1/C=C/C(=O)NCCCCNC(=O)c1ccc(-c2c3nc(c(-c4c(F)c(F)c(F)c(F)c4F)c4ccc([nH]4)c(-c4c(F)c(F)c(F)c(F)c4F)c4nc(c(-c5c(F)c(F)c(F)c(F)c5F)c5ccc2[nH]5)C=C4)C=C3)cc1
REMARK SMILES IDX 18 1 17 2 16 3 14 4 15 5 13 7 12 8 11 9 1 10 2 11 3 12 4 13
REMARK SMILES IDX 10 14 5 15 6 16 7 17 8 18 9 19 19 20 20 21 21 22 22 23 23 25
REMARK SMILES IDX 24 26 25 27 86 28 26 29 85 30 27 31 28 32 29 33 79 34 30 35
REMARK SMILES IDX 84 36 78 37 80 38 31 39 83 40 77 41 76 42 32 44 64 45 44 46
REMARK SMILES IDX 63 47 45 48 48 49 62 50 81 51 46 52 47 53 61 55 82 56 49 57
REMARK SMILES IDX 33 58 34 59 42 60 35 61 36 62 40 63 43 64 37 65 38 66 41 67
REMARK SMILES IDX 39 68 65 69 66 70 74 71 67 72 68 73 72 74 75 75 69 76 70 77
REMARK SMILES IDX 73 78 71 79 50 80 51 81 59 82 52 83 53 84 57 85 60 86 54 87
REMARK SMILES IDX 55 88 58 89 56 90
REMARK H PARENT 16 6 21 24 80 43 48 54
REMARK Flexibility Score: inf
ROOT
ATOM      1  C   UNL     1       4.047   3.415  -1.277  1.00  0.00     0.023 C 
ENDROOT
BRANCH   1   2
ATOM      2  C   UNL     1       3.449   3.899   0.052  1.00  0.00     0.116 C 
BRANCH   2   3
ATOM      3  N   UNL     1       2.401   4.889  -0.134  1.00  0.00    -0.353 N 
ATOM      4  C   UNL     1       1.050   4.782  -0.009  1.00  0.00     0.243 C 
ATOM      5  O   UNL     1       0.352   5.792  -0.067  1.00  0.00    -0.270 OA
ATOM      6  H   UNL     1       2.721   5.783  -0.394  1.00  0.00     0.163 HD
BRANCH   4   7
ATOM      7  C   UNL     1       0.418   3.477   0.277  1.00  0.00     0.072 C 
ATOM      8  C   UNL     1       0.649   2.374  -0.450  1.00  0.00     0.014 C 
BRANCH   8   9
ATOM      9  C   UNL     1      -0.012   1.086  -0.205  1.00  0.00    -0.022 A 
ATOM     10  C   UNL     1       2.229  -0.159  -0.072  1.00  0.00     0.045 C 
ATOM     11  C   UNL     1       0.724  -0.105  -0.052  1.00  0.00    -0.044 A 
ATOM     12  C   UNL     1       0.035  -1.321   0.088  1.00  0.00     0.004 A 
ATOM     13  C   UNL     1      -1.359  -1.359   0.099  1.00  0.00     0.013 A 
ATOM     14  C   UNL     1      -1.417   1.035  -0.193  1.00  0.00     0.021 A 
ATOM     15  C   UNL     1      -2.101  -0.179  -0.033  1.00  0.00     0.056 A 
BRANCH  15  16
ATOM     16  C   UNL     1      -3.608  -0.230  -0.032  1.00  0.00     0.416 C 
ATOM     17  F   UNL     1      -4.105  -0.861  -1.132  1.00  0.00    -0.166 F 
ATOM     18  F   UNL     1      -4.106  -0.903   1.042  1.00  0.00    -0.166 F 
ATOM     19  F   UNL     1      -4.196   0.998  -0.008  1.00  0.00    -0.166 F 
ENDBRANCH  15  16
ENDBRANCH   8   9
ENDBRANCH   4   7
ENDBRANCH   2   3
ENDBRANCH   1   2
BRANCH   1  20
ATOM     20  C   UNL     1       4.792   4.492  -2.073  1.00  0.00     0.023 C 
BRANCH  20  21
ATOM     21  C   UNL     1       6.132   4.884  -1.464  1.00  0.00     0.116 C 
BRANCH  21  22
ATOM     22  N   UNL     1       7.263   4.081  -1.912  1.00  0.00    -0.352 N 
ATOM     23  C   UNL     1       8.562   4.026  -1.426  1.00  0.00     0.251 C 
ATOM     24  H   UNL     1       7.077   3.488  -2.676  1.00  0.00     0.163 HD
ATOM     25  O   UNL     1       9.400   3.355  -1.997  1.00  0.00    -0.269 OA
BRANCH  23  26
ATOM     26  C   UNL     1       8.884   4.664  -0.120  1.00  0.00     0.039 A 
ATOM     27  C   UNL     1       9.617   3.908   0.805  1.00  0.00     0.014 A 
ATOM     28  C   UNL     1       8.278   5.850   0.274  1.00  0.00     0.014 A 
ATOM     29  C   UNL     1       9.487   4.184   2.164  1.00  0.00     0.010 A 
ATOM     30  C   UNL     1       8.052   6.057   1.620  1.00  0.00     0.010 A 
ATOM     31  C   UNL     1       8.586   5.169   2.560  1.00  0.00    -0.014 A 
BRANCH  31  32
ATOM     32  C   UNL     1       7.990   5.213   3.893  1.00  0.00     0.031 A 
ATOM     33  C   UNL     1       8.258   6.335   4.815  1.00  0.00     0.074 A 
ATOM     34  C   UNL     1       7.056   4.287   4.206  1.00  0.00     0.049 A 
ATOM     35  N   UNL     1       8.034   6.306   6.086  1.00  0.00    -0.248 NA
ATOM     36  C   UNL     1       8.859   7.584   4.371  1.00  0.00     0.031 C 
ATOM     37  C   UNL     1       6.085   4.338   5.295  1.00  0.00     0.029 A 
ATOM     38  N   UNL     1       6.918   2.990   3.678  1.00  0.00    -0.354 N 
ATOM     39  C   UNL     1       8.168   7.590   6.570  1.00  0.00     0.074 A 
ATOM     40  C   UNL     1       8.776   8.320   5.483  1.00  0.00     0.031 C 
ATOM     41  C   UNL     1       5.663   3.091   5.559  1.00  0.00     0.029 A 
ATOM     42  C   UNL     1       6.468   2.190   4.754  1.00  0.00     0.049 A 
ATOM     43  H   UNL     1       7.097   2.700   2.755  1.00  0.00     0.167 HD
ATOM     44  C   UNL     1       7.611   7.899   7.780  1.00  0.00     0.037 A 
ATOM     45  C   UNL     1       7.232   1.177   5.255  1.00  0.00     0.037 A 
ATOM     46  C   UNL     1       7.109   6.691   8.444  1.00  0.00     0.049 A 
ATOM     47  C   UNL     1       7.583   1.331   6.716  1.00  0.00     0.074 A 
ATOM     48  C   UNL     1       5.839   6.155   8.591  1.00  0.00     0.029 A 
ATOM     49  N   UNL     1       8.001   5.692   8.822  1.00  0.00    -0.354 N 
ATOM     50  N   UNL     1       7.503   2.458   7.365  1.00  0.00    -0.248 NA
ATOM     51  C   UNL     1       8.094   0.243   7.547  1.00  0.00     0.031 C 
ATOM     52  C   UNL     1       5.975   4.806   9.005  1.00  0.00     0.029 A 
ATOM     53  C   UNL     1       7.325   4.527   9.128  1.00  0.00     0.049 A 
ATOM     54  H   UNL     1       8.979   5.801   8.867  1.00  0.00     0.167 HD
ATOM     55  C   UNL     1       7.962   2.284   8.644  1.00  0.00     0.074 A 
ATOM     56  C   UNL     1       8.299   0.875   8.717  1.00  0.00     0.031 C 
ATOM     57  C   UNL     1       8.042   3.324   9.524  1.00  0.00     0.037 A 
BRANCH  44  58
ATOM     58  C   UNL     1       7.233   9.305   8.231  1.00  0.00     0.064 A 
ATOM     59  C   UNL     1       6.222   9.502   9.202  1.00  0.00     0.173 A 
ATOM     60  C   UNL     1       7.748  10.502   7.697  1.00  0.00     0.173 A 
ATOM     61  F   UNL     1       5.720   8.482   9.909  1.00  0.00    -0.203 F 
ATOM     62  C   UNL     1       5.684  10.761   9.496  1.00  0.00     0.198 A 
ATOM     63  C   UNL     1       7.185  11.757   7.957  1.00  0.00     0.198 A 
ATOM     64  F   UNL     1       8.859  10.523   6.959  1.00  0.00    -0.203 F 
ATOM     65  F   UNL     1       4.709  10.871  10.409  1.00  0.00    -0.200 F 
ATOM     66  C   UNL     1       6.139  11.885   8.843  1.00  0.00     0.200 A 
ATOM     67  F   UNL     1       7.675  12.842   7.341  1.00  0.00    -0.200 F 
ATOM     68  F   UNL     1       5.600  13.086   9.091  1.00  0.00    -0.200 F 
ENDBRANCH  44  58
BRANCH  45  69
ATOM     69  C   UNL     1       8.103   0.537   4.235  1.00  0.00     0.064 A 
ATOM     70  C   UNL     1       7.491  -0.148   3.168  1.00  0.00     0.173 A 
ATOM     71  C   UNL     1       9.448   0.896   4.088  1.00  0.00     0.173 A 
ATOM     72  F   UNL     1       6.200  -0.508   3.256  1.00  0.00    -0.203 F 
ATOM     73  C   UNL     1       8.161  -0.364   1.966  1.00  0.00     0.198 A 
ATOM     74  C   UNL     1      10.119   0.669   2.885  1.00  0.00     0.198 A 
ATOM     75  F   UNL     1      10.078   1.574   5.058  1.00  0.00    -0.203 F 
ATOM     76  F   UNL     1       7.514  -0.921   0.932  1.00  0.00    -0.200 F 
ATOM     77  C   UNL     1       9.467   0.070   1.816  1.00  0.00     0.200 A 
ATOM     78  F   UNL     1      11.371   1.122   2.725  1.00  0.00    -0.200 F 
ATOM     79  F   UNL     1      10.083  -0.049   0.632  1.00  0.00    -0.200 F 
ENDBRANCH  45  69
BRANCH  57  80
ATOM     80  C   UNL     1       8.728   3.293  10.867  1.00  0.00     0.064 A 
ATOM     81  C   UNL     1       9.850   2.500  11.154  1.00  0.00     0.173 A 
ATOM     82  C   UNL     1       8.348   4.206  11.880  1.00  0.00     0.173 A 
ATOM     83  F   UNL     1      10.374   1.677  10.236  1.00  0.00    -0.203 F 
ATOM     84  C   UNL     1      10.510   2.573  12.384  1.00  0.00     0.198 A 
ATOM     85  C   UNL     1       9.043   4.316  13.084  1.00  0.00     0.198 A 
ATOM     86  F   UNL     1       7.306   5.035  11.720  1.00  0.00    -0.203 F 
ATOM     87  F   UNL     1      11.554   1.768  12.625  1.00  0.00    -0.200 F 
ATOM     88  C   UNL     1      10.115   3.488  13.342  1.00  0.00     0.200 A 
ATOM     89  F   UNL     1       8.678   5.242  13.982  1.00  0.00    -0.200 F 
ATOM     90  F   UNL     1      10.781   3.587  14.501  1.00  0.00    -0.200 F 
ENDBRANCH  57  80
ENDBRANCH  31  32
ENDBRANCH  23  26
ENDBRANCH  21  22
ENDBRANCH  20  21
ENDBRANCH   1  20
TORSDOF 13
