REMARK SMILES O=C(NCCCCNC(=O)c1ccnc(-n2cnnn2)c1)c1ccc(-c2c3nc(c(-c4c(F)c(F)c(F)c(F)c4F)c4ccc([nH]4)c(-c4c(F)c(F)c(F)c(F)c4F)c4nc(c(-c5c(F)c(F)c(F)c(F)c5F)c5ccc2[nH]5)C=C4)C=C3)cc1
REMARK SMILES IDX 5 1 4 2 3 3 1 4 2 5 22 7 23 8 84 9 24 10 83 11 25 12 26 13
REMARK SMILES IDX 27 14 77 15 28 16 82 17 76 18 78 19 29 20 81 21 75 22 74 23
REMARK SMILES IDX 30 25 62 26 42 27 61 28 43 29 46 30 60 31 79 32 44 33 45 34
REMARK SMILES IDX 59 36 80 37 47 38 31 39 32 40 40 41 33 42 34 43 38 44 41 45
REMARK SMILES IDX 35 46 36 47 39 48 37 49 63 50 64 51 72 52 65 53 66 54 70 55
REMARK SMILES IDX 73 56 67 57 68 58 71 59 69 60 48 61 49 62 57 63 50 64 51 65
REMARK SMILES IDX 55 66 58 67 52 68 53 69 56 70 54 71 6 72 7 73 8 74 9 75
REMARK SMILES IDX 10 77 11 78 12 79 21 80 13 81 15 82 14 83 16 84 17 85 20 86
REMARK SMILES IDX 18 87 19 88
REMARK H PARENT 3 6 78 24 46 35 8 76
REMARK Flexibility Score: inf
ROOT
ATOM      1  C   UNL     1       5.062  -1.815  -1.222  1.00  0.00     0.023 C 
ENDROOT
BRANCH   1   2
ATOM      2  C   UNL     1       4.809  -0.308  -1.135  1.00  0.00     0.116 C 
BRANCH   2   3
ATOM      3  N   UNL     1       3.421   0.075  -1.275  1.00  0.00    -0.352 N 
ATOM      4  O   UNL     1       1.360   0.744  -0.856  1.00  0.00    -0.269 OA
ATOM      5  C   UNL     1       2.374   0.203  -0.408  1.00  0.00     0.251 C 
ATOM      6  H   UNL     1       3.177   0.291  -2.204  1.00  0.00     0.163 HD
BRANCH   5   7
ATOM      7  C   UNL     1       2.344  -0.337   0.976  1.00  0.00     0.039 A 
ATOM      8  C   UNL     1       3.428  -0.893   1.659  1.00  0.00     0.014 A 
ATOM      9  C   UNL     1       1.079  -0.350   1.592  1.00  0.00     0.014 A 
ATOM     10  C   UNL     1       3.232  -1.575   2.853  1.00  0.00     0.010 A 
ATOM     11  C   UNL     1       0.880  -1.007   2.795  1.00  0.00     0.010 A 
ATOM     12  C   UNL     1       1.949  -1.671   3.388  1.00  0.00    -0.014 A 
BRANCH  12  13
ATOM     13  C   UNL     1       1.774  -2.399   4.636  1.00  0.00     0.031 A 
ATOM     14  C   UNL     1       2.400  -1.756   5.829  1.00  0.00     0.074 A 
ATOM     15  C   UNL     1       0.972  -3.480   4.710  1.00  0.00     0.049 A 
ATOM     16  N   UNL     1       3.239  -2.260   6.676  1.00  0.00    -0.248 NA
ATOM     17  C   UNL     1       2.122  -0.325   6.047  1.00  0.00     0.031 C 
ATOM     18  C   UNL     1       0.098  -4.028   3.668  1.00  0.00     0.029 A 
ATOM     19  N   UNL     1       0.683  -4.262   5.785  1.00  0.00    -0.354 N 
ATOM     20  C   UNL     1       3.466  -1.265   7.629  1.00  0.00     0.074 A 
ATOM     21  C   UNL     1       2.865  -0.061   7.121  1.00  0.00     0.031 C 
ATOM     22  C   UNL     1      -0.784  -4.885   4.230  1.00  0.00     0.029 A 
ATOM     23  C   UNL     1      -0.457  -5.039   5.636  1.00  0.00     0.049 A 
ATOM     24  H   UNL     1       1.236  -4.275   6.600  1.00  0.00     0.167 HD
ATOM     25  C   UNL     1       3.939  -1.556   8.872  1.00  0.00     0.037 A 
ATOM     26  C   UNL     1      -1.127  -5.681   6.625  1.00  0.00     0.037 A 
ATOM     27  C   UNL     1       4.619  -2.821   8.898  1.00  0.00     0.049 A 
ATOM     28  C   UNL     1      -0.208  -5.794   7.786  1.00  0.00     0.074 A 
ATOM     29  C   UNL     1       5.744  -3.333   8.282  1.00  0.00     0.029 A 
ATOM     30  N   UNL     1       3.953  -3.910   9.400  1.00  0.00    -0.354 N 
ATOM     31  N   UNL     1       0.867  -6.534   7.789  1.00  0.00    -0.248 NA
ATOM     32  C   UNL     1      -0.232  -4.720   8.768  1.00  0.00     0.031 C 
ATOM     33  C   UNL     1       5.426  -4.695   8.006  1.00  0.00     0.029 A 
ATOM     34  C   UNL     1       4.151  -4.939   8.517  1.00  0.00     0.049 A 
ATOM     35  H   UNL     1       3.432  -3.946  10.235  1.00  0.00     0.167 HD
ATOM     36  C   UNL     1       1.814  -5.778   8.464  1.00  0.00     0.074 A 
ATOM     37  C   UNL     1       1.061  -4.700   9.102  1.00  0.00     0.031 C 
ATOM     38  C   UNL     1       3.147  -5.927   8.212  1.00  0.00     0.037 A 
BRANCH  25  39
ATOM     39  C   UNL     1       3.466  -0.870  10.133  1.00  0.00     0.064 A 
ATOM     40  C   UNL     1       4.103  -1.159  11.356  1.00  0.00     0.173 A 
ATOM     41  C   UNL     1       2.227  -0.200  10.237  1.00  0.00     0.173 A 
ATOM     42  F   UNL     1       5.279  -1.804  11.379  1.00  0.00    -0.203 F 
ATOM     43  C   UNL     1       3.499  -0.884  12.586  1.00  0.00     0.198 A 
ATOM     44  C   UNL     1       1.652   0.120  11.465  1.00  0.00     0.198 A 
ATOM     45  F   UNL     1       1.468   0.068   9.168  1.00  0.00    -0.203 F 
ATOM     46  F   UNL     1       4.079  -1.299  13.720  1.00  0.00    -0.200 F 
ATOM     47  C   UNL     1       2.269  -0.254  12.639  1.00  0.00     0.200 A 
ATOM     48  F   UNL     1       0.452   0.716  11.494  1.00  0.00    -0.200 F 
ATOM     49  F   UNL     1       1.655  -0.053  13.812  1.00  0.00    -0.200 F 
ENDBRANCH  25  39
BRANCH  26  50
ATOM     50  C   UNL     1      -2.597  -5.842   6.754  1.00  0.00     0.064 A 
ATOM     51  C   UNL     1      -3.156  -6.786   7.631  1.00  0.00     0.173 A 
ATOM     52  C   UNL     1      -3.485  -4.889   6.214  1.00  0.00     0.173 A 
ATOM     53  F   UNL     1      -2.373  -7.692   8.233  1.00  0.00    -0.203 F 
ATOM     54  C   UNL     1      -4.519  -6.770   7.953  1.00  0.00     0.198 A 
ATOM     55  C   UNL     1      -4.844  -4.880   6.530  1.00  0.00     0.198 A 
ATOM     56  F   UNL     1      -3.035  -3.889   5.444  1.00  0.00    -0.203 F 
ATOM     57  F   UNL     1      -5.008  -7.652   8.836  1.00  0.00    -0.200 F 
ATOM     58  C   UNL     1      -5.359  -5.814   7.407  1.00  0.00     0.200 A 
ATOM     59  F   UNL     1      -5.635  -3.923   6.025  1.00  0.00    -0.200 F 
ATOM     60  F   UNL     1      -6.652  -5.764   7.758  1.00  0.00    -0.200 F 
ENDBRANCH  26  50
BRANCH  38  61
ATOM     61  C   UNL     1       3.566  -7.073   7.335  1.00  0.00     0.064 A 
ATOM     62  C   UNL     1       3.212  -7.184   5.979  1.00  0.00     0.173 A 
ATOM     63  C   UNL     1       4.476  -8.008   7.840  1.00  0.00     0.173 A 
ATOM     64  F   UNL     1       2.434  -6.265   5.393  1.00  0.00    -0.203 F 
ATOM     65  C   UNL     1       3.709  -8.211   5.180  1.00  0.00     0.198 A 
ATOM     66  C   UNL     1       5.001  -9.013   7.032  1.00  0.00     0.198 A 
ATOM     67  F   UNL     1       4.901  -7.913   9.110  1.00  0.00    -0.203 F 
ATOM     68  F   UNL     1       3.349  -8.296   3.891  1.00  0.00    -0.200 F 
ATOM     69  C   UNL     1       4.609  -9.121   5.707  1.00  0.00     0.200 A 
ATOM     70  F   UNL     1       5.913  -9.859   7.530  1.00  0.00    -0.200 F 
ATOM     71  F   UNL     1       5.125 -10.084   4.929  1.00  0.00    -0.200 F 
ENDBRANCH  38  61
ENDBRANCH  12  13
ENDBRANCH   5   7
ENDBRANCH   2   3
ENDBRANCH   1   2
BRANCH   1  72
ATOM     72  C   UNL     1       4.544  -2.489  -2.496  1.00  0.00     0.023 C 
BRANCH  72  73
ATOM     73  C   UNL     1       4.929  -1.802  -3.802  1.00  0.00     0.116 C 
BRANCH  73  74
ATOM     74  N   UNL     1       6.369  -1.755  -3.984  1.00  0.00    -0.352 N 
ATOM     75  C   UNL     1       7.116  -2.227  -5.022  1.00  0.00     0.251 C 
ATOM     76  H   UNL     1       6.875  -1.322  -3.259  1.00  0.00     0.163 HD
ATOM     77  O   UNL     1       8.347  -2.292  -4.925  1.00  0.00    -0.269 OA
BRANCH  75  78
ATOM     78  C   UNL     1       6.476  -2.677  -6.269  1.00  0.00     0.045 A 
ATOM     79  C   UNL     1       5.574  -1.860  -6.946  1.00  0.00     0.034 A 
ATOM     80  C   UNL     1       6.876  -3.899  -6.811  1.00  0.00     0.063 A 
ATOM     81  C   UNL     1       5.091  -2.311  -8.156  1.00  0.00     0.114 A 
ATOM     82  C   UNL     1       6.357  -4.258  -8.048  1.00  0.00     0.157 A 
ATOM     83  N   UNL     1       5.475  -3.474  -8.723  1.00  0.00    -0.237 NA
BRANCH  82  84
ATOM     84  N   UNL     1       6.781  -5.467  -8.652  1.00  0.00    -0.182 N 
ATOM     85  C   UNL     1       7.307  -6.588  -8.062  1.00  0.00     0.254 A 
ATOM     86  N   UNL     1       6.727  -5.682  -9.985  1.00  0.00    -0.039 NA
ATOM     87  N   UNL     1       7.655  -7.445  -8.992  1.00  0.00    -0.117 NA
ATOM     88  N   UNL     1       7.307  -6.859 -10.183  1.00  0.00    -0.024 NA
ENDBRANCH  82  84
ENDBRANCH  75  78
ENDBRANCH  73  74
ENDBRANCH  72  73
ENDBRANCH   1  72
TORSDOF 12
