REMARK SMILES Cc1cc(Cl)c2c(c1)C=C(C(=O)NCCCCNC(=O)c1ccc(-c3c4nc(c(-c5c(F)c(F)c(F)c(F)c5F)c5ccc([nH]5)c(-c5c(F)c(F)c(F)c(F)c5F)c5nc(c(-c6c(F)c(F)c(F)c(F)c6F)c6ccc3[nH]6)C=C5)C=C4)cc1)[C@@H](C(F)(F)F)O2
REMARK SMILES IDX 16 1 15 2 14 3 13 4 11 5 12 6 10 8 1 9 2 10 3 11 8 12 4 13
REMARK SMILES IDX 7 14 5 15 6 16 9 17 89 18 84 19 85 20 86 21 87 22 88 23
REMARK SMILES IDX 17 24 18 25 19 26 20 28 21 29 22 30 83 31 23 32 82 33 24 34
REMARK SMILES IDX 25 35 26 36 76 37 27 38 81 39 75 40 77 41 28 42 80 43 74 44
REMARK SMILES IDX 73 45 29 47 61 48 41 49 60 50 42 51 45 52 59 53 78 54 43 55
REMARK SMILES IDX 44 56 58 58 79 59 46 60 30 61 31 62 39 63 32 64 33 65 37 66
REMARK SMILES IDX 40 67 34 68 35 69 38 70 36 71 62 72 63 73 71 74 64 75 65 76
REMARK SMILES IDX 69 77 72 78 66 79 67 80 70 81 68 82 47 83 48 84 56 85 49 86
REMARK SMILES IDX 50 87 54 88 57 89 51 90 52 91 55 92 53 93
REMARK H PARENT 13 7 18 27 77 46 45 57
REMARK Flexibility Score: inf
ROOT
ATOM      1  C   UNL     1      -3.074  -8.060   6.462  1.00  0.00     0.023 C 
ENDROOT
BRANCH   1   2
ATOM      2  C   UNL     1      -2.288  -7.548   5.253  1.00  0.00     0.023 C 
BRANCH   2   3
ATOM      3  C   UNL     1      -3.158  -6.946   4.154  1.00  0.00     0.116 C 
BRANCH   3   4
ATOM      4  N   UNL     1      -3.453  -5.546   4.401  1.00  0.00    -0.352 N 
ATOM      5  C   UNL     1      -3.030  -4.351   3.928  1.00  0.00     0.251 C 
ATOM      6  O   UNL     1      -3.565  -3.365   4.447  1.00  0.00    -0.270 OA
ATOM      7  H   UNL     1      -4.141  -5.438   5.096  1.00  0.00     0.163 HD
BRANCH   5   8
ATOM      8  C   UNL     1      -2.000  -4.156   2.863  1.00  0.00     0.067 C 
ATOM      9  C   UNL     1       0.948   0.399  -0.129  1.00  0.00     0.044 C 
ATOM     10  C   UNL     1       0.643  -1.011   0.284  1.00  0.00    -0.049 A 
ATOM     11  C   UNL     1       1.321  -2.077  -0.319  1.00  0.00     0.028 A 
ATOM     12  C   UNL     1      -0.338  -1.283   1.248  1.00  0.00     0.015 A 
ATOM     13  C   UNL     1       1.036  -3.392   0.051  1.00  0.00     0.084 A 
ATOM     14  C   UNL     1      -0.628  -2.602   1.619  1.00  0.00     0.019 A 
ATOM     15  Cl  UNL     1       1.909  -4.671  -0.714  1.00  0.00    -0.080 Cl
ATOM     16  C   UNL     1       0.058  -3.657   1.014  1.00  0.00     0.146 A 
ATOM     17  C   UNL     1      -1.611  -2.884   2.659  1.00  0.00     0.025 C 
ATOM     18  O   UNL     1      -0.164  -4.957   1.377  1.00  0.00    -0.474 OA
ATOM     19  C   UNL     1      -1.435  -5.258   2.013  1.00  0.00     0.314 C 
BRANCH  19  20
ATOM     20  C   UNL     1      -2.431  -5.757   0.949  1.00  0.00     0.429 C 
ATOM     21  F   UNL     1      -2.028  -6.949   0.442  1.00  0.00    -0.167 F 
ATOM     22  F   UNL     1      -3.671  -5.960   1.456  1.00  0.00    -0.167 F 
ATOM     23  F   UNL     1      -2.564  -4.897  -0.085  1.00  0.00    -0.167 F 
ENDBRANCH  19  20
ENDBRANCH   5   8
ENDBRANCH   3   4
ENDBRANCH   2   3
ENDBRANCH   1   2
BRANCH   1  24
ATOM     24  C   UNL     1      -4.171  -9.075   6.147  1.00  0.00     0.116 C 
BRANCH  24  25
ATOM     25  N   UNL     1      -3.725 -10.195   5.332  1.00  0.00    -0.352 N 
ATOM     26  C   UNL     1      -4.177 -11.493   5.357  1.00  0.00     0.251 C 
ATOM     27  H   UNL     1      -3.011  -9.999   4.683  1.00  0.00     0.163 HD
ATOM     28  O   UNL     1      -3.660 -12.356   4.657  1.00  0.00    -0.269 OA
BRANCH  26  29
ATOM     29  C   UNL     1      -5.270 -11.839   6.283  1.00  0.00     0.039 A 
ATOM     30  C   UNL     1      -5.057 -12.850   7.222  1.00  0.00     0.014 A 
ATOM     31  C   UNL     1      -6.462 -11.110   6.269  1.00  0.00     0.014 A 
ATOM     32  C   UNL     1      -6.018 -13.080   8.205  1.00  0.00     0.010 A 
ATOM     33  C   UNL     1      -7.390 -11.300   7.285  1.00  0.00     0.010 A 
ATOM     34  C   UNL     1      -7.171 -12.281   8.265  1.00  0.00    -0.014 A 
BRANCH  34  35
ATOM     35  C   UNL     1      -8.163 -12.457   9.351  1.00  0.00     0.031 A 
ATOM     36  C   UNL     1      -9.534 -12.975   9.033  1.00  0.00     0.074 A 
ATOM     37  C   UNL     1      -7.842 -12.103  10.609  1.00  0.00     0.049 A 
ATOM     38  N   UNL     1     -10.555 -13.155   9.831  1.00  0.00    -0.248 NA
ATOM     39  C   UNL     1      -9.800 -13.314   7.626  1.00  0.00     0.031 C 
ATOM     40  C   UNL     1      -6.553 -11.552  11.029  1.00  0.00     0.029 A 
ATOM     41  N   UNL     1      -8.576 -12.155  11.767  1.00  0.00    -0.354 N 
ATOM     42  C   UNL     1     -11.582 -13.622   9.024  1.00  0.00     0.074 A 
ATOM     43  C   UNL     1     -11.083 -13.643   7.666  1.00  0.00     0.031 C 
ATOM     44  C   UNL     1      -6.574 -11.351  12.357  1.00  0.00     0.029 A 
ATOM     45  C   UNL     1      -7.886 -11.729  12.875  1.00  0.00     0.049 A 
ATOM     46  H   UNL     1      -9.508 -12.469  11.801  1.00  0.00     0.167 HD
ATOM     47  C   UNL     1     -12.822 -14.024   9.388  1.00  0.00     0.037 A 
ATOM     48  C   UNL     1      -8.269 -11.661  14.164  1.00  0.00     0.037 A 
ATOM     49  C   UNL     1     -13.306 -14.024  10.742  1.00  0.00     0.049 A 
ATOM     50  C   UNL     1      -9.657 -12.098  14.541  1.00  0.00     0.074 A 
ATOM     51  C   UNL     1     -14.532 -14.451  11.220  1.00  0.00     0.029 A 
ATOM     52  N   UNL     1     -12.582 -13.575  11.836  1.00  0.00    -0.354 N 
ATOM     53  N   UNL     1     -10.607 -12.578  13.777  1.00  0.00    -0.248 NA
ATOM     54  C   UNL     1     -10.027 -11.982  15.959  1.00  0.00     0.031 C 
ATOM     55  C   UNL     1     -14.561 -14.234  12.601  1.00  0.00     0.029 A 
ATOM     56  C   UNL     1     -13.340 -13.703  12.988  1.00  0.00     0.049 A 
ATOM     57  H   UNL     1     -11.665 -13.219  11.800  1.00  0.00     0.167 HD
ATOM     58  C   UNL     1     -11.679 -12.839  14.618  1.00  0.00     0.074 A 
ATOM     59  C   UNL     1     -11.259 -12.474  15.956  1.00  0.00     0.031 C 
ATOM     60  C   UNL     1     -12.901 -13.335  14.310  1.00  0.00     0.037 A 
BRANCH  47  61
ATOM     61  C   UNL     1     -13.730 -14.517   8.303  1.00  0.00     0.064 A 
ATOM     62  C   UNL     1     -13.511 -15.752   7.675  1.00  0.00     0.173 A 
ATOM     63  C   UNL     1     -14.841 -13.761   7.901  1.00  0.00     0.173 A 
ATOM     64  F   UNL     1     -12.453 -16.503   8.015  1.00  0.00    -0.203 F 
ATOM     65  C   UNL     1     -14.357 -16.202   6.666  1.00  0.00     0.198 A 
ATOM     66  C   UNL     1     -15.700 -14.227   6.908  1.00  0.00     0.198 A 
ATOM     67  F   UNL     1     -15.094 -12.574   8.471  1.00  0.00    -0.203 F 
ATOM     68  F   UNL     1     -14.102 -17.364   6.049  1.00  0.00    -0.200 F 
ATOM     69  C   UNL     1     -15.454 -15.443   6.288  1.00  0.00     0.200 A 
ATOM     70  F   UNL     1     -16.764 -13.496   6.549  1.00  0.00    -0.200 F 
ATOM     71  F   UNL     1     -16.269 -15.879   5.318  1.00  0.00    -0.200 F 
ENDBRANCH  47  61
BRANCH  48  72
ATOM     72  C   UNL     1      -7.303 -11.206  15.194  1.00  0.00     0.064 A 
ATOM     73  C   UNL     1      -6.729 -12.124  16.085  1.00  0.00     0.173 A 
ATOM     74  C   UNL     1      -6.912  -9.864  15.295  1.00  0.00     0.173 A 
ATOM     75  F   UNL     1      -7.088 -13.415  16.037  1.00  0.00    -0.203 F 
ATOM     76  C   UNL     1      -5.803 -11.715  17.042  1.00  0.00     0.198 A 
ATOM     77  C   UNL     1      -5.971  -9.459  16.240  1.00  0.00     0.198 A 
ATOM     78  F   UNL     1      -7.431  -8.949  14.463  1.00  0.00    -0.203 F 
ATOM     79  F   UNL     1      -5.287 -12.608  17.897  1.00  0.00    -0.200 F 
ATOM     80  C   UNL     1      -5.420 -10.384  17.114  1.00  0.00     0.200 A 
ATOM     81  F   UNL     1      -5.594  -8.175  16.300  1.00  0.00    -0.200 F 
ATOM     82  F   UNL     1      -4.521  -9.993  18.028  1.00  0.00    -0.200 F 
ENDBRANCH  48  72
BRANCH  60  83
ATOM     83  C   UNL     1     -13.873 -13.525  15.434  1.00  0.00     0.064 A 
ATOM     84  C   UNL     1     -14.548 -12.438  16.005  1.00  0.00     0.173 A 
ATOM     85  C   UNL     1     -14.189 -14.814  15.890  1.00  0.00     0.173 A 
ATOM     86  F   UNL     1     -14.268 -11.187  15.609  1.00  0.00    -0.203 F 
ATOM     87  C   UNL     1     -15.502 -12.633  16.999  1.00  0.00     0.198 A 
ATOM     88  C   UNL     1     -15.159 -15.006  16.869  1.00  0.00     0.198 A 
ATOM     89  F   UNL     1     -13.573 -15.885  15.370  1.00  0.00    -0.203 F 
ATOM     90  F   UNL     1     -16.119 -11.578  17.549  1.00  0.00    -0.200 F 
ATOM     91  C   UNL     1     -15.813 -13.916  17.424  1.00  0.00     0.200 A 
ATOM     92  F   UNL     1     -15.468 -16.247  17.270  1.00  0.00    -0.200 F 
ATOM     93  F   UNL     1     -16.744 -14.102  18.370  1.00  0.00    -0.200 F 
ENDBRANCH  60  83
ENDBRANCH  34  35
ENDBRANCH  26  29
ENDBRANCH  24  25
ENDBRANCH   1  24
TORSDOF 12
