REMARK SMILES CC(C)=Cc1c(C(=O)NCCCCNC(=O)c2ccc(-c3c4nc(c(-c5c(F)c(F)c(F)c(F)c5F)c5ccc([nH]5)c(-c5c(F)c(F)c(F)c(F)c5F)c5nc(c(-c6c(F)c(F)c(F)c(F)c6F)c6ccc3[nH]6)C=C5)C=C4)cc2)nnn1-c1ccc(C(C)C)cc1
REMARK SMILES IDX 11 1 10 2 9 3 7 4 8 5 6 7 5 8 82 9 80 10 81 11 4 12 1 13
REMARK SMILES IDX 2 14 3 15 83 16 84 17 91 18 85 19 90 20 86 21 87 22 88 23
REMARK SMILES IDX 89 24 12 25 13 26 14 27 15 28 16 30 17 31 18 32 79 33 19 34
REMARK SMILES IDX 78 35 20 36 21 37 22 38 72 39 23 40 77 41 71 42 73 43 24 44
REMARK SMILES IDX 76 45 70 46 69 47 25 49 57 50 37 51 56 52 38 53 41 54 55 55
REMARK SMILES IDX 74 56 39 57 40 58 54 60 75 61 42 62 26 63 27 64 35 65 28 66
REMARK SMILES IDX 29 67 33 68 36 69 30 70 31 71 34 72 32 73 58 74 59 75 67 76
REMARK SMILES IDX 60 77 61 78 65 79 68 80 62 81 63 82 66 83 64 84 43 85 44 86
REMARK SMILES IDX 52 87 45 88 46 89 50 90 53 91 47 92 48 93 51 94 49 95
REMARK H PARENT 9 6 14 29 73 48 41 59
REMARK Flexibility Score: inf
ROOT
ATOM      1  C   UNL     1      -2.525  -3.225   1.729  1.00  0.00     0.023 C 
ENDROOT
BRANCH   1   2
ATOM      2  C   UNL     1      -1.221  -3.408   2.495  1.00  0.00     0.116 C 
BRANCH   2   3
ATOM      3  N   UNL     1      -0.492  -4.614   2.192  1.00  0.00    -0.351 N 
ATOM      4  C   UNL     1       0.735  -4.857   1.613  1.00  0.00     0.274 C 
ATOM      5  O   UNL     1       1.020  -6.058   1.536  1.00  0.00    -0.267 OA
ATOM      6  H   UNL     1      -0.970  -5.434   2.453  1.00  0.00     0.163 HD
BRANCH   4   7
ATOM      7  C   UNL     1       1.664  -3.843   1.087  1.00  0.00     0.178 A 
ATOM      8  C   UNL     1       1.889  -2.485   1.312  1.00  0.00     0.100 A 
ATOM      9  N   UNL     1       3.000  -2.182   0.516  1.00  0.00    -0.213 N 
ATOM     10  N   UNL     1       2.569  -4.260   0.123  1.00  0.00    -0.124 NA
ATOM     11  N   UNL     1       3.293  -3.230  -0.278  1.00  0.00    -0.061 NA
BRANCH   8  12
ATOM     12  C   UNL     1       1.266  -1.458   2.068  1.00  0.00     0.029 C 
ATOM     13  C   UNL     1       0.403  -0.216   0.010  1.00  0.00     0.039 C 
ATOM     14  C   UNL     1       0.575  -0.446   1.494  1.00  0.00    -0.074 C 
ATOM     15  C   UNL     1      -0.149   0.559   2.350  1.00  0.00     0.039 C 
ENDBRANCH   8  12
BRANCH   9  16
ATOM     16  C   UNL     1       3.687  -0.947   0.380  1.00  0.00     0.067 A 
ATOM     17  C   UNL     1       4.043  -0.507  -0.897  1.00  0.00     0.029 A 
ATOM     18  C   UNL     1       3.877  -0.113   1.488  1.00  0.00     0.029 A 
ATOM     19  C   UNL     1       4.452   0.817  -1.073  1.00  0.00     0.006 A 
ATOM     20  C   UNL     1       4.308   1.199   1.307  1.00  0.00     0.006 A 
ATOM     21  C   UNL     1       4.559   1.692   0.021  1.00  0.00    -0.045 A 
BRANCH  21  22
ATOM     22  C   UNL     1       4.903   3.159  -0.156  1.00  0.00     0.013 C 
ATOM     23  C   UNL     1       6.248   3.340  -0.858  1.00  0.00     0.012 C 
ATOM     24  C   UNL     1       3.783   3.899  -0.893  1.00  0.00     0.012 C 
ENDBRANCH  21  22
ENDBRANCH   9  16
ENDBRANCH   4   7
ENDBRANCH   2   3
ENDBRANCH   1   2
BRANCH   1  25
ATOM     25  C   UNL     1      -3.746  -3.955   2.289  1.00  0.00     0.023 C 
BRANCH  25  26
ATOM     26  C   UNL     1      -4.080  -3.643   3.746  1.00  0.00     0.116 C 
BRANCH  26  27
ATOM     27  N   UNL     1      -4.313  -2.224   4.002  1.00  0.00    -0.352 N 
ATOM     28  C   UNL     1      -4.530  -1.611   5.221  1.00  0.00     0.251 C 
ATOM     29  H   UNL     1      -4.315  -1.636   3.213  1.00  0.00     0.163 HD
ATOM     30  O   UNL     1      -5.066  -0.514   5.292  1.00  0.00    -0.269 OA
BRANCH  28  31
ATOM     31  C   UNL     1      -4.095  -2.299   6.449  1.00  0.00     0.039 A 
ATOM     32  C   UNL     1      -4.938  -2.385   7.561  1.00  0.00     0.014 A 
ATOM     33  C   UNL     1      -2.829  -2.881   6.464  1.00  0.00     0.014 A 
ATOM     34  C   UNL     1      -4.535  -3.145   8.658  1.00  0.00     0.010 A 
ATOM     35  C   UNL     1      -2.471  -3.708   7.503  1.00  0.00     0.010 A 
ATOM     36  C   UNL     1      -3.309  -3.824   8.612  1.00  0.00    -0.014 A 
BRANCH  36  37
ATOM     37  C   UNL     1      -2.957  -4.792   9.649  1.00  0.00     0.031 A 
ATOM     38  C   UNL     1      -3.875  -5.968   9.747  1.00  0.00     0.074 A 
ATOM     39  C   UNL     1      -1.750  -4.787  10.255  1.00  0.00     0.049 A 
ATOM     40  N   UNL     1      -4.538  -6.393  10.773  1.00  0.00    -0.248 NA
ATOM     41  C   UNL     1      -4.162  -6.716   8.510  1.00  0.00     0.031 C 
ATOM     42  C   UNL     1      -0.614  -3.901   9.976  1.00  0.00     0.029 A 
ATOM     43  N   UNL     1      -1.227  -5.667  11.152  1.00  0.00    -0.354 N 
ATOM     44  C   UNL     1      -5.188  -7.560  10.363  1.00  0.00     0.074 A 
ATOM     45  C   UNL     1      -5.065  -7.602   8.932  1.00  0.00     0.031 C 
ATOM     46  C   UNL     1       0.511  -4.433  10.498  1.00  0.00     0.029 A 
ATOM     47  C   UNL     1       0.158  -5.609  11.273  1.00  0.00     0.049 A 
ATOM     48  H   UNL     1      -1.782  -6.292  11.672  1.00  0.00     0.167 HD
ATOM     49  C   UNL     1      -5.560  -8.516  11.261  1.00  0.00     0.037 A 
ATOM     50  C   UNL     1       0.957  -6.496  11.918  1.00  0.00     0.037 A 
ATOM     51  C   UNL     1      -5.606  -7.969  12.596  1.00  0.00     0.049 A 
ATOM     52  C   UNL     1       0.089  -7.303  12.811  1.00  0.00     0.074 A 
ATOM     53  C   UNL     1      -6.293  -6.933  13.200  1.00  0.00     0.029 A 
ATOM     54  N   UNL     1      -4.584  -8.281  13.458  1.00  0.00    -0.354 N 
ATOM     55  N   UNL     1      -0.501  -6.840  13.876  1.00  0.00    -0.248 NA
ATOM     56  C   UNL     1      -0.466  -8.536  12.273  1.00  0.00     0.031 C 
ATOM     57  C   UNL     1      -5.359  -6.356  14.111  1.00  0.00     0.029 A 
ATOM     58  C   UNL     1      -4.192  -7.117  14.061  1.00  0.00     0.049 A 
ATOM     59  H   UNL     1      -4.204  -9.175  13.613  1.00  0.00     0.167 HD
ATOM     60  C   UNL     1      -1.741  -7.457  13.882  1.00  0.00     0.074 A 
ATOM     61  C   UNL     1      -1.625  -8.562  12.935  1.00  0.00     0.031 C 
ATOM     62  C   UNL     1      -2.826  -6.836  14.430  1.00  0.00     0.037 A 
BRANCH  49  63
ATOM     63  C   UNL     1      -5.495 -10.015  11.014  1.00  0.00     0.064 A 
ATOM     64  C   UNL     1      -5.876 -10.891  12.057  1.00  0.00     0.173 A 
ATOM     65  C   UNL     1      -4.795 -10.628   9.952  1.00  0.00     0.173 A 
ATOM     66  F   UNL     1      -6.561 -10.438  13.118  1.00  0.00    -0.203 F 
ATOM     67  C   UNL     1      -5.470 -12.228  12.094  1.00  0.00     0.198 A 
ATOM     68  C   UNL     1      -4.439 -11.977   9.967  1.00  0.00     0.198 A 
ATOM     69  F   UNL     1      -4.331  -9.944   8.903  1.00  0.00    -0.203 F 
ATOM     70  F   UNL     1      -5.725 -12.969  13.181  1.00  0.00    -0.200 F 
ATOM     71  C   UNL     1      -4.738 -12.767  11.055  1.00  0.00     0.200 A 
ATOM     72  F   UNL     1      -3.724 -12.479   8.949  1.00  0.00    -0.200 F 
ATOM     73  F   UNL     1      -4.282 -14.024  11.120  1.00  0.00    -0.200 F 
ENDBRANCH  49  63
BRANCH  50  74
ATOM     74  C   UNL     1       2.365  -6.878  11.652  1.00  0.00     0.064 A 
ATOM     75  C   UNL     1       3.109  -7.584  12.613  1.00  0.00     0.173 A 
ATOM     76  C   UNL     1       2.918  -6.814  10.359  1.00  0.00     0.173 A 
ATOM     77  F   UNL     1       2.641  -7.723  13.862  1.00  0.00    -0.203 F 
ATOM     78  C   UNL     1       4.311  -8.223  12.290  1.00  0.00     0.198 A 
ATOM     79  C   UNL     1       4.124  -7.442  10.040  1.00  0.00     0.198 A 
ATOM     80  F   UNL     1       2.255  -6.223   9.355  1.00  0.00    -0.203 F 
ATOM     81  F   UNL     1       4.952  -8.949  13.217  1.00  0.00    -0.200 F 
ATOM     82  C   UNL     1       4.811  -8.162  11.001  1.00  0.00     0.200 A 
ATOM     83  F   UNL     1       4.582  -7.400   8.781  1.00  0.00    -0.200 F 
ATOM     84  F   UNL     1       5.926  -8.829  10.673  1.00  0.00    -0.200 F 
ENDBRANCH  50  74
BRANCH  62  85
ATOM     85  C   UNL     1      -2.594  -5.625  15.285  1.00  0.00     0.064 A 
ATOM     86  C   UNL     1      -2.015  -4.429  14.826  1.00  0.00     0.173 A 
ATOM     87  C   UNL     1      -3.120  -5.630  16.584  1.00  0.00     0.173 A 
ATOM     88  F   UNL     1      -1.580  -4.309  13.565  1.00  0.00    -0.203 F 
ATOM     89  C   UNL     1      -1.932  -3.307  15.648  1.00  0.00     0.198 A 
ATOM     90  C   UNL     1      -3.072  -4.497  17.388  1.00  0.00     0.198 A 
ATOM     91  F   UNL     1      -3.731  -6.729  17.056  1.00  0.00    -0.203 F 
ATOM     92  F   UNL     1      -1.364  -2.180  15.192  1.00  0.00    -0.200 F 
ATOM     93  C   UNL     1      -2.469  -3.339  16.924  1.00  0.00     0.200 A 
ATOM     94  F   UNL     1      -3.638  -4.518  18.602  1.00  0.00    -0.200 F 
ATOM     95  F   UNL     1      -2.430  -2.246  17.698  1.00  0.00    -0.200 F 
ENDBRANCH  62  85
ENDBRANCH  36  37
ENDBRANCH  28  31
ENDBRANCH  26  27
ENDBRANCH  25  26
ENDBRANCH   1  25
TORSDOF 14
