REMARK SMILES [NH3+]C[C@@]1([C@@H](O)C(=O)NCCCCNC(=O)c2ccc(-c3c4nc(c(-c5c(F)c(F)c(F)c(F)c5F)c5ccc([nH]5)c(-c5c(F)c(F)c(F)c(F)c5F)c5nc(c(-c6c(F)c(F)c(F)c(F)c6F)c6ccc3[nH]6)C=C5)C=C4)cc2)CCOc2ccccc21
REMARK SMILES IDX 10 1 9 2 8 3 6 4 7 5 4 7 3 8 79 9 87 10 80 11 82 12 86 13
REMARK SMILES IDX 81 14 83 15 85 16 84 17 2 18 1 19 5 23 11 25 12 26 13 27
REMARK SMILES IDX 14 28 15 30 16 31 17 32 78 33 18 34 77 35 19 36 20 37 21 38
REMARK SMILES IDX 71 39 22 40 76 41 70 42 72 43 23 44 75 45 69 46 68 47 24 49
REMARK SMILES IDX 56 50 36 51 55 52 37 53 40 54 54 55 73 56 38 57 39 58 53 60
REMARK SMILES IDX 74 61 41 62 25 63 26 64 34 65 27 66 28 67 32 68 35 69 29 70
REMARK SMILES IDX 30 71 33 72 31 73 57 74 58 75 66 76 59 77 60 78 64 79 67 80
REMARK SMILES IDX 61 81 62 82 65 83 63 84 42 85 43 86 51 87 44 88 45 89 49 90
REMARK SMILES IDX 52 91 46 92 47 93 50 94 48 95
REMARK H PARENT 8 6 1 20 1 21 1 22 5 24 13 29 72 48 40 59
REMARK Flexibility Score: inf
ROOT
ATOM      1  C   UNL     1       4.005   3.809  -0.720  1.00  0.00     0.023 C 
ENDROOT
BRANCH   1   2
ATOM      2  C   UNL     1       3.262   2.792   0.141  1.00  0.00     0.116 C 
BRANCH   2   3
ATOM      3  N   UNL     1       1.894   3.212   0.366  1.00  0.00    -0.354 N 
ATOM      4  C   UNL     1       0.727   2.645  -0.045  1.00  0.00     0.250 C 
ATOM      5  O   UNL     1      -0.315   3.254   0.218  1.00  0.00    -0.272 OA
ATOM      6  H   UNL     1       1.793   4.033   0.899  1.00  0.00     0.163 HD
BRANCH   4   7
ATOM      7  C   UNL     1       0.674   1.281  -0.786  1.00  0.00     0.219 C 
BRANCH   7   8
ATOM      8  C   UNL     1       0.789   1.345  -2.358  1.00  0.00     0.086 C 
ATOM      9  C   UNL     1      -0.049   2.555  -2.848  1.00  0.00     0.062 C 
ATOM     10  C   UNL     1       0.163   0.096  -3.029  1.00  0.00     0.009 A 
ATOM     11  C   UNL     1      -0.202   2.546  -4.355  1.00  0.00     0.231 C 
ATOM     12  C   UNL     1      -0.580   0.221  -4.216  1.00  0.00     0.123 A 
ATOM     13  C   UNL     1       0.455  -1.204  -2.572  1.00  0.00     0.008 A 
ATOM     14  O   UNL     1      -0.924   1.408  -4.804  1.00  0.00    -0.493 OA
ATOM     15  C   UNL     1      -1.024  -0.910  -4.904  1.00  0.00     0.047 A 
ATOM     16  C   UNL     1       0.017  -2.332  -3.268  1.00  0.00     0.001 A 
ATOM     17  C   UNL     1      -0.719  -2.185  -4.438  1.00  0.00     0.004 A 
BRANCH   8  18
ATOM     18  C   UNL     1       2.258   1.330  -2.915  1.00  0.00     0.274 C 
BRANCH  18  19
ATOM     19  N   UNL     1       2.923   2.600  -3.193  1.00  0.00    -0.357 N 
ATOM     20  H   UNL     1       3.864   2.421  -3.546  1.00  0.00     0.344 HD
ATOM     21  H   UNL     1       2.981   3.149  -2.336  1.00  0.00     0.344 HD
ATOM     22  H   UNL     1       2.390   3.117  -3.893  1.00  0.00     0.344 HD
ENDBRANCH  18  19
ENDBRANCH   8  18
ENDBRANCH   7   8
BRANCH   7  23
ATOM     23  O   UNL     1       1.554   0.334  -0.176  1.00  0.00    -0.382 OA
ATOM     24  H   UNL     1       2.471   0.631  -0.278  1.00  0.00     0.211 HD
ENDBRANCH   7  23
ENDBRANCH   4   7
ENDBRANCH   2   3
ENDBRANCH   1   2
BRANCH   1  25
ATOM     25  C   UNL     1       4.638   4.965   0.030  1.00  0.00     0.023 C 
BRANCH  25  26
ATOM     26  C   UNL     1       5.688   4.558   1.046  1.00  0.00     0.116 C 
BRANCH  26  27
ATOM     27  N   UNL     1       6.773   3.759   0.487  1.00  0.00    -0.352 N 
ATOM     28  C   UNL     1       8.131   3.962   0.551  1.00  0.00     0.251 C 
ATOM     29  H   UNL     1       6.491   2.957  -0.009  1.00  0.00     0.163 HD
ATOM     30  O   UNL     1       8.903   3.236  -0.067  1.00  0.00    -0.269 OA
BRANCH  28  31
ATOM     31  C   UNL     1       8.653   5.099   1.335  1.00  0.00     0.039 A 
ATOM     32  C   UNL     1       9.623   5.927   0.769  1.00  0.00     0.014 A 
ATOM     33  C   UNL     1       8.120   5.393   2.591  1.00  0.00     0.014 A 
ATOM     34  C   UNL     1       9.985   7.104   1.425  1.00  0.00     0.010 A 
ATOM     35  C   UNL     1       8.378   6.625   3.172  1.00  0.00     0.010 A 
ATOM     36  C   UNL     1       9.324   7.489   2.604  1.00  0.00    -0.014 A 
BRANCH  36  37
ATOM     37  C   UNL     1       9.614   8.790   3.257  1.00  0.00     0.031 A 
ATOM     38  C   UNL     1      10.115   8.827   4.676  1.00  0.00     0.074 A 
ATOM     39  C   UNL     1       9.359   9.937   2.598  1.00  0.00     0.049 A 
ATOM     40  N   UNL     1      10.411   9.861   5.422  1.00  0.00    -0.248 NA
ATOM     41  C   UNL     1      10.258   7.535   5.366  1.00  0.00     0.031 C 
ATOM     42  C   UNL     1       8.769  10.034   1.261  1.00  0.00     0.029 A 
ATOM     43  N   UNL     1       9.564  11.243   2.964  1.00  0.00    -0.354 N 
ATOM     44  C   UNL     1      10.743   9.344   6.667  1.00  0.00     0.074 A 
ATOM     45  C   UNL     1      10.541   7.915   6.602  1.00  0.00     0.031 C 
ATOM     46  C   UNL     1       8.706  11.326   0.900  1.00  0.00     0.029 A 
ATOM     47  C   UNL     1       9.226  12.148   1.987  1.00  0.00     0.049 A 
ATOM     48  H   UNL     1       9.920  11.508   3.843  1.00  0.00     0.167 HD
ATOM     49  C   UNL     1      11.214   9.995   7.756  1.00  0.00     0.037 A 
ATOM     50  C   UNL     1       9.342  13.489   1.966  1.00  0.00     0.037 A 
ATOM     51  C   UNL     1      11.464  11.411   7.796  1.00  0.00     0.049 A 
ATOM     52  C   UNL     1       9.949  14.183   3.154  1.00  0.00     0.074 A 
ATOM     53  C   UNL     1      12.026  12.162   8.812  1.00  0.00     0.029 A 
ATOM     54  N   UNL     1      11.171  12.289   6.763  1.00  0.00    -0.354 N 
ATOM     55  N   UNL     1      10.358  13.673   4.291  1.00  0.00    -0.248 NA
ATOM     56  C   UNL     1      10.130  15.636   3.048  1.00  0.00     0.031 C 
ATOM     57  C   UNL     1      12.038  13.502   8.408  1.00  0.00     0.029 A 
ATOM     58  C   UNL     1      11.527  13.578   7.122  1.00  0.00     0.049 A 
ATOM     59  H   UNL     1      10.768  12.034   5.901  1.00  0.00     0.167 HD
ATOM     60  C   UNL     1      10.861  14.735   5.027  1.00  0.00     0.074 A 
ATOM     61  C   UNL     1      10.730  15.915   4.196  1.00  0.00     0.031 C 
ATOM     62  C   UNL     1      11.382  14.738   6.280  1.00  0.00     0.037 A 
BRANCH  49  63
ATOM     63  C   UNL     1      11.501   9.175   8.981  1.00  0.00     0.064 A 
ATOM     64  C   UNL     1      12.548   8.240   9.014  1.00  0.00     0.173 A 
ATOM     65  C   UNL     1      10.724   9.327  10.139  1.00  0.00     0.173 A 
ATOM     66  F   UNL     1      13.313   8.043   7.929  1.00  0.00    -0.203 F 
ATOM     67  C   UNL     1      12.780   7.460  10.144  1.00  0.00     0.198 A 
ATOM     68  C   UNL     1      10.980   8.569  11.279  1.00  0.00     0.198 A 
ATOM     69  F   UNL     1       9.712  10.207  10.165  1.00  0.00    -0.203 F 
ATOM     70  F   UNL     1      13.743   6.528  10.127  1.00  0.00    -0.200 F 
ATOM     71  C   UNL     1      11.999   7.629  11.277  1.00  0.00     0.200 A 
ATOM     72  F   UNL     1      10.232   8.741  12.378  1.00  0.00    -0.200 F 
ATOM     73  F   UNL     1      12.223   6.878  12.365  1.00  0.00    -0.200 F 
ENDBRANCH  49  63
BRANCH  50  74
ATOM     74  C   UNL     1       8.936  14.248   0.755  1.00  0.00     0.064 A 
ATOM     75  C   UNL     1       9.897  14.832  -0.082  1.00  0.00     0.173 A 
ATOM     76  C   UNL     1       7.587  14.393   0.400  1.00  0.00     0.173 A 
ATOM     77  F   UNL     1      11.199  14.735   0.224  1.00  0.00    -0.203 F 
ATOM     78  C   UNL     1       9.524  15.548  -1.218  1.00  0.00     0.198 A 
ATOM     79  C   UNL     1       7.217  15.086  -0.750  1.00  0.00     0.198 A 
ATOM     80  F   UNL     1       6.630  13.844   1.163  1.00  0.00    -0.203 F 
ATOM     81  F   UNL     1      10.462  16.130  -1.978  1.00  0.00    -0.200 F 
ATOM     82  C   UNL     1       8.184  15.669  -1.555  1.00  0.00     0.200 A 
ATOM     83  F   UNL     1       5.922  15.188  -1.081  1.00  0.00    -0.200 F 
ATOM     84  F   UNL     1       7.826  16.351  -2.651  1.00  0.00    -0.200 F 
ENDBRANCH  50  74
BRANCH  62  85
ATOM     85  C   UNL     1      11.861  16.055   6.813  1.00  0.00     0.064 A 
ATOM     86  C   UNL     1      10.964  17.073   7.170  1.00  0.00     0.173 A 
ATOM     87  C   UNL     1      13.233  16.296   6.984  1.00  0.00     0.173 A 
ATOM     88  F   UNL     1       9.644  16.895   7.013  1.00  0.00    -0.203 F 
ATOM     89  C   UNL     1      11.425  18.298   7.644  1.00  0.00     0.198 A 
ATOM     90  C   UNL     1      13.688  17.511   7.487  1.00  0.00     0.198 A 
ATOM     91  F   UNL     1      14.130  15.352   6.665  1.00  0.00    -0.203 F 
ATOM     92  F   UNL     1      10.553  19.276   7.924  1.00  0.00    -0.200 F 
ATOM     93  C   UNL     1      12.786  18.514   7.807  1.00  0.00     0.200 A 
ATOM     94  F   UNL     1      15.002  17.713   7.657  1.00  0.00    -0.200 F 
ATOM     95  F   UNL     1      13.227  19.694   8.262  1.00  0.00    -0.200 F 
ENDBRANCH  62  85
ENDBRANCH  36  37
ENDBRANCH  28  31
ENDBRANCH  26  27
ENDBRANCH  25  26
ENDBRANCH   1  25
TORSDOF 15
