REMARK SMILES Nc1nc(CC(=O)N(CC(=O)NCCCCNC(=O)c2ccc(-c3c4nc(c(-c5c(F)c(F)c(F)c(F)c5F)c5ccc([nH]5)c(-c5c(F)c(F)c(F)c(F)c5F)c5nc(c(-c6c(F)c(F)c(F)c(F)c6F)c6ccc3[nH]6)C=C5)C=C4)cc2)CC(F)(F)F)cs1
REMARK SMILES IDX 13 1 12 2 10 3 11 4 9 6 8 7 6 8 7 9 5 10 4 11 2 12 3 13
REMARK SMILES IDX 89 14 88 15 1 16 83 19 84 20 85 21 86 22 87 23 14 24 15 25
REMARK SMILES IDX 16 26 17 27 18 28 19 30 20 31 21 32 82 33 22 34 81 35 23 36
REMARK SMILES IDX 24 37 25 38 75 39 26 40 80 41 74 42 76 43 27 44 79 45 73 46
REMARK SMILES IDX 72 47 28 49 60 50 40 51 59 52 41 53 44 54 58 55 77 56 42 57
REMARK SMILES IDX 43 58 57 60 78 61 45 62 29 63 30 64 38 65 31 66 32 67 36 68
REMARK SMILES IDX 39 69 33 70 34 71 37 72 35 73 61 74 62 75 70 76 63 77 64 78
REMARK SMILES IDX 68 79 71 80 65 81 66 82 69 83 67 84 46 85 47 86 55 87 48 88
REMARK SMILES IDX 49 89 53 90 56 91 50 92 51 93 54 94 52 95
REMARK H PARENT 12 5 1 17 1 18 17 29 76 48 44 59
REMARK Flexibility Score: inf
ROOT
ATOM      1  C   UNL     1      -1.401   0.353   2.231  1.00  0.00     0.116 C 
ENDROOT
BRANCH   1   2
ATOM      2  N   UNL     1      -0.873  -0.130   3.482  1.00  0.00    -0.355 N 
ATOM      3  C   UNL     1      -0.506  -1.411   3.791  1.00  0.00     0.239 C 
ATOM      4  O   UNL     1       0.190  -1.590   4.793  1.00  0.00    -0.273 OA
ATOM      5  H   UNL     1      -0.764   0.538   4.196  1.00  0.00     0.163 HD
BRANCH   3   6
ATOM      6  C   UNL     1      -0.848  -2.588   2.853  1.00  0.00     0.219 C 
BRANCH   6   7
ATOM      7  N   UNL     1      -2.264  -2.720   2.466  1.00  0.00    -0.324 N 
BRANCH   7   8
ATOM      8  C   UNL     1      -2.750  -2.704   1.160  1.00  0.00     0.229 C 
ATOM      9  O   UNL     1      -3.964  -2.617   0.953  1.00  0.00    -0.274 OA
BRANCH   8  10
ATOM     10  C   UNL     1      -1.804  -2.905  -0.024  1.00  0.00     0.157 C 
BRANCH  10  11
ATOM     11  C   UNL     1      -1.081  -1.679  -0.481  1.00  0.00     0.063 A 
ATOM     12  C   UNL     1       0.758  -0.430  -0.594  1.00  0.00     0.180 A 
ATOM     13  N   UNL     1       0.264  -1.559  -0.154  1.00  0.00    -0.225 NA
ATOM     14  S   UNL     1      -0.344   0.552  -1.467  1.00  0.00    -0.106 S 
ATOM     15  C   UNL     1      -1.580  -0.614  -1.210  1.00  0.00     0.093 A 
BRANCH  12  16
ATOM     16  N   UNL     1       2.016  -0.050  -0.353  1.00  0.00    -0.375 N 
ATOM     17  H   UNL     1       2.620  -0.641   0.152  1.00  0.00     0.159 HD
ATOM     18  H   UNL     1       2.338   0.820  -0.681  1.00  0.00     0.159 HD
ENDBRANCH  12  16
ENDBRANCH  10  11
ENDBRANCH   8  10
ENDBRANCH   7   8
BRANCH   7  19
ATOM     19  C   UNL     1      -3.236  -2.958   3.562  1.00  0.00     0.235 C 
BRANCH  19  20
ATOM     20  C   UNL     1      -4.089  -1.791   4.072  1.00  0.00     0.406 C 
ATOM     21  F   UNL     1      -4.763  -1.150   3.098  1.00  0.00    -0.169 F 
ATOM     22  F   UNL     1      -5.008  -2.245   4.961  1.00  0.00    -0.169 F 
ATOM     23  F   UNL     1      -3.337  -0.882   4.731  1.00  0.00    -0.169 F 
ENDBRANCH  19  20
ENDBRANCH   7  19
ENDBRANCH   6   7
ENDBRANCH   3   6
ENDBRANCH   1   2
BRANCH   1  24
ATOM     24  C   UNL     1      -2.695   1.143   2.344  1.00  0.00     0.023 C 
BRANCH  24  25
ATOM     25  C   UNL     1      -2.516   2.582   2.793  1.00  0.00     0.023 C 
BRANCH  25  26
ATOM     26  C   UNL     1      -1.659   3.422   1.862  1.00  0.00     0.116 C 
BRANCH  26  27
ATOM     27  N   UNL     1      -2.197   3.519   0.512  1.00  0.00    -0.352 N 
ATOM     28  C   UNL     1      -2.354   4.642  -0.268  1.00  0.00     0.251 C 
ATOM     29  H   UNL     1      -2.486   2.671   0.104  1.00  0.00     0.163 HD
ATOM     30  O   UNL     1      -2.940   4.589  -1.337  1.00  0.00    -0.269 OA
BRANCH  28  31
ATOM     31  C   UNL     1      -1.817   5.927   0.227  1.00  0.00     0.039 A 
ATOM     32  C   UNL     1      -2.620   7.067   0.170  1.00  0.00     0.014 A 
ATOM     33  C   UNL     1      -0.538   5.986   0.786  1.00  0.00     0.014 A 
ATOM     34  C   UNL     1      -2.152   8.261   0.722  1.00  0.00     0.010 A 
ATOM     35  C   UNL     1      -0.123   7.141   1.433  1.00  0.00     0.010 A 
ATOM     36  C   UNL     1      -0.911   8.300   1.378  1.00  0.00    -0.014 A 
BRANCH  36  37
ATOM     37  C   UNL     1      -0.380   9.560   1.952  1.00  0.00     0.031 A 
ATOM     38  C   UNL     1       0.898  10.138   1.404  1.00  0.00     0.074 A 
ATOM     39  C   UNL     1      -1.008  10.152   2.984  1.00  0.00     0.049 A 
ATOM     40  N   UNL     1       1.564  11.196   1.791  1.00  0.00    -0.248 NA
ATOM     41  C   UNL     1       1.533   9.408   0.294  1.00  0.00     0.031 C 
ATOM     42  C   UNL     1      -2.221   9.656   3.636  1.00  0.00     0.029 A 
ATOM     43  N   UNL     1      -0.709  11.302   3.670  1.00  0.00    -0.354 N 
ATOM     44  C   UNL     1       2.696  11.242   0.989  1.00  0.00     0.074 A 
ATOM     45  C   UNL     1       2.670  10.068   0.147  1.00  0.00     0.031 C 
ATOM     46  C   UNL     1      -2.582  10.514   4.605  1.00  0.00     0.029 A 
ATOM     47  C   UNL     1      -1.608  11.600   4.665  1.00  0.00     0.049 A 
ATOM     48  H   UNL     1       0.075  11.861   3.467  1.00  0.00     0.167 HD
ATOM     49  C   UNL     1       3.654  12.196   0.931  1.00  0.00     0.037 A 
ATOM     50  C   UNL     1      -1.639  12.636   5.525  1.00  0.00     0.037 A 
ATOM     51  C   UNL     1       3.654  13.381   1.746  1.00  0.00     0.049 A 
ATOM     52  C   UNL     1      -0.567  13.690   5.434  1.00  0.00     0.074 A 
ATOM     53  C   UNL     1       4.545  14.438   1.733  1.00  0.00     0.029 A 
ATOM     54  N   UNL     1       2.710  13.663   2.723  1.00  0.00    -0.354 N 
ATOM     55  N   UNL     1       0.462  13.761   4.623  1.00  0.00    -0.248 NA
ATOM     56  C   UNL     1      -0.669  14.818   6.370  1.00  0.00     0.031 C 
ATOM     57  C   UNL     1       4.168  15.338   2.735  1.00  0.00     0.029 A 
ATOM     58  C   UNL     1       3.006  14.872   3.329  1.00  0.00     0.049 A 
ATOM     59  H   UNL     1       1.943  13.089   2.950  1.00  0.00     0.167 HD
ATOM     60  C   UNL     1       1.104  14.956   4.923  1.00  0.00     0.074 A 
ATOM     61  C   UNL     1       0.341  15.582   5.982  1.00  0.00     0.031 C 
ATOM     62  C   UNL     1       2.222  15.488   4.370  1.00  0.00     0.037 A 
BRANCH  49  63
ATOM     63  C   UNL     1       4.772  11.998  -0.053  1.00  0.00     0.064 A 
ATOM     64  C   UNL     1       4.554  12.047  -1.439  1.00  0.00     0.173 A 
ATOM     65  C   UNL     1       6.083  11.774   0.395  1.00  0.00     0.173 A 
ATOM     66  F   UNL     1       3.317  12.242  -1.922  1.00  0.00    -0.203 F 
ATOM     67  C   UNL     1       5.597  11.842  -2.338  1.00  0.00     0.198 A 
ATOM     68  C   UNL     1       7.130  11.607  -0.508  1.00  0.00     0.198 A 
ATOM     69  F   UNL     1       6.350  11.720   1.708  1.00  0.00    -0.203 F 
ATOM     70  F   UNL     1       5.351  11.831  -3.655  1.00  0.00    -0.200 F 
ATOM     71  C   UNL     1       6.885  11.631  -1.872  1.00  0.00     0.200 A 
ATOM     72  F   UNL     1       8.377  11.415  -0.056  1.00  0.00    -0.200 F 
ATOM     73  F   UNL     1       7.889  11.440  -2.739  1.00  0.00    -0.200 F 
ENDBRANCH  49  63
BRANCH  50  74
ATOM     74  C   UNL     1      -2.740  12.751   6.516  1.00  0.00     0.064 A 
ATOM     75  C   UNL     1      -3.698  13.770   6.414  1.00  0.00     0.173 A 
ATOM     76  C   UNL     1      -2.853  11.858   7.592  1.00  0.00     0.173 A 
ATOM     77  F   UNL     1      -3.624  14.661   5.414  1.00  0.00    -0.203 F 
ATOM     78  C   UNL     1      -4.708  13.910   7.365  1.00  0.00     0.198 A 
ATOM     79  C   UNL     1      -3.881  11.979   8.525  1.00  0.00     0.198 A 
ATOM     80  F   UNL     1      -1.967  10.861   7.733  1.00  0.00    -0.203 F 
ATOM     81  F   UNL     1      -5.576  14.926   7.272  1.00  0.00    -0.200 F 
ATOM     82  C   UNL     1      -4.801  13.011   8.417  1.00  0.00     0.200 A 
ATOM     83  F   UNL     1      -3.977  11.100   9.531  1.00  0.00    -0.200 F 
ATOM     84  F   UNL     1      -5.772  13.145   9.330  1.00  0.00    -0.200 F 
ENDBRANCH  50  74
BRANCH  62  85
ATOM     85  C   UNL     1       2.655  16.841   4.857  1.00  0.00     0.064 A 
ATOM     86  C   UNL     1       3.186  17.033   6.140  1.00  0.00     0.173 A 
ATOM     87  C   UNL     1       2.570  17.955   4.007  1.00  0.00     0.173 A 
ATOM     88  F   UNL     1       3.278  16.003   6.995  1.00  0.00    -0.203 F 
ATOM     89  C   UNL     1       3.585  18.297   6.567  1.00  0.00     0.198 A 
ATOM     90  C   UNL     1       3.003  19.210   4.424  1.00  0.00     0.198 A 
ATOM     91  F   UNL     1       2.080  17.824   2.765  1.00  0.00    -0.203 F 
ATOM     92  F   UNL     1       4.036  18.468   7.817  1.00  0.00    -0.200 F 
ATOM     93  C   UNL     1       3.500  19.382   5.707  1.00  0.00     0.200 A 
ATOM     94  F   UNL     1       2.938  20.253   3.585  1.00  0.00    -0.200 F 
ATOM     95  F   UNL     1       3.891  20.596   6.117  1.00  0.00    -0.200 F 
ENDBRANCH  62  85
ENDBRANCH  36  37
ENDBRANCH  28  31
ENDBRANCH  26  27
ENDBRANCH  25  26
ENDBRANCH  24  25
ENDBRANCH   1  24
TORSDOF 18
