REMARK SMILES CC(C)n1cncc1C[NH2+][C@H]1[C@@H]2CC[C@@H](C2)[C@@H]1C(=O)NCCCCNC(=O)c1ccc(-c2c3nc(c(-c4c(F)c(F)c(F)c(F)c4F)c4ccc([nH]4)c(-c4c(F)c(F)c(F)c(F)c4F)c4nc(c(-c5c(F)c(F)c(F)c(F)c5F)c5ccc2[nH]5)C=C4)C=C3)cc1
REMARK SMILES IDX 21 1 20 2 18 3 19 4 17 6 11 7 12 8 13 9 16 10 15 11 14 12
REMARK SMILES IDX 10 13 9 16 8 17 4 18 5 19 6 20 7 21 2 22 1 23 3 24 22 25
REMARK SMILES IDX 23 26 24 27 25 28 26 29 27 31 28 32 29 33 90 34 30 35 89 36
REMARK SMILES IDX 31 37 32 38 33 39 83 40 34 41 88 42 82 43 84 44 35 45 87 46
REMARK SMILES IDX 81 47 80 48 36 50 68 51 48 52 67 53 49 54 52 55 66 56 85 57
REMARK SMILES IDX 50 58 51 59 65 61 86 62 53 63 37 64 38 65 46 66 39 67 40 68
REMARK SMILES IDX 44 69 47 70 41 71 42 72 45 73 43 74 69 75 70 76 78 77 71 78
REMARK SMILES IDX 72 79 76 80 79 81 73 82 74 83 77 84 75 85 54 86 55 87 63 88
REMARK SMILES IDX 56 89 57 90 61 91 64 92 58 93 59 94 62 95 60 96
REMARK H PARENT 20 5 10 14 10 15 25 30 84 49 52 60
REMARK Flexibility Score: inf
ROOT
ATOM      1  C   UNL     1       0.871   7.906   1.269  1.00  0.00     0.116 C 
ENDROOT
BRANCH   1   2
ATOM      2  N   UNL     1      -0.258   7.582   2.114  1.00  0.00    -0.356 N 
ATOM      3  C   UNL     1      -1.485   7.060   1.891  1.00  0.00     0.229 C 
ATOM      4  O   UNL     1      -2.208   7.014   2.897  1.00  0.00    -0.275 OA
ATOM      5  H   UNL     1      -0.096   7.787   3.064  1.00  0.00     0.163 HD
BRANCH   3   6
ATOM      6  C   UNL     1      -2.041   6.529   0.568  1.00  0.00     0.140 C 
ATOM      7  C   UNL     1      -1.237   5.484  -0.247  1.00  0.00     0.198 C 
ATOM      8  C   UNL     1      -1.544   5.936  -1.710  1.00  0.00     0.048 C 
ATOM      9  C   UNL     1      -0.728   7.194  -2.038  1.00  0.00     0.010 C 
ATOM     10  C   UNL     1      -2.960   6.523  -1.605  1.00  0.00     0.014 C 
ATOM     11  C   UNL     1      -2.561   7.517  -0.504  1.00  0.00     0.008 C 
ATOM     12  C   UNL     1      -1.462   8.281  -1.248  1.00  0.00     0.005 C 
BRANCH   7  13
ATOM     13  N   UNL     1      -1.730   4.106  -0.098  1.00  0.00    -0.338 N 
ATOM     14  H   UNL     1      -2.731   4.098  -0.295  1.00  0.00     0.346 HD
ATOM     15  H   UNL     1      -1.204   3.526  -0.752  1.00  0.00     0.346 HD
BRANCH  13  16
ATOM     16  C   UNL     1      -1.517   3.554   1.234  1.00  0.00     0.317 C 
BRANCH  16  17
ATOM     17  C   UNL     1      -1.809   2.094   1.219  1.00  0.00     0.093 A 
ATOM     18  N   UNL     1      -0.940   1.021   1.204  1.00  0.00    -0.327 N 
ATOM     19  C   UNL     1      -1.724  -0.113   1.309  1.00  0.00     0.200 A 
ATOM     20  N   UNL     1      -3.005   0.157   1.304  1.00  0.00    -0.245 NA
ATOM     21  C   UNL     1      -3.069   1.516   1.246  1.00  0.00     0.140 A 
BRANCH  18  22
ATOM     22  C   UNL     1       0.517   0.909   1.140  1.00  0.00     0.082 C 
ATOM     23  C   UNL     1       0.966   0.076  -0.071  1.00  0.00     0.031 C 
ATOM     24  C   UNL     1       1.341   2.195   1.175  1.00  0.00     0.031 C 
ENDBRANCH  18  22
ENDBRANCH  16  17
ENDBRANCH  13  16
ENDBRANCH   7  13
ENDBRANCH   3   6
ENDBRANCH   1   2
BRANCH   1  25
ATOM     25  C   UNL     1       0.989   9.418   1.028  1.00  0.00     0.023 C 
BRANCH  25  26
ATOM     26  C   UNL     1       1.764  10.227   2.071  1.00  0.00     0.023 C 
BRANCH  26  27
ATOM     27  C   UNL     1       3.261   9.958   2.109  1.00  0.00     0.116 C 
BRANCH  27  28
ATOM     28  N   UNL     1       3.941  10.243   0.842  1.00  0.00    -0.352 N 
ATOM     29  C   UNL     1       5.220   9.868   0.476  1.00  0.00     0.251 C 
ATOM     30  H   UNL     1       3.429  10.758   0.178  1.00  0.00     0.163 HD
ATOM     31  O   UNL     1       5.831  10.430  -0.426  1.00  0.00    -0.269 OA
BRANCH  29  32
ATOM     32  C   UNL     1       5.828   8.744   1.198  1.00  0.00     0.039 A 
ATOM     33  C   UNL     1       7.087   8.843   1.797  1.00  0.00     0.014 A 
ATOM     34  C   UNL     1       5.026   7.619   1.365  1.00  0.00     0.014 A 
ATOM     35  C   UNL     1       7.495   7.832   2.663  1.00  0.00     0.010 A 
ATOM     36  C   UNL     1       5.361   6.710   2.332  1.00  0.00     0.010 A 
ATOM     37  C   UNL     1       6.612   6.781   2.948  1.00  0.00    -0.014 A 
BRANCH  37  38
ATOM     38  C   UNL     1       6.913   5.783   3.969  1.00  0.00     0.031 A 
ATOM     39  C   UNL     1       7.108   6.305   5.353  1.00  0.00     0.074 A 
ATOM     40  C   UNL     1       6.722   4.468   3.724  1.00  0.00     0.049 A 
ATOM     41  N   UNL     1       8.144   6.184   6.117  1.00  0.00    -0.248 NA
ATOM     42  C   UNL     1       6.042   7.139   5.935  1.00  0.00     0.031 C 
ATOM     43  C   UNL     1       6.210   3.851   2.490  1.00  0.00     0.029 A 
ATOM     44  N   UNL     1       6.820   3.407   4.569  1.00  0.00    -0.354 N 
ATOM     45  C   UNL     1       7.800   6.769   7.339  1.00  0.00     0.074 A 
ATOM     46  C   UNL     1       6.571   7.479   7.112  1.00  0.00     0.031 C 
ATOM     47  C   UNL     1       5.823   2.583   2.742  1.00  0.00     0.029 A 
ATOM     48  C   UNL     1       6.237   2.242   4.088  1.00  0.00     0.049 A 
ATOM     49  H   UNL     1       7.265   3.460   5.446  1.00  0.00     0.167 HD
ATOM     50  C   UNL     1       8.427   6.407   8.495  1.00  0.00     0.037 A 
ATOM     51  C   UNL     1       6.098   1.071   4.748  1.00  0.00     0.037 A 
ATOM     52  C   UNL     1       9.640   5.686   8.210  1.00  0.00     0.049 A 
ATOM     53  C   UNL     1       7.083   1.077   5.851  1.00  0.00     0.074 A 
ATOM     54  C   UNL     1      10.870   5.982   7.663  1.00  0.00     0.029 A 
ATOM     55  N   UNL     1       9.519   4.321   8.194  1.00  0.00    -0.354 N 
ATOM     56  N   UNL     1       8.374   1.065   5.667  1.00  0.00    -0.248 NA
ATOM     57  C   UNL     1       6.645   1.469   7.183  1.00  0.00     0.031 C 
ATOM     58  C   UNL     1      11.295   4.786   7.011  1.00  0.00     0.029 A 
ATOM     59  C   UNL     1      10.327   3.802   7.221  1.00  0.00     0.049 A 
ATOM     60  H   UNL     1       8.939   3.795   8.791  1.00  0.00     0.167 HD
ATOM     61  C   UNL     1       8.880   1.838   6.697  1.00  0.00     0.074 A 
ATOM     62  C   UNL     1       7.804   1.910   7.678  1.00  0.00     0.031 C 
ATOM     63  C   UNL     1      10.007   2.584   6.510  1.00  0.00     0.037 A 
BRANCH  50  64
ATOM     64  C   UNL     1       7.764   6.296   9.859  1.00  0.00     0.064 A 
ATOM     65  C   UNL     1       8.555   5.935  10.974  1.00  0.00     0.173 A 
ATOM     66  C   UNL     1       6.370   6.203  10.061  1.00  0.00     0.173 A 
ATOM     67  F   UNL     1       9.895   5.975  10.905  1.00  0.00    -0.203 F 
ATOM     68  C   UNL     1       7.996   5.428  12.152  1.00  0.00     0.198 A 
ATOM     69  C   UNL     1       5.815   5.746  11.257  1.00  0.00     0.198 A 
ATOM     70  F   UNL     1       5.489   6.435   9.083  1.00  0.00    -0.203 F 
ATOM     71  F   UNL     1       8.795   4.970  13.126  1.00  0.00    -0.200 F 
ATOM     72  C   UNL     1       6.625   5.325  12.289  1.00  0.00     0.200 A 
ATOM     73  F   UNL     1       4.483   5.638  11.363  1.00  0.00    -0.200 F 
ATOM     74  F   UNL     1       6.088   4.776  13.386  1.00  0.00    -0.200 F 
ENDBRANCH  50  64
BRANCH  51  75
ATOM     75  C   UNL     1       5.034   0.054   4.625  1.00  0.00     0.064 A 
ATOM     76  C   UNL     1       5.234  -1.263   5.066  1.00  0.00     0.173 A 
ATOM     77  C   UNL     1       3.708   0.427   4.331  1.00  0.00     0.173 A 
ATOM     78  F   UNL     1       6.463  -1.683   5.394  1.00  0.00    -0.203 F 
ATOM     79  C   UNL     1       4.164  -2.147   5.238  1.00  0.00     0.198 A 
ATOM     80  C   UNL     1       2.642  -0.455   4.508  1.00  0.00     0.198 A 
ATOM     81  F   UNL     1       3.413   1.679   3.949  1.00  0.00    -0.203 F 
ATOM     82  F   UNL     1       4.386  -3.379   5.716  1.00  0.00    -0.200 F 
ATOM     83  C   UNL     1       2.868  -1.738   4.973  1.00  0.00     0.200 A 
ATOM     84  F   UNL     1       1.390  -0.034   4.285  1.00  0.00    -0.200 F 
ATOM     85  F   UNL     1       1.836  -2.562   5.197  1.00  0.00    -0.200 F 
ENDBRANCH  51  75
BRANCH  63  86
ATOM     86  C   UNL     1      10.873   2.231   5.336  1.00  0.00     0.064 A 
ATOM     87  C   UNL     1      10.507   2.430   3.995  1.00  0.00     0.173 A 
ATOM     88  C   UNL     1      12.173   1.777   5.589  1.00  0.00     0.173 A 
ATOM     89  F   UNL     1       9.316   2.944   3.675  1.00  0.00    -0.203 F 
ATOM     90  C   UNL     1      11.389   2.149   2.954  1.00  0.00     0.198 A 
ATOM     91  C   UNL     1      13.066   1.531   4.550  1.00  0.00     0.198 A 
ATOM     92  F   UNL     1      12.594   1.617   6.853  1.00  0.00    -0.203 F 
ATOM     93  F   UNL     1      11.009   2.336   1.681  1.00  0.00    -0.200 F 
ATOM     94  C   UNL     1      12.671   1.707   3.233  1.00  0.00     0.200 A 
ATOM     95  F   UNL     1      14.319   1.147   4.827  1.00  0.00    -0.200 F 
ATOM     96  F   UNL     1      13.535   1.475   2.235  1.00  0.00    -0.200 F 
ENDBRANCH  63  86
ENDBRANCH  37  38
ENDBRANCH  29  32
ENDBRANCH  27  28
ENDBRANCH  26  27
ENDBRANCH  25  26
ENDBRANCH   1  25
TORSDOF 15
