REMARK SMILES CC(C)[C@H](NC(=O)[C@@H]1CC2=c3ccccc3=N[C@H]2[C@@H]2c3ccccc3C(=O)N12)C(=O)N[C@H](C)C(=O)NCCCCNC(=O)c1ccc(-c2c3nc(c(-c4c(F)c(F)c(F)c(F)c4F)c4ccc([nH]4)c(-c4c(F)c(F)c(F)c(F)c4F)c4nc(c(-c5c(F)c(F)c(F)c(F)c5F)c5ccc2[nH]5)C=C4)C=C3)cc1
REMARK SMILES IDX 37 1 36 2 34 3 35 4 32 6 33 7 31 8 29 9 30 10 4 12 2 13 1 14
REMARK SMILES IDX 3 15 5 16 6 17 7 19 8 20 9 21 28 22 10 23 19 24 26 25 11 26
REMARK SMILES IDX 18 27 20 28 25 29 27 30 12 31 16 32 17 33 21 34 24 35 13 36
REMARK SMILES IDX 15 37 22 38 23 39 14 40 38 41 39 42 40 43 41 44 42 45 43 47
REMARK SMILES IDX 44 48 45 49 106 50 46 51 105 52 47 53 48 54 49 55 99 56
REMARK SMILES IDX 50 57 104 58 98 59 100 60 51 61 103 62 97 63 96 64 52 66
REMARK SMILES IDX 84 67 64 68 83 69 65 70 68 71 82 72 101 73 66 74 67 75 81 77
REMARK SMILES IDX 102 78 69 79 53 80 54 81 62 82 55 83 56 84 60 85 63 86 57 87
REMARK SMILES IDX 58 88 61 89 59 90 85 91 86 92 94 93 87 94 88 95 92 96 95 97
REMARK SMILES IDX 89 98 90 99 93 100 91 101 70 102 71 103 79 104 72 105 73 106
REMARK SMILES IDX 77 107 80 108 74 109 75 110 78 111 76 112
REMARK H PARENT 36 5 31 11 5 18 41 46 100 65 68 76
REMARK Flexibility Score: inf
ROOT
ATOM      1  C   UNL     1      -1.228   2.143   7.324  1.00  0.00     0.116 C 
ENDROOT
BRANCH   1   2
ATOM      2  N   UNL     1      -1.194   0.695   7.273  1.00  0.00    -0.354 N 
ATOM      3  C   UNL     1      -0.679  -0.123   6.311  1.00  0.00     0.242 C 
ATOM      4  O   UNL     1      -0.857  -1.337   6.429  1.00  0.00    -0.273 OA
ATOM      5  H   UNL     1      -1.600   0.236   8.043  1.00  0.00     0.163 HD
BRANCH   3   6
ATOM      6  C   UNL     1       0.041   0.480   5.096  1.00  0.00     0.168 C 
ATOM      7  C   UNL     1      -0.989   1.212   4.253  1.00  0.00     0.041 C 
BRANCH   6   8
ATOM      8  N   UNL     1       1.197   1.293   5.536  1.00  0.00    -0.343 N 
ATOM      9  C   UNL     1       2.183   1.984   4.893  1.00  0.00     0.243 C 
ATOM     10  O   UNL     1       3.055   2.487   5.610  1.00  0.00    -0.273 OA
ATOM     11  H   UNL     1       1.271   1.348   6.516  1.00  0.00     0.164 HD
BRANCH   9  12
ATOM     12  C   UNL     1       2.169   2.264   3.353  1.00  0.00     0.174 C 
BRANCH  12  13
ATOM     13  C   UNL     1       1.375   3.580   3.124  1.00  0.00     0.015 C 
ATOM     14  C   UNL     1       2.126   4.771   3.763  1.00  0.00     0.010 C 
ATOM     15  C   UNL     1       1.168   3.986   1.679  1.00  0.00     0.010 C 
ENDBRANCH  12  13
BRANCH  12  16
ATOM     16  N   UNL     1       1.832   0.944   2.798  1.00  0.00    -0.342 N 
ATOM     17  C   UNL     1       1.011   0.334   1.929  1.00  0.00     0.243 C 
ATOM     18  H   UNL     1       2.416   0.268   3.211  1.00  0.00     0.164 HD
ATOM     19  O   UNL     1       0.677  -0.812   2.275  1.00  0.00    -0.273 OA
BRANCH  17  20
ATOM     20  C   UNL     1       0.613   0.830   0.545  1.00  0.00     0.179 C 
ATOM     21  C   UNL     1       1.694   1.620  -0.257  1.00  0.00     0.069 C 
ATOM     22  N   UNL     1      -0.712   1.014  -0.052  1.00  0.00    -0.317 N 
ATOM     23  C   UNL     1       1.861   0.831  -1.535  1.00  0.00    -0.031 C 
ATOM     24  C   UNL     1      -0.737   1.024  -1.541  1.00  0.00     0.146 C 
ATOM     25  C   UNL     1      -1.555   1.992   0.451  1.00  0.00     0.255 C 
ATOM     26  C   UNL     1       2.738  -0.182  -1.518  1.00  0.00     0.001 A 
ATOM     27  C   UNL     1       0.567   0.452  -2.242  1.00  0.00     0.160 C 
ATOM     28  C   UNL     1      -1.100   2.475  -1.774  1.00  0.00    -0.010 A 
ATOM     29  C   UNL     1      -1.726   2.972  -0.624  1.00  0.00     0.045 A 
ATOM     30  O   UNL     1      -1.908   2.200   1.596  1.00  0.00    -0.269 OA
ATOM     31  C   UNL     1       3.915  -0.321  -0.703  1.00  0.00     0.010 A 
ATOM     32  C   UNL     1       1.776  -1.306  -1.673  1.00  0.00     0.066 A 
ATOM     33  N   UNL     1       0.597  -1.051  -2.172  1.00  0.00    -0.274 NA
ATOM     34  C   UNL     1      -0.801   3.349  -2.803  1.00  0.00     0.007 A 
ATOM     35  C   UNL     1      -2.069   4.302  -0.443  1.00  0.00     0.014 A 
ATOM     36  C   UNL     1       4.136  -1.468  -0.047  1.00  0.00     0.001 A 
ATOM     37  C   UNL     1       2.148  -2.573  -0.983  1.00  0.00     0.028 A 
ATOM     38  C   UNL     1      -1.117   4.709  -2.635  1.00  0.00     0.000 A 
ATOM     39  C   UNL     1      -1.750   5.181  -1.470  1.00  0.00     0.001 A 
ATOM     40  C   UNL     1       3.225  -2.589  -0.176  1.00  0.00     0.002 A 
ENDBRANCH  17  20
ENDBRANCH  12  16
ENDBRANCH   9  12
ENDBRANCH   6   8
ENDBRANCH   3   6
ENDBRANCH   1   2
BRANCH   1  41
ATOM     41  C   UNL     1      -2.607   2.706   6.971  1.00  0.00     0.023 C 
BRANCH  41  42
ATOM     42  C   UNL     1      -3.737   2.285   7.905  1.00  0.00     0.023 C 
BRANCH  42  43
ATOM     43  C   UNL     1      -3.381   2.316   9.379  1.00  0.00     0.116 C 
BRANCH  43  44
ATOM     44  N   UNL     1      -2.811   3.578   9.830  1.00  0.00    -0.352 N 
ATOM     45  C   UNL     1      -2.702   4.019  11.129  1.00  0.00     0.251 C 
ATOM     46  H   UNL     1      -2.467   4.179   9.131  1.00  0.00     0.163 HD
ATOM     47  O   UNL     1      -2.237   5.120  11.395  1.00  0.00    -0.269 OA
BRANCH  45  48
ATOM     48  C   UNL     1      -3.240   3.147  12.188  1.00  0.00     0.039 A 
ATOM     49  C   UNL     1      -2.820   1.819  12.273  1.00  0.00     0.014 A 
ATOM     50  C   UNL     1      -4.296   3.618  12.969  1.00  0.00     0.014 A 
ATOM     51  C   UNL     1      -3.590   0.914  12.989  1.00  0.00     0.010 A 
ATOM     52  C   UNL     1      -5.006   2.722  13.768  1.00  0.00     0.010 A 
ATOM     53  C   UNL     1      -4.701   1.352  13.731  1.00  0.00    -0.014 A 
BRANCH  53  54
ATOM     54  C   UNL     1      -5.547   0.349  14.425  1.00  0.00     0.031 A 
ATOM     55  C   UNL     1      -6.983   0.141  14.023  1.00  0.00     0.074 A 
ATOM     56  C   UNL     1      -4.991  -0.428  15.373  1.00  0.00     0.049 A 
ATOM     57  N   UNL     1      -7.859  -0.708  14.502  1.00  0.00    -0.248 NA
ATOM     58  C   UNL     1      -7.512   0.998  12.950  1.00  0.00     0.031 C 
ATOM     59  C   UNL     1      -3.605  -0.327  15.833  1.00  0.00     0.029 A 
ATOM     60  N   UNL     1      -5.506  -1.475  16.093  1.00  0.00    -0.354 N 
ATOM     61  C   UNL     1      -9.039  -0.473  13.808  1.00  0.00     0.074 A 
ATOM     62  C   UNL     1      -8.782   0.620  12.896  1.00  0.00     0.031 C 
ATOM     63  C   UNL     1      -3.360  -1.314  16.706  1.00  0.00     0.029 A 
ATOM     64  C   UNL     1      -4.588  -2.072  16.921  1.00  0.00     0.049 A 
ATOM     65  H   UNL     1      -6.443  -1.770  16.023  1.00  0.00     0.167 HD
ATOM     66  C   UNL     1     -10.223  -1.122  13.912  1.00  0.00     0.037 A 
ATOM     67  C   UNL     1      -4.722  -3.107  17.770  1.00  0.00     0.037 A 
ATOM     68  C   UNL     1     -10.461  -2.236  14.793  1.00  0.00     0.049 A 
ATOM     69  C   UNL     1      -6.058  -3.779  17.898  1.00  0.00     0.074 A 
ATOM     70  C   UNL     1     -11.614  -2.987  14.939  1.00  0.00     0.029 A 
ATOM     71  N   UNL     1      -9.527  -2.760  15.674  1.00  0.00    -0.354 N 
ATOM     72  N   UNL     1      -7.162  -3.552  17.230  1.00  0.00    -0.248 NA
ATOM     73  C   UNL     1      -6.173  -4.837  18.910  1.00  0.00     0.031 C 
ATOM     74  C   UNL     1     -11.393  -3.936  15.941  1.00  0.00     0.029 A 
ATOM     75  C   UNL     1     -10.089  -3.805  16.390  1.00  0.00     0.049 A 
ATOM     76  H   UNL     1      -8.602  -2.438  15.775  1.00  0.00     0.167 HD
ATOM     77  C   UNL     1      -8.103  -4.434  17.739  1.00  0.00     0.074 A 
ATOM     78  C   UNL     1      -7.432  -5.223  18.752  1.00  0.00     0.031 C 
ATOM     79  C   UNL     1      -9.409  -4.570  17.404  1.00  0.00     0.037 A 
BRANCH  66  80
ATOM     80  C   UNL     1     -11.363  -0.650  13.056  1.00  0.00     0.064 A 
ATOM     81  C   UNL     1     -11.391  -0.883  11.674  1.00  0.00     0.173 A 
ATOM     82  C   UNL     1     -12.472  -0.016  13.637  1.00  0.00     0.173 A 
ATOM     83  F   UNL     1     -10.352  -1.476  11.068  1.00  0.00    -0.203 F 
ATOM     84  C   UNL     1     -12.480  -0.485  10.902  1.00  0.00     0.198 A 
ATOM     85  C   UNL     1     -13.570   0.358  12.867  1.00  0.00     0.198 A 
ATOM     86  F   UNL     1     -12.499   0.225  14.957  1.00  0.00    -0.203 F 
ATOM     87  F   UNL     1     -12.471  -0.688   9.577  1.00  0.00    -0.200 F 
ATOM     88  C   UNL     1     -13.572   0.127  11.500  1.00  0.00     0.200 A 
ATOM     89  F   UNL     1     -14.630   0.936  13.449  1.00  0.00    -0.200 F 
ATOM     90  F   UNL     1     -14.625   0.497  10.758  1.00  0.00    -0.200 F 
ENDBRANCH  66  80
BRANCH  67  91
ATOM     91  C   UNL     1      -3.549  -3.559  18.560  1.00  0.00     0.064 A 
ATOM     92  C   UNL     1      -2.936  -4.790  18.296  1.00  0.00     0.173 A 
ATOM     93  C   UNL     1      -2.991  -2.752  19.563  1.00  0.00     0.173 A 
ATOM     94  F   UNL     1      -3.444  -5.604  17.359  1.00  0.00    -0.203 F 
ATOM     95  C   UNL     1      -1.808  -5.197  19.005  1.00  0.00     0.198 A 
ATOM     96  C   UNL     1      -1.847  -3.147  20.252  1.00  0.00     0.198 A 
ATOM     97  F   UNL     1      -3.541  -1.562  19.851  1.00  0.00    -0.203 F 
ATOM     98  F   UNL     1      -1.254  -6.391  18.751  1.00  0.00    -0.200 F 
ATOM     99  C   UNL     1      -1.259  -4.371  19.975  1.00  0.00     0.200 A 
ATOM    100  F   UNL     1      -1.310  -2.337  21.174  1.00  0.00    -0.200 F 
ATOM    101  F   UNL     1      -0.163  -4.755  20.643  1.00  0.00    -0.200 F 
ENDBRANCH  67  91
BRANCH  79 102
ATOM    102  C   UNL     1     -10.210  -5.596  18.149  1.00  0.00     0.064 A 
ATOM    103  C   UNL     1     -10.617  -5.373  19.473  1.00  0.00     0.173 A 
ATOM    104  C   UNL     1     -10.638  -6.771  17.515  1.00  0.00     0.173 A 
ATOM    105  F   UNL     1     -10.219  -4.271  20.125  1.00  0.00    -0.203 F 
ATOM    106  C   UNL     1     -11.420  -6.295  20.137  1.00  0.00     0.198 A 
ATOM    107  C   UNL     1     -11.463  -7.678  18.174  1.00  0.00     0.198 A 
ATOM    108  F   UNL     1     -10.280  -7.025  16.248  1.00  0.00    -0.203 F 
ATOM    109  F   UNL     1     -11.776  -6.077  21.410  1.00  0.00    -0.200 F 
ATOM    110  C   UNL     1     -11.851  -7.441  19.484  1.00  0.00     0.200 A 
ATOM    111  F   UNL     1     -11.890  -8.777  17.538  1.00  0.00    -0.200 F 
ATOM    112  F   UNL     1     -12.640  -8.318  20.119  1.00  0.00    -0.200 F 
ENDBRANCH  79 102
ENDBRANCH  53  54
ENDBRANCH  45  48
ENDBRANCH  43  44
ENDBRANCH  42  43
ENDBRANCH  41  42
ENDBRANCH   1  41
TORSDOF 16
