REMARK SMILES C[C@@H](O)[C@@H](NC(=O)c1csc(-c2ccsc2)n1)C(=O)NCCCCNC(=O)c1ccc(-c2c3nc(c(-c4c(F)c(F)c(F)c(F)c4F)c4ccc([nH]4)c(-c4c(F)c(F)c(F)c(F)c4F)c4nc(c(-c5c(F)c(F)c(F)c(F)c5F)c5ccc2[nH]5)C=C4)C=C3)cc1
REMARK SMILES IDX 22 1 21 2 20 3 18 4 19 5 4 7 2 8 1 9 3 10 5 12 6 13 7 15
REMARK SMILES IDX 8 16 9 17 17 18 10 19 11 20 12 21 13 22 16 23 14 24 15 25
REMARK SMILES IDX 23 26 24 27 25 28 26 29 27 31 28 32 29 33 90 34 30 35 89 36
REMARK SMILES IDX 31 37 32 38 33 39 83 40 34 41 88 42 82 43 84 44 35 45 87 46
REMARK SMILES IDX 81 47 80 48 36 50 68 51 48 52 67 53 49 54 52 55 66 56 85 57
REMARK SMILES IDX 50 58 51 59 65 61 86 62 53 63 37 64 38 65 46 66 39 67 40 68
REMARK SMILES IDX 44 69 47 70 41 71 42 72 45 73 43 74 69 75 70 76 78 77 71 78
REMARK SMILES IDX 72 79 76 80 79 81 73 82 74 83 77 84 75 85 54 86 55 87 63 88
REMARK SMILES IDX 56 89 57 90 61 91 64 92 58 93 59 94 62 95 60 96
REMARK H PARENT 20 6 3 11 5 14 25 30 84 49 52 60
REMARK Flexibility Score: inf
ROOT
ATOM      1  C   UNL     1       1.574   3.561  -3.216  1.00  0.00     0.023 C 
ENDROOT
BRANCH   1   2
ATOM      2  C   UNL     1       0.301   3.062  -2.538  1.00  0.00     0.116 C 
BRANCH   2   3
ATOM      3  N   UNL     1      -0.305   1.997  -3.308  1.00  0.00    -0.354 N 
ATOM      4  C   UNL     1      -0.860   0.817  -2.910  1.00  0.00     0.245 C 
ATOM      5  O   UNL     1      -1.131   0.014  -3.809  1.00  0.00    -0.273 OA
ATOM      6  H   UNL     1      -0.319   2.150  -4.281  1.00  0.00     0.163 HD
BRANCH   4   7
ATOM      7  C   UNL     1      -0.977   0.435  -1.417  1.00  0.00     0.200 C 
BRANCH   7   8
ATOM      8  C   UNL     1       0.457  -0.057  -1.017  1.00  0.00     0.143 C 
ATOM      9  C   UNL     1       0.686  -0.261   0.477  1.00  0.00     0.041 C 
BRANCH   8  10
ATOM     10  O   UNL     1       0.731  -1.319  -1.632  1.00  0.00    -0.391 OA
ATOM     11  H   UNL     1       0.116  -1.986  -1.290  1.00  0.00     0.211 HD
ENDBRANCH   8  10
ENDBRANCH   7   8
BRANCH   7  12
ATOM     12  N   UNL     1      -1.477   1.497  -0.516  1.00  0.00    -0.337 N 
ATOM     13  C   UNL     1      -2.591   2.301  -0.603  1.00  0.00     0.271 C 
ATOM     14  H   UNL     1      -0.919   1.654   0.279  1.00  0.00     0.164 HD
ATOM     15  O   UNL     1      -2.926   2.921   0.407  1.00  0.00    -0.267 OA
BRANCH  13  16
ATOM     16  C   UNL     1      -3.197   2.569  -1.903  1.00  0.00     0.139 A 
ATOM     17  C   UNL     1      -3.349   3.861  -2.376  1.00  0.00     0.101 A 
ATOM     18  N   UNL     1      -3.620   1.582  -2.786  1.00  0.00    -0.231 NA
ATOM     19  S   UNL     1      -3.731   3.832  -4.041  1.00  0.00    -0.122 S 
ATOM     20  C   UNL     1      -3.858   2.116  -3.969  1.00  0.00     0.125 A 
BRANCH  20  21
ATOM     21  C   UNL     1      -4.195   1.281  -5.169  1.00  0.00     0.021 A 
ATOM     22  C   UNL     1      -4.885   0.034  -5.120  1.00  0.00     0.023 A 
ATOM     23  C   UNL     1      -3.849   1.625  -6.459  1.00  0.00     0.076 A 
ATOM     24  C   UNL     1      -5.083  -0.498  -6.376  1.00  0.00     0.065 A 
ATOM     25  S   UNL     1      -4.368   0.459  -7.601  1.00  0.00    -0.152 S 
ENDBRANCH  20  21
ENDBRANCH  13  16
ENDBRANCH   7  12
ENDBRANCH   4   7
ENDBRANCH   2   3
ENDBRANCH   1   2
BRANCH   1  26
ATOM     26  C   UNL     1       1.348   4.223  -4.579  1.00  0.00     0.023 C 
BRANCH  26  27
ATOM     27  C   UNL     1       0.382   5.402  -4.567  1.00  0.00     0.116 C 
BRANCH  27  28
ATOM     28  N   UNL     1       0.839   6.487  -3.713  1.00  0.00    -0.352 N 
ATOM     29  C   UNL     1       0.982   7.818  -4.021  1.00  0.00     0.251 C 
ATOM     30  H   UNL     1       1.077   6.234  -2.792  1.00  0.00     0.163 HD
ATOM     31  O   UNL     1       1.530   8.588  -3.240  1.00  0.00    -0.269 OA
BRANCH  29  32
ATOM     32  C   UNL     1       0.492   8.305  -5.324  1.00  0.00     0.039 A 
ATOM     33  C   UNL     1       1.366   9.009  -6.155  1.00  0.00     0.014 A 
ATOM     34  C   UNL     1      -0.811   8.016  -5.739  1.00  0.00     0.014 A 
ATOM     35  C   UNL     1       0.955   9.360  -7.441  1.00  0.00     0.010 A 
ATOM     36  C   UNL     1      -1.197   8.313  -7.041  1.00  0.00     0.010 A 
ATOM     37  C   UNL     1      -0.314   8.978  -7.906  1.00  0.00    -0.014 A 
BRANCH  37  38
ATOM     38  C   UNL     1      -0.734   9.249  -9.303  1.00  0.00     0.031 A 
ATOM     39  C   UNL     1      -1.863  10.198  -9.578  1.00  0.00     0.074 A 
ATOM     40  C   UNL     1      -0.147   8.581 -10.314  1.00  0.00     0.049 A 
ATOM     41  N   UNL     1      -2.432  10.499 -10.717  1.00  0.00    -0.248 NA
ATOM     42  C   UNL     1      -2.446  10.882  -8.413  1.00  0.00     0.031 C 
ATOM     43  C   UNL     1       0.934   7.604 -10.168  1.00  0.00     0.029 A 
ATOM     44  N   UNL     1      -0.386   8.613 -11.665  1.00  0.00    -0.354 N 
ATOM     45  C   UNL     1      -3.445  11.395 -10.406  1.00  0.00     0.074 A 
ATOM     46  C   UNL     1      -3.445  11.552  -8.967  1.00  0.00     0.031 C 
ATOM     47  C   UNL     1       1.277   7.145 -11.382  1.00  0.00     0.029 A 
ATOM     48  C   UNL     1       0.418   7.765 -12.386  1.00  0.00     0.049 A 
ATOM     49  H   UNL     1      -1.069   9.189 -12.078  1.00  0.00     0.167 HD
ATOM     50  C   UNL     1      -4.284  12.045 -11.247  1.00  0.00     0.037 A 
ATOM     51  C   UNL     1       0.451   7.512 -13.708  1.00  0.00     0.037 A 
ATOM     52  C   UNL     1      -4.267  11.902 -12.679  1.00  0.00     0.049 A 
ATOM     53  C   UNL     1      -0.506   8.231 -14.618  1.00  0.00     0.074 A 
ATOM     54  C   UNL     1      -5.038  12.559 -13.621  1.00  0.00     0.029 A 
ATOM     55  N   UNL     1      -3.434  11.038 -13.375  1.00  0.00    -0.354 N 
ATOM     56  N   UNL     1      -1.419   9.123 -14.320  1.00  0.00    -0.248 NA
ATOM     57  C   UNL     1      -0.427   7.908 -16.050  1.00  0.00     0.031 C 
ATOM     58  C   UNL     1      -4.699  12.064 -14.885  1.00  0.00     0.029 A 
ATOM     59  C   UNL     1      -3.688  11.129 -14.734  1.00  0.00     0.049 A 
ATOM     60  H   UNL     1      -2.763  10.447 -12.963  1.00  0.00     0.167 HD
ATOM     61  C   UNL     1      -2.005   9.486 -15.525  1.00  0.00     0.074 A 
ATOM     62  C   UNL     1      -1.337   8.727 -16.561  1.00  0.00     0.031 C 
ATOM     63  C   UNL     1      -3.007  10.371 -15.751  1.00  0.00     0.037 A 
BRANCH  50  64
ATOM     64  C   UNL     1      -5.288  12.975 -10.635  1.00  0.00     0.064 A 
ATOM     65  C   UNL     1      -4.902  14.195 -10.058  1.00  0.00     0.173 A 
ATOM     66  C   UNL     1      -6.654  12.657 -10.645  1.00  0.00     0.173 A 
ATOM     67  F   UNL     1      -3.606  14.538 -10.012  1.00  0.00    -0.203 F 
ATOM     68  C   UNL     1      -5.843  15.048  -9.488  1.00  0.00     0.198 A 
ATOM     69  C   UNL     1      -7.596  13.526 -10.098  1.00  0.00     0.198 A 
ATOM     70  F   UNL     1      -7.077  11.506 -11.187  1.00  0.00    -0.203 F 
ATOM     71  F   UNL     1      -5.444  16.183  -8.898  1.00  0.00    -0.200 F 
ATOM     72  C   UNL     1      -7.189  14.716  -9.513  1.00  0.00     0.200 A 
ATOM     73  F   UNL     1      -8.897  13.209 -10.133  1.00  0.00    -0.200 F 
ATOM     74  F   UNL     1      -8.093  15.539  -8.966  1.00  0.00    -0.200 F 
ENDBRANCH  50  64
BRANCH  51  75
ATOM     75  C   UNL     1       1.444   6.552 -14.255  1.00  0.00     0.064 A 
ATOM     76  C   UNL     1       2.527   7.003 -15.021  1.00  0.00     0.173 A 
ATOM     77  C   UNL     1       1.334   5.173 -14.024  1.00  0.00     0.173 A 
ATOM     78  F   UNL     1       2.662   8.311 -15.285  1.00  0.00    -0.203 F 
ATOM     79  C   UNL     1       3.456   6.109 -15.550  1.00  0.00     0.198 A 
ATOM     80  C   UNL     1       2.277   4.283 -14.533  1.00  0.00     0.198 A 
ATOM     81  F   UNL     1       0.318   4.693 -13.293  1.00  0.00    -0.203 F 
ATOM     82  F   UNL     1       4.461   6.563 -16.310  1.00  0.00    -0.200 F 
ATOM     83  C   UNL     1       3.334   4.750 -15.300  1.00  0.00     0.200 A 
ATOM     84  F   UNL     1       2.163   2.972 -14.279  1.00  0.00    -0.200 F 
ATOM     85  F   UNL     1       4.230   3.891 -15.805  1.00  0.00    -0.200 F 
ENDBRANCH  51  75
BRANCH  63  86
ATOM     86  C   UNL     1      -3.420  10.589 -17.177  1.00  0.00     0.064 A 
ATOM     87  C   UNL     1      -4.166   9.633 -17.879  1.00  0.00     0.173 A 
ATOM     88  C   UNL     1      -3.103  11.789 -17.831  1.00  0.00     0.173 A 
ATOM     89  F   UNL     1      -4.479   8.463 -17.301  1.00  0.00    -0.203 F 
ATOM     90  C   UNL     1      -4.566   9.862 -19.192  1.00  0.00     0.198 A 
ATOM     91  C   UNL     1      -3.526  12.026 -19.136  1.00  0.00     0.198 A 
ATOM     92  F   UNL     1      -2.394  12.737 -17.200  1.00  0.00    -0.203 F 
ATOM     93  F   UNL     1      -5.245   8.918 -19.859  1.00  0.00    -0.200 F 
ATOM     94  C   UNL     1      -4.252  11.061 -19.817  1.00  0.00     0.200 A 
ATOM     95  F   UNL     1      -3.231  13.188 -19.733  1.00  0.00    -0.200 F 
ATOM     96  F   UNL     1      -4.644  11.283 -21.079  1.00  0.00    -0.200 F 
ENDBRANCH  63  86
ENDBRANCH  37  38
ENDBRANCH  29  32
ENDBRANCH  27  28
ENDBRANCH  26  27
ENDBRANCH   1  26
TORSDOF 16
