REMARK SMILES COc1ccc(OC)c(/C=N/[NH+]=C2/NC(=O)[C@@H](CC(=O)NCCCCNC(=O)c3ccc(-c4c5nc(c(-c6c(F)c(F)c(F)c(F)c6F)c6ccc([nH]6)c(-c6c(F)c(F)c(F)c(F)c6F)c6nc(c(-c7c(F)c(F)c(F)c(F)c7F)c7ccc4[nH]7)C=C6)C=C5)cc3)S2)c1
REMARK SMILES IDX 22 1 21 2 19 3 20 4 18 6 17 7 12 8 13 9 14 11 92 12 15 13
REMARK SMILES IDX 16 15 11 16 10 17 9 18 3 19 4 20 93 21 5 22 6 23 2 24 1 25
REMARK SMILES IDX 7 26 8 27 23 28 24 29 25 30 26 31 27 32 28 34 29 35 30 36
REMARK SMILES IDX 91 37 31 38 90 39 32 40 33 41 34 42 84 43 35 44 89 45 83 46
REMARK SMILES IDX 85 47 36 48 88 49 82 50 81 51 37 53 69 54 49 55 68 56 50 57
REMARK SMILES IDX 53 58 67 59 86 60 51 61 52 62 66 64 87 65 54 66 38 67 39 68
REMARK SMILES IDX 47 69 40 70 41 71 45 72 48 73 42 74 43 75 46 76 44 77 70 78
REMARK SMILES IDX 71 79 79 80 72 81 73 82 77 83 80 84 74 85 75 86 78 87 76 88
REMARK SMILES IDX 55 89 56 90 64 91 57 92 58 93 62 94 65 95 59 96 60 97 63 98
REMARK SMILES IDX 61 99
REMARK H PARENT 21 5 12 10 14 14 26 33 85 52 53 63
REMARK Flexibility Score: inf
ROOT
ATOM      1  C   UNL     1       8.627  -0.376  -4.105  1.00  0.00     0.116 C 
ENDROOT
BRANCH   1   2
ATOM      2  N   UNL     1       7.647  -0.502  -3.043  1.00  0.00    -0.356 N 
ATOM      3  C   UNL     1       7.550  -1.389  -2.018  1.00  0.00     0.221 C 
ATOM      4  O   UNL     1       6.622  -1.231  -1.222  1.00  0.00    -0.275 OA
ATOM      5  H   UNL     1       6.928   0.170  -3.070  1.00  0.00     0.163 HD
BRANCH   3   6
ATOM      6  C   UNL     1       8.543  -2.524  -1.855  1.00  0.00     0.127 C 
BRANCH   6   7
ATOM      7  C   UNL     1       8.211  -3.831  -2.579  1.00  0.00     0.183 C 
ATOM      8  N   UNL     1       5.488  -3.373  -5.173  1.00  0.00    -0.142 N 
ATOM      9  C   UNL     1       6.447  -3.781  -4.416  1.00  0.00     0.337 C 
ATOM     10  H   UNL     1       5.648  -3.070  -6.096  1.00  0.00     0.343 HD
ATOM     11  N   UNL     1       7.707  -3.834  -4.904  1.00  0.00    -0.202 N 
ATOM     12  S   UNL     1       6.434  -4.212  -2.737  1.00  0.00    -0.020 SA
ATOM     13  C   UNL     1       8.727  -3.817  -4.003  1.00  0.00     0.322 C 
ATOM     14  H   UNL     1       7.880  -3.882  -5.872  1.00  0.00     0.316 HD
ATOM     15  O   UNL     1       9.902  -3.687  -4.323  1.00  0.00    -0.246 OA
BRANCH   8  16
ATOM     16  N   UNL     1       4.218  -3.384  -4.615  1.00  0.00    -0.093 NA
ATOM     17  C   UNL     1       3.815  -2.225  -4.201  1.00  0.00     0.170 C 
BRANCH  17  18
ATOM     18  C   UNL     1       2.413  -2.040  -3.796  1.00  0.00     0.042 A 
ATOM     19  C   UNL     1       0.882  -1.549  -1.983  1.00  0.00     0.119 A 
ATOM     20  C   UNL     1      -0.177  -1.979  -2.777  1.00  0.00     0.050 A 
ATOM     21  C   UNL     1       2.185  -1.576  -2.485  1.00  0.00     0.060 A 
ATOM     22  C   UNL     1       0.051  -2.384  -4.092  1.00  0.00     0.051 A 
ATOM     23  C   UNL     1       1.343  -2.403  -4.628  1.00  0.00     0.128 A 
BRANCH  19  24
ATOM     24  O   UNL     1       0.560  -1.245  -0.689  1.00  0.00    -0.497 OA
ATOM     25  C   UNL     1       1.129  -0.033  -0.209  1.00  0.00     0.278 C 
ENDBRANCH  19  24
BRANCH  23  26
ATOM     26  O   UNL     1       1.356  -2.825  -5.929  1.00  0.00    -0.496 OA
ATOM     27  C   UNL     1       2.412  -2.421  -6.789  1.00  0.00     0.278 C 
ENDBRANCH  23  26
ENDBRANCH  17  18
ENDBRANCH   8  16
ENDBRANCH   6   7
ENDBRANCH   3   6
ENDBRANCH   1   2
BRANCH   1  28
ATOM     28  C   UNL     1       7.995  -0.597  -5.478  1.00  0.00     0.023 C 
BRANCH  28  29
ATOM     29  C   UNL     1       6.967   0.445  -5.901  1.00  0.00     0.023 C 
BRANCH  29  30
ATOM     30  C   UNL     1       7.559   1.818  -6.154  1.00  0.00     0.116 C 
BRANCH  30  31
ATOM     31  N   UNL     1       8.539   1.803  -7.231  1.00  0.00    -0.352 N 
ATOM     32  C   UNL     1       8.573   2.548  -8.385  1.00  0.00     0.251 C 
ATOM     33  H   UNL     1       9.284   1.169  -7.115  1.00  0.00     0.163 HD
ATOM     34  O   UNL     1       9.350   2.264  -9.285  1.00  0.00    -0.269 OA
BRANCH  32  35
ATOM     35  C   UNL     1       7.643   3.685  -8.531  1.00  0.00     0.039 A 
ATOM     36  C   UNL     1       6.985   3.878  -9.747  1.00  0.00     0.014 A 
ATOM     37  C   UNL     1       7.403   4.539  -7.453  1.00  0.00     0.014 A 
ATOM     38  C   UNL     1       6.035   4.894  -9.857  1.00  0.00     0.010 A 
ATOM     39  C   UNL     1       6.379   5.470  -7.528  1.00  0.00     0.010 A 
ATOM     40  C   UNL     1       5.697   5.671  -8.737  1.00  0.00    -0.014 A 
BRANCH  40  41
ATOM     41  C   UNL     1       4.654   6.723  -8.807  1.00  0.00     0.031 A 
ATOM     42  C   UNL     1       5.022   8.153  -8.514  1.00  0.00     0.074 A 
ATOM     43  C   UNL     1       3.375   6.381  -9.057  1.00  0.00     0.049 A 
ATOM     44  N   UNL     1       4.250   9.206  -8.428  1.00  0.00    -0.248 NA
ATOM     45  C   UNL     1       6.443   8.434  -8.242  1.00  0.00     0.031 C 
ATOM     46  C   UNL     1       2.892   5.019  -9.294  1.00  0.00     0.029 A 
ATOM     47  N   UNL     1       2.243   7.151  -9.140  1.00  0.00    -0.354 N 
ATOM     48  C   UNL     1       5.084  10.257  -8.072  1.00  0.00     0.074 A 
ATOM     49  C   UNL     1       6.410   9.712  -7.897  1.00  0.00     0.031 C 
ATOM     50  C   UNL     1       1.569   5.053  -9.521  1.00  0.00     0.029 A 
ATOM     51  C   UNL     1       1.103   6.430  -9.402  1.00  0.00     0.049 A 
ATOM     52  H   UNL     1       2.247   8.129  -9.024  1.00  0.00     0.167 HD
ATOM     53  C   UNL     1       4.774  11.567  -7.932  1.00  0.00     0.037 A 
ATOM     54  C   UNL     1      -0.176   6.837  -9.518  1.00  0.00     0.037 A 
ATOM     55  C   UNL     1       3.461  12.107  -8.157  1.00  0.00     0.049 A 
ATOM     56  C   UNL     1      -0.485   8.305  -9.370  1.00  0.00     0.074 A 
ATOM     57  C   UNL     1       3.057  13.430  -8.124  1.00  0.00     0.029 A 
ATOM     58  N   UNL     1       2.338  11.351  -8.458  1.00  0.00    -0.354 N 
ATOM     59  N   UNL     1       0.329   9.302  -9.120  1.00  0.00    -0.248 NA
ATOM     60  C   UNL     1      -1.890   8.705  -9.530  1.00  0.00     0.031 C 
ATOM     61  C   UNL     1       1.679  13.469  -8.347  1.00  0.00     0.029 A 
ATOM     62  C   UNL     1       1.235  12.178  -8.585  1.00  0.00     0.049 A 
ATOM     63  H   UNL     1       2.327  10.372  -8.566  1.00  0.00     0.167 HD
ATOM     64  C   UNL     1      -0.457  10.447  -9.128  1.00  0.00     0.074 A 
ATOM     65  C   UNL     1      -1.808  10.023  -9.427  1.00  0.00     0.031 C 
ATOM     66  C   UNL     1      -0.097  11.734  -8.904  1.00  0.00     0.037 A 
BRANCH  53  67
ATOM     67  C   UNL     1       5.867  12.514  -7.531  1.00  0.00     0.064 A 
ATOM     68  C   UNL     1       6.915  12.844  -8.403  1.00  0.00     0.173 A 
ATOM     69  C   UNL     1       5.824  13.157  -6.285  1.00  0.00     0.173 A 
ATOM     70  F   UNL     1       7.011  12.247  -9.601  1.00  0.00    -0.203 F 
ATOM     71  C   UNL     1       7.887  13.772  -8.037  1.00  0.00     0.198 A 
ATOM     72  C   UNL     1       6.779  14.108  -5.935  1.00  0.00     0.198 A 
ATOM     73  F   UNL     1       4.843  12.879  -5.413  1.00  0.00    -0.203 F 
ATOM     74  F   UNL     1       8.899  14.044  -8.872  1.00  0.00    -0.200 F 
ATOM     75  C   UNL     1       7.811  14.412  -6.809  1.00  0.00     0.200 A 
ATOM     76  F   UNL     1       6.696  14.735  -4.753  1.00  0.00    -0.200 F 
ATOM     77  F   UNL     1       8.735  15.321  -6.468  1.00  0.00    -0.200 F 
ENDBRANCH  53  67
BRANCH  54  78
ATOM     78  C   UNL     1      -1.261   5.856  -9.794  1.00  0.00     0.064 A 
ATOM     79  C   UNL     1      -1.983   5.894 -10.996  1.00  0.00     0.173 A 
ATOM     80  C   UNL     1      -1.632   4.892  -8.845  1.00  0.00     0.173 A 
ATOM     81  F   UNL     1      -1.679   6.807 -11.931  1.00  0.00    -0.203 F 
ATOM     82  C   UNL     1      -3.059   5.037 -11.220  1.00  0.00     0.198 A 
ATOM     83  C   UNL     1      -2.685   4.011  -9.085  1.00  0.00     0.198 A 
ATOM     84  F   UNL     1      -0.970   4.804  -7.681  1.00  0.00    -0.203 F 
ATOM     85  F   UNL     1      -3.776   5.146 -12.347  1.00  0.00    -0.200 F 
ATOM     86  C   UNL     1      -3.408   4.095 -10.265  1.00  0.00     0.200 A 
ATOM     87  F   UNL     1      -3.007   3.090  -8.166  1.00  0.00    -0.200 F 
ATOM     88  F   UNL     1      -4.448   3.277 -10.475  1.00  0.00    -0.200 F 
ENDBRANCH  54  78
BRANCH  66  89
ATOM     89  C   UNL     1      -1.166  12.781  -9.025  1.00  0.00     0.064 A 
ATOM     90  C   UNL     1      -2.198  12.895  -8.083  1.00  0.00     0.173 A 
ATOM     91  C   UNL     1      -1.128  13.711 -10.075  1.00  0.00     0.173 A 
ATOM     92  F   UNL     1      -2.285  12.022  -7.067  1.00  0.00    -0.203 F 
ATOM     93  C   UNL     1      -3.172  13.882  -8.206  1.00  0.00     0.198 A 
ATOM     94  C   UNL     1      -2.081  14.720 -10.173  1.00  0.00     0.198 A 
ATOM     95  F   UNL     1      -0.155  13.652 -10.997  1.00  0.00    -0.203 F 
ATOM     96  F   UNL     1      -4.180  13.938  -7.325  1.00  0.00    -0.200 F 
ATOM     97  C   UNL     1      -3.107  14.799  -9.245  1.00  0.00     0.200 A 
ATOM     98  F   UNL     1      -2.005  15.616 -11.167  1.00  0.00    -0.200 F 
ATOM     99  F   UNL     1      -4.039  15.755  -9.354  1.00  0.00    -0.200 F 
ENDBRANCH  66  89
ENDBRANCH  40  41
ENDBRANCH  32  35
ENDBRANCH  30  31
ENDBRANCH  29  30
ENDBRANCH  28  29
ENDBRANCH   1  28
TORSDOF 16
