REMARK SMILES C[C@H]1CN(C(=O)N2CC[NH+]([C@@H](C)C(=O)NCCCCNC(=O)c3ccc(-c4c5nc(c(-c6c(F)c(F)c(F)c(F)c6F)c6ccc([nH]6)c(-c6c(F)c(F)c(F)c(F)c6F)c6nc(c(-c7c(F)c(F)c(F)c(F)c7F)c7ccc4[nH]7)C=C6)C=C5)cc3)CC2)C[C@@H]1C
REMARK SMILES IDX 18 1 17 2 16 3 15 4 13 5 14 6 11 8 12 9 10 10 1 11 2 12 3 13
REMARK SMILES IDX 89 14 4 15 88 16 90 17 5 18 6 19 7 20 8 21 87 22 9 23 86 24
REMARK SMILES IDX 19 26 20 27 21 28 22 30 23 31 24 32 85 33 25 34 84 35 26 36
REMARK SMILES IDX 27 37 28 38 78 39 29 40 83 41 77 42 79 43 30 44 82 45 76 46
REMARK SMILES IDX 75 47 31 49 63 50 43 51 62 52 44 53 47 54 61 55 80 56 45 57
REMARK SMILES IDX 46 58 60 60 81 61 48 62 32 63 33 64 41 65 34 66 35 67 39 68
REMARK SMILES IDX 42 69 36 70 37 71 40 72 38 73 64 74 65 75 73 76 66 77 67 78
REMARK SMILES IDX 71 79 74 80 68 81 69 82 72 83 70 84 49 85 50 86 58 87 51 88
REMARK SMILES IDX 52 89 56 90 59 91 53 92 54 93 57 94 55 95
REMARK H PARENT 15 7 10 25 20 29 79 48 47 59
REMARK Flexibility Score: inf
ROOT
ATOM      1  C   UNL     1       0.631  -2.381   8.717  1.00  0.00     0.023 C 
ENDROOT
BRANCH   1   2
ATOM      2  C   UNL     1      -0.186  -2.219   7.445  1.00  0.00     0.023 C 
BRANCH   2   3
ATOM      3  C   UNL     1      -1.687  -2.507   7.587  1.00  0.00     0.116 C 
BRANCH   3   4
ATOM      4  N   UNL     1      -2.441  -1.289   7.806  1.00  0.00    -0.351 N 
ATOM      5  C   UNL     1      -3.281  -0.565   7.011  1.00  0.00     0.278 C 
ATOM      6  O   UNL     1      -3.651   0.519   7.482  1.00  0.00    -0.268 OA
ATOM      7  H   UNL     1      -2.324  -0.908   8.706  1.00  0.00     0.163 HD
BRANCH   5   8
ATOM      8  C   UNL     1      -3.797  -1.026   5.616  1.00  0.00     0.271 C 
ATOM      9  C   UNL     1      -4.432  -2.414   5.611  1.00  0.00     0.086 C 
BRANCH   8  10
ATOM     10  N   UNL     1      -2.916  -0.618   4.495  1.00  0.00    -0.322 N 
ATOM     11  C   UNL     1      -0.110  -1.240  -1.910  1.00  0.00     0.010 C 
ATOM     12  C   UNL     1       0.652  -1.384  -0.592  1.00  0.00     0.010 C 
ATOM     13  C   UNL     1      -0.314  -1.496   0.586  1.00  0.00     0.125 C 
ATOM     14  C   UNL     1       1.440  -2.708  -0.518  1.00  0.00     0.010 C 
ATOM     15  N   UNL     1      -0.509  -2.926   0.777  1.00  0.00    -0.324 N 
ATOM     16  C   UNL     1       0.378  -3.713  -0.060  1.00  0.00     0.125 C 
ATOM     17  C   UNL     1       2.582  -2.623   0.502  1.00  0.00     0.010 C 
ATOM     18  C   UNL     1      -1.268  -3.495   1.772  1.00  0.00     0.320 C 
ATOM     19  O   UNL     1      -1.337  -4.701   1.982  1.00  0.00    -0.248 OA
ATOM     20  N   UNL     1      -1.828  -2.566   2.617  1.00  0.00    -0.313 N 
ATOM     21  C   UNL     1      -1.309  -2.492   3.964  1.00  0.00     0.183 C 
ATOM     22  C   UNL     1      -3.214  -2.153   2.454  1.00  0.00     0.183 C 
ATOM     23  C   UNL     1      -1.527  -1.077   4.505  1.00  0.00     0.284 C 
ATOM     24  C   UNL     1      -3.492  -0.795   3.145  1.00  0.00     0.284 C 
ATOM     25  H   UNL     1      -2.867   0.378   4.707  1.00  0.00     0.348 HD
ENDBRANCH   8  10
ENDBRANCH   5   8
ENDBRANCH   3   4
ENDBRANCH   2   3
ENDBRANCH   1   2
BRANCH   1  26
ATOM     26  C   UNL     1       0.720  -3.804   9.238  1.00  0.00     0.116 C 
BRANCH  26  27
ATOM     27  N   UNL     1       1.349  -4.740   8.315  1.00  0.00    -0.352 N 
ATOM     28  C   UNL     1       2.224  -5.764   8.610  1.00  0.00     0.251 C 
ATOM     29  H   UNL     1       1.123  -4.627   7.364  1.00  0.00     0.163 HD
ATOM     30  O   UNL     1       2.734  -6.436   7.726  1.00  0.00    -0.269 OA
BRANCH  28  31
ATOM     31  C   UNL     1       2.580  -5.996  10.025  1.00  0.00     0.039 A 
ATOM     32  C   UNL     1       3.928  -6.020  10.387  1.00  0.00     0.014 A 
ATOM     33  C   UNL     1       1.579  -6.067  10.997  1.00  0.00     0.014 A 
ATOM     34  C   UNL     1       4.273  -6.016  11.739  1.00  0.00     0.010 A 
ATOM     35  C   UNL     1       1.924  -5.963  12.337  1.00  0.00     0.010 A 
ATOM     36  C   UNL     1       3.273  -5.933  12.722  1.00  0.00    -0.014 A 
BRANCH  36  37
ATOM     37  C   UNL     1       3.607  -5.820  14.163  1.00  0.00     0.031 A 
ATOM     38  C   UNL     1       3.155  -6.890  15.115  1.00  0.00     0.074 A 
ATOM     39  C   UNL     1       4.229  -4.718  14.625  1.00  0.00     0.049 A 
ATOM     40  N   UNL     1       3.242  -6.929  16.420  1.00  0.00    -0.248 NA
ATOM     41  C   UNL     1       2.473  -8.053  14.524  1.00  0.00     0.031 C 
ATOM     42  C   UNL     1       4.654  -3.577  13.811  1.00  0.00     0.029 A 
ATOM     43  N   UNL     1       4.601  -4.370  15.899  1.00  0.00    -0.354 N 
ATOM     44  C   UNL     1       2.599  -8.098  16.803  1.00  0.00     0.074 A 
ATOM     45  C   UNL     1       2.078  -8.712  15.602  1.00  0.00     0.031 C 
ATOM     46  C   UNL     1       5.252  -2.670  14.601  1.00  0.00     0.029 A 
ATOM     47  C   UNL     1       5.223  -3.148  15.979  1.00  0.00     0.049 A 
ATOM     48  H   UNL     1       4.436  -4.942  16.683  1.00  0.00     0.167 HD
ATOM     49  C   UNL     1       2.478  -8.628  18.043  1.00  0.00     0.037 A 
ATOM     50  C   UNL     1       5.716  -2.492  17.047  1.00  0.00     0.037 A 
ATOM     51  C   UNL     1       3.048  -8.045  19.227  1.00  0.00     0.049 A 
ATOM     52  C   UNL     1       5.618  -3.128  18.407  1.00  0.00     0.074 A 
ATOM     53  C   UNL     1       3.055  -8.542  20.517  1.00  0.00     0.029 A 
ATOM     54  N   UNL     1       3.724  -6.834  19.258  1.00  0.00    -0.354 N 
ATOM     55  N   UNL     1       5.070  -4.268  18.748  1.00  0.00    -0.248 NA
ATOM     56  C   UNL     1       6.215  -2.389  19.528  1.00  0.00     0.031 C 
ATOM     57  C   UNL     1       3.713  -7.619  21.336  1.00  0.00     0.029 A 
ATOM     58  C   UNL     1       4.146  -6.564  20.549  1.00  0.00     0.049 A 
ATOM     59  H   UNL     1       3.881  -6.253  18.479  1.00  0.00     0.167 HD
ATOM     60  C   UNL     1       5.276  -4.397  20.114  1.00  0.00     0.074 A 
ATOM     61  C   UNL     1       6.011  -3.223  20.538  1.00  0.00     0.031 C 
ATOM     62  C   UNL     1       4.889  -5.395  20.945  1.00  0.00     0.037 A 
BRANCH  49  63
ATOM     63  C   UNL     1       1.714  -9.911  18.172  1.00  0.00     0.064 A 
ATOM     64  C   UNL     1       2.225 -11.123  17.681  1.00  0.00     0.173 A 
ATOM     65  C   UNL     1       0.462  -9.935  18.805  1.00  0.00     0.173 A 
ATOM     66  F   UNL     1       3.410 -11.150  17.053  1.00  0.00    -0.203 F 
ATOM     67  C   UNL     1       1.496 -12.304  17.790  1.00  0.00     0.198 A 
ATOM     68  C   UNL     1      -0.250 -11.124  18.938  1.00  0.00     0.198 A 
ATOM     69  F   UNL     1      -0.070  -8.805  19.293  1.00  0.00    -0.203 F 
ATOM     70  F   UNL     1       1.980 -13.438  17.264  1.00  0.00    -0.200 F 
ATOM     71  C   UNL     1       0.263 -12.305  18.423  1.00  0.00     0.200 A 
ATOM     72  F   UNL     1      -1.438 -11.125  19.558  1.00  0.00    -0.200 F 
ATOM     73  F   UNL     1      -0.436 -13.443  18.528  1.00  0.00    -0.200 F 
ENDBRANCH  49  63
BRANCH  50  74
ATOM     74  C   UNL     1       6.386  -1.178  16.867  1.00  0.00     0.064 A 
ATOM     75  C   UNL     1       7.776  -1.060  17.003  1.00  0.00     0.173 A 
ATOM     76  C   UNL     1       5.658  -0.020  16.560  1.00  0.00     0.173 A 
ATOM     77  F   UNL     1       8.511  -2.137  17.316  1.00  0.00    -0.203 F 
ATOM     78  C   UNL     1       8.412   0.171  16.856  1.00  0.00     0.198 A 
ATOM     79  C   UNL     1       6.298   1.206  16.390  1.00  0.00     0.198 A 
ATOM     80  F   UNL     1       4.327  -0.082  16.414  1.00  0.00    -0.203 F 
ATOM     81  F   UNL     1       9.737   0.263  17.031  1.00  0.00    -0.200 F 
ATOM     82  C   UNL     1       7.673   1.303  16.545  1.00  0.00     0.200 A 
ATOM     83  F   UNL     1       5.582   2.296  16.079  1.00  0.00    -0.200 F 
ATOM     84  F   UNL     1       8.285   2.486  16.402  1.00  0.00    -0.200 F 
ENDBRANCH  50  74
BRANCH  62  85
ATOM     85  C   UNL     1       5.281  -5.279  22.386  1.00  0.00     0.064 A 
ATOM     86  C   UNL     1       4.636  -4.384  23.251  1.00  0.00     0.173 A 
ATOM     87  C   UNL     1       6.280  -6.109  22.917  1.00  0.00     0.173 A 
ATOM     88  F   UNL     1       3.686  -3.561  22.784  1.00  0.00    -0.203 F 
ATOM     89  C   UNL     1       4.991  -4.311  24.595  1.00  0.00     0.198 A 
ATOM     90  C   UNL     1       6.615  -6.050  24.267  1.00  0.00     0.198 A 
ATOM     91  F   UNL     1       6.921  -6.985  22.130  1.00  0.00    -0.203 F 
ATOM     92  F   UNL     1       4.388  -3.422  25.397  1.00  0.00    -0.200 F 
ATOM     93  C   UNL     1       5.974  -5.148  25.103  1.00  0.00     0.200 A 
ATOM     94  F   UNL     1       7.557  -6.866  24.759  1.00  0.00    -0.200 F 
ATOM     95  F   UNL     1       6.308  -5.081  26.399  1.00  0.00    -0.200 F 
ENDBRANCH  62  85
ENDBRANCH  36  37
ENDBRANCH  28  31
ENDBRANCH  26  27
ENDBRANCH   1  26
TORSDOF 12
