REMARK SMILES COc1cc([C@@H]2CC(NCCCCNC(=O)c3ccc(-c4c5nc(c(-c6c(F)c(F)c(F)c(F)c6F)c6ccc([nH]6)c(-c6c(F)c(F)c(F)c(F)c6F)c6nc(c(-c7c(F)c(F)c(F)c(F)c7F)c7ccc4[nH]7)C=C6)C=C5)cc3)=[NH+]c3c(C(=O)[O-])cn(-c4ccc(Cl)cc4)c32)cc(OC)c1O
REMARK SMILES IDX 12 1 11 2 10 3 9 4 6 5 7 6 95 7 8 8 81 9 87 10 80 11 82 12
REMARK SMILES IDX 86 13 5 16 3 17 4 18 100 19 97 20 96 21 2 22 1 23 101 24
REMARK SMILES IDX 98 26 99 27 88 28 89 29 94 30 90 31 93 32 91 33 92 34 83 35
REMARK SMILES IDX 84 36 85 37 13 38 14 39 15 40 16 42 17 43 18 44 79 45 19 46
REMARK SMILES IDX 78 47 20 48 21 49 22 50 72 51 23 52 77 53 71 54 73 55 24 56
REMARK SMILES IDX 76 57 70 58 69 59 25 61 57 62 37 63 56 64 38 65 41 66 55 67
REMARK SMILES IDX 74 68 39 69 40 70 54 72 75 73 42 74 26 75 27 76 35 77 28 78
REMARK SMILES IDX 29 79 33 80 36 81 30 82 31 83 34 84 32 85 58 86 59 87 67 88
REMARK SMILES IDX 60 89 61 90 65 91 68 92 62 93 63 94 66 95 64 96 43 97 44 98
REMARK SMILES IDX 52 99 45 100 46 101 50 102 53 103 47 104 48 105 51 106
REMARK SMILES IDX 49 107
REMARK H PARENT 9 14 80 15 101 25 14 41 73 60 41 71
REMARK Flexibility Score: inf
ROOT
ATOM      1  C   UNL     1       2.066  -7.037   8.116  1.00  0.00     0.025 C 
ENDROOT
BRANCH   1   2
ATOM      2  C   UNL     1       0.532  -6.993   8.111  1.00  0.00     0.048 C 
BRANCH   2   3
ATOM      3  C   UNL     1      -0.112  -5.704   8.631  1.00  0.00     0.233 C 
BRANCH   3   4
ATOM      4  N   UNL     1       0.216  -4.558   7.794  1.00  0.00    -0.278 N 
ATOM      5  C   UNL     1      -1.166  -2.047   5.217  1.00  0.00     0.083 C 
ATOM      6  C   UNL     1      -0.264  -2.596   6.348  1.00  0.00     0.142 C 
ATOM      7  C   UNL     1      -2.527  -2.657   5.316  1.00  0.00     0.078 A 
ATOM      8  C   UNL     1      -0.712  -3.917   6.992  1.00  0.00     0.248 C 
ATOM      9  C   UNL     1      -2.834  -3.708   6.141  1.00  0.00     0.155 A 
ATOM     10  N   UNL     1      -3.720  -2.213   4.769  1.00  0.00    -0.315 N 
ATOM     11  N   UNL     1      -1.907  -4.419   6.886  1.00  0.00    -0.243 N 
ATOM     12  C   UNL     1      -4.223  -3.934   6.155  1.00  0.00     0.062 A 
ATOM     13  C   UNL     1      -4.747  -2.951   5.329  1.00  0.00     0.106 A 
ATOM     14  H   UNL     1       1.142  -4.223   7.800  1.00  0.00     0.304 HD
ATOM     15  H   UNL     1      -2.144  -5.271   7.319  1.00  0.00     0.312 HD
BRANCH   5  16
ATOM     16  C   UNL     1      -0.494  -2.212   3.864  1.00  0.00    -0.031 A 
ATOM     17  C   UNL     1       0.506  -1.192   1.877  1.00  0.00     0.164 A 
ATOM     18  C   UNL     1      -0.048  -1.083   3.159  1.00  0.00     0.055 A 
ATOM     19  C   UNL     1       0.668  -2.465   1.307  1.00  0.00     0.200 A 
ATOM     20  C   UNL     1       0.241  -3.610   1.999  1.00  0.00     0.164 A 
ATOM     21  C   UNL     1      -0.328  -3.470   3.274  1.00  0.00     0.055 A 
BRANCH  17  22
ATOM     22  O   UNL     1       0.880   0.012   1.342  1.00  0.00    -0.493 OA
ATOM     23  C   UNL     1       0.848   0.169  -0.073  1.00  0.00     0.278 C 
ENDBRANCH  17  22
BRANCH  19  24
ATOM     24  O   UNL     1       1.305  -2.596   0.104  1.00  0.00    -0.502 OA
ATOM     25  H   UNL     1       1.591  -1.835  -0.360  1.00  0.00     0.293 HD
ENDBRANCH  19  24
BRANCH  20  26
ATOM     26  O   UNL     1       0.329  -4.922   1.617  1.00  0.00    -0.493 OA
ATOM     27  C   UNL     1       0.786  -5.223   0.309  1.00  0.00     0.278 C 
ENDBRANCH  20  26
ENDBRANCH   5  16
BRANCH  10  28
ATOM     28  C   UNL     1      -3.936  -1.196   3.809  1.00  0.00     0.046 A 
ATOM     29  C   UNL     1      -3.280  -1.245   2.578  1.00  0.00     0.028 A 
ATOM     30  C   UNL     1      -4.881  -0.194   4.060  1.00  0.00     0.028 A 
ATOM     31  C   UNL     1      -3.500  -0.247   1.626  1.00  0.00     0.022 A 
ATOM     32  C   UNL     1      -5.099   0.805   3.106  1.00  0.00     0.022 A 
ATOM     33  C   UNL     1      -4.399   0.780   1.899  1.00  0.00     0.041 A 
ATOM     34  Cl  UNL     1      -4.659   2.017   0.731  1.00  0.00    -0.084 Cl
ENDBRANCH  10  28
BRANCH  12  35
ATOM     35  C   UNL     1      -5.023  -4.926   6.853  1.00  0.00     0.077 C 
ATOM     36  O   UNL     1      -6.228  -5.052   6.746  1.00  0.00    -0.545 OA
ATOM     37  O   UNL     1      -4.340  -5.752   7.680  1.00  0.00    -0.545 OA
ENDBRANCH  12  35
ENDBRANCH   3   4
ENDBRANCH   2   3
ENDBRANCH   1   2
BRANCH   1  38
ATOM     38  C   UNL     1       2.705  -6.839   9.482  1.00  0.00     0.116 C 
BRANCH  38  39
ATOM     39  N   UNL     1       2.425  -7.920  10.431  1.00  0.00    -0.352 N 
ATOM     40  C   UNL     1       2.863  -8.028  11.742  1.00  0.00     0.251 C 
ATOM     41  H   UNL     1       1.860  -8.655  10.099  1.00  0.00     0.163 HD
ATOM     42  O   UNL     1       2.909  -9.108  12.318  1.00  0.00    -0.269 OA
BRANCH  40  43
ATOM     43  C   UNL     1       3.262  -6.796  12.444  1.00  0.00     0.039 A 
ATOM     44  C   UNL     1       4.374  -6.734  13.290  1.00  0.00     0.014 A 
ATOM     45  C   UNL     1       2.499  -5.664  12.189  1.00  0.00     0.014 A 
ATOM     46  C   UNL     1       4.748  -5.496  13.811  1.00  0.00     0.010 A 
ATOM     47  C   UNL     1       2.991  -4.434  12.516  1.00  0.00     0.010 A 
ATOM     48  C   UNL     1       4.054  -4.346  13.403  1.00  0.00    -0.014 A 
BRANCH  48  49
ATOM     49  C   UNL     1       4.463  -3.009  13.809  1.00  0.00     0.031 A 
ATOM     50  C   UNL     1       5.862  -2.652  13.452  1.00  0.00     0.074 A 
ATOM     51  C   UNL     1       3.562  -2.086  14.220  1.00  0.00     0.049 A 
ATOM     52  N   UNL     1       6.829  -2.345  14.251  1.00  0.00    -0.248 NA
ATOM     53  C   UNL     1       6.271  -2.765  12.041  1.00  0.00     0.031 C 
ATOM     54  C   UNL     1       2.099  -2.199  14.293  1.00  0.00     0.029 A 
ATOM     55  N   UNL     1       3.766  -0.782  14.545  1.00  0.00    -0.354 N 
ATOM     56  C   UNL     1       7.916  -2.034  13.438  1.00  0.00     0.074 A 
ATOM     57  C   UNL     1       7.573  -2.482  12.114  1.00  0.00     0.031 C 
ATOM     58  C   UNL     1       1.550  -0.968  14.385  1.00  0.00     0.029 A 
ATOM     59  C   UNL     1       2.614  -0.000  14.556  1.00  0.00     0.049 A 
ATOM     60  H   UNL     1       4.657  -0.420  14.755  1.00  0.00     0.167 HD
ATOM     61  C   UNL     1       8.901  -1.202  13.877  1.00  0.00     0.037 A 
ATOM     62  C   UNL     1       2.570   1.353  14.646  1.00  0.00     0.037 A 
ATOM     63  C   UNL     1       8.886  -1.093  15.316  1.00  0.00     0.049 A 
ATOM     64  C   UNL     1       3.884   1.792  15.191  1.00  0.00     0.074 A 
ATOM     65  C   UNL     1       8.966  -2.011  16.348  1.00  0.00     0.029 A 
ATOM     66  N   UNL     1       8.355   0.041  15.884  1.00  0.00    -0.354 N 
ATOM     67  N   UNL     1       4.286   1.529  16.405  1.00  0.00    -0.248 NA
ATOM     68  C   UNL     1       4.938   2.077  14.228  1.00  0.00     0.031 C 
ATOM     69  C   UNL     1       7.991  -1.577  17.297  1.00  0.00     0.029 A 
ATOM     70  C   UNL     1       7.455  -0.377  16.834  1.00  0.00     0.049 A 
ATOM     71  H   UNL     1       8.577   0.972  15.654  1.00  0.00     0.167 HD
ATOM     72  C   UNL     1       5.623   1.190  16.267  1.00  0.00     0.074 A 
ATOM     73  C   UNL     1       5.984   1.601  14.910  1.00  0.00     0.031 C 
ATOM     74  C   UNL     1       6.237   0.336  17.138  1.00  0.00     0.037 A 
BRANCH  61  75
ATOM     75  C   UNL     1       9.623  -0.209  12.997  1.00  0.00     0.064 A 
ATOM     76  C   UNL     1      10.712   0.513  13.525  1.00  0.00     0.173 A 
ATOM     77  C   UNL     1       9.113   0.276  11.772  1.00  0.00     0.173 A 
ATOM     78  F   UNL     1      11.263   0.158  14.696  1.00  0.00    -0.203 F 
ATOM     79  C   UNL     1      11.197   1.673  12.913  1.00  0.00     0.198 A 
ATOM     80  C   UNL     1       9.636   1.400  11.136  1.00  0.00     0.198 A 
ATOM     81  F   UNL     1       8.020  -0.238  11.197  1.00  0.00    -0.203 F 
ATOM     82  F   UNL     1      12.146   2.397  13.521  1.00  0.00    -0.200 F 
ATOM     83  C   UNL     1      10.655   2.118  11.722  1.00  0.00     0.200 A 
ATOM     84  F   UNL     1       9.082   1.825   9.991  1.00  0.00    -0.200 F 
ATOM     85  F   UNL     1      11.076   3.261  11.166  1.00  0.00    -0.200 F 
ENDBRANCH  61  75
BRANCH  62  86
ATOM     86  C   UNL     1       1.640   2.293  13.970  1.00  0.00     0.064 A 
ATOM     87  C   UNL     1       1.592   3.648  14.341  1.00  0.00     0.173 A 
ATOM     88  C   UNL     1       1.001   1.958  12.759  1.00  0.00     0.173 A 
ATOM     89  F   UNL     1       2.209   4.062  15.458  1.00  0.00    -0.203 F 
ATOM     90  C   UNL     1       0.979   4.613  13.533  1.00  0.00     0.198 A 
ATOM     91  C   UNL     1       0.383   2.920  11.957  1.00  0.00     0.198 A 
ATOM     92  F   UNL     1       1.048   0.708  12.277  1.00  0.00    -0.203 F 
ATOM     93  F   UNL     1       1.018   5.905  13.887  1.00  0.00    -0.200 F 
ATOM     94  C   UNL     1       0.387   4.250  12.335  1.00  0.00     0.200 A 
ATOM     95  F   UNL     1      -0.154   2.560  10.783  1.00  0.00    -0.200 F 
ATOM     96  F   UNL     1      -0.138   5.181  11.527  1.00  0.00    -0.200 F 
ENDBRANCH  62  86
BRANCH  74  97
ATOM     97  C   UNL     1       5.501  -0.067  18.387  1.00  0.00     0.064 A 
ATOM     98  C   UNL     1       4.262  -0.735  18.400  1.00  0.00     0.173 A 
ATOM     99  C   UNL     1       6.149   0.096  19.619  1.00  0.00     0.173 A 
ATOM    100  F   UNL     1       3.625  -1.032  17.262  1.00  0.00    -0.203 F 
ATOM    101  C   UNL     1       3.682  -1.169  19.593  1.00  0.00     0.198 A 
ATOM    102  C   UNL     1       5.587  -0.372  20.804  1.00  0.00     0.198 A 
ATOM    103  F   UNL     1       7.359   0.674  19.669  1.00  0.00    -0.203 F 
ATOM    104  F   UNL     1       2.493  -1.790  19.575  1.00  0.00    -0.200 F 
ATOM    105  C   UNL     1       4.349  -0.993  20.793  1.00  0.00     0.200 A 
ATOM    106  F   UNL     1       6.261  -0.245  21.955  1.00  0.00    -0.200 F 
ATOM    107  F   UNL     1       3.811  -1.444  21.935  1.00  0.00    -0.200 F 
ENDBRANCH  74  97
ENDBRANCH  48  49
ENDBRANCH  40  43
ENDBRANCH  38  39
ENDBRANCH   1  38
TORSDOF 16
