REMARK SMILES O=C(NCCCCNC(=O)[C@]1(O)C[C@@H]2C=C[C@H]1C2)c1ccc(-c2c3nc(c(-c4c(F)c(F)c(F)c(F)c4F)c4ccc([nH]4)c(-c4c(F)c(F)c(F)c(F)c4F)c4nc(c(-c5c(F)c(F)c(F)c(F)c5F)c5ccc2[nH]5)C=C4)C=C3)cc1
REMARK SMILES IDX 5 1 4 2 3 3 1 4 2 5 19 7 20 8 81 9 21 10 80 11 22 12 23 13
REMARK SMILES IDX 24 14 74 15 25 16 79 17 73 18 75 19 26 20 78 21 72 22 71 23
REMARK SMILES IDX 27 25 59 26 39 27 58 28 40 29 43 30 57 31 76 32 41 33 42 34
REMARK SMILES IDX 56 36 77 37 44 38 28 39 29 40 37 41 30 42 31 43 35 44 38 45
REMARK SMILES IDX 32 46 33 47 36 48 34 49 60 50 61 51 69 52 62 53 63 54 67 55
REMARK SMILES IDX 70 56 64 57 65 58 68 59 66 60 45 61 46 62 54 63 47 64 48 65
REMARK SMILES IDX 52 66 55 67 49 68 50 69 53 70 51 71 6 72 7 73 8 74 9 75
REMARK SMILES IDX 10 77 11 78 13 79 17 80 14 81 16 82 18 83 15 84 12 85
REMARK H PARENT 3 6 75 24 43 35 8 76 12 86
REMARK Flexibility Score: inf
ROOT
ATOM      1  C   UNL     1       4.938   2.718   0.785  1.00  0.00     0.023 C 
ENDROOT
BRANCH   1   2
ATOM      2  C   UNL     1       4.602   1.237   0.671  1.00  0.00     0.116 C 
BRANCH   2   3
ATOM      3  N   UNL     1       3.173   0.975   0.718  1.00  0.00    -0.352 N 
ATOM      4  O   UNL     1       1.221   0.071   0.026  1.00  0.00    -0.269 OA
ATOM      5  C   UNL     1       2.446   0.087  -0.034  1.00  0.00     0.251 C 
ATOM      6  H   UNL     1       2.661   1.502   1.374  1.00  0.00     0.163 HD
BRANCH   5   7
ATOM      7  C   UNL     1       3.155  -0.841  -0.939  1.00  0.00     0.039 A 
ATOM      8  C   UNL     1       4.252  -1.577  -0.481  1.00  0.00     0.014 A 
ATOM      9  C   UNL     1       2.705  -0.984  -2.254  1.00  0.00     0.014 A 
ATOM     10  C   UNL     1       4.956  -2.387  -1.364  1.00  0.00     0.010 A 
ATOM     11  C   UNL     1       3.372  -1.851  -3.122  1.00  0.00     0.010 A 
ATOM     12  C   UNL     1       4.505  -2.554  -2.683  1.00  0.00    -0.014 A 
BRANCH  12  13
ATOM     13  C   UNL     1       5.151  -3.568  -3.550  1.00  0.00     0.031 A 
ATOM     14  C   UNL     1       5.922  -3.175  -4.774  1.00  0.00     0.074 A 
ATOM     15  C   UNL     1       5.007  -4.865  -3.216  1.00  0.00     0.049 A 
ATOM     16  N   UNL     1       6.508  -3.944  -5.657  1.00  0.00    -0.248 NA
ATOM     17  C   UNL     1       6.048  -1.736  -5.055  1.00  0.00     0.031 C 
ATOM     18  C   UNL     1       4.256  -5.355  -2.056  1.00  0.00     0.029 A 
ATOM     19  N   UNL     1       5.474  -6.007  -3.814  1.00  0.00    -0.354 N 
ATOM     20  C   UNL     1       7.054  -3.090  -6.605  1.00  0.00     0.074 A 
ATOM     21  C   UNL     1       6.721  -1.741  -6.199  1.00  0.00     0.031 C 
ATOM     22  C   UNL     1       4.325  -6.693  -2.020  1.00  0.00     0.029 A 
ATOM     23  C   UNL     1       5.068  -7.158  -3.184  1.00  0.00     0.049 A 
ATOM     24  H   UNL     1       6.043  -6.002  -4.617  1.00  0.00     0.167 HD
ATOM     25  C   UNL     1       7.768  -3.415  -7.709  1.00  0.00     0.037 A 
ATOM     26  C   UNL     1       5.242  -8.447  -3.526  1.00  0.00     0.037 A 
ATOM     27  C   UNL     1       8.115  -4.762  -8.083  1.00  0.00     0.049 A 
ATOM     28  C   UNL     1       6.012  -8.768  -4.774  1.00  0.00     0.074 A 
ATOM     29  C   UNL     1       8.918  -5.186  -9.128  1.00  0.00     0.029 A 
ATOM     30  N   UNL     1       7.667  -5.904  -7.435  1.00  0.00    -0.354 N 
ATOM     31  N   UNL     1       6.590  -7.950  -5.619  1.00  0.00    -0.248 NA
ATOM     32  C   UNL     1       6.146 -10.188  -5.122  1.00  0.00     0.031 C 
ATOM     33  C   UNL     1       8.908  -6.584  -9.149  1.00  0.00     0.029 A 
ATOM     34  C   UNL     1       8.138  -7.032  -8.088  1.00  0.00     0.049 A 
ATOM     35  H   UNL     1       7.099  -5.912  -6.631  1.00  0.00     0.167 HD
ATOM     36  C   UNL     1       7.159  -8.754  -6.595  1.00  0.00     0.074 A 
ATOM     37  C   UNL     1       6.883 -10.126  -6.221  1.00  0.00     0.031 C 
ATOM     38  C   UNL     1       7.841  -8.388  -7.707  1.00  0.00     0.037 A 
BRANCH  25  39
ATOM     39  C   UNL     1       8.222  -2.309  -8.615  1.00  0.00     0.064 A 
ATOM     40  C   UNL     1       9.289  -1.467  -8.274  1.00  0.00     0.173 A 
ATOM     41  C   UNL     1       7.649  -2.163  -9.888  1.00  0.00     0.173 A 
ATOM     42  F   UNL     1       9.867  -1.563  -7.068  1.00  0.00    -0.203 F 
ATOM     43  C   UNL     1       9.765  -0.516  -9.175  1.00  0.00     0.198 A 
ATOM     44  C   UNL     1       8.141  -1.227 -10.794  1.00  0.00     0.198 A 
ATOM     45  F   UNL     1       6.630  -2.951 -10.265  1.00  0.00    -0.203 F 
ATOM     46  F   UNL     1      10.778   0.288  -8.825  1.00  0.00    -0.200 F 
ATOM     47  C   UNL     1       9.199  -0.405 -10.437  1.00  0.00     0.200 A 
ATOM     48  F   UNL     1       7.601  -1.131 -12.017  1.00  0.00    -0.200 F 
ATOM     49  F   UNL     1       9.674   0.494 -11.310  1.00  0.00    -0.200 F 
ENDBRANCH  25  39
BRANCH  26  50
ATOM     50  C   UNL     1       4.634  -9.520  -2.699  1.00  0.00     0.064 A 
ATOM     51  C   UNL     1       5.430 -10.413  -1.970  1.00  0.00     0.173 A 
ATOM     52  C   UNL     1       3.241  -9.678  -2.627  1.00  0.00     0.173 A 
ATOM     53  F   UNL     1       6.767 -10.315  -2.023  1.00  0.00    -0.203 F 
ATOM     54  C   UNL     1       4.857 -11.435  -1.217  1.00  0.00     0.198 A 
ATOM     55  C   UNL     1       2.669 -10.679  -1.848  1.00  0.00     0.198 A 
ATOM     56  F   UNL     1       2.435  -8.846  -3.303  1.00  0.00    -0.203 F 
ATOM     57  F   UNL     1       5.642 -12.306  -0.568  1.00  0.00    -0.200 F 
ATOM     58  C   UNL     1       3.477 -11.564  -1.151  1.00  0.00     0.200 A 
ATOM     59  F   UNL     1       1.335 -10.788  -1.775  1.00  0.00    -0.200 F 
ATOM     60  F   UNL     1       2.927 -12.546  -0.424  1.00  0.00    -0.200 F 
ENDBRANCH  26  50
BRANCH  38  61
ATOM     61  C   UNL     1       8.328  -9.491  -8.598  1.00  0.00     0.064 A 
ATOM     62  C   UNL     1       7.441 -10.218  -9.405  1.00  0.00     0.173 A 
ATOM     63  C   UNL     1       9.694  -9.800  -8.673  1.00  0.00     0.173 A 
ATOM     64  F   UNL     1       6.123  -9.972  -9.352  1.00  0.00    -0.203 F 
ATOM     65  C   UNL     1       7.903 -11.231 -10.241  1.00  0.00     0.198 A 
ATOM     66  C   UNL     1      10.155 -10.794  -9.530  1.00  0.00     0.198 A 
ATOM     67  F   UNL     1      10.581  -9.130  -7.922  1.00  0.00    -0.203 F 
ATOM     68  F   UNL     1       7.034 -11.944 -10.970  1.00  0.00    -0.200 F 
ATOM     69  C   UNL     1       9.260 -11.512 -10.309  1.00  0.00     0.200 A 
ATOM     70  F   UNL     1      11.467 -11.057  -9.604  1.00  0.00    -0.200 F 
ATOM     71  F   UNL     1       9.704 -12.482 -11.120  1.00  0.00    -0.200 F 
ENDBRANCH  38  61
ENDBRANCH  12  13
ENDBRANCH   5   7
ENDBRANCH   2   3
ENDBRANCH   1   2
BRANCH   1  72
ATOM     72  C   UNL     1       4.482   3.383   2.086  1.00  0.00     0.023 C 
BRANCH  72  73
ATOM     73  C   UNL     1       5.027   2.725   3.353  1.00  0.00     0.116 C 
BRANCH  73  74
ATOM     74  N   UNL     1       6.466   2.872   3.451  1.00  0.00    -0.354 N 
ATOM     75  C   UNL     1       7.184   3.824   4.127  1.00  0.00     0.252 C 
ATOM     76  H   UNL     1       6.998   2.199   2.968  1.00  0.00     0.163 HD
ATOM     77  O   UNL     1       8.397   3.873   3.913  1.00  0.00    -0.272 OA
BRANCH  75  78
ATOM     78  C   UNL     1       6.462   4.742   5.153  1.00  0.00     0.149 C 
ATOM     79  C   UNL     1       7.391   5.843   5.767  1.00  0.00     0.053 C 
ATOM     80  C   UNL     1       6.036   3.937   6.425  1.00  0.00     0.053 C 
ATOM     81  C   UNL     1       7.361   5.519   7.280  1.00  0.00     0.015 C 
ATOM     82  C   UNL     1       7.247   3.239   7.009  1.00  0.00    -0.024 C 
ATOM     83  C   UNL     1       5.915   5.058   7.469  1.00  0.00     0.019 C 
ATOM     84  C   UNL     1       8.050   4.195   7.501  1.00  0.00    -0.027 C 
BRANCH  78  85
ATOM     85  O   UNL     1       5.336   5.378   4.537  1.00  0.00    -0.379 OA
ATOM     86  H   UNL     1       5.630   5.868   3.753  1.00  0.00     0.212 HD
ENDBRANCH  78  85
ENDBRANCH  75  78
ENDBRANCH  73  74
ENDBRANCH  72  73
ENDBRANCH   1  72
TORSDOF 12
