REMARK SMILES CCOc1cccc(-c2ccc([C@@H](C)C(=O)NCCCCNC(=O)c3ccc(-c4c5nc(c(-c6c(F)c(F)c(F)c(F)c6F)c6ccc([nH]6)c(-c6c(F)c(F)c(F)c(F)c6F)c6nc(c(-c7c(F)c(F)c(F)c(F)c7F)c7ccc4[nH]7)C=C6)C=C5)cc3)cc2F)c1
REMARK SMILES IDX 18 1 17 2 15 3 16 4 13 6 14 7 12 8 9 9 10 10 89 11 11 12
REMARK SMILES IDX 88 13 90 14 8 15 4 16 5 17 91 18 6 19 7 20 3 21 2 22 1 23
REMARK SMILES IDX 19 24 20 25 21 26 22 27 23 28 24 30 25 31 26 32 87 33 27 34
REMARK SMILES IDX 86 35 28 36 29 37 30 38 80 39 31 40 85 41 79 42 81 43 32 44
REMARK SMILES IDX 84 45 78 46 77 47 33 49 65 50 45 51 64 52 46 53 49 54 63 55
REMARK SMILES IDX 82 56 47 57 48 58 62 60 83 61 50 62 34 63 35 64 43 65 36 66
REMARK SMILES IDX 37 67 41 68 44 69 38 70 39 71 42 72 40 73 66 74 67 75 75 76
REMARK SMILES IDX 68 77 69 78 73 79 76 80 70 81 71 82 74 83 72 84 51 85 52 86
REMARK SMILES IDX 60 87 53 88 54 89 58 90 61 91 55 92 56 93 59 94 57 95
REMARK H PARENT 17 5 22 29 81 48 49 59
REMARK Flexibility Score: inf
ROOT
ATOM      1  C   UNL     1       9.356   0.655   2.169  1.00  0.00     0.116 C 
ENDROOT
BRANCH   1   2
ATOM      2  N   UNL     1       8.626   0.363   3.383  1.00  0.00    -0.356 N 
ATOM      3  C   UNL     1       7.997  -0.768   3.803  1.00  0.00     0.227 C 
ATOM      4  O   UNL     1       7.367  -0.682   4.864  1.00  0.00    -0.274 OA
ATOM      5  H   UNL     1       8.576   1.115   4.017  1.00  0.00     0.163 HD
BRANCH   3   6
ATOM      6  C   UNL     1       8.043  -2.106   3.045  1.00  0.00     0.105 C 
ATOM      7  C   UNL     1       9.445  -2.692   2.897  1.00  0.00     0.023 C 
BRANCH   6   8
ATOM      8  C   UNL     1       7.175  -2.126   1.797  1.00  0.00    -0.033 A 
ATOM      9  C   UNL     1       5.389  -1.953  -0.446  1.00  0.00     0.018 A 
ATOM     10  C   UNL     1       6.760  -1.665  -0.563  1.00  0.00     0.012 A 
ATOM     11  C   UNL     1       4.965  -2.406   0.815  1.00  0.00     0.131 A 
ATOM     12  C   UNL     1       7.640  -1.785   0.524  1.00  0.00     0.005 A 
ATOM     13  C   UNL     1       5.823  -2.464   1.917  1.00  0.00     0.044 A 
ATOM     14  F   UNL     1       3.697  -2.797   1.018  1.00  0.00    -0.206 F 
BRANCH   9  15
ATOM     15  C   UNL     1       4.452  -1.735  -1.581  1.00  0.00    -0.012 A 
ATOM     16  C   UNL     1       2.216  -1.159  -2.405  1.00  0.00     0.119 A 
ATOM     17  C   UNL     1       2.647  -1.248  -3.721  1.00  0.00     0.046 A 
ATOM     18  C   UNL     1       3.100  -1.413  -1.356  1.00  0.00     0.055 A 
ATOM     19  C   UNL     1       3.978  -1.563  -3.982  1.00  0.00     0.004 A 
ATOM     20  C   UNL     1       4.865  -1.807  -2.925  1.00  0.00     0.009 A 
BRANCH  16  21
ATOM     21  O   UNL     1       0.886  -0.946  -2.167  1.00  0.00    -0.494 OA
BRANCH  21  22
ATOM     22  C   UNL     1       0.612   0.339  -1.595  1.00  0.00     0.226 C 
ATOM     23  C   UNL     1       0.579   0.293  -0.074  1.00  0.00     0.049 C 
ENDBRANCH  21  22
ENDBRANCH  16  21
ENDBRANCH   9  15
ENDBRANCH   6   8
ENDBRANCH   3   6
ENDBRANCH   1   2
BRANCH   1  24
ATOM     24  C   UNL     1       8.474   1.336   1.122  1.00  0.00     0.023 C 
BRANCH  24  25
ATOM     25  C   UNL     1       8.394   2.857   1.238  1.00  0.00     0.023 C 
BRANCH  25  26
ATOM     26  C   UNL     1       9.720   3.592   1.083  1.00  0.00     0.116 C 
BRANCH  26  27
ATOM     27  N   UNL     1      10.418   3.302  -0.161  1.00  0.00    -0.352 N 
ATOM     28  C   UNL     1      11.234   4.131  -0.897  1.00  0.00     0.251 C 
ATOM     29  H   UNL     1      10.290   2.396  -0.523  1.00  0.00     0.163 HD
ATOM     30  O   UNL     1      11.692   3.763  -1.969  1.00  0.00    -0.269 OA
BRANCH  28  31
ATOM     31  C   UNL     1      11.511   5.495  -0.398  1.00  0.00     0.039 A 
ATOM     32  C   UNL     1      11.340   6.575  -1.267  1.00  0.00     0.014 A 
ATOM     33  C   UNL     1      11.886   5.709   0.930  1.00  0.00     0.014 A 
ATOM     34  C   UNL     1      11.472   7.877  -0.780  1.00  0.00     0.010 A 
ATOM     35  C   UNL     1      11.937   7.004   1.432  1.00  0.00     0.010 A 
ATOM     36  C   UNL     1      11.732   8.101   0.582  1.00  0.00    -0.014 A 
BRANCH  36  37
ATOM     37  C   UNL     1      11.795   9.477   1.133  1.00  0.00     0.031 A 
ATOM     38  C   UNL     1      13.080   9.999   1.712  1.00  0.00     0.074 A 
ATOM     39  C   UNL     1      10.680  10.231   1.170  1.00  0.00     0.049 A 
ATOM     40  N   UNL     1      13.325  11.154   2.277  1.00  0.00    -0.248 NA
ATOM     41  C   UNL     1      14.236   9.089   1.683  1.00  0.00     0.031 C 
ATOM     42  C   UNL     1       9.357   9.811   0.703  1.00  0.00     0.029 A 
ATOM     43  N   UNL     1      10.478  11.509   1.628  1.00  0.00    -0.354 N 
ATOM     44  C   UNL     1      14.652  11.102   2.681  1.00  0.00     0.074 A 
ATOM     45  C   UNL     1      15.144   9.782   2.353  1.00  0.00     0.031 C 
ATOM     46  C   UNL     1       8.490  10.822   0.870  1.00  0.00     0.029 A 
ATOM     47  C   UNL     1       9.186  11.950   1.481  1.00  0.00     0.049 A 
ATOM     48  H   UNL     1      11.193  12.058   2.025  1.00  0.00     0.167 HD
ATOM     49  C   UNL     1      15.402  12.077   3.246  1.00  0.00     0.037 A 
ATOM     50  C   UNL     1       8.629  13.134   1.800  1.00  0.00     0.037 A 
ATOM     51  C   UNL     1      14.919  13.400   3.539  1.00  0.00     0.049 A 
ATOM     52  C   UNL     1       9.491  14.209   2.403  1.00  0.00     0.074 A 
ATOM     53  C   UNL     1      15.617  14.482   4.047  1.00  0.00     0.029 A 
ATOM     54  N   UNL     1      13.611  13.822   3.347  1.00  0.00    -0.354 N 
ATOM     55  N   UNL     1      10.766  14.176   2.706  1.00  0.00    -0.248 NA
ATOM     56  C   UNL     1       8.837  15.491   2.699  1.00  0.00     0.031 C 
ATOM     57  C   UNL     1      14.722  15.547   4.198  1.00  0.00     0.029 A 
ATOM     58  C   UNL     1      13.477  15.143   3.743  1.00  0.00     0.049 A 
ATOM     59  H   UNL     1      12.886  13.264   2.984  1.00  0.00     0.167 HD
ATOM     60  C   UNL     1      11.073  15.435   3.204  1.00  0.00     0.074 A 
ATOM     61  C   UNL     1       9.854  16.215   3.143  1.00  0.00     0.031 C 
ATOM     62  C   UNL     1      12.256  15.903   3.672  1.00  0.00     0.037 A 
BRANCH  49  63
ATOM     63  C   UNL     1      16.830  11.749   3.572  1.00  0.00     0.064 A 
ATOM     64  C   UNL     1      17.787  11.555   2.564  1.00  0.00     0.173 A 
ATOM     65  C   UNL     1      17.253  11.648   4.906  1.00  0.00     0.173 A 
ATOM     66  F   UNL     1      17.431  11.626   1.272  1.00  0.00    -0.203 F 
ATOM     67  C   UNL     1      19.106  11.240   2.878  1.00  0.00     0.198 A 
ATOM     68  C   UNL     1      18.580  11.363   5.217  1.00  0.00     0.198 A 
ATOM     69  F   UNL     1      16.380  11.827   5.908  1.00  0.00    -0.203 F 
ATOM     70  F   UNL     1      19.989  11.006   1.897  1.00  0.00    -0.200 F 
ATOM     71  C   UNL     1      19.503  11.151   4.204  1.00  0.00     0.200 A 
ATOM     72  F   UNL     1      18.965  11.287   6.498  1.00  0.00    -0.200 F 
ATOM     73  F   UNL     1      20.774  10.851   4.505  1.00  0.00    -0.200 F 
ENDBRANCH  49  63
BRANCH  50  74
ATOM     74  C   UNL     1       7.192  13.380   1.515  1.00  0.00     0.064 A 
ATOM     75  C   UNL     1       6.803  14.268   0.502  1.00  0.00     0.173 A 
ATOM     76  C   UNL     1       6.181  12.743   2.248  1.00  0.00     0.173 A 
ATOM     77  F   UNL     1       7.735  14.916  -0.213  1.00  0.00    -0.203 F 
ATOM     78  C   UNL     1       5.458  14.526   0.247  1.00  0.00     0.198 A 
ATOM     79  C   UNL     1       4.835  12.982   1.975  1.00  0.00     0.198 A 
ATOM     80  F   UNL     1       6.500  11.880   3.224  1.00  0.00    -0.203 F 
ATOM     81  F   UNL     1       5.116  15.414  -0.697  1.00  0.00    -0.200 F 
ATOM     82  C   UNL     1       4.475  13.879   0.981  1.00  0.00     0.200 A 
ATOM     83  F   UNL     1       3.888  12.345   2.676  1.00  0.00    -0.200 F 
ATOM     84  F   UNL     1       3.182  14.126   0.734  1.00  0.00    -0.200 F 
ENDBRANCH  50  74
BRANCH  62  85
ATOM     85  C   UNL     1      12.292  17.331   4.131  1.00  0.00     0.064 A 
ATOM     86  C   UNL     1      11.671  17.735   5.322  1.00  0.00     0.173 A 
ATOM     87  C   UNL     1      12.981  18.299   3.386  1.00  0.00     0.173 A 
ATOM     88  F   UNL     1      10.987  16.849   6.061  1.00  0.00    -0.203 F 
ATOM     89  C   UNL     1      11.714  19.064   5.734  1.00  0.00     0.198 A 
ATOM     90  C   UNL     1      13.046  19.621   3.817  1.00  0.00     0.198 A 
ATOM     91  F   UNL     1      13.598  17.962   2.243  1.00  0.00    -0.203 F 
ATOM     92  F   UNL     1      11.070  19.438   6.849  1.00  0.00    -0.200 F 
ATOM     93  C   UNL     1      12.406  20.004   4.986  1.00  0.00     0.200 A 
ATOM     94  F   UNL     1      13.726  20.526   3.099  1.00  0.00    -0.200 F 
ATOM     95  F   UNL     1      12.449  21.282   5.386  1.00  0.00    -0.200 F 
ENDBRANCH  62  85
ENDBRANCH  36  37
ENDBRANCH  28  31
ENDBRANCH  26  27
ENDBRANCH  25  26
ENDBRANCH  24  25
ENDBRANCH   1  24
TORSDOF 15
