REMARK SMILES O=C(NCCCCNC(=O)c1cc(NS(=O)(=O)c2ccc3c(c2)OCCCO3)ccc1N1CCSCC1)c1ccc(-c2c3nc(c(-c4c(F)c(F)c(F)c(F)c4F)c4ccc([nH]4)c(-c4c(F)c(F)c(F)c(F)c4F)c4nc(c(-c5c(F)c(F)c(F)c(F)c5F)c5ccc2[nH]5)C=C4)C=C3)cc1
REMARK SMILES IDX 8 1 9 2 10 3 7 5 6 6 5 7 4 8 3 9 1 10 2 11 38 13 39 14
REMARK SMILES IDX 100 15 40 16 99 17 41 18 42 19 43 20 93 21 44 22 98 23 92 24
REMARK SMILES IDX 94 25 45 26 97 27 91 28 90 29 46 31 78 32 58 33 77 34 59 35
REMARK SMILES IDX 62 36 76 37 95 38 60 39 61 40 75 42 96 43 63 44 47 45 48 46
REMARK SMILES IDX 56 47 49 48 50 49 54 50 57 51 51 52 52 53 55 54 53 55 79 56
REMARK SMILES IDX 80 57 88 58 81 59 82 60 86 61 89 62 83 63 84 64 87 65 85 66
REMARK SMILES IDX 64 67 65 68 73 69 66 70 67 71 71 72 74 73 68 74 69 75 72 76
REMARK SMILES IDX 70 77 11 78 12 79 31 80 13 81 30 82 29 83 32 84 33 85 37 86
REMARK SMILES IDX 34 87 36 88 35 89 14 90 15 92 16 93 17 94 18 95 19 96 23 97
REMARK SMILES IDX 20 98 22 99 21 100 24 101 25 102 28 104 27 105 26 106
REMARK H PARENT 8 4 3 12 94 30 62 41 14 91
REMARK Flexibility Score: 80.00
ROOT
ATOM      1  N   UNL     1       5.602  -4.380  -0.638  1.00  0.00    -0.352 N 
ATOM      2  C   UNL     1       6.030  -4.702  -1.899  1.00  0.00     0.253 C 
ATOM      3  O   UNL     1       6.951  -4.061  -2.391  1.00  0.00    -0.269 OA
ATOM      4  H   UNL     1       6.264  -4.225   0.074  1.00  0.00     0.163 HD
ENDROOT
BRANCH   1   5
ATOM      5  C   UNL     1       4.199  -4.266  -0.339  1.00  0.00     0.116 C 
BRANCH   5   6
ATOM      6  C   UNL     1       3.922  -3.604   0.999  1.00  0.00     0.023 C 
BRANCH   6   7
ATOM      7  C   UNL     1       4.558  -2.220   1.167  1.00  0.00     0.023 C 
BRANCH   7   8
ATOM      8  C   UNL     1       4.384  -1.267  -0.014  1.00  0.00     0.116 C 
BRANCH   8   9
ATOM      9  N   UNL     1       2.983  -0.995  -0.318  1.00  0.00    -0.352 N 
ATOM     10  O   UNL     1       0.999   0.078  -0.168  1.00  0.00    -0.269 OA
ATOM     11  C   UNL     1       2.213   0.099  -0.003  1.00  0.00     0.251 C 
ATOM     12  H   UNL     1       2.520  -1.701  -0.824  1.00  0.00     0.163 HD
BRANCH  11  13
ATOM     13  C   UNL     1       2.866   1.290   0.570  1.00  0.00     0.039 A 
ATOM     14  C   UNL     1       4.010   1.808  -0.035  1.00  0.00     0.014 A 
ATOM     15  C   UNL     1       2.365   1.855   1.745  1.00  0.00     0.014 A 
ATOM     16  C   UNL     1       4.768   2.753   0.640  1.00  0.00     0.010 A 
ATOM     17  C   UNL     1       3.072   2.889   2.364  1.00  0.00     0.010 A 
ATOM     18  C   UNL     1       4.307   3.311   1.844  1.00  0.00    -0.014 A 
BRANCH  18  19
ATOM     19  C   UNL     1       5.123   4.352   2.519  1.00  0.00     0.031 A 
ATOM     20  C   UNL     1       5.681   4.134   3.898  1.00  0.00     0.074 A 
ATOM     21  C   UNL     1       5.389   5.493   1.854  1.00  0.00     0.049 A 
ATOM     22  N   UNL     1       6.424   4.933   4.625  1.00  0.00    -0.248 NA
ATOM     23  C   UNL     1       5.357   2.860   4.556  1.00  0.00     0.031 C 
ATOM     24  C   UNL     1       4.904   5.815   0.510  1.00  0.00     0.029 A 
ATOM     25  N   UNL     1       6.146   6.581   2.203  1.00  0.00    -0.354 N 
ATOM     26  C   UNL     1       6.628   4.275   5.831  1.00  0.00     0.074 A 
ATOM     27  C   UNL     1       5.910   3.021   5.750  1.00  0.00     0.031 C 
ATOM     28  C   UNL     1       5.422   6.988   0.124  1.00  0.00     0.029 A 
ATOM     29  C   UNL     1       6.209   7.538   1.221  1.00  0.00     0.049 A 
ATOM     30  H   UNL     1       6.601   6.667   3.071  1.00  0.00     0.167 HD
ATOM     31  C   UNL     1       7.354   4.680   6.903  1.00  0.00     0.037 A 
ATOM     32  C   UNL     1       6.817   8.738   1.209  1.00  0.00     0.037 A 
ATOM     33  C   UNL     1       8.079   5.925   6.965  1.00  0.00     0.049 A 
ATOM     34  C   UNL     1       7.583   9.175   2.424  1.00  0.00     0.074 A 
ATOM     35  C   UNL     1       8.878   6.410   7.986  1.00  0.00     0.029 A 
ATOM     36  N   UNL     1       8.086   6.889   5.965  1.00  0.00    -0.354 N 
ATOM     37  N   UNL     1       7.798   8.530   3.545  1.00  0.00    -0.248 NA
ATOM     38  C   UNL     1       8.191  10.509   2.370  1.00  0.00     0.031 C 
ATOM     39  C   UNL     1       9.311   7.693   7.635  1.00  0.00     0.029 A 
ATOM     40  C   UNL     1       8.848   7.978   6.360  1.00  0.00     0.049 A 
ATOM     41  H   UNL     1       7.618   6.811   5.102  1.00  0.00     0.167 HD
ATOM     42  C   UNL     1       8.596   9.363   4.316  1.00  0.00     0.074 A 
ATOM     43  C   UNL     1       8.835  10.555   3.527  1.00  0.00     0.031 C 
ATOM     44  C   UNL     1       9.088   9.156   5.562  1.00  0.00     0.037 A 
BRANCH  31  45
ATOM     45  C   UNL     1       7.368   3.789   8.116  1.00  0.00     0.064 A 
ATOM     46  C   UNL     1       7.997   2.534   8.116  1.00  0.00     0.173 A 
ATOM     47  C   UNL     1       6.762   4.212   9.311  1.00  0.00     0.173 A 
ATOM     48  F   UNL     1       8.586   2.074   7.002  1.00  0.00    -0.203 F 
ATOM     49  C   UNL     1       7.985   1.724   9.250  1.00  0.00     0.198 A 
ATOM     50  C   UNL     1       6.783   3.415  10.453  1.00  0.00     0.198 A 
ATOM     51  F   UNL     1       6.153   5.406   9.374  1.00  0.00    -0.203 F 
ATOM     52  F   UNL     1       8.540   0.504   9.206  1.00  0.00    -0.200 F 
ATOM     53  C   UNL     1       7.384   2.167  10.418  1.00  0.00     0.200 A 
ATOM     54  F   UNL     1       6.217   3.854  11.585  1.00  0.00    -0.200 F 
ATOM     55  F   UNL     1       7.376   1.387  11.508  1.00  0.00    -0.200 F 
ENDBRANCH  31  45
BRANCH  32  56
ATOM     56  C   UNL     1       6.729   9.598   0.001  1.00  0.00     0.064 A 
ATOM     57  C   UNL     1       7.864   9.864  -0.776  1.00  0.00     0.173 A 
ATOM     58  C   UNL     1       5.510  10.159  -0.408  1.00  0.00     0.173 A 
ATOM     59  F   UNL     1       9.055   9.363  -0.416  1.00  0.00    -0.203 F 
ATOM     60  C   UNL     1       7.788  10.675  -1.906  1.00  0.00     0.198 A 
ATOM     61  C   UNL     1       5.428  10.941  -1.558  1.00  0.00     0.198 A 
ATOM     62  F   UNL     1       4.393   9.928   0.296  1.00  0.00    -0.203 F 
ATOM     63  F   UNL     1       8.897  10.952  -2.604  1.00  0.00    -0.200 F 
ATOM     64  C   UNL     1       6.569  11.207  -2.300  1.00  0.00     0.200 A 
ATOM     65  F   UNL     1       4.245  11.435  -1.946  1.00  0.00    -0.200 F 
ATOM     66  F   UNL     1       6.494  11.979  -3.392  1.00  0.00    -0.200 F 
ENDBRANCH  32  56
BRANCH  44  67
ATOM     67  C   UNL     1       9.992  10.216   6.125  1.00  0.00     0.064 A 
ATOM     68  C   UNL     1       9.518  11.486   6.486  1.00  0.00     0.173 A 
ATOM     69  C   UNL     1      11.357   9.948   6.317  1.00  0.00     0.173 A 
ATOM     70  F   UNL     1       8.226  11.801   6.308  1.00  0.00    -0.203 F 
ATOM     71  C   UNL     1      10.383  12.460   6.981  1.00  0.00     0.198 A 
ATOM     72  C   UNL     1      12.211  10.910   6.848  1.00  0.00     0.198 A 
ATOM     73  F   UNL     1      11.863   8.748   5.995  1.00  0.00    -0.203 F 
ATOM     74  F   UNL     1       9.921  13.687   7.255  1.00  0.00    -0.200 F 
ATOM     75  C   UNL     1      11.726  12.169   7.168  1.00  0.00     0.200 A 
ATOM     76  F   UNL     1      13.504  10.620   7.044  1.00  0.00    -0.200 F 
ATOM     77  F   UNL     1      12.556  13.105   7.647  1.00  0.00    -0.200 F 
ENDBRANCH  44  67
ENDBRANCH  18  19
ENDBRANCH  11  13
ENDBRANCH   8   9
ENDBRANCH   7   8
ENDBRANCH   6   7
ENDBRANCH   5   6
ENDBRANCH   1   5
BRANCH   2  78
ATOM     78  C   UNL     1       5.394  -5.849  -2.590  1.00  0.00     0.065 A 
ATOM     79  C   UNL     1       5.538  -7.105  -1.952  1.00  0.00     0.042 A 
ATOM     80  C   UNL     1       4.785  -5.745  -3.853  1.00  0.00     0.050 A 
ATOM     81  C   UNL     1       5.231  -8.292  -2.621  1.00  0.00     0.050 A 
ATOM     82  C   UNL     1       4.448  -6.955  -4.491  1.00  0.00     0.029 A 
ATOM     83  C   UNL     1       4.700  -8.212  -3.907  1.00  0.00     0.029 A 
BRANCH  80  84
ATOM     84  N   UNL     1       4.367  -4.558  -4.479  1.00  0.00    -0.369 N 
ATOM     85  C   UNL     1       5.375  -3.513  -4.748  1.00  0.00     0.127 C 
ATOM     86  C   UNL     1       3.059  -4.070  -3.999  1.00  0.00     0.127 C 
ATOM     87  C   UNL     1       4.912  -2.560  -5.854  1.00  0.00     0.091 C 
ATOM     88  C   UNL     1       2.378  -3.106  -4.972  1.00  0.00     0.091 C 
ATOM     89  S   UNL     1       3.403  -1.653  -5.368  1.00  0.00    -0.158 SA
ENDBRANCH  80  84
BRANCH  81  90
ATOM     90  N   UNL     1       5.453  -9.572  -1.986  1.00  0.00    -0.280 N 
ATOM     91  H   UNL     1       4.679 -10.064  -1.626  1.00  0.00     0.180 HD
BRANCH  90  92
ATOM     92  S   UNL     1       7.018 -10.268  -1.836  1.00  0.00     0.262 S 
ATOM     93  O   UNL     1       6.961 -11.140  -0.677  1.00  0.00    -0.201 OA
ATOM     94  O   UNL     1       7.354 -10.803  -3.135  1.00  0.00    -0.201 OA
BRANCH  92  95
ATOM     95  C   UNL     1       8.184  -8.991  -1.498  1.00  0.00     0.091 A 
ATOM     96  C   UNL     1       9.029  -8.994  -0.377  1.00  0.00     0.026 A 
ATOM     97  C   UNL     1       8.274  -7.983  -2.443  1.00  0.00     0.072 A 
ATOM     98  C   UNL     1      10.034  -8.017  -0.276  1.00  0.00     0.052 A 
ATOM     99  C   UNL     1       9.102  -6.922  -2.199  1.00  0.00     0.162 A 
ATOM    100  C   UNL     1      10.096  -7.020  -1.245  1.00  0.00     0.161 A 
BRANCH  99 101
ATOM    101  O   UNL     1       8.921  -5.756  -2.865  1.00  0.00    -0.490 OA
BRANCH 101 102
ATOM    102  C   UNL     1       9.615  -5.747  -4.088  1.00  0.00     0.233 CG0
ATOM    103  G   UNL     1      11.113  -5.597  -3.861  1.00  0.00     0.000 G0
ENDBRANCH 101 102
ENDBRANCH  99 101
BRANCH 100 104
ATOM    104  O   UNL     1      11.225  -6.255  -1.421  1.00  0.00    -0.490 OA
BRANCH 104 105
ATOM    105  C   UNL     1      11.721  -6.496  -2.768  1.00  0.00     0.233 C 
BRANCH 105 106
ATOM    106  C   UNL     1      11.113  -5.597  -3.861  1.00  0.00     0.083 CG0
ATOM    107  G   UNL     1       9.615  -5.747  -4.088  1.00  0.00     0.000 G0
ENDBRANCH 105 106
ENDBRANCH 104 105
ENDBRANCH 100 104
ENDBRANCH  92  95
ENDBRANCH  90  92
ENDBRANCH  81  90
ENDBRANCH   2  78
TORSDOF 15
