REMARK SMILES CCC[C@@H]1SC[C@H](C(=O)NCCCCNC(=O)c2ccc(-c3c4nc(c(-c5c(F)c(F)c(F)c(F)c5F)c5ccc([nH]5)c(-c5c(F)c(F)c(F)c(F)c5F)c5nc(c(-c6c(F)c(F)c(F)c(F)c6F)c6ccc3[nH]6)C=C5)C=C4)cc2)N1C(=O)C[NH+]1CCC([NH3+])CC1
REMARK SMILES IDX 11 1 10 2 8 3 9 4 7 6 4 7 5 8 81 9 6 10 3 11 2 12 1 13 82 14
REMARK SMILES IDX 83 15 84 16 85 17 86 18 91 19 87 21 90 22 88 23 89 24 12 28
REMARK SMILES IDX 13 29 14 30 15 31 16 32 17 34 18 35 19 36 80 37 20 38 79 39
REMARK SMILES IDX 21 40 22 41 23 42 73 43 24 44 78 45 72 46 74 47 25 48 77 49
REMARK SMILES IDX 71 50 70 51 26 53 58 54 38 55 57 56 39 57 42 58 56 59 75 60
REMARK SMILES IDX 40 61 41 62 55 64 76 65 43 66 27 67 28 68 36 69 29 70 30 71
REMARK SMILES IDX 34 72 37 73 31 74 32 75 35 76 33 77 59 78 60 79 68 80 61 81
REMARK SMILES IDX 62 82 66 83 69 84 63 85 64 86 67 87 65 88 44 89 45 90 53 91
REMARK SMILES IDX 46 92 47 93 51 94 54 95 48 96 49 97 52 98 50 99
REMARK H PARENT 10 5 85 20 89 25 89 26 89 27 15 33 74 52 42 63
REMARK Flexibility Score: inf
ROOT
ATOM      1  C   UNL     1       2.246   6.801   1.622  1.00  0.00     0.116 C 
ENDROOT
BRANCH   1   2
ATOM      2  N   UNL     1       0.975   6.654   0.931  1.00  0.00    -0.354 N 
ATOM      3  C   UNL     1       0.119   5.569   0.991  1.00  0.00     0.243 C 
ATOM      4  O   UNL     1      -1.073   5.747   0.742  1.00  0.00    -0.273 OA
ATOM      5  H   UNL     1       0.694   7.406   0.360  1.00  0.00     0.163 HD
BRANCH   3   6
ATOM      6  C   UNL     1       0.717   4.212   1.438  1.00  0.00     0.185 C 
ATOM      7  C   UNL     1       0.216   1.925   2.130  1.00  0.00     0.144 C 
ATOM      8  S   UNL     1       0.209   2.882   3.697  1.00  0.00    -0.134 SA
ATOM      9  N   UNL     1       0.003   2.953   1.103  1.00  0.00    -0.313 N 
ATOM     10  C   UNL     1       0.977   4.305   2.946  1.00  0.00     0.107 C 
BRANCH   7  11
ATOM     11  C   UNL     1      -0.730   0.741   2.373  1.00  0.00     0.036 C 
BRANCH  11  12
ATOM     12  C   UNL     1      -0.301  -0.639   1.840  1.00  0.00    -0.000 C 
ATOM     13  C   UNL     1       1.193  -0.913   1.725  1.00  0.00     0.004 C 
ENDBRANCH  11  12
ENDBRANCH   7  11
BRANCH   9  14
ATOM     14  C   UNL     1      -0.234   2.777  -0.258  1.00  0.00     0.279 C 
ATOM     15  O   UNL     1       0.004   3.693  -1.058  1.00  0.00    -0.268 OA
BRANCH  14  16
ATOM     16  C   UNL     1      -0.746   1.454  -0.839  1.00  0.00     0.363 C 
BRANCH  16  17
ATOM     17  N   UNL     1       0.363   0.512  -1.103  1.00  0.00    -0.327 N 
ATOM     18  C   UNL     1      -0.104  -0.752  -1.701  1.00  0.00     0.268 C 
ATOM     19  C   UNL     1       1.478   1.079  -1.877  1.00  0.00     0.268 C 
ATOM     20  H   UNL     1       0.742   0.308  -0.178  1.00  0.00     0.348 HD
ATOM     21  C   UNL     1      -0.345  -0.731  -3.213  1.00  0.00     0.126 C 
ATOM     22  C   UNL     1       1.191   1.227  -3.370  1.00  0.00     0.126 C 
ATOM     23  C   UNL     1       0.857  -0.144  -3.952  1.00  0.00     0.192 C 
BRANCH  23  24
ATOM     24  N   UNL     1       0.602  -0.050  -5.389  1.00  0.00    -0.355 N 
ATOM     25  H   UNL     1      -0.193   0.567  -5.554  1.00  0.00     0.344 HD
ATOM     26  H   UNL     1       0.395  -0.978  -5.759  1.00  0.00     0.344 HD
ATOM     27  H   UNL     1       1.427   0.326  -5.857  1.00  0.00     0.344 HD
ENDBRANCH  23  24
ENDBRANCH  16  17
ENDBRANCH  14  16
ENDBRANCH   9  14
ENDBRANCH   3   6
ENDBRANCH   1   2
BRANCH   1  28
ATOM     28  C   UNL     1       3.215   7.816   1.030  1.00  0.00     0.023 C 
BRANCH  28  29
ATOM     29  C   UNL     1       2.649   9.200   0.733  1.00  0.00     0.023 C 
BRANCH  29  30
ATOM     30  C   UNL     1       1.804   9.825   1.835  1.00  0.00     0.116 C 
BRANCH  30  31
ATOM     31  N   UNL     1       2.553  10.123   3.043  1.00  0.00    -0.352 N 
ATOM     32  C   UNL     1       2.728  11.327   3.692  1.00  0.00     0.251 C 
ATOM     33  H   UNL     1       3.002   9.352   3.460  1.00  0.00     0.163 HD
ATOM     34  O   UNL     1       3.486  11.409   4.644  1.00  0.00    -0.269 OA
BRANCH  32  35
ATOM     35  C   UNL     1       2.025  12.535   3.200  1.00  0.00     0.039 A 
ATOM     36  C   UNL     1       2.754  13.715   3.034  1.00  0.00     0.014 A 
ATOM     37  C   UNL     1       0.666  12.499   2.878  1.00  0.00     0.014 A 
ATOM     38  C   UNL     1       2.141  14.834   2.466  1.00  0.00     0.010 A 
ATOM     39  C   UNL     1       0.082  13.584   2.230  1.00  0.00     0.010 A 
ATOM     40  C   UNL     1       0.812  14.762   2.016  1.00  0.00    -0.014 A 
BRANCH  40  41
ATOM     41  C   UNL     1       0.173  15.905   1.312  1.00  0.00     0.031 A 
ATOM     42  C   UNL     1      -1.032  16.581   1.901  1.00  0.00     0.074 A 
ATOM     43  C   UNL     1       0.629  16.282   0.102  1.00  0.00     0.049 A 
ATOM     44  N   UNL     1      -1.767  17.546   1.407  1.00  0.00    -0.248 NA
ATOM     45  C   UNL     1      -1.494  16.083   3.206  1.00  0.00     0.031 C 
ATOM     46  C   UNL     1       1.750  15.665  -0.609  1.00  0.00     0.029 A 
ATOM     47  N   UNL     1       0.195  17.265  -0.753  1.00  0.00    -0.354 N 
ATOM     48  C   UNL     1      -2.785  17.754   2.328  1.00  0.00     0.074 A 
ATOM     49  C   UNL     1      -2.607  16.778   3.381  1.00  0.00     0.031 C 
ATOM     50  C   UNL     1       1.928  16.294  -1.781  1.00  0.00     0.029 A 
ATOM     51  C   UNL     1       0.911  17.332  -1.923  1.00  0.00     0.049 A 
ATOM     52  H   UNL     1      -0.558  17.864  -0.547  1.00  0.00     0.167 HD
ATOM     53  C   UNL     1      -3.766  18.688   2.309  1.00  0.00     0.037 A 
ATOM     54  C   UNL     1       0.761  18.134  -2.995  1.00  0.00     0.037 A 
ATOM     55  C   UNL     1      -3.925  19.672   1.270  1.00  0.00     0.049 A 
ATOM     56  C   UNL     1      -0.327  19.172  -2.991  1.00  0.00     0.074 A 
ATOM     57  C   UNL     1      -4.832  20.714   1.199  1.00  0.00     0.029 A 
ATOM     58  N   UNL     1      -3.162  19.728   0.112  1.00  0.00    -0.354 N 
ATOM     59  N   UNL     1      -1.229  19.421  -2.073  1.00  0.00    -0.248 NA
ATOM     60  C   UNL     1      -0.412  20.047  -4.169  1.00  0.00     0.031 C 
ATOM     61  C   UNL     1      -4.657  21.364  -0.027  1.00  0.00     0.029 A 
ATOM     62  C   UNL     1      -3.600  20.767  -0.695  1.00  0.00     0.049 A 
ATOM     63  H   UNL     1      -2.419  19.119  -0.105  1.00  0.00     0.167 HD
ATOM     64  C   UNL     1      -1.974  20.491  -2.549  1.00  0.00     0.074 A 
ATOM     65  C   UNL     1      -1.407  20.855  -3.832  1.00  0.00     0.031 C 
ATOM     66  C   UNL     1      -3.031  21.116  -1.973  1.00  0.00     0.037 A 
BRANCH  53  67
ATOM     67  C   UNL     1      -4.748  18.681   3.446  1.00  0.00     0.064 A 
ATOM     68  C   UNL     1      -4.369  19.016   4.755  1.00  0.00     0.173 A 
ATOM     69  C   UNL     1      -6.091  18.340   3.223  1.00  0.00     0.173 A 
ATOM     70  F   UNL     1      -3.096  19.341   5.027  1.00  0.00    -0.203 F 
ATOM     71  C   UNL     1      -5.284  18.967   5.804  1.00  0.00     0.198 A 
ATOM     72  C   UNL     1      -7.012  18.327   4.267  1.00  0.00     0.198 A 
ATOM     73  F   UNL     1      -6.512  18.019   1.990  1.00  0.00    -0.203 F 
ATOM     74  F   UNL     1      -4.882  19.227   7.055  1.00  0.00    -0.200 F 
ATOM     75  C   UNL     1      -6.606  18.627   5.558  1.00  0.00     0.200 A 
ATOM     76  F   UNL     1      -8.293  18.013   4.025  1.00  0.00    -0.200 F 
ATOM     77  F   UNL     1      -7.486  18.580   6.568  1.00  0.00    -0.200 F 
ENDBRANCH  53  67
BRANCH  54  78
ATOM     78  C   UNL     1       1.689  17.996  -4.147  1.00  0.00     0.064 A 
ATOM     79  C   UNL     1       2.659  18.973  -4.412  1.00  0.00     0.173 A 
ATOM     80  C   UNL     1       1.647  16.873  -4.986  1.00  0.00     0.173 A 
ATOM     81  F   UNL     1       2.726  20.074  -3.650  1.00  0.00    -0.203 F 
ATOM     82  C   UNL     1       3.546  18.835  -5.478  1.00  0.00     0.198 A 
ATOM     83  C   UNL     1       2.552  16.724  -6.035  1.00  0.00     0.198 A 
ATOM     84  F   UNL     1       0.741  15.908  -4.771  1.00  0.00    -0.203 F 
ATOM     85  F   UNL     1       4.443  19.799  -5.729  1.00  0.00    -0.200 F 
ATOM     86  C   UNL     1       3.498  17.707  -6.283  1.00  0.00     0.200 A 
ATOM     87  F   UNL     1       2.512  15.624  -6.800  1.00  0.00    -0.200 F 
ATOM     88  F   UNL     1       4.361  17.568  -7.299  1.00  0.00    -0.200 F 
ENDBRANCH  54  78
BRANCH  66  89
ATOM     89  C   UNL     1      -3.634  22.276  -2.713  1.00  0.00     0.064 A 
ATOM     90  C   UNL     1      -4.382  22.094  -3.886  1.00  0.00     0.173 A 
ATOM     91  C   UNL     1      -3.497  23.582  -2.218  1.00  0.00     0.173 A 
ATOM     92  F   UNL     1      -4.530  20.868  -4.409  1.00  0.00    -0.203 F 
ATOM     93  C   UNL     1      -4.950  23.180  -4.548  1.00  0.00     0.198 A 
ATOM     94  C   UNL     1      -4.093  24.661  -2.865  1.00  0.00     0.198 A 
ATOM     95  F   UNL     1      -2.796  23.810  -1.097  1.00  0.00    -0.203 F 
ATOM     96  F   UNL     1      -5.621  22.988  -5.692  1.00  0.00    -0.200 F 
ATOM     97  C   UNL     1      -4.812  24.460  -4.032  1.00  0.00     0.200 A 
ATOM     98  F   UNL     1      -3.971  25.895  -2.357  1.00  0.00    -0.200 F 
ATOM     99  F   UNL     1      -5.368  25.502  -4.666  1.00  0.00    -0.200 F 
ENDBRANCH  66  89
ENDBRANCH  40  41
ENDBRANCH  32  35
ENDBRANCH  30  31
ENDBRANCH  29  30
ENDBRANCH  28  29
ENDBRANCH   1  28
TORSDOF 17
