REMARK SMILES Cn1nc(C(=O)N2C[C@@H](O)C[C@H]2C(=O)NCCCCNC(=O)c2ccc(-c3c4nc(c(-c5c(F)c(F)c(F)c(F)c5F)c5ccc([nH]5)c(-c5c(F)c(F)c(F)c(F)c5F)c5nc(c(-c6c(F)c(F)c(F)c(F)c6F)c6ccc3[nH]6)C=C5)C=C4)cc2)ccc1=O
REMARK SMILES IDX 17 1 16 2 15 3 13 4 14 5 12 7 7 8 8 9 9 10 11 11 5 12 6 13
REMARK SMILES IDX 4 14 1 15 2 16 3 17 88 18 87 19 89 20 86 21 10 22 18 24
REMARK SMILES IDX 19 25 20 26 21 27 22 29 23 30 24 31 85 32 25 33 84 34 26 35
REMARK SMILES IDX 27 36 28 37 78 38 29 39 83 40 77 41 79 42 30 43 82 44 76 45
REMARK SMILES IDX 75 46 31 48 63 49 43 50 62 51 44 52 47 53 61 54 80 55 45 56
REMARK SMILES IDX 46 57 60 59 81 60 48 61 32 62 33 63 41 64 34 65 35 66 39 67
REMARK SMILES IDX 42 68 36 69 37 70 40 71 38 72 64 73 65 74 73 75 66 76 67 77
REMARK SMILES IDX 71 78 74 79 68 80 69 81 72 82 70 83 49 84 50 85 58 86 51 87
REMARK SMILES IDX 52 88 56 89 59 90 53 91 54 92 57 93 55 94
REMARK H PARENT 15 6 10 23 20 28 79 47 47 58
REMARK Flexibility Score: inf
ROOT
ATOM      1  C   UNL     1       4.383  -6.147   3.720  1.00  0.00     0.023 C 
ENDROOT
BRANCH   1   2
ATOM      2  C   UNL     1       4.549  -6.612   2.280  1.00  0.00     0.116 C 
BRANCH   2   3
ATOM      3  N   UNL     1       3.410  -7.359   1.801  1.00  0.00    -0.354 N 
ATOM      4  C   UNL     1       2.457  -7.028   0.884  1.00  0.00     0.242 C 
ATOM      5  O   UNL     1       1.736  -7.947   0.481  1.00  0.00    -0.273 OA
ATOM      6  H   UNL     1       3.305  -8.252   2.201  1.00  0.00     0.163 HD
BRANCH   4   7
ATOM      7  C   UNL     1       2.388  -5.634   0.228  1.00  0.00     0.177 C 
ATOM      8  N   UNL     1       2.345  -4.476   1.121  1.00  0.00    -0.323 N 
ATOM      9  C   UNL     1       3.427  -3.544   0.847  1.00  0.00     0.152 C 
ATOM     10  C   UNL     1       3.903  -3.905  -0.557  1.00  0.00     0.136 C 
ATOM     11  C   UNL     1       3.568  -5.388  -0.717  1.00  0.00     0.069 C 
BRANCH   8  12
ATOM     12  C   UNL     1       1.139  -4.211   1.757  1.00  0.00     0.275 C 
ATOM     13  O   UNL     1       0.358  -5.089   2.108  1.00  0.00    -0.267 OA
BRANCH  12  14
ATOM     14  C   UNL     1       0.691  -2.762   1.922  1.00  0.00     0.149 A 
ATOM     15  C   UNL     1       0.840   0.272   0.027  1.00  0.00     0.178 C 
ATOM     16  N   UNL     1       0.477  -0.636   1.100  1.00  0.00    -0.232 N 
ATOM     17  N   UNL     1       0.933  -1.927   0.960  1.00  0.00    -0.165 NA
ATOM     18  C   UNL     1      -0.286  -0.194   2.173  1.00  0.00     0.266 A 
ATOM     19  C   UNL     1      -0.562  -1.200   3.225  1.00  0.00     0.076 A 
ATOM     20  O   UNL     1      -0.727   0.944   2.310  1.00  0.00    -0.268 OA
ATOM     21  C   UNL     1      -0.081  -2.441   3.137  1.00  0.00     0.042 A 
ENDBRANCH  12  14
ENDBRANCH   8  12
BRANCH  10  22
ATOM     22  O   UNL     1       5.292  -3.673  -0.733  1.00  0.00    -0.391 OA
ATOM     23  H   UNL     1       5.792  -4.198  -0.089  1.00  0.00     0.211 HD
ENDBRANCH  10  22
ENDBRANCH   4   7
ENDBRANCH   2   3
ENDBRANCH   1   2
BRANCH   1  24
ATOM     24  C   UNL     1       4.415  -7.274   4.753  1.00  0.00     0.023 C 
BRANCH  24  25
ATOM     25  C   UNL     1       5.625  -8.200   4.674  1.00  0.00     0.116 C 
BRANCH  25  26
ATOM     26  N   UNL     1       6.896  -7.498   4.778  1.00  0.00    -0.352 N 
ATOM     27  C   UNL     1       8.036  -7.913   5.423  1.00  0.00     0.251 C 
ATOM     28  H   UNL     1       6.944  -6.621   4.333  1.00  0.00     0.163 HD
ATOM     29  O   UNL     1       9.021  -7.190   5.500  1.00  0.00    -0.269 OA
BRANCH  27  30
ATOM     30  C   UNL     1       8.034  -9.243   6.056  1.00  0.00     0.039 A 
ATOM     31  C   UNL     1       8.245  -9.331   7.433  1.00  0.00     0.014 A 
ATOM     32  C   UNL     1       7.745 -10.380   5.296  1.00  0.00     0.014 A 
ATOM     33  C   UNL     1       8.109 -10.566   8.066  1.00  0.00     0.010 A 
ATOM     34  C   UNL     1       7.564 -11.601   5.936  1.00  0.00     0.010 A 
ATOM     35  C   UNL     1       7.745 -11.701   7.324  1.00  0.00    -0.014 A 
BRANCH  35  36
ATOM     36  C   UNL     1       7.576 -13.013   7.989  1.00  0.00     0.031 A 
ATOM     37  C   UNL     1       8.591 -14.092   7.764  1.00  0.00     0.074 A 
ATOM     38  C   UNL     1       6.496 -13.238   8.760  1.00  0.00     0.049 A 
ATOM     39  N   UNL     1       8.626 -15.307   8.247  1.00  0.00    -0.248 NA
ATOM     40  C   UNL     1       9.709 -13.769   6.863  1.00  0.00     0.031 C 
ATOM     41  C   UNL     1       5.425 -12.275   9.017  1.00  0.00     0.029 A 
ATOM     42  N   UNL     1       6.122 -14.352   9.467  1.00  0.00    -0.354 N 
ATOM     43  C   UNL     1       9.766 -15.889   7.714  1.00  0.00     0.074 A 
ATOM     44  C   UNL     1      10.366 -14.919   6.825  1.00  0.00     0.031 C 
ATOM     45  C   UNL     1       4.524 -12.833   9.843  1.00  0.00     0.029 A 
ATOM     46  C   UNL     1       4.945 -14.196  10.157  1.00  0.00     0.049 A 
ATOM     47  H   UNL     1       6.647 -15.185   9.479  1.00  0.00     0.167 HD
ATOM     48  C   UNL     1      10.282 -17.114   7.968  1.00  0.00     0.037 A 
ATOM     49  C   UNL     1       4.288 -15.056  10.958  1.00  0.00     0.037 A 
ATOM     50  C   UNL     1       9.693 -18.068   8.866  1.00  0.00     0.049 A 
ATOM     51  C   UNL     1       4.870 -16.421  11.205  1.00  0.00     0.074 A 
ATOM     52  C   UNL     1      10.168 -19.315   9.232  1.00  0.00     0.029 A 
ATOM     53  N   UNL     1       8.495 -17.879   9.539  1.00  0.00    -0.354 N 
ATOM     54  N   UNL     1       5.985 -16.938  10.750  1.00  0.00    -0.248 NA
ATOM     55  C   UNL     1       4.105 -17.321  12.081  1.00  0.00     0.031 C 
ATOM     56  C   UNL     1       9.239 -19.895  10.103  1.00  0.00     0.029 A 
ATOM     57  C   UNL     1       8.204 -18.996  10.304  1.00  0.00     0.049 A 
ATOM     58  H   UNL     1       7.935 -17.072   9.481  1.00  0.00     0.167 HD
ATOM     59  C   UNL     1       6.068 -18.210  11.297  1.00  0.00     0.074 A 
ATOM     60  C   UNL     1       4.894 -18.387  12.127  1.00  0.00     0.031 C 
ATOM     61  C   UNL     1       7.032 -19.148  11.127  1.00  0.00     0.037 A 
BRANCH  48  62
ATOM     62  C   UNL     1      11.560 -17.478   7.278  1.00  0.00     0.064 A 
ATOM     63  C   UNL     1      12.781 -16.899   7.658  1.00  0.00     0.173 A 
ATOM     64  C   UNL     1      11.574 -18.433   6.252  1.00  0.00     0.173 A 
ATOM     65  F   UNL     1      12.815 -15.969   8.624  1.00  0.00    -0.203 F 
ATOM     66  C   UNL     1      13.967 -17.249   7.020  1.00  0.00     0.198 A 
ATOM     67  C   UNL     1      12.766 -18.798   5.633  1.00  0.00     0.198 A 
ATOM     68  F   UNL     1      10.433 -19.015   5.854  1.00  0.00    -0.203 F 
ATOM     69  F   UNL     1      15.115 -16.654   7.371  1.00  0.00    -0.200 F 
ATOM     70  C   UNL     1      13.960 -18.203   6.013  1.00  0.00     0.200 A 
ATOM     71  F   UNL     1      12.760 -19.725   4.664  1.00  0.00    -0.200 F 
ATOM     72  F   UNL     1      15.104 -18.542   5.403  1.00  0.00    -0.200 F 
ENDBRANCH  48  62
BRANCH  49  73
ATOM     73  C   UNL     1       3.030 -14.632  11.621  1.00  0.00     0.064 A 
ATOM     74  C   UNL     1       3.006 -14.349  12.993  1.00  0.00     0.173 A 
ATOM     75  C   UNL     1       1.837 -14.483  10.901  1.00  0.00     0.173 A 
ATOM     76  F   UNL     1       4.120 -14.495  13.726  1.00  0.00    -0.203 F 
ATOM     77  C   UNL     1       1.833 -13.940  13.623  1.00  0.00     0.198 A 
ATOM     78  C   UNL     1       0.668 -14.056  11.528  1.00  0.00     0.198 A 
ATOM     79  F   UNL     1       1.811 -14.739   9.585  1.00  0.00    -0.203 F 
ATOM     80  F   UNL     1       1.831 -13.702  14.942  1.00  0.00    -0.200 F 
ATOM     81  C   UNL     1       0.666 -13.789  12.889  1.00  0.00     0.200 A 
ATOM     82  F   UNL     1      -0.455 -13.901  10.814  1.00  0.00    -0.200 F 
ATOM     83  F   UNL     1      -0.461 -13.389  13.494  1.00  0.00    -0.200 F 
ENDBRANCH  49  73
BRANCH  61  84
ATOM     84  C   UNL     1       6.872 -20.446  11.858  1.00  0.00     0.064 A 
ATOM     85  C   UNL     1       5.970 -21.423  11.417  1.00  0.00     0.173 A 
ATOM     86  C   UNL     1       7.693 -20.749  12.955  1.00  0.00     0.173 A 
ATOM     87  F   UNL     1       5.157 -21.172  10.380  1.00  0.00    -0.203 F 
ATOM     88  C   UNL     1       5.891 -22.659  12.052  1.00  0.00     0.198 A 
ATOM     89  C   UNL     1       7.627 -21.994  13.573  1.00  0.00     0.198 A 
ATOM     90  F   UNL     1       8.576 -19.847  13.408  1.00  0.00    -0.203 F 
ATOM     91  F   UNL     1       5.007 -23.573  11.628  1.00  0.00    -0.200 F 
ATOM     92  C   UNL     1       6.726 -22.947  13.122  1.00  0.00     0.200 A 
ATOM     93  F   UNL     1       8.442 -22.276  14.599  1.00  0.00    -0.200 F 
ATOM     94  F   UNL     1       6.661 -24.145  13.720  1.00  0.00    -0.200 F 
ENDBRANCH  61  84
ENDBRANCH  35  36
ENDBRANCH  27  30
ENDBRANCH  25  26
ENDBRANCH  24  25
ENDBRANCH   1  24
TORSDOF 14
