REMARK SMILES NS(=O)(=O)c1ccc(-n2nc(C(=O)NCCCCNC(=O)c3ccc(-c4c5nc(c(-c6c(F)c(F)c(F)c(F)c6F)c6ccc([nH]6)c(-c6c(F)c(F)c(F)c(F)c6F)c6nc(c(-c7c(F)c(F)c(F)c(F)c7F)c7ccc4[nH]7)C=C6)C=C5)cc3)cc2-c2cc3ccccc3s2)cc1
REMARK SMILES IDX 16 1 15 2 14 3 12 4 13 5 11 7 9 8 10 9 86 10 85 11 8 12 5 13
REMARK SMILES IDX 6 14 97 15 7 16 96 17 2 18 3 19 4 20 1 21 87 24 88 25 95 26
REMARK SMILES IDX 89 27 94 28 90 29 93 30 91 31 92 32 17 33 18 34 19 35 20 36
REMARK SMILES IDX 21 38 22 39 23 40 84 41 24 42 83 43 25 44 26 45 27 46 77 47
REMARK SMILES IDX 28 48 82 49 76 50 78 51 29 52 81 53 75 54 74 55 30 57 62 58
REMARK SMILES IDX 42 59 61 60 43 61 46 62 60 63 79 64 44 65 45 66 59 68 80 69
REMARK SMILES IDX 47 70 31 71 32 72 40 73 33 74 34 75 38 76 41 77 35 78 36 79
REMARK SMILES IDX 39 80 37 81 63 82 64 83 72 84 65 85 66 86 70 87 73 88 67 89
REMARK SMILES IDX 68 90 71 91 69 92 48 93 49 94 57 95 50 96 51 97 55 98 58 99
REMARK SMILES IDX 52 100 53 101 56 102 54 103
REMARK H PARENT 14 6 1 22 1 23 19 37 78 56 46 67
REMARK Flexibility Score: inf
ROOT
ATOM      1  C   UNL     1       4.435 -10.117   5.811  1.00  0.00     0.023 C 
ENDROOT
BRANCH   1   2
ATOM      2  C   UNL     1       2.919  -9.899   5.687  1.00  0.00     0.116 C 
BRANCH   2   3
ATOM      3  N   UNL     1       2.388  -9.026   6.728  1.00  0.00    -0.351 N 
ATOM      4  C   UNL     1       2.058  -7.678   6.748  1.00  0.00     0.271 C 
ATOM      5  O   UNL     1       1.501  -7.272   7.771  1.00  0.00    -0.267 OA
ATOM      6  H   UNL     1       2.234  -9.483   7.586  1.00  0.00     0.163 HD
BRANCH   4   7
ATOM      7  C   UNL     1       2.308  -6.807   5.579  1.00  0.00     0.151 A 
ATOM      8  N   UNL     1       1.863  -5.340   4.060  1.00  0.00    -0.231 N 
ATOM      9  N   UNL     1       1.650  -5.646   5.374  1.00  0.00    -0.162 NA
ATOM     10  C   UNL     1       2.669  -6.287   3.467  1.00  0.00     0.085 A 
ATOM     11  C   UNL     1       3.203  -7.010   4.517  1.00  0.00     0.066 A 
BRANCH   8  12
ATOM     12  C   UNL     1       1.409  -4.110   3.521  1.00  0.00     0.065 A 
ATOM     13  C   UNL     1       0.742  -1.612   2.477  1.00  0.00     0.082 A 
ATOM     14  C   UNL     1       0.549  -2.762   1.704  1.00  0.00     0.024 A 
ATOM     15  C   UNL     1       1.241  -1.702   3.778  1.00  0.00     0.024 A 
ATOM     16  C   UNL     1       0.908  -4.012   2.218  1.00  0.00     0.030 A 
ATOM     17  C   UNL     1       1.544  -2.957   4.312  1.00  0.00     0.030 A 
BRANCH  13  18
ATOM     18  S   UNL     1       0.378  -0.025   1.787  1.00  0.00     0.238 S 
ATOM     19  O   UNL     1       1.082   0.993   2.537  1.00  0.00    -0.207 OA
ATOM     20  O   UNL     1      -1.032   0.045   1.505  1.00  0.00    -0.207 OA
BRANCH  18  21
ATOM     21  N   UNL     1       1.157  -0.077   0.297  1.00  0.00    -0.225 NA
ATOM     22  H   UNL     1       1.009   0.805  -0.195  1.00  0.00     0.137 HD
ATOM     23  H   UNL     1       0.777  -0.843  -0.259  1.00  0.00     0.137 HD
ENDBRANCH  18  21
ENDBRANCH  13  18
ENDBRANCH   8  12
BRANCH  10  24
ATOM     24  C   UNL     1       2.864  -6.654   2.093  1.00  0.00     0.054 A 
ATOM     25  C   UNL     1       4.089  -6.989   1.531  1.00  0.00     0.031 A 
ATOM     26  S   UNL     1       1.697  -7.736   1.397  1.00  0.00    -0.134 S 
ATOM     27  C   UNL     1       4.155  -8.442   1.510  1.00  0.00    -0.007 A 
ATOM     28  C   UNL     1       2.871  -9.002   1.545  1.00  0.00     0.035 A 
ATOM     29  C   UNL     1       5.263  -9.316   1.596  1.00  0.00     0.009 A 
ATOM     30  C   UNL     1       2.653 -10.379   1.710  1.00  0.00     0.019 A 
ATOM     31  C   UNL     1       5.054 -10.682   1.818  1.00  0.00     0.001 A 
ATOM     32  C   UNL     1       3.766 -11.202   1.891  1.00  0.00     0.001 A 
ENDBRANCH  10  24
ENDBRANCH   4   7
ENDBRANCH   2   3
ENDBRANCH   1   2
BRANCH   1  33
ATOM     33  C   UNL     1       4.885 -11.112   6.893  1.00  0.00     0.023 C 
BRANCH  33  34
ATOM     34  C   UNL     1       4.547 -12.577   6.623  1.00  0.00     0.116 C 
BRANCH  34  35
ATOM     35  N   UNL     1       5.211 -13.132   5.438  1.00  0.00    -0.352 N 
ATOM     36  C   UNL     1       4.936 -14.320   4.777  1.00  0.00     0.251 C 
ATOM     37  H   UNL     1       5.945 -12.593   5.064  1.00  0.00     0.163 HD
ATOM     38  O   UNL     1       5.769 -14.857   4.057  1.00  0.00    -0.269 OA
BRANCH  36  39
ATOM     39  C   UNL     1       3.603 -14.921   4.944  1.00  0.00     0.039 A 
ATOM     40  C   UNL     1       3.414 -16.294   5.139  1.00  0.00     0.014 A 
ATOM     41  C   UNL     1       2.527 -14.045   4.969  1.00  0.00     0.014 A 
ATOM     42  C   UNL     1       2.137 -16.756   5.463  1.00  0.00     0.010 A 
ATOM     43  C   UNL     1       1.332 -14.470   5.481  1.00  0.00     0.010 A 
ATOM     44  C   UNL     1       1.101 -15.831   5.658  1.00  0.00    -0.014 A 
BRANCH  44  45
ATOM     45  C   UNL     1      -0.224 -16.241   6.114  1.00  0.00     0.031 A 
ATOM     46  C   UNL     1      -0.266 -17.023   7.384  1.00  0.00     0.074 A 
ATOM     47  C   UNL     1      -1.354 -15.729   5.574  1.00  0.00     0.049 A 
ATOM     48  N   UNL     1      -0.721 -18.219   7.570  1.00  0.00    -0.248 NA
ATOM     49  C   UNL     1       0.345 -16.430   8.584  1.00  0.00     0.031 C 
ATOM     50  C   UNL     1      -1.485 -14.685   4.546  1.00  0.00     0.029 A 
ATOM     51  N   UNL     1      -2.647 -15.951   5.930  1.00  0.00    -0.354 N 
ATOM     52  C   UNL     1      -0.613 -18.472   8.937  1.00  0.00     0.074 A 
ATOM     53  C   UNL     1       0.184 -17.404   9.482  1.00  0.00     0.031 C 
ATOM     54  C   UNL     1      -2.742 -14.196   4.551  1.00  0.00     0.029 A 
ATOM     55  C   UNL     1      -3.547 -15.022   5.428  1.00  0.00     0.049 A 
ATOM     56  H   UNL     1      -2.922 -16.708   6.497  1.00  0.00     0.167 HD
ATOM     57  C   UNL     1      -1.374 -19.426   9.546  1.00  0.00     0.037 A 
ATOM     58  C   UNL     1      -4.864 -14.919   5.723  1.00  0.00     0.037 A 
ATOM     59  C   UNL     1      -1.944 -20.329   8.580  1.00  0.00     0.049 A 
ATOM     60  C   UNL     1      -5.288 -16.215   6.302  1.00  0.00     0.074 A 
ATOM     61  C   UNL     1      -1.428 -21.201   7.642  1.00  0.00     0.029 A 
ATOM     62  N   UNL     1      -3.261 -20.154   8.234  1.00  0.00    -0.354 N 
ATOM     63  N   UNL     1      -5.330 -17.333   5.630  1.00  0.00    -0.248 NA
ATOM     64  C   UNL     1      -5.228 -16.357   7.748  1.00  0.00     0.031 C 
ATOM     65  C   UNL     1      -2.303 -21.093   6.521  1.00  0.00     0.029 A 
ATOM     66  C   UNL     1      -3.332 -20.215   6.867  1.00  0.00     0.049 A 
ATOM     67  H   UNL     1      -4.014 -20.012   8.852  1.00  0.00     0.167 HD
ATOM     68  C   UNL     1      -4.876 -18.296   6.518  1.00  0.00     0.074 A 
ATOM     69  C   UNL     1      -4.922 -17.655   7.830  1.00  0.00     0.031 C 
ATOM     70  C   UNL     1      -4.239 -19.419   6.074  1.00  0.00     0.037 A 
BRANCH  57  71
ATOM     71  C   UNL     1      -1.901 -19.348  10.961  1.00  0.00     0.064 A 
ATOM     72  C   UNL     1      -2.577 -20.461  11.506  1.00  0.00     0.173 A 
ATOM     73  C   UNL     1      -2.045 -18.143  11.681  1.00  0.00     0.173 A 
ATOM     74  F   UNL     1      -2.521 -21.658  10.902  1.00  0.00    -0.203 F 
ATOM     75  C   UNL     1      -3.405 -20.350  12.626  1.00  0.00     0.198 A 
ATOM     76  C   UNL     1      -2.829 -18.049  12.831  1.00  0.00     0.198 A 
ATOM     77  F   UNL     1      -1.534 -16.986  11.244  1.00  0.00    -0.203 F 
ATOM     78  F   UNL     1      -4.133 -21.403  13.022  1.00  0.00    -0.200 F 
ATOM     79  C   UNL     1      -3.537 -19.141  13.283  1.00  0.00     0.200 A 
ATOM     80  F   UNL     1      -2.956 -16.864  13.444  1.00  0.00    -0.200 F 
ATOM     81  F   UNL     1      -4.382 -19.014  14.314  1.00  0.00    -0.200 F 
ENDBRANCH  57  71
BRANCH  58  82
ATOM     82  C   UNL     1      -5.681 -13.690   5.800  1.00  0.00     0.064 A 
ATOM     83  C   UNL     1      -7.077 -13.730   5.686  1.00  0.00     0.173 A 
ATOM     84  C   UNL     1      -5.119 -12.476   6.246  1.00  0.00     0.173 A 
ATOM     85  F   UNL     1      -7.688 -14.864   5.312  1.00  0.00    -0.203 F 
ATOM     86  C   UNL     1      -7.870 -12.625   6.014  1.00  0.00     0.198 A 
ATOM     87  C   UNL     1      -5.910 -11.373   6.569  1.00  0.00     0.198 A 
ATOM     88  F   UNL     1      -3.799 -12.371   6.462  1.00  0.00    -0.203 F 
ATOM     89  F   UNL     1      -9.205 -12.716   5.945  1.00  0.00    -0.200 F 
ATOM     90  C   UNL     1      -7.286 -11.451   6.464  1.00  0.00     0.200 A 
ATOM     91  F   UNL     1      -5.334 -10.257   7.039  1.00  0.00    -0.200 F 
ATOM     92  F   UNL     1      -8.048 -10.412   6.833  1.00  0.00    -0.200 F 
ENDBRANCH  58  82
BRANCH  70  93
ATOM     93  C   UNL     1      -4.279 -19.720   4.602  1.00  0.00     0.064 A 
ATOM     94  C   UNL     1      -3.681 -18.916   3.617  1.00  0.00     0.173 A 
ATOM     95  C   UNL     1      -4.794 -20.958   4.195  1.00  0.00     0.173 A 
ATOM     96  F   UNL     1      -3.080 -17.765   3.936  1.00  0.00    -0.203 F 
ATOM     97  C   UNL     1      -3.631 -19.321   2.283  1.00  0.00     0.198 A 
ATOM     98  C   UNL     1      -4.711 -21.376   2.870  1.00  0.00     0.198 A 
ATOM     99  F   UNL     1      -5.327 -21.793   5.101  1.00  0.00    -0.203 F 
ATOM    100  F   UNL     1      -3.054 -18.533   1.363  1.00  0.00    -0.200 F 
ATOM    101  C   UNL     1      -4.137 -20.555   1.914  1.00  0.00     0.200 A 
ATOM    102  F   UNL     1      -5.157 -22.593   2.527  1.00  0.00    -0.200 F 
ATOM    103  F   UNL     1      -4.044 -20.967   0.641  1.00  0.00    -0.200 F 
ENDBRANCH  70  93
ENDBRANCH  44  45
ENDBRANCH  36  39
ENDBRANCH  34  35
ENDBRANCH  33  34
ENDBRANCH   1  33
TORSDOF 15
