REMARK SMILES CCCC1(C(=O)N2CCO[C@@H](CC(=O)NCCCCNC(=O)c3ccc(-c4c5nc(c(-c6c(F)c(F)c(F)c(F)c6F)c6ccc([nH]6)c(-c6c(F)c(F)c(F)c(F)c6F)c6nc(c(-c7c(F)c(F)c(F)c(F)c7F)c7ccc4[nH]7)C=C6)C=C5)cc3)C2)CC[NH2+]CC1
REMARK SMILES IDX 16 1 15 2 13 3 14 4 12 6 11 7 7 8 8 9 86 10 9 11 10 12 5 13
REMARK SMILES IDX 6 14 4 15 87 16 91 17 88 18 90 19 89 20 3 23 2 24 1 25 17 26
REMARK SMILES IDX 18 27 19 28 20 29 21 30 22 32 23 33 24 34 85 35 25 36 84 37
REMARK SMILES IDX 26 38 27 39 28 40 78 41 29 42 83 43 77 44 79 45 30 46 82 47
REMARK SMILES IDX 76 48 75 49 31 51 63 52 43 53 62 54 44 55 47 56 61 57 80 58
REMARK SMILES IDX 45 59 46 60 60 62 81 63 48 64 32 65 33 66 41 67 34 68 35 69
REMARK SMILES IDX 39 70 42 71 36 72 37 73 40 74 38 75 64 76 65 77 73 78 66 79
REMARK SMILES IDX 67 80 71 81 74 82 68 83 69 84 72 85 70 86 49 87 50 88 58 89
REMARK SMILES IDX 51 90 52 91 56 92 59 93 53 94 54 95 57 96 55 97
REMARK H PARENT 15 5 89 21 89 22 20 31 79 50 47 61
REMARK Flexibility Score: inf
ROOT
ATOM      1  C   UNL     1       4.497  -1.462   5.700  1.00  0.00     0.116 C 
ENDROOT
BRANCH   1   2
ATOM      2  N   UNL     1       4.109  -0.059   5.713  1.00  0.00    -0.356 N 
ATOM      3  C   UNL     1       3.023   0.561   6.262  1.00  0.00     0.222 C 
ATOM      4  O   UNL     1       2.873   1.764   6.045  1.00  0.00    -0.275 OA
ATOM      5  H   UNL     1       4.735   0.543   5.248  1.00  0.00     0.163 HD
BRANCH   3   6
ATOM      6  C   UNL     1       2.010  -0.212   7.083  1.00  0.00     0.133 C 
BRANCH   6   7
ATOM      7  C   UNL     1       0.780  -0.636   6.271  1.00  0.00     0.147 C 
ATOM      8  N   UNL     1       0.132  -2.164   4.389  1.00  0.00    -0.337 N 
ATOM      9  C   UNL     1      -0.700  -2.916   5.316  1.00  0.00     0.148 C 
ATOM     10  C   UNL     1       1.204  -1.462   5.056  1.00  0.00     0.152 C 
ATOM     11  C   UNL     1      -1.188  -1.976   6.421  1.00  0.00     0.182 C 
ATOM     12  O   UNL     1      -0.071  -1.417   7.140  1.00  0.00    -0.374 OA
BRANCH   8  13
ATOM     13  C   UNL     1       0.478  -2.725   3.168  1.00  0.00     0.229 C 
ATOM     14  O   UNL     1       1.146  -3.757   3.112  1.00  0.00    -0.274 OA
BRANCH  13  15
ATOM     15  C   UNL     1      -0.096  -2.011   1.908  1.00  0.00     0.060 C 
ATOM     16  C   UNL     1      -1.451  -2.722   1.654  1.00  0.00     0.078 C 
ATOM     17  C   UNL     1      -0.301  -0.497   2.178  1.00  0.00     0.078 C 
ATOM     18  C   UNL     1      -2.478  -1.918   0.870  1.00  0.00     0.261 C 
ATOM     19  C   UNL     1      -1.386   0.168   1.339  1.00  0.00     0.261 C 
ATOM     20  N   UNL     1      -2.636  -0.579   1.425  1.00  0.00    -0.346 N 
ATOM     21  H   UNL     1      -2.914  -0.654   2.404  1.00  0.00     0.346 HD
ATOM     22  H   UNL     1      -3.350  -0.085   0.889  1.00  0.00     0.346 HD
BRANCH  15  23
ATOM     23  C   UNL     1       0.932  -2.287   0.756  1.00  0.00     0.017 C 
BRANCH  23  24
ATOM     24  C   UNL     1       0.778  -1.581  -0.598  1.00  0.00    -0.002 C 
ATOM     25  C   UNL     1       1.575  -0.288  -0.717  1.00  0.00     0.004 C 
ENDBRANCH  23  24
ENDBRANCH  15  23
ENDBRANCH  13  15
ENDBRANCH   8  13
ENDBRANCH   6   7
ENDBRANCH   3   6
ENDBRANCH   1   2
BRANCH   1  26
ATOM     26  C   UNL     1       4.269  -2.097   4.323  1.00  0.00     0.023 C 
BRANCH  26  27
ATOM     27  C   UNL     1       5.415  -1.950   3.339  1.00  0.00     0.023 C 
BRANCH  27  28
ATOM     28  C   UNL     1       6.630  -2.786   3.684  1.00  0.00     0.116 C 
BRANCH  28  29
ATOM     29  N   UNL     1       6.374  -4.221   3.699  1.00  0.00    -0.352 N 
ATOM     30  C   UNL     1       7.143  -5.237   3.174  1.00  0.00     0.251 C 
ATOM     31  H   UNL     1       5.540  -4.501   4.142  1.00  0.00     0.163 HD
ATOM     32  O   UNL     1       6.770  -6.397   3.204  1.00  0.00    -0.269 OA
BRANCH  30  33
ATOM     33  C   UNL     1       8.418  -4.878   2.519  1.00  0.00     0.039 A 
ATOM     34  C   UNL     1       8.667  -5.340   1.226  1.00  0.00     0.014 A 
ATOM     35  C   UNL     1       9.297  -3.993   3.144  1.00  0.00     0.014 A 
ATOM     36  C   UNL     1       9.762  -4.840   0.522  1.00  0.00     0.010 A 
ATOM     37  C   UNL     1      10.313  -3.411   2.403  1.00  0.00     0.010 A 
ATOM     38  C   UNL     1      10.562  -3.835   1.088  1.00  0.00    -0.014 A 
BRANCH  38  39
ATOM     39  C   UNL     1      11.696  -3.226   0.352  1.00  0.00     0.031 A 
ATOM     40  C   UNL     1      13.083  -3.341   0.920  1.00  0.00     0.074 A 
ATOM     41  C   UNL     1      11.471  -2.498  -0.759  1.00  0.00     0.049 A 
ATOM     42  N   UNL     1      14.191  -2.767   0.529  1.00  0.00    -0.248 NA
ATOM     43  C   UNL     1      13.232  -4.176   2.124  1.00  0.00     0.031 C 
ATOM     44  C   UNL     1      10.164  -2.266  -1.374  1.00  0.00     0.029 A 
ATOM     45  N   UNL     1      12.343  -1.807  -1.562  1.00  0.00    -0.354 N 
ATOM     46  C   UNL     1      15.151  -3.139   1.460  1.00  0.00     0.074 A 
ATOM     47  C   UNL     1      14.486  -3.932   2.468  1.00  0.00     0.031 C 
ATOM     48  C   UNL     1      10.323  -1.514  -2.476  1.00  0.00     0.029 A 
ATOM     49  C   UNL     1      11.736  -1.179  -2.622  1.00  0.00     0.049 A 
ATOM     50  H   UNL     1      13.312  -1.764  -1.393  1.00  0.00     0.167 HD
ATOM     51  C   UNL     1      16.478  -2.872   1.456  1.00  0.00     0.037 A 
ATOM     52  C   UNL     1      12.266  -0.419  -3.599  1.00  0.00     0.037 A 
ATOM     53  C   UNL     1      17.143  -2.134   0.418  1.00  0.00     0.049 A 
ATOM     54  C   UNL     1      13.749  -0.166  -3.603  1.00  0.00     0.074 A 
ATOM     55  C   UNL     1      18.493  -1.869   0.275  1.00  0.00     0.029 A 
ATOM     56  N   UNL     1      16.501  -1.555  -0.667  1.00  0.00    -0.354 N 
ATOM     57  N   UNL     1      14.660  -0.569  -2.751  1.00  0.00    -0.248 NA
ATOM     58  C   UNL     1      14.279   0.645  -4.708  1.00  0.00     0.031 C 
ATOM     59  C   UNL     1      18.664  -1.103  -0.883  1.00  0.00     0.029 A 
ATOM     60  C   UNL     1      17.426  -0.924  -1.481  1.00  0.00     0.049 A 
ATOM     61  H   UNL     1      15.531  -1.587  -0.833  1.00  0.00     0.167 HD
ATOM     62  C   UNL     1      15.871  -0.089  -3.229  1.00  0.00     0.074 A 
ATOM     63  C   UNL     1      15.580   0.630  -4.452  1.00  0.00     0.031 C 
ATOM     64  C   UNL     1      17.113  -0.231  -2.704  1.00  0.00     0.037 A 
BRANCH  51  65
ATOM     65  C   UNL     1      17.287  -3.395   2.607  1.00  0.00     0.064 A 
ATOM     66  C   UNL     1      17.513  -4.769   2.782  1.00  0.00     0.173 A 
ATOM     67  C   UNL     1      17.838  -2.515   3.549  1.00  0.00     0.173 A 
ATOM     68  F   UNL     1      16.993  -5.655   1.918  1.00  0.00    -0.203 F 
ATOM     69  C   UNL     1      18.223  -5.245   3.881  1.00  0.00     0.198 A 
ATOM     70  C   UNL     1      18.576  -2.992   4.629  1.00  0.00     0.198 A 
ATOM     71  F   UNL     1      17.654  -1.191   3.428  1.00  0.00    -0.203 F 
ATOM     72  F   UNL     1      18.367  -6.565   4.063  1.00  0.00    -0.200 F 
ATOM     73  C   UNL     1      18.758  -4.356   4.801  1.00  0.00     0.200 A 
ATOM     74  F   UNL     1      19.102  -2.131   5.512  1.00  0.00    -0.200 F 
ATOM     75  F   UNL     1      19.440  -4.815   5.859  1.00  0.00    -0.200 F 
ENDBRANCH  51  65
BRANCH  52  76
ATOM     76  C   UNL     1      11.396   0.114  -4.678  1.00  0.00     0.064 A 
ATOM     77  C   UNL     1      11.468  -0.412  -5.976  1.00  0.00     0.173 A 
ATOM     78  C   UNL     1      10.475   1.143  -4.441  1.00  0.00     0.173 A 
ATOM     79  F   UNL     1      12.348  -1.384  -6.256  1.00  0.00    -0.203 F 
ATOM     80  C   UNL     1      10.662   0.083  -7.000  1.00  0.00     0.198 A 
ATOM     81  C   UNL     1       9.652   1.621  -5.460  1.00  0.00     0.198 A 
ATOM     82  F   UNL     1      10.363   1.676  -3.215  1.00  0.00    -0.203 F 
ATOM     83  F   UNL     1      10.778  -0.413  -8.239  1.00  0.00    -0.200 F 
ATOM     84  C   UNL     1       9.751   1.095  -6.739  1.00  0.00     0.200 A 
ATOM     85  F   UNL     1       8.764   2.590  -5.202  1.00  0.00    -0.200 F 
ATOM     86  F   UNL     1       8.972   1.566  -7.723  1.00  0.00    -0.200 F 
ENDBRANCH  52  76
BRANCH  64  87
ATOM     87  C   UNL     1      18.254   0.367  -3.469  1.00  0.00     0.064 A 
ATOM     88  C   UNL     1      18.480   1.750  -3.489  1.00  0.00     0.173 A 
ATOM     89  C   UNL     1      19.166  -0.462  -4.140  1.00  0.00     0.173 A 
ATOM     90  F   UNL     1      17.628   2.583  -2.873  1.00  0.00    -0.203 F 
ATOM     91  C   UNL     1      19.571   2.285  -4.169  1.00  0.00     0.198 A 
ATOM     92  C   UNL     1      20.269   0.074  -4.797  1.00  0.00     0.198 A 
ATOM     93  F   UNL     1      18.994  -1.792  -4.143  1.00  0.00    -0.203 F 
ATOM     94  F   UNL     1      19.749   3.612  -4.207  1.00  0.00    -0.200 F 
ATOM     95  C   UNL     1      20.468   1.446  -4.815  1.00  0.00     0.200 A 
ATOM     96  F   UNL     1      21.141  -0.738  -5.410  1.00  0.00    -0.200 F 
ATOM     97  F   UNL     1      21.523   1.962  -5.460  1.00  0.00    -0.200 F 
ENDBRANCH  64  87
ENDBRANCH  38  39
ENDBRANCH  30  33
ENDBRANCH  28  29
ENDBRANCH  27  28
ENDBRANCH  26  27
ENDBRANCH   1  26
TORSDOF 16
