REMARK SMILES Cc1ccc2[nH]cc([C@@H](C(=O)NCCCCNC(=O)c3ccc(-c4c5nc(c(-c6c(F)c(F)c(F)c(F)c6F)c6ccc([nH]6)c(-c6c(F)c(F)c(F)c(F)c6F)c6nc(c(-c7c(F)c(F)c(F)c(F)c7F)c7ccc4[nH]7)C=C6)C=C5)cc3)[NH+]3CCN(c4ccc(F)cc4)CC3)c2c1
REMARK SMILES IDX 14 1 13 2 12 3 10 4 11 5 9 7 8 8 1 9 2 10 3 11 97 12 4 13
REMARK SMILES IDX 96 14 5 15 6 16 7 17 83 19 84 20 95 21 85 23 94 24 86 25
REMARK SMILES IDX 87 26 88 27 93 28 89 29 92 30 90 31 91 32 15 33 16 34 17 35
REMARK SMILES IDX 18 36 19 38 20 39 21 40 82 41 22 42 81 43 23 44 24 45 25 46
REMARK SMILES IDX 75 47 26 48 80 49 74 50 76 51 27 52 79 53 73 54 72 55 28 57
REMARK SMILES IDX 60 58 40 59 59 60 41 61 44 62 58 63 77 64 42 65 43 66 57 68
REMARK SMILES IDX 78 69 45 70 29 71 30 72 38 73 31 74 32 75 36 76 39 77 33 78
REMARK SMILES IDX 34 79 37 80 35 81 61 82 62 83 70 84 63 85 64 86 68 87 71 88
REMARK SMILES IDX 65 89 66 90 69 91 67 92 46 93 47 94 55 95 48 96 49 97 53 98
REMARK SMILES IDX 56 99 50 100 51 101 54 102 52 103
REMARK H PARENT 12 6 6 18 83 22 17 37 76 56 44 67
REMARK Flexibility Score: inf
ROOT
ATOM      1  C   UNL     1      -0.841  -1.176   3.463  1.00  0.00     0.023 C 
ENDROOT
BRANCH   1   2
ATOM      2  C   UNL     1      -0.697  -2.585   2.889  1.00  0.00     0.116 C 
BRANCH   2   3
ATOM      3  N   UNL     1      -1.981  -3.175   2.578  1.00  0.00    -0.351 N 
ATOM      4  C   UNL     1      -2.663  -3.189   1.385  1.00  0.00     0.283 C 
ATOM      5  O   UNL     1      -3.776  -3.723   1.417  1.00  0.00    -0.268 OA
ATOM      6  H   UNL     1      -2.430  -3.631   3.327  1.00  0.00     0.163 HD
BRANCH   4   7
ATOM      7  C   UNL     1      -1.986  -2.614   0.092  1.00  0.00     0.307 C 
BRANCH   7   8
ATOM      8  C   UNL     1      -1.711  -1.132   0.181  1.00  0.00     0.044 A 
ATOM      9  C   UNL     1       3.383  -0.635  -0.233  1.00  0.00     0.044 C 
ATOM     10  C   UNL     1       1.984  -0.096  -0.144  1.00  0.00    -0.050 A 
ATOM     11  C   UNL     1       1.754   1.274  -0.006  1.00  0.00     0.005 A 
ATOM     12  C   UNL     1       0.896  -0.986  -0.151  1.00  0.00     0.014 A 
ATOM     13  C   UNL     1       0.462   1.783   0.162  1.00  0.00     0.027 A 
ATOM     14  C   UNL     1      -0.418  -0.503   0.050  1.00  0.00     0.009 A 
ATOM     15  C   UNL     1      -0.595   0.869   0.215  1.00  0.00     0.046 A 
ATOM     16  N   UNL     1      -1.933   1.080   0.447  1.00  0.00    -0.361 N 
ATOM     17  C   UNL     1      -2.594  -0.116   0.508  1.00  0.00     0.094 A 
ATOM     18  H   UNL     1      -2.354   1.963   0.552  1.00  0.00     0.166 HD
ENDBRANCH   7   8
BRANCH   7  19
ATOM     19  N   UNL     1      -2.682  -3.019  -1.153  1.00  0.00    -0.318 N 
ATOM     20  C   UNL     1      -4.082  -2.608  -1.346  1.00  0.00     0.284 C 
ATOM     21  C   UNL     1      -1.915  -2.806  -2.392  1.00  0.00     0.284 C 
ATOM     22  H   UNL     1      -2.738  -4.019  -0.962  1.00  0.00     0.349 HD
ATOM     23  C   UNL     1      -4.348  -1.263  -2.054  1.00  0.00     0.178 C 
ATOM     24  C   UNL     1      -2.064  -1.424  -3.071  1.00  0.00     0.178 C 
ATOM     25  N   UNL     1      -3.477  -1.045  -3.214  1.00  0.00    -0.360 N 
BRANCH  25  26
ATOM     26  C   UNL     1      -3.703   0.116  -3.954  1.00  0.00     0.037 A 
ATOM     27  C   UNL     1      -3.850   1.379  -3.358  1.00  0.00     0.029 A 
ATOM     28  C   UNL     1      -3.791   0.024  -5.349  1.00  0.00     0.029 A 
ATOM     29  C   UNL     1      -4.120   2.510  -4.130  1.00  0.00     0.041 A 
ATOM     30  C   UNL     1      -4.066   1.151  -6.126  1.00  0.00     0.041 A 
ATOM     31  C   UNL     1      -4.235   2.383  -5.507  1.00  0.00     0.123 A 
ATOM     32  F   UNL     1      -4.513   3.463  -6.249  1.00  0.00    -0.207 F 
ENDBRANCH  25  26
ENDBRANCH   7  19
ENDBRANCH   4   7
ENDBRANCH   2   3
ENDBRANCH   1   2
BRANCH   1  33
ATOM     33  C   UNL     1      -1.467  -1.111   4.852  1.00  0.00     0.023 C 
BRANCH  33  34
ATOM     34  C   UNL     1      -0.721  -1.899   5.912  1.00  0.00     0.116 C 
BRANCH  34  35
ATOM     35  N   UNL     1       0.675  -1.509   6.031  1.00  0.00    -0.352 N 
ATOM     36  C   UNL     1       1.441  -1.413   7.168  1.00  0.00     0.251 C 
ATOM     37  H   UNL     1       1.131  -1.285   5.188  1.00  0.00     0.163 HD
ATOM     38  O   UNL     1       2.571  -0.953   7.126  1.00  0.00    -0.269 OA
BRANCH  36  39
ATOM     39  C   UNL     1       0.854  -1.841   8.454  1.00  0.00     0.039 A 
ATOM     40  C   UNL     1       0.960  -0.990   9.555  1.00  0.00     0.014 A 
ATOM     41  C   UNL     1       0.166  -3.052   8.553  1.00  0.00     0.014 A 
ATOM     42  C   UNL     1       0.324  -1.333  10.748  1.00  0.00     0.010 A 
ATOM     43  C   UNL     1      -0.540  -3.349   9.711  1.00  0.00     0.010 A 
ATOM     44  C   UNL     1      -0.456  -2.499  10.824  1.00  0.00    -0.014 A 
BRANCH  44  45
ATOM     45  C   UNL     1      -1.167  -2.863  12.072  1.00  0.00     0.031 A 
ATOM     46  C   UNL     1      -0.790  -4.118  12.807  1.00  0.00     0.074 A 
ATOM     47  C   UNL     1      -2.183  -2.095  12.509  1.00  0.00     0.049 A 
ATOM     48  N   UNL     1      -1.316  -4.634  13.889  1.00  0.00    -0.248 NA
ATOM     49  C   UNL     1       0.302  -4.920  12.232  1.00  0.00     0.031 C 
ATOM     50  C   UNL     1      -2.678  -0.888  11.846  1.00  0.00     0.029 A 
ATOM     51  N   UNL     1      -2.986  -2.221  13.614  1.00  0.00    -0.354 N 
ATOM     52  C   UNL     1      -0.631  -5.821  14.111  1.00  0.00     0.074 A 
ATOM     53  C   UNL     1       0.304  -5.984  13.020  1.00  0.00     0.031 C 
ATOM     54  C   UNL     1      -3.681  -0.368  12.572  1.00  0.00     0.029 A 
ATOM     55  C   UNL     1      -3.920  -1.221  13.733  1.00  0.00     0.049 A 
ATOM     56  H   UNL     1      -2.901  -2.959  14.261  1.00  0.00     0.167 HD
ATOM     57  C   UNL     1      -0.750  -6.683  15.148  1.00  0.00     0.037 A 
ATOM     58  C   UNL     1      -4.859  -1.018  14.675  1.00  0.00     0.037 A 
ATOM     59  C   UNL     1      -1.659  -6.499  16.247  1.00  0.00     0.049 A 
ATOM     60  C   UNL     1      -4.958  -1.981  15.828  1.00  0.00     0.074 A 
ATOM     61  C   UNL     1      -1.816  -7.279  17.379  1.00  0.00     0.029 A 
ATOM     62  N   UNL     1      -2.568  -5.456  16.350  1.00  0.00    -0.354 N 
ATOM     63  N   UNL     1      -4.253  -3.059  16.069  1.00  0.00    -0.248 NA
ATOM     64  C   UNL     1      -5.975  -1.689  16.846  1.00  0.00     0.031 C 
ATOM     65  C   UNL     1      -2.850  -6.732  18.146  1.00  0.00     0.029 A 
ATOM     66  C   UNL     1      -3.301  -5.581  17.519  1.00  0.00     0.049 A 
ATOM     67  H   UNL     1      -2.677  -4.733  15.690  1.00  0.00     0.167 HD
ATOM     68  C   UNL     1      -4.717  -3.557  17.278  1.00  0.00     0.074 A 
ATOM     69  C   UNL     1      -5.755  -2.652  17.729  1.00  0.00     0.031 C 
ATOM     70  C   UNL     1      -4.322  -4.663  17.955  1.00  0.00     0.037 A 
BRANCH  57  71
ATOM     71  C   UNL     1       0.133  -7.897  15.144  1.00  0.00     0.064 A 
ATOM     72  C   UNL     1       1.521  -7.799  15.334  1.00  0.00     0.173 A 
ATOM     73  C   UNL     1      -0.415  -9.177  14.974  1.00  0.00     0.173 A 
ATOM     74  F   UNL     1       2.098  -6.597  15.486  1.00  0.00    -0.203 F 
ATOM     75  C   UNL     1       2.329  -8.933  15.321  1.00  0.00     0.198 A 
ATOM     76  C   UNL     1       0.392 -10.312  14.994  1.00  0.00     0.198 A 
ATOM     77  F   UNL     1      -1.736  -9.329  14.792  1.00  0.00    -0.203 F 
ATOM     78  F   UNL     1       3.657  -8.808  15.449  1.00  0.00    -0.200 F 
ATOM     79  C   UNL     1       1.763 -10.188  15.159  1.00  0.00     0.200 A 
ATOM     80  F   UNL     1      -0.158 -11.525  14.850  1.00  0.00    -0.200 F 
ATOM     81  F   UNL     1       2.541 -11.279  15.153  1.00  0.00    -0.200 F 
ENDBRANCH  57  71
BRANCH  58  82
ATOM     82  C   UNL     1      -5.754   0.165  14.589  1.00  0.00     0.064 A 
ATOM     83  C   UNL     1      -5.637   1.222  15.503  1.00  0.00     0.173 A 
ATOM     84  C   UNL     1      -6.744   0.263  13.601  1.00  0.00     0.173 A 
ATOM     85  F   UNL     1      -4.717   1.167  16.477  1.00  0.00    -0.203 F 
ATOM     86  C   UNL     1      -6.492   2.321  15.447  1.00  0.00     0.198 A 
ATOM     87  C   UNL     1      -7.580   1.376  13.528  1.00  0.00     0.198 A 
ATOM     88  F   UNL     1      -6.892  -0.717  12.699  1.00  0.00    -0.203 F 
ATOM     89  F   UNL     1      -6.390   3.294  16.362  1.00  0.00    -0.200 F 
ATOM     90  C   UNL     1      -7.460   2.399  14.457  1.00  0.00     0.200 A 
ATOM     91  F   UNL     1      -8.504   1.455  12.561  1.00  0.00    -0.200 F 
ATOM     92  F   UNL     1      -8.280   3.457  14.401  1.00  0.00    -0.200 F 
ENDBRANCH  58  82
BRANCH  70  93
ATOM     93  C   UNL     1      -4.985  -4.933  19.275  1.00  0.00     0.064 A 
ATOM     94  C   UNL     1      -6.318  -5.358  19.358  1.00  0.00     0.173 A 
ATOM     95  C   UNL     1      -4.263  -4.793  20.470  1.00  0.00     0.173 A 
ATOM     96  F   UNL     1      -7.054  -5.494  18.245  1.00  0.00    -0.203 F 
ATOM     97  C   UNL     1      -6.914  -5.604  20.592  1.00  0.00     0.198 A 
ATOM     98  C   UNL     1      -4.853  -5.070  21.700  1.00  0.00     0.198 A 
ATOM     99  F   UNL     1      -2.982  -4.396  20.445  1.00  0.00    -0.203 F 
ATOM    100  F   UNL     1      -8.206  -5.958  20.651  1.00  0.00    -0.200 F 
ATOM    101  C   UNL     1      -6.180  -5.466  21.761  1.00  0.00     0.200 A 
ATOM    102  F   UNL     1      -4.137  -4.951  22.827  1.00  0.00    -0.200 F 
ATOM    103  F   UNL     1      -6.754  -5.708  22.947  1.00  0.00    -0.200 F 
ENDBRANCH  70  93
ENDBRANCH  44  45
ENDBRANCH  36  39
ENDBRANCH  34  35
ENDBRANCH  33  34
ENDBRANCH   1  33
TORSDOF 14
