REMARK SMILES CNc1nc(C(=O)N2C[C@@H](C(=O)NCCCCNC(=O)c3ccc(-c4c5nc(c(-c6c(F)c(F)c(F)c(F)c6F)c6ccc([nH]6)c(-c6c(F)c(F)c(F)c(F)c6F)c6nc(c(-c7c(F)c(F)c(F)c(F)c7F)c7ccc4[nH]7)C=C6)C=C5)cc3)[C@H](c3ccccc3C)C2)cs1
REMARK SMILES IDX 15 1 14 2 13 3 11 4 12 5 10 7 8 8 9 9 92 10 84 11 6 12 7 13
REMARK SMILES IDX 5 14 3 15 4 16 94 17 93 18 2 19 1 20 85 22 86 23 90 24 87 25
REMARK SMILES IDX 89 26 91 27 88 28 16 29 17 30 18 31 19 32 20 34 21 35 22 36
REMARK SMILES IDX 83 37 23 38 82 39 24 40 25 41 26 42 76 43 27 44 81 45 75 46
REMARK SMILES IDX 77 47 28 48 80 49 74 50 73 51 29 53 61 54 41 55 60 56 42 57
REMARK SMILES IDX 45 58 59 59 78 60 43 61 44 62 58 64 79 65 46 66 30 67 31 68
REMARK SMILES IDX 39 69 32 70 33 71 37 72 40 73 34 74 35 75 38 76 36 77 62 78
REMARK SMILES IDX 63 79 71 80 64 81 65 82 69 83 72 84 66 85 67 86 70 87 68 88
REMARK SMILES IDX 47 89 48 90 56 91 49 92 50 93 54 94 57 95 51 96 52 97 55 98
REMARK SMILES IDX 53 99
REMARK H PARENT 13 6 2 21 18 33 77 52 45 63
REMARK Flexibility Score: inf
ROOT
ATOM      1  C   UNL     1      -2.961   2.235  -0.675  1.00  0.00     0.023 C 
ENDROOT
BRANCH   1   2
ATOM      2  C   UNL     1      -2.629   1.814   0.754  1.00  0.00     0.116 C 
BRANCH   2   3
ATOM      3  N   UNL     1      -3.833   1.733   1.561  1.00  0.00    -0.356 N 
ATOM      4  C   UNL     1      -4.333   0.667   2.249  1.00  0.00     0.225 C 
ATOM      5  O   UNL     1      -5.467   0.755   2.716  1.00  0.00    -0.275 OA
ATOM      6  H   UNL     1      -4.361   2.562   1.620  1.00  0.00     0.163 HD
BRANCH   4   7
ATOM      7  C   UNL     1      -3.492  -0.581   2.360  1.00  0.00     0.107 C 
ATOM      8  N   UNL     1      -3.485  -2.744   1.546  1.00  0.00    -0.336 N 
ATOM      9  C   UNL     1      -3.817  -1.410   1.131  1.00  0.00     0.134 C 
ATOM     10  C   UNL     1      -3.909  -2.931   2.919  1.00  0.00     0.129 C 
ATOM     11  C   UNL     1      -3.817  -1.510   3.572  1.00  0.00     0.053 C 
BRANCH   8  12
ATOM     12  C   UNL     1      -2.842  -3.711   0.798  1.00  0.00     0.273 C 
ATOM     13  O   UNL     1      -2.958  -4.909   1.041  1.00  0.00    -0.267 OA
BRANCH  12  14
ATOM     14  C   UNL     1      -1.942  -3.225  -0.261  1.00  0.00     0.141 A 
ATOM     15  C   UNL     1      -0.369  -1.879  -1.103  1.00  0.00     0.183 A 
ATOM     16  N   UNL     1      -1.208  -2.042  -0.109  1.00  0.00    -0.215 NA
ATOM     17  S   UNL     1      -0.489  -3.066  -2.344  1.00  0.00    -0.105 S 
ATOM     18  C   UNL     1      -1.651  -3.920  -1.419  1.00  0.00     0.102 A 
BRANCH  15  19
ATOM     19  N   UNL     1       0.552  -0.899  -1.179  1.00  0.00    -0.365 N 
ATOM     20  C   UNL     1       0.850  -0.070  -0.038  1.00  0.00     0.142 C 
ATOM     21  H   UNL     1       1.028  -0.747  -2.026  1.00  0.00     0.162 HD
ENDBRANCH  15  19
ENDBRANCH  12  14
ENDBRANCH   8  12
BRANCH  11  22
ATOM     22  C   UNL     1      -2.818  -1.301   4.731  1.00  0.00    -0.039 A 
ATOM     23  C   UNL     1      -1.906  -2.311   5.102  1.00  0.00     0.004 A 
ATOM     24  C   UNL     1      -2.781  -0.097   5.488  1.00  0.00    -0.048 A 
ATOM     25  C   UNL     1      -1.005  -2.148   6.162  1.00  0.00     0.000 A 
ATOM     26  C   UNL     1      -1.833   0.065   6.521  1.00  0.00     0.004 A 
ATOM     27  C   UNL     1      -3.689   1.079   5.252  1.00  0.00     0.044 C 
ATOM     28  C   UNL     1      -0.959  -0.956   6.865  1.00  0.00     0.000 A 
ENDBRANCH  11  22
ENDBRANCH   4   7
ENDBRANCH   2   3
ENDBRANCH   1   2
BRANCH   1  29
ATOM     29  C   UNL     1      -3.552   3.642  -0.798  1.00  0.00     0.023 C 
BRANCH  29  30
ATOM     30  C   UNL     1      -2.687   4.754  -0.216  1.00  0.00     0.116 C 
BRANCH  30  31
ATOM     31  N   UNL     1      -1.389   4.850  -0.866  1.00  0.00    -0.352 N 
ATOM     32  C   UNL     1      -0.760   5.954  -1.385  1.00  0.00     0.251 C 
ATOM     33  H   UNL     1      -0.892   4.004  -0.944  1.00  0.00     0.163 HD
ATOM     34  O   UNL     1       0.270   5.828  -2.041  1.00  0.00    -0.269 OA
BRANCH  32  35
ATOM     35  C   UNL     1      -1.343   7.296  -1.177  1.00  0.00     0.039 A 
ATOM     36  C   UNL     1      -1.452   8.161  -2.268  1.00  0.00     0.014 A 
ATOM     37  C   UNL     1      -1.789   7.694   0.086  1.00  0.00     0.014 A 
ATOM     38  C   UNL     1      -2.069   9.403  -2.106  1.00  0.00     0.010 A 
ATOM     39  C   UNL     1      -2.466   8.901   0.231  1.00  0.00     0.010 A 
ATOM     40  C   UNL     1      -2.612   9.768  -0.864  1.00  0.00    -0.014 A 
BRANCH  40  41
ATOM     41  C   UNL     1      -3.339  11.050  -0.688  1.00  0.00     0.031 A 
ATOM     42  C   UNL     1      -2.795  12.107   0.231  1.00  0.00     0.074 A 
ATOM     43  C   UNL     1      -4.523  11.234  -1.301  1.00  0.00     0.049 A 
ATOM     44  N   UNL     1      -3.315  13.260   0.568  1.00  0.00    -0.248 NA
ATOM     45  C   UNL     1      -1.507  11.816   0.879  1.00  0.00     0.031 C 
ATOM     46  C   UNL     1      -5.180  10.266  -2.180  1.00  0.00     0.029 A 
ATOM     47  N   UNL     1      -5.392  12.297  -1.269  1.00  0.00    -0.354 N 
ATOM     48  C   UNL     1      -2.429  13.822   1.478  1.00  0.00     0.074 A 
ATOM     49  C   UNL     1      -1.366  12.861   1.681  1.00  0.00     0.031 C 
ATOM     50  C   UNL     1      -6.334  10.787  -2.623  1.00  0.00     0.029 A 
ATOM     51  C   UNL     1      -6.518  12.109  -2.031  1.00  0.00     0.049 A 
ATOM     52  H   UNL     1      -5.223  13.115  -0.749  1.00  0.00     0.167 HD
ATOM     53  C   UNL     1      -2.484  15.039   2.071  1.00  0.00     0.037 A 
ATOM     54  C   UNL     1      -7.581  12.912  -2.228  1.00  0.00     0.037 A 
ATOM     55  C   UNL     1      -3.531  16.001   1.849  1.00  0.00     0.049 A 
ATOM     56  C   UNL     1      -7.625  14.254  -1.550  1.00  0.00     0.074 A 
ATOM     57  C   UNL     1      -3.644  17.286   2.350  1.00  0.00     0.029 A 
ATOM     58  N   UNL     1      -4.652  15.780   1.061  1.00  0.00    -0.354 N 
ATOM     59  N   UNL     1      -6.747  14.806  -0.749  1.00  0.00    -0.248 NA
ATOM     60  C   UNL     1      -8.807  15.088  -1.810  1.00  0.00     0.031 C 
ATOM     61  C   UNL     1      -4.856  17.825   1.904  1.00  0.00     0.029 A 
ATOM     62  C   UNL     1      -5.475  16.895   1.083  1.00  0.00     0.049 A 
ATOM     63  H   UNL     1      -4.836  14.952   0.560  1.00  0.00     0.167 HD
ATOM     64  C   UNL     1      -7.254  16.058  -0.430  1.00  0.00     0.074 A 
ATOM     65  C   UNL     1      -8.512  16.190  -1.136  1.00  0.00     0.031 C 
ATOM     66  C   UNL     1      -6.723  17.013   0.373  1.00  0.00     0.037 A 
BRANCH  53  67
ATOM     67  C   UNL     1      -1.378  15.392   3.023  1.00  0.00     0.064 A 
ATOM     68  C   UNL     1      -0.066  15.620   2.578  1.00  0.00     0.173 A 
ATOM     69  C   UNL     1      -1.633  15.516   4.397  1.00  0.00     0.173 A 
ATOM     70  F   UNL     1       0.234  15.503   1.275  1.00  0.00    -0.203 F 
ATOM     71  C   UNL     1       0.955  15.919   3.476  1.00  0.00     0.198 A 
ATOM     72  C   UNL     1      -0.615  15.847   5.289  1.00  0.00     0.198 A 
ATOM     73  F   UNL     1      -2.869  15.315   4.877  1.00  0.00    -0.203 F 
ATOM     74  F   UNL     1       2.211  16.072   3.033  1.00  0.00    -0.200 F 
ATOM     75  C   UNL     1       0.679  16.038   4.829  1.00  0.00     0.200 A 
ATOM     76  F   UNL     1      -0.886  15.974   6.595  1.00  0.00    -0.200 F 
ATOM     77  F   UNL     1       1.663  16.326   5.692  1.00  0.00    -0.200 F 
ENDBRANCH  53  67
BRANCH  54  78
ATOM     78  C   UNL     1      -8.674  12.479  -3.135  1.00  0.00     0.064 A 
ATOM     79  C   UNL     1      -8.853  13.092  -4.383  1.00  0.00     0.173 A 
ATOM     80  C   UNL     1      -9.548  11.440  -2.786  1.00  0.00     0.173 A 
ATOM     81  F   UNL     1      -8.054  14.104  -4.752  1.00  0.00    -0.203 F 
ATOM     82  C   UNL     1      -9.874  12.691  -5.242  1.00  0.00     0.198 A 
ATOM     83  C   UNL     1     -10.552  11.022  -3.657  1.00  0.00     0.198 A 
ATOM     84  F   UNL     1      -9.415  10.818  -1.606  1.00  0.00    -0.203 F 
ATOM     85  F   UNL     1     -10.045  13.318  -6.414  1.00  0.00    -0.200 F 
ATOM     86  C   UNL     1     -10.718  11.652  -4.882  1.00  0.00     0.200 A 
ATOM     87  F   UNL     1     -11.357  10.008  -3.312  1.00  0.00    -0.200 F 
ATOM     88  F   UNL     1     -11.694  11.260  -5.712  1.00  0.00    -0.200 F 
ENDBRANCH  54  78
BRANCH  66  89
ATOM     89  C   UNL     1      -7.485  18.300   0.507  1.00  0.00     0.064 A 
ATOM     90  C   UNL     1      -8.681  18.376   1.235  1.00  0.00     0.173 A 
ATOM     91  C   UNL     1      -6.989  19.480  -0.068  1.00  0.00     0.173 A 
ATOM     92  F   UNL     1      -9.205  17.272   1.789  1.00  0.00    -0.203 F 
ATOM     93  C   UNL     1      -9.366  19.582   1.362  1.00  0.00     0.198 A 
ATOM     94  C   UNL     1      -7.660  20.690   0.087  1.00  0.00     0.198 A 
ATOM     95  F   UNL     1      -5.846  19.463  -0.769  1.00  0.00    -0.203 F 
ATOM     96  F   UNL     1     -10.531  19.622   2.023  1.00  0.00    -0.200 F 
ATOM     97  C   UNL     1      -8.851  20.738   0.795  1.00  0.00     0.200 A 
ATOM     98  F   UNL     1      -7.155  21.809  -0.450  1.00  0.00    -0.200 F 
ATOM     99  F   UNL     1      -9.508  21.899   0.926  1.00  0.00    -0.200 F 
ENDBRANCH  66  89
ENDBRANCH  40  41
ENDBRANCH  32  35
ENDBRANCH  30  31
ENDBRANCH  29  30
ENDBRANCH   1  29
TORSDOF 15
