REMARK SMILES Cc1cc(NC(=O)c2ccc(Br)cc2N)ccc1C(=O)NCCCCNC(=O)c1ccc(-c2c3nc(c(-c4c(F)c(F)c(F)c(F)c4F)c4ccc([nH]4)c(-c4c(F)c(F)c(F)c(F)c4F)c4nc(c(-c5c(F)c(F)c(F)c(F)c5F)c5ccc2[nH]5)C=C4)C=C3)cc1
REMARK SMILES IDX 23 1 22 2 21 3 19 4 20 5 18 7 1 8 2 9 3 10 4 11 17 12 16 13
REMARK SMILES IDX 5 14 6 15 7 17 8 18 9 19 14 20 10 21 13 22 11 23 12 24 15 25
REMARK SMILES IDX 24 28 25 29 26 30 27 31 28 33 29 34 30 35 91 36 31 37 90 38
REMARK SMILES IDX 32 39 33 40 34 41 84 42 35 43 89 44 83 45 85 46 36 47 88 48
REMARK SMILES IDX 82 49 81 50 37 52 69 53 49 54 68 55 50 56 53 57 67 58 86 59
REMARK SMILES IDX 51 60 52 61 66 63 87 64 54 65 38 66 39 67 47 68 40 69 41 70
REMARK SMILES IDX 45 71 48 72 42 73 43 74 46 75 44 76 70 77 71 78 79 79 72 80
REMARK SMILES IDX 73 81 77 82 80 83 74 84 75 85 78 86 76 87 55 88 56 89 64 90
REMARK SMILES IDX 57 91 58 92 62 93 65 94 59 95 60 96 63 97 61 98
REMARK H PARENT 21 6 5 16 15 26 15 27 26 32 85 51 53 62
REMARK Flexibility Score: inf
ROOT
ATOM      1  C   UNL     1       4.124   1.434  -1.300  1.00  0.00     0.023 C 
ENDROOT
BRANCH   1   2
ATOM      2  C   UNL     1       3.408   1.781   0.013  1.00  0.00     0.116 C 
BRANCH   2   3
ATOM      3  N   UNL     1       2.184   2.498  -0.262  1.00  0.00    -0.352 N 
ATOM      4  C   UNL     1       0.889   2.147  -0.527  1.00  0.00     0.251 C 
ATOM      5  O   UNL     1       0.157   3.106  -0.803  1.00  0.00    -0.269 OA
ATOM      6  H   UNL     1       2.313   3.474  -0.258  1.00  0.00     0.163 HD
BRANCH   4   7
ATOM      7  C   UNL     1       0.252   0.783  -0.430  1.00  0.00     0.042 A 
ATOM      8  C   UNL     1       2.114  -0.886  -1.193  1.00  0.00     0.045 C 
ATOM      9  C   UNL     1       0.765  -0.506  -0.674  1.00  0.00    -0.036 A 
ATOM     10  C   UNL     1      -0.079  -1.624  -0.486  1.00  0.00     0.030 A 
ATOM     11  C   UNL     1      -1.407  -1.512  -0.097  1.00  0.00     0.041 A 
ATOM     12  C   UNL     1      -1.134   0.869  -0.118  1.00  0.00     0.016 A 
ATOM     13  C   UNL     1      -1.963  -0.252   0.012  1.00  0.00     0.027 A 
BRANCH  11  14
ATOM     14  N   UNL     1      -2.184  -2.641   0.196  1.00  0.00    -0.322 N 
ATOM     15  C   UNL     1      -1.762  -3.874   0.662  1.00  0.00     0.257 C 
ATOM     16  H   UNL     1      -3.154  -2.545   0.052  1.00  0.00     0.170 HD
ATOM     17  O   UNL     1      -2.490  -4.857   0.539  1.00  0.00    -0.269 OA
BRANCH  15  18
ATOM     18  C   UNL     1      -0.461  -4.023   1.383  1.00  0.00     0.063 A 
ATOM     19  C   UNL     1       0.328  -5.132   1.027  1.00  0.00     0.017 A 
ATOM     20  C   UNL     1      -0.021  -3.133   2.391  1.00  0.00     0.045 A 
ATOM     21  C   UNL     1       1.546  -5.368   1.665  1.00  0.00     0.016 A 
ATOM     22  C   UNL     1       1.200  -3.399   3.029  1.00  0.00     0.042 A 
ATOM     23  C   UNL     1       1.972  -4.504   2.668  1.00  0.00     0.020 A 
ATOM     24  Br  UNL     1       3.579  -4.864   3.595  1.00  0.00    -0.051 Br
BRANCH  20  25
ATOM     25  N   UNL     1      -0.803  -2.097   2.901  1.00  0.00    -0.398 N 
ATOM     26  H   UNL     1      -1.667  -1.879   2.482  1.00  0.00     0.156 HD
ATOM     27  H   UNL     1      -0.491  -1.583   3.681  1.00  0.00     0.156 HD
ENDBRANCH  20  25
ENDBRANCH  15  18
ENDBRANCH  11  14
ENDBRANCH   4   7
ENDBRANCH   2   3
ENDBRANCH   1   2
BRANCH   1  28
ATOM     28  C   UNL     1       4.928   2.562  -1.934  1.00  0.00     0.023 C 
BRANCH  28  29
ATOM     29  C   UNL     1       6.290   2.745  -1.296  1.00  0.00     0.116 C 
BRANCH  29  30
ATOM     30  N   UNL     1       7.330   1.848  -1.791  1.00  0.00    -0.352 N 
ATOM     31  C   UNL     1       8.626   1.673  -1.332  1.00  0.00     0.251 C 
ATOM     32  H   UNL     1       7.074   1.289  -2.560  1.00  0.00     0.163 HD
ATOM     33  O   UNL     1       9.392   0.917  -1.925  1.00  0.00    -0.269 OA
BRANCH  31  34
ATOM     34  C   UNL     1       9.031   2.267  -0.033  1.00  0.00     0.039 A 
ATOM     35  C   UNL     1       9.681   1.435   0.888  1.00  0.00     0.014 A 
ATOM     36  C   UNL     1       8.502   3.482   0.382  1.00  0.00     0.014 A 
ATOM     37  C   UNL     1       9.507   1.669   2.248  1.00  0.00     0.010 A 
ATOM     38  C   UNL     1       8.192   3.627   1.716  1.00  0.00     0.010 A 
ATOM     39  C   UNL     1       8.627   2.673   2.641  1.00  0.00    -0.014 A 
BRANCH  39  40
ATOM     40  C   UNL     1       7.978   2.708   3.948  1.00  0.00     0.031 A 
ATOM     41  C   UNL     1       8.231   3.828   4.877  1.00  0.00     0.074 A 
ATOM     42  C   UNL     1       7.028   1.787   4.229  1.00  0.00     0.049 A 
ATOM     43  N   UNL     1       7.957   3.809   6.137  1.00  0.00    -0.248 NA
ATOM     44  C   UNL     1       8.880   5.061   4.456  1.00  0.00     0.031 C 
ATOM     45  C   UNL     1       6.036   1.829   5.300  1.00  0.00     0.029 A 
ATOM     46  N   UNL     1       6.896   0.495   3.687  1.00  0.00    -0.354 N 
ATOM     47  C   UNL     1       8.112   5.088   6.625  1.00  0.00     0.074 A 
ATOM     48  C   UNL     1       8.778   5.800   5.563  1.00  0.00     0.031 C 
ATOM     49  C   UNL     1       5.610   0.581   5.548  1.00  0.00     0.029 A 
ATOM     50  C   UNL     1       6.429  -0.314   4.750  1.00  0.00     0.049 A 
ATOM     51  H   UNL     1       7.087   0.214   2.763  1.00  0.00     0.167 HD
ATOM     52  C   UNL     1       7.526   5.407   7.818  1.00  0.00     0.037 A 
ATOM     53  C   UNL     1       7.192  -1.326   5.255  1.00  0.00     0.037 A 
ATOM     54  C   UNL     1       7.014   4.200   8.476  1.00  0.00     0.049 A 
ATOM     55  C   UNL     1       7.529  -1.170   6.720  1.00  0.00     0.074 A 
ATOM     56  C   UNL     1       5.746   3.657   8.605  1.00  0.00     0.029 A 
ATOM     57  N   UNL     1       7.907   3.202   8.861  1.00  0.00    -0.354 N 
ATOM     58  N   UNL     1       7.442  -0.041   7.367  1.00  0.00    -0.248 NA
ATOM     59  C   UNL     1       8.027  -2.256   7.558  1.00  0.00     0.031 C 
ATOM     60  C   UNL     1       5.886   2.302   9.001  1.00  0.00     0.029 A 
ATOM     61  C   UNL     1       7.235   2.027   9.138  1.00  0.00     0.049 A 
ATOM     62  H   UNL     1       8.883   3.318   8.925  1.00  0.00     0.167 HD
ATOM     63  C   UNL     1       7.885  -0.214   8.652  1.00  0.00     0.074 A 
ATOM     64  C   UNL     1       8.219  -1.624   8.730  1.00  0.00     0.031 C 
ATOM     65  C   UNL     1       7.957   0.826   9.534  1.00  0.00     0.037 A 
BRANCH  52  66
ATOM     66  C   UNL     1       7.144   6.818   8.256  1.00  0.00     0.064 A 
ATOM     67  C   UNL     1       6.142   7.014   9.236  1.00  0.00     0.173 A 
ATOM     68  C   UNL     1       7.632   8.015   7.698  1.00  0.00     0.173 A 
ATOM     69  F   UNL     1       5.651   5.994   9.951  1.00  0.00    -0.203 F 
ATOM     70  C   UNL     1       5.598   8.272   9.527  1.00  0.00     0.198 A 
ATOM     71  C   UNL     1       7.069   9.269   7.962  1.00  0.00     0.198 A 
ATOM     72  F   UNL     1       8.713   8.046   6.918  1.00  0.00    -0.203 F 
ATOM     73  F   UNL     1       4.630   8.381  10.448  1.00  0.00    -0.200 F 
ATOM     74  C   UNL     1       6.038   9.396   8.864  1.00  0.00     0.200 A 
ATOM     75  F   UNL     1       7.542  10.352   7.329  1.00  0.00    -0.200 F 
ATOM     76  F   UNL     1       5.497  10.596   9.112  1.00  0.00    -0.200 F 
ENDBRANCH  52  66
BRANCH  53  77
ATOM     77  C   UNL     1       8.070  -1.962   4.237  1.00  0.00     0.064 A 
ATOM     78  C   UNL     1       7.461  -2.620   3.151  1.00  0.00     0.173 A 
ATOM     79  C   UNL     1       9.420  -1.620   4.107  1.00  0.00     0.173 A 
ATOM     80  F   UNL     1       6.162  -2.948   3.216  1.00  0.00    -0.203 F 
ATOM     81  C   UNL     1       8.136  -2.829   1.952  1.00  0.00     0.198 A 
ATOM     82  C   UNL     1      10.098  -1.838   2.904  1.00  0.00     0.198 A 
ATOM     83  F   UNL     1      10.050  -0.961   5.089  1.00  0.00    -0.203 F 
ATOM     84  F   UNL     1       7.488  -3.357   0.903  1.00  0.00    -0.200 F 
ATOM     85  C   UNL     1       9.448  -2.411   1.820  1.00  0.00     0.200 A 
ATOM     86  F   UNL     1      11.355  -1.393   2.760  1.00  0.00    -0.200 F 
ATOM     87  F   UNL     1      10.070  -2.513   0.637  1.00  0.00    -0.200 F 
ENDBRANCH  53  77
BRANCH  65  88
ATOM     88  C   UNL     1       8.642   0.798  10.878  1.00  0.00     0.064 A 
ATOM     89  C   UNL     1       9.759  -0.001  11.172  1.00  0.00     0.173 A 
ATOM     90  C   UNL     1       8.270   1.720  11.886  1.00  0.00     0.173 A 
ATOM     91  F   UNL     1      10.279  -0.834  10.260  1.00  0.00    -0.203 F 
ATOM     92  C   UNL     1      10.420   0.076  12.401  1.00  0.00     0.198 A 
ATOM     93  C   UNL     1       8.967   1.835  13.088  1.00  0.00     0.198 A 
ATOM     94  F   UNL     1       7.234   2.556  11.721  1.00  0.00    -0.203 F 
ATOM     95  F   UNL     1      11.459  -0.735  12.648  1.00  0.00    -0.200 F 
ATOM     96  C   UNL     1      10.033   1.002  13.352  1.00  0.00     0.200 A 
ATOM     97  F   UNL     1       8.611   2.773  13.977  1.00  0.00    -0.200 F 
ATOM     98  F   UNL     1      10.701   1.106  14.509  1.00  0.00    -0.200 F 
ENDBRANCH  65  88
ENDBRANCH  39  40
ENDBRANCH  31  34
ENDBRANCH  29  30
ENDBRANCH  28  29
ENDBRANCH   1  28
TORSDOF 14
