REMARK SMILES N#CCC[NH+]1CCN(c2cc(C(=O)NCCCCNC(=O)c3ccc(-c4c5nc(c(-c6c(F)c(F)c(F)c(F)c6F)c6ccc([nH]6)c(-c6c(F)c(F)c(F)c(F)c6F)c6nc(c(-c7c(F)c(F)c(F)c(F)c7F)c7ccc4[nH]7)C=C6)C=C5)cc3)c3cc(NS(=O)(=O)c4ccccc4Cl)ccc3n2)CC1
REMARK SMILES IDX 15 1 14 2 12 3 13 4 11 6 9 7 10 8 102 9 101 10 85 11 100 12
REMARK SMILES IDX 86 13 99 14 87 15 8 16 5 17 6 18 104 19 7 21 103 22 4 23
REMARK SMILES IDX 3 24 2 25 1 26 88 27 89 29 90 30 91 31 92 32 93 33 97 34
REMARK SMILES IDX 94 35 96 36 98 37 95 38 16 39 17 40 18 41 19 42 20 43 21 45
REMARK SMILES IDX 22 46 23 47 84 48 24 49 83 50 25 51 26 52 27 53 77 54 28 55
REMARK SMILES IDX 82 56 76 57 78 58 29 59 81 60 75 61 74 62 30 64 62 65 42 66
REMARK SMILES IDX 61 67 43 68 46 69 60 70 79 71 44 72 45 73 59 75 80 76 47 77
REMARK SMILES IDX 31 78 32 79 40 80 33 81 34 82 38 83 41 84 35 85 36 86 39 87
REMARK SMILES IDX 37 88 63 89 64 90 72 91 65 92 66 93 70 94 73 95 67 96 68 97
REMARK SMILES IDX 71 98 69 99 48 100 49 101 57 102 50 103 51 104 55 105 58 106
REMARK SMILES IDX 52 107 53 108 56 109 54 110
REMARK H PARENT 14 5 5 20 88 28 19 44 78 63 46 74
REMARK Flexibility Score: inf
ROOT
ATOM      1  C   UNL     1       8.767  -4.842   8.149  1.00  0.00     0.116 C 
ENDROOT
BRANCH   1   2
ATOM      2  N   UNL     1       8.890  -4.772   6.702  1.00  0.00    -0.352 N 
ATOM      3  C   UNL     1       8.673  -3.757   5.773  1.00  0.00     0.252 C 
ATOM      4  O   UNL     1       9.030  -4.041   4.621  1.00  0.00    -0.269 OA
ATOM      5  H   UNL     1       9.188  -5.617   6.295  1.00  0.00     0.163 HD
BRANCH   3   6
ATOM      6  C   UNL     1       8.027  -2.387   5.966  1.00  0.00     0.052 A 
ATOM      7  C   UNL     1       6.901  -0.578   4.752  1.00  0.00     0.130 A 
ATOM      8  C   UNL     1       7.438  -1.868   4.801  1.00  0.00     0.061 A 
ATOM      9  N   UNL     1       6.911   0.216   5.827  1.00  0.00    -0.231 NA
ATOM     10  C   UNL     1       7.547  -0.189   6.917  1.00  0.00     0.074 A 
ATOM     11  C   UNL     1       8.133  -1.470   7.033  1.00  0.00     0.015 A 
ATOM     12  C   UNL     1       7.726   0.759   7.915  1.00  0.00     0.031 A 
ATOM     13  C   UNL     1       8.942  -1.665   8.137  1.00  0.00     0.038 A 
ATOM     14  C   UNL     1       8.660   0.564   8.929  1.00  0.00     0.029 A 
ATOM     15  C   UNL     1       9.354  -0.631   8.961  1.00  0.00     0.050 A 
BRANCH   7  16
ATOM     16  N   UNL     1       6.381  -0.070   3.581  1.00  0.00    -0.345 N 
ATOM     17  N   UNL     1       3.977   1.016   2.324  1.00  0.00    -0.331 N 
ATOM     18  C   UNL     1       4.060  -0.359   2.861  1.00  0.00     0.284 C 
ATOM     19  C   UNL     1       4.817   1.875   3.197  1.00  0.00     0.284 C 
ATOM     20  H   UNL     1       3.000   1.311   2.328  1.00  0.00     0.348 HD
ATOM     21  C   UNL     1       5.486  -0.930   2.817  1.00  0.00     0.179 C 
ATOM     22  C   UNL     1       6.280   1.391   3.379  1.00  0.00     0.179 C 
BRANCH  17  23
ATOM     23  C   UNL     1       4.397   1.128   0.913  1.00  0.00     0.277 C 
BRANCH  23  24
ATOM     24  C   UNL     1       3.872   0.036  -0.021  1.00  0.00     0.181 C 
BRANCH  24  25
ATOM     25  C   UNL     1       2.352   0.036  -0.021  1.00  0.00     0.068 C 
ATOM     26  N   UNL     1       1.091   0.036  -0.021  1.00  0.00    -0.198 NA
ENDBRANCH  24  25
ENDBRANCH  23  24
ENDBRANCH  17  23
ENDBRANCH   7  16
BRANCH  15  27
ATOM     27  N   UNL     1      10.574  -0.726   9.678  1.00  0.00    -0.280 N 
ATOM     28  H   UNL     1      10.797   0.003  10.300  1.00  0.00     0.180 HD
BRANCH  27  29
ATOM     29  S   UNL     1      11.665  -1.997   9.540  1.00  0.00     0.263 S 
ATOM     30  O   UNL     1      12.900  -1.580  10.146  1.00  0.00    -0.201 OA
ATOM     31  O   UNL     1      10.954  -3.164  10.043  1.00  0.00    -0.201 OA
BRANCH  29  32
ATOM     32  C   UNL     1      12.025  -2.319   7.809  1.00  0.00     0.106 A 
ATOM     33  C   UNL     1      11.984  -3.656   7.371  1.00  0.00     0.024 A 
ATOM     34  C   UNL     1      12.390  -1.344   6.892  1.00  0.00     0.061 A 
ATOM     35  C   UNL     1      12.303  -4.035   6.067  1.00  0.00     0.002 A 
ATOM     36  C   UNL     1      12.716  -1.723   5.572  1.00  0.00     0.022 A 
ATOM     37  Cl  UNL     1      12.479   0.330   7.276  1.00  0.00    -0.083 Cl
ATOM     38  C   UNL     1      12.678  -3.060   5.162  1.00  0.00     0.002 A 
ENDBRANCH  29  32
ENDBRANCH  27  29
ENDBRANCH  15  27
ENDBRANCH   3   6
ENDBRANCH   1   2
BRANCH   1  39
ATOM     39  C   UNL     1       8.818  -6.182   8.887  1.00  0.00     0.023 C 
BRANCH  39  40
ATOM     40  C   UNL     1      10.131  -6.987   9.039  1.00  0.00     0.023 C 
BRANCH  40  41
ATOM     41  C   UNL     1      11.435  -6.514   9.724  1.00  0.00     0.116 C 
BRANCH  41  42
ATOM     42  N   UNL     1      11.391  -5.705  10.925  1.00  0.00    -0.352 N 
ATOM     43  C   UNL     1      12.427  -5.516  11.832  1.00  0.00     0.251 C 
ATOM     44  H   UNL     1      10.543  -5.244  11.118  1.00  0.00     0.163 HD
ATOM     45  O   UNL     1      12.314  -4.772  12.800  1.00  0.00    -0.269 OA
BRANCH  43  46
ATOM     46  C   UNL     1      13.697  -6.257  11.641  1.00  0.00     0.039 A 
ATOM     47  C   UNL     1      14.058  -7.230  12.575  1.00  0.00     0.014 A 
ATOM     48  C   UNL     1      14.495  -6.033  10.514  1.00  0.00     0.014 A 
ATOM     49  C   UNL     1      15.149  -8.066  12.315  1.00  0.00     0.010 A 
ATOM     50  C   UNL     1      15.561  -6.895  10.236  1.00  0.00     0.010 A 
ATOM     51  C   UNL     1      15.872  -7.946  11.114  1.00  0.00    -0.014 A 
BRANCH  51  52
ATOM     52  C   UNL     1      16.872  -8.985  10.740  1.00  0.00     0.031 A 
ATOM     53  C   UNL     1      18.341  -8.680  10.693  1.00  0.00     0.074 A 
ATOM     54  C   UNL     1      16.436 -10.218  10.411  1.00  0.00     0.049 A 
ATOM     55  N   UNL     1      19.344  -9.483  10.435  1.00  0.00    -0.248 NA
ATOM     56  C   UNL     1      18.736  -7.289  10.954  1.00  0.00     0.031 C 
ATOM     57  C   UNL     1      15.031 -10.627  10.360  1.00  0.00     0.029 A 
ATOM     58  N   UNL     1      17.123 -11.356  10.061  1.00  0.00    -0.354 N 
ATOM     59  C   UNL     1      20.488  -8.700  10.511  1.00  0.00     0.074 A 
ATOM     60  C   UNL     1      20.051  -7.347  10.787  1.00  0.00     0.031 C 
ATOM     61  C   UNL     1      14.961 -11.927  10.035  1.00  0.00     0.029 A 
ATOM     62  C   UNL     1      16.311 -12.441   9.827  1.00  0.00     0.049 A 
ATOM     63  H   UNL     1      18.104 -11.391   9.986  1.00  0.00     0.167 HD
ATOM     64  C   UNL     1      21.783  -9.080  10.383  1.00  0.00     0.037 A 
ATOM     65  C   UNL     1      16.619 -13.709   9.489  1.00  0.00     0.037 A 
ATOM     66  C   UNL     1      22.215 -10.427  10.108  1.00  0.00     0.049 A 
ATOM     67  C   UNL     1      18.064 -14.102   9.349  1.00  0.00     0.074 A 
ATOM     68  C   UNL     1      23.506 -10.918  10.009  1.00  0.00     0.029 A 
ATOM     69  N   UNL     1      21.365 -11.499   9.879  1.00  0.00    -0.354 N 
ATOM     70  N   UNL     1      19.140 -13.370   9.511  1.00  0.00    -0.248 NA
ATOM     71  C   UNL     1      18.340 -15.501   8.989  1.00  0.00     0.031 C 
ATOM     72  C   UNL     1      23.437 -12.275   9.673  1.00  0.00     0.029 A 
ATOM     73  C   UNL     1      22.103 -12.643   9.613  1.00  0.00     0.049 A 
ATOM     74  H   UNL     1      20.381 -11.455   9.901  1.00  0.00     0.167 HD
ATOM     75  C   UNL     1      20.216 -14.221   9.298  1.00  0.00     0.074 A 
ATOM     76  C   UNL     1      19.665 -15.529   9.014  1.00  0.00     0.031 C 
ATOM     77  C   UNL     1      21.542 -13.941   9.333  1.00  0.00     0.037 A 
BRANCH  64  78
ATOM     78  C   UNL     1      22.835  -8.018  10.539  1.00  0.00     0.064 A 
ATOM     79  C   UNL     1      23.107  -7.434  11.786  1.00  0.00     0.173 A 
ATOM     80  C   UNL     1      23.606  -7.607   9.442  1.00  0.00     0.173 A 
ATOM     81  F   UNL     1      22.396  -7.789  12.867  1.00  0.00    -0.203 F 
ATOM     82  C   UNL     1      24.088  -6.454  11.921  1.00  0.00     0.198 A 
ATOM     83  C   UNL     1      24.606  -6.648   9.586  1.00  0.00     0.198 A 
ATOM     84  F   UNL     1      23.396  -8.141   8.229  1.00  0.00    -0.203 F 
ATOM     85  F   UNL     1      24.296  -5.877  13.113  1.00  0.00    -0.200 F 
ATOM     86  C   UNL     1      24.840  -6.066  10.823  1.00  0.00     0.200 A 
ATOM     87  F   UNL     1      25.343  -6.285   8.527  1.00  0.00    -0.200 F 
ATOM     88  F   UNL     1      25.787  -5.127  10.955  1.00  0.00    -0.200 F 
ENDBRANCH  64  78
BRANCH  65  89
ATOM     89  C   UNL     1      15.536 -14.709   9.292  1.00  0.00     0.064 A 
ATOM     90  C   UNL     1      15.359 -15.770  10.192  1.00  0.00     0.173 A 
ATOM     91  C   UNL     1      14.659 -14.630   8.200  1.00  0.00     0.173 A 
ATOM     92  F   UNL     1      16.185 -15.903  11.240  1.00  0.00    -0.203 F 
ATOM     93  C   UNL     1      14.361 -16.723   9.996  1.00  0.00     0.198 A 
ATOM     94  C   UNL     1      13.643 -15.566   8.021  1.00  0.00     0.198 A 
ATOM     95  F   UNL     1      14.782 -13.633   7.311  1.00  0.00    -0.203 F 
ATOM     96  F   UNL     1      14.244 -17.752  10.847  1.00  0.00    -0.200 F 
ATOM     97  C   UNL     1      13.500 -16.617   8.915  1.00  0.00     0.200 A 
ATOM     98  F   UNL     1      12.804 -15.452   6.982  1.00  0.00    -0.200 F 
ATOM     99  F   UNL     1      12.537 -17.530   8.730  1.00  0.00    -0.200 F 
ENDBRANCH  65  89
BRANCH  77 100
ATOM    100  C   UNL     1      22.491 -15.076   9.079  1.00  0.00     0.064 A 
ATOM    101  C   UNL     1      22.651 -15.629   7.800  1.00  0.00     0.173 A 
ATOM    102  C   UNL     1      23.278 -15.592  10.120  1.00  0.00     0.173 A 
ATOM    103  F   UNL     1      21.910 -15.182   6.774  1.00  0.00    -0.203 F 
ATOM    104  C   UNL     1      23.546 -16.672   7.577  1.00  0.00     0.198 A 
ATOM    105  C   UNL     1      24.193 -16.615   9.888  1.00  0.00     0.198 A 
ATOM    106  F   UNL     1      23.168 -15.095  11.361  1.00  0.00    -0.203 F 
ATOM    107  F   UNL     1      23.649 -17.216   6.356  1.00  0.00    -0.200 F 
ATOM    108  C   UNL     1      24.322 -17.159   8.619  1.00  0.00     0.200 A 
ATOM    109  F   UNL     1      24.951 -17.076  10.893  1.00  0.00    -0.200 F 
ATOM    110  F   UNL     1      25.188 -18.158   8.401  1.00  0.00    -0.200 F 
ENDBRANCH  77 100
ENDBRANCH  51  52
ENDBRANCH  43  46
ENDBRANCH  41  42
ENDBRANCH  40  41
ENDBRANCH  39  40
ENDBRANCH   1  39
TORSDOF 18
