REMARK SMILES O=C(NCCCCNC(=O)[C@@H](Cc1ccccc1Br)CC(F)(F)F)c1ccc(-c2c3nc(c(-c4c(F)c(F)c(F)c(F)c4F)c4ccc([nH]4)c(-c4c(F)c(F)c(F)c(F)c4F)c4nc(c(-c5c(F)c(F)c(F)c(F)c5F)c5ccc2[nH]5)C=C4)C=C3)cc1
REMARK SMILES IDX 5 1 4 2 3 3 1 4 2 5 25 7 26 8 87 9 27 10 86 11 28 12 29 13
REMARK SMILES IDX 30 14 80 15 31 16 85 17 79 18 81 19 32 20 84 21 78 22 77 23
REMARK SMILES IDX 33 25 65 26 45 27 64 28 46 29 49 30 63 31 82 32 47 33 48 34
REMARK SMILES IDX 62 36 83 37 50 38 34 39 35 40 43 41 36 42 37 43 41 44 44 45
REMARK SMILES IDX 38 46 39 47 42 48 40 49 66 50 67 51 75 52 68 53 69 54 73 55
REMARK SMILES IDX 76 56 70 57 71 58 74 59 72 60 51 61 52 62 60 63 53 64 54 65
REMARK SMILES IDX 58 66 61 67 55 68 56 69 59 70 57 71 6 72 7 73 8 74 9 75
REMARK SMILES IDX 10 77 11 78 12 79 13 80 14 81 18 82 15 83 17 84 19 85 16 86
REMARK SMILES IDX 20 87 21 88 22 89 23 90 24 91
REMARK H PARENT 3 6 81 24 49 35 8 76
REMARK Flexibility Score: inf
ROOT
ATOM      1  C   UNL     1       5.572   0.014  -2.018  1.00  0.00     0.023 C 
ENDROOT
BRANCH   1   2
ATOM      2  C   UNL     1       4.899   0.397  -0.714  1.00  0.00     0.116 C 
BRANCH   2   3
ATOM      3  N   UNL     1       3.438   0.423  -0.768  1.00  0.00    -0.352 N 
ATOM      4  O   UNL     1       1.329  -0.029  -0.059  1.00  0.00    -0.269 OA
ATOM      5  C   UNL     1       2.535  -0.067   0.152  1.00  0.00     0.251 C 
ATOM      6  H   UNL     1       3.047   0.846  -1.567  1.00  0.00     0.163 HD
BRANCH   5   7
ATOM      7  C   UNL     1       3.065  -0.693   1.379  1.00  0.00     0.039 A 
ATOM      8  C   UNL     1       4.091  -0.056   2.073  1.00  0.00     0.014 A 
ATOM      9  C   UNL     1       2.656  -1.979   1.736  1.00  0.00     0.014 A 
ATOM     10  C   UNL     1       4.877  -0.803   2.931  1.00  0.00     0.010 A 
ATOM     11  C   UNL     1       3.362  -2.676   2.721  1.00  0.00     0.010 A 
ATOM     12  C   UNL     1       4.521  -2.119   3.280  1.00  0.00    -0.014 A 
BRANCH  12  13
ATOM     13  C   UNL     1       5.389  -2.843   4.246  1.00  0.00     0.031 A 
ATOM     14  C   UNL     1       6.090  -4.124   3.881  1.00  0.00     0.074 A 
ATOM     15  C   UNL     1       5.630  -2.256   5.436  1.00  0.00     0.049 A 
ATOM     16  N   UNL     1       6.934  -4.829   4.595  1.00  0.00    -0.248 NA
ATOM     17  C   UNL     1       5.805  -4.703   2.559  1.00  0.00     0.031 C 
ATOM     18  C   UNL     1       4.994  -1.021   5.902  1.00  0.00     0.029 A 
ATOM     19  N   UNL     1       6.513  -2.570   6.436  1.00  0.00    -0.354 N 
ATOM     20  C   UNL     1       7.247  -5.946   3.831  1.00  0.00     0.074 A 
ATOM     21  C   UNL     1       6.499  -5.834   2.598  1.00  0.00     0.031 C 
ATOM     22  C   UNL     1       5.585  -0.620   7.034  1.00  0.00     0.029 A 
ATOM     23  C   UNL     1       6.570  -1.620   7.427  1.00  0.00     0.049 A 
ATOM     24  H   UNL     1       7.052  -3.393   6.443  1.00  0.00     0.167 HD
ATOM     25  C   UNL     1       8.083  -6.968   4.136  1.00  0.00     0.037 A 
ATOM     26  C   UNL     1       7.323  -1.560   8.539  1.00  0.00     0.037 A 
ATOM     27  C   UNL     1       8.854  -7.053   5.352  1.00  0.00     0.049 A 
ATOM     28  C   UNL     1       8.276  -2.680   8.823  1.00  0.00     0.074 A 
ATOM     29  C   UNL     1       9.719  -8.053   5.761  1.00  0.00     0.029 A 
ATOM     30  N   UNL     1       8.864  -6.087   6.348  1.00  0.00    -0.354 N 
ATOM     31  N   UNL     1       8.529  -3.748   8.106  1.00  0.00    -0.248 NA
ATOM     32  C   UNL     1       9.034  -2.598  10.077  1.00  0.00     0.031 C 
ATOM     33  C   UNL     1      10.235  -7.704   7.015  1.00  0.00     0.029 A 
ATOM     34  C   UNL     1       9.719  -6.468   7.370  1.00  0.00     0.049 A 
ATOM     35  H   UNL     1       8.340  -5.253   6.332  1.00  0.00     0.167 HD
ATOM     36  C   UNL     1       9.458  -4.477   8.830  1.00  0.00     0.074 A 
ATOM     37  C   UNL     1       9.763  -3.704  10.017  1.00  0.00     0.031 C 
ATOM     38  C   UNL     1       9.993  -5.690   8.550  1.00  0.00     0.037 A 
BRANCH  25  39
ATOM     39  C   UNL     1       8.202  -8.097   3.153  1.00  0.00     0.064 A 
ATOM     40  C   UNL     1       8.916  -7.960   1.954  1.00  0.00     0.173 A 
ATOM     41  C   UNL     1       7.648  -9.354   3.446  1.00  0.00     0.173 A 
ATOM     42  F   UNL     1       9.454  -6.777   1.621  1.00  0.00    -0.203 F 
ATOM     43  C   UNL     1       9.063  -9.036   1.080  1.00  0.00     0.198 A 
ATOM     44  C   UNL     1       7.816 -10.433   2.581  1.00  0.00     0.198 A 
ATOM     45  F   UNL     1       6.959  -9.540   4.581  1.00  0.00    -0.203 F 
ATOM     46  F   UNL     1       9.726  -8.874  -0.073  1.00  0.00    -0.200 F 
ATOM     47  C   UNL     1       8.521 -10.272   1.398  1.00  0.00     0.200 A 
ATOM     48  F   UNL     1       7.301 -11.629   2.896  1.00  0.00    -0.200 F 
ATOM     49  F   UNL     1       8.675 -11.309   0.562  1.00  0.00    -0.200 F 
ENDBRANCH  25  39
BRANCH  26  50
ATOM     50  C   UNL     1       7.177  -0.406   9.462  1.00  0.00     0.064 A 
ATOM     51  C   UNL     1       8.204   0.533   9.617  1.00  0.00     0.173 A 
ATOM     52  C   UNL     1       5.987  -0.199  10.176  1.00  0.00     0.173 A 
ATOM     53  F   UNL     1       9.366   0.369   8.968  1.00  0.00    -0.203 F 
ATOM     54  C   UNL     1       8.048   1.634  10.456  1.00  0.00     0.198 A 
ATOM     55  C   UNL     1       5.819   0.920  10.987  1.00  0.00     0.198 A 
ATOM     56  F   UNL     1       4.971  -1.066  10.054  1.00  0.00    -0.203 F 
ATOM     57  F   UNL     1       9.057   2.502  10.613  1.00  0.00    -0.200 F 
ATOM     58  C   UNL     1       6.853   1.832  11.132  1.00  0.00     0.200 A 
ATOM     59  F   UNL     1       4.654   1.118  11.617  1.00  0.00    -0.200 F 
ATOM     60  F   UNL     1       6.697   2.902  11.923  1.00  0.00    -0.200 F 
ENDBRANCH  26  50
BRANCH  38  61
ATOM     61  C   UNL     1      10.949  -6.246   9.559  1.00  0.00     0.064 A 
ATOM     62  C   UNL     1      10.495  -6.750  10.788  1.00  0.00     0.173 A 
ATOM     63  C   UNL     1      12.326  -6.272   9.302  1.00  0.00     0.173 A 
ATOM     64  F   UNL     1       9.186  -6.727  11.084  1.00  0.00    -0.203 F 
ATOM     65  C   UNL     1      11.391  -7.230  11.737  1.00  0.00     0.198 A 
ATOM     66  C   UNL     1      13.218  -6.776  10.244  1.00  0.00     0.198 A 
ATOM     67  F   UNL     1      12.806  -5.804   8.140  1.00  0.00    -0.203 F 
ATOM     68  F   UNL     1      10.941  -7.656  12.925  1.00  0.00    -0.200 F 
ATOM     69  C   UNL     1      12.751  -7.245  11.464  1.00  0.00     0.200 A 
ATOM     70  F   UNL     1      14.531  -6.795   9.978  1.00  0.00    -0.200 F 
ATOM     71  F   UNL     1      13.614  -7.700  12.382  1.00  0.00    -0.200 F 
ENDBRANCH  38  61
ENDBRANCH  12  13
ENDBRANCH   5   7
ENDBRANCH   2   3
ENDBRANCH   1   2
BRANCH   1  72
ATOM     72  C   UNL     1       5.228   0.934  -3.170  1.00  0.00     0.023 C 
BRANCH  72  73
ATOM     73  C   UNL     1       5.765   2.354  -3.061  1.00  0.00     0.116 C 
BRANCH  73  74
ATOM     74  N   UNL     1       6.994   2.468  -3.812  1.00  0.00    -0.356 N 
ATOM     75  C   UNL     1       7.237   2.962  -5.048  1.00  0.00     0.223 C 
ATOM     76  H   UNL     1       7.791   2.128  -3.344  1.00  0.00     0.163 HD
ATOM     77  O   UNL     1       8.333   2.695  -5.549  1.00  0.00    -0.275 OA
BRANCH  75  78
ATOM     78  C   UNL     1       6.255   3.850  -5.810  1.00  0.00     0.092 C 
BRANCH  78  79
ATOM     79  C   UNL     1       5.202   3.107  -6.674  1.00  0.00     0.050 C 
BRANCH  79  80
ATOM     80  C   UNL     1       4.026   2.352  -6.085  1.00  0.00    -0.033 A 
ATOM     81  C   UNL     1       4.066   0.941  -6.121  1.00  0.00     0.005 A 
ATOM     82  C   UNL     1       2.844   2.941  -5.600  1.00  0.00     0.021 A 
ATOM     83  C   UNL     1       3.023   0.158  -5.609  1.00  0.00     0.000 A 
ATOM     84  C   UNL     1       1.816   2.156  -5.054  1.00  0.00     0.016 A 
ATOM     85  Br  UNL     1       2.465   4.795  -5.748  1.00  0.00    -0.051 Br
ATOM     86  C   UNL     1       1.910   0.767  -5.046  1.00  0.00     0.001 A 
ENDBRANCH  79  80
ENDBRANCH  78  79
BRANCH  78  87
ATOM     87  C   UNL     1       5.778   5.097  -5.059  1.00  0.00     0.129 C 
BRANCH  87  88
ATOM     88  C   UNL     1       6.893   5.898  -4.415  1.00  0.00     0.389 C 
ATOM     89  F   UNL     1       7.854   6.215  -5.304  1.00  0.00    -0.171 F 
ATOM     90  F   UNL     1       6.396   7.057  -3.923  1.00  0.00    -0.171 F 
ATOM     91  F   UNL     1       7.462   5.244  -3.384  1.00  0.00    -0.171 F 
ENDBRANCH  87  88
ENDBRANCH  78  87
ENDBRANCH  75  78
ENDBRANCH  73  74
ENDBRANCH  72  73
ENDBRANCH   1  72
TORSDOF 15
