REMARK SMILES Cc1nc(-c2cccc(F)c2)sc1C(=O)NC[C@H]1CC[C@@H](C(=O)NCCCCNC(=O)c2ccc(-c3c4nc(c(-c5c(F)c(F)c(F)c(F)c5F)c5ccc([nH]5)c(-c5c(F)c(F)c(F)c(F)c5F)c5nc(c(-c6c(F)c(F)c(F)c(F)c6F)c6ccc3[nH]6)C=C5)C=C4)cc2)CC1
REMARK SMILES IDX 25 1 24 2 22 3 23 4 21 6 18 7 19 8 96 9 20 10 95 11 17 12
REMARK SMILES IDX 16 13 14 14 15 15 13 17 1 18 2 19 3 20 4 21 12 22 5 23 6 24
REMARK SMILES IDX 11 25 7 26 9 27 8 28 10 29 26 30 27 31 28 32 29 33 30 34
REMARK SMILES IDX 31 36 32 37 33 38 94 39 34 40 93 41 35 42 36 43 37 44 87 45
REMARK SMILES IDX 38 46 92 47 86 48 88 49 39 50 91 51 85 52 84 53 40 55 72 56
REMARK SMILES IDX 52 57 71 58 53 59 56 60 70 61 89 62 54 63 55 64 69 66 90 67
REMARK SMILES IDX 57 68 41 69 42 70 50 71 43 72 44 73 48 74 51 75 45 76 46 77
REMARK SMILES IDX 49 78 47 79 73 80 74 81 82 82 75 83 76 84 80 85 83 86 77 87
REMARK SMILES IDX 78 88 81 89 79 90 58 91 59 92 67 93 60 94 61 95 65 96 68 97
REMARK SMILES IDX 62 98 63 99 66 100 64 101
REMARK H PARENT 24 5 16 16 29 35 88 54 56 65
REMARK Flexibility Score: inf
ROOT
ATOM      1  C   UNL     1      -6.107  -2.934   0.766  1.00  0.00     0.116 C 
ENDROOT
BRANCH   1   2
ATOM      2  N   UNL     1      -7.274  -3.099  -0.067  1.00  0.00    -0.356 N 
ATOM      3  C   UNL     1      -7.449  -3.372  -1.382  1.00  0.00     0.223 C 
ATOM      4  O   UNL     1      -8.614  -3.629  -1.713  1.00  0.00    -0.275 OA
ATOM      5  H   UNL     1      -8.121  -2.989   0.423  1.00  0.00     0.163 HD
BRANCH   3   6
ATOM      6  C   UNL     1      -6.356  -3.367  -2.464  1.00  0.00     0.078 C 
ATOM      7  C   UNL     1      -3.440  -2.994  -1.722  1.00  0.00     0.008 C 
ATOM      8  C   UNL     1      -4.104  -4.388  -1.702  1.00  0.00     0.006 C 
ATOM      9  C   UNL     1      -4.394  -1.804  -1.933  1.00  0.00     0.006 C 
ATOM     10  C   UNL     1      -5.383  -4.540  -2.511  1.00  0.00     0.014 C 
ATOM     11  C   UNL     1      -5.669  -2.038  -2.718  1.00  0.00     0.014 C 
BRANCH   7  12
ATOM     12  C   UNL     1      -2.595  -2.791  -0.428  1.00  0.00     0.119 C 
BRANCH  12  13
ATOM     13  N   UNL     1      -1.181  -2.939  -0.645  1.00  0.00    -0.351 N 
ATOM     14  C   UNL     1      -0.069  -2.151  -0.501  1.00  0.00     0.263 C 
ATOM     15  O   UNL     1       0.967  -2.817  -0.641  1.00  0.00    -0.268 OA
ATOM     16  H   UNL     1      -0.954  -3.835  -0.985  1.00  0.00     0.163 HD
BRANCH  14  17
ATOM     17  C   UNL     1      -0.031  -0.711  -0.240  1.00  0.00     0.115 A 
ATOM     18  C   UNL     1      -2.380   0.470  -0.109  1.00  0.00     0.068 C 
ATOM     19  C   UNL     1      -0.907   0.361  -0.069  1.00  0.00     0.062 A 
ATOM     20  N   UNL     1      -0.310   1.597   0.141  1.00  0.00    -0.241 NA
ATOM     21  C   UNL     1       0.990   1.524   0.039  1.00  0.00     0.124 A 
ATOM     22  S   UNL     1       1.600  -0.048  -0.158  1.00  0.00    -0.108 S 
BRANCH  21  23
ATOM     23  C   UNL     1       1.852   2.702   0.085  1.00  0.00     0.013 A 
ATOM     24  C   UNL     1       2.786   2.970  -0.929  1.00  0.00     0.011 A 
ATOM     25  C   UNL     1       1.655   3.649   1.098  1.00  0.00     0.050 A 
ATOM     26  C   UNL     1       3.505   4.169  -0.931  1.00  0.00     0.004 A 
ATOM     27  C   UNL     1       2.382   4.833   1.090  1.00  0.00     0.123 A 
ATOM     28  C   UNL     1       3.300   5.103   0.082  1.00  0.00     0.039 A 
ATOM     29  F   UNL     1       2.178   5.737   2.057  1.00  0.00    -0.207 F 
ENDBRANCH  21  23
ENDBRANCH  14  17
ENDBRANCH  12  13
ENDBRANCH   7  12
ENDBRANCH   3   6
ENDBRANCH   1   2
BRANCH   1  30
ATOM     30  C   UNL     1      -5.921  -1.507   1.284  1.00  0.00     0.023 C 
BRANCH  30  31
ATOM     31  C   UNL     1      -6.242  -1.308   2.761  1.00  0.00     0.023 C 
BRANCH  31  32
ATOM     32  C   UNL     1      -5.427  -2.159   3.730  1.00  0.00     0.116 C 
BRANCH  32  33
ATOM     33  N   UNL     1      -3.985  -1.960   3.665  1.00  0.00    -0.352 N 
ATOM     34  C   UNL     1      -3.073  -2.069   4.696  1.00  0.00     0.251 C 
ATOM     35  H   UNL     1      -3.619  -1.720   2.783  1.00  0.00     0.163 HD
ATOM     36  O   UNL     1      -1.886  -1.843   4.512  1.00  0.00    -0.269 OA
BRANCH  34  37
ATOM     37  C   UNL     1      -3.575  -2.403   6.047  1.00  0.00     0.039 A 
ATOM     38  C   UNL     1      -3.306  -1.528   7.101  1.00  0.00     0.014 A 
ATOM     39  C   UNL     1      -4.417  -3.502   6.232  1.00  0.00     0.014 A 
ATOM     40  C   UNL     1      -3.974  -1.694   8.316  1.00  0.00     0.010 A 
ATOM     41  C   UNL     1      -5.142  -3.615   7.413  1.00  0.00     0.010 A 
ATOM     42  C   UNL     1      -4.944  -2.700   8.459  1.00  0.00    -0.014 A 
BRANCH  42  43
ATOM     43  C   UNL     1      -5.785  -2.800   9.679  1.00  0.00     0.031 A 
ATOM     44  C   UNL     1      -5.727  -4.033  10.536  1.00  0.00     0.074 A 
ATOM     45  C   UNL     1      -6.663  -1.819   9.970  1.00  0.00     0.049 A 
ATOM     46  N   UNL     1      -6.454  -4.353  11.575  1.00  0.00    -0.248 NA
ATOM     47  C   UNL     1      -4.743  -5.057  10.152  1.00  0.00     0.031 C 
ATOM     48  C   UNL     1      -6.857  -0.596   9.188  1.00  0.00     0.029 A 
ATOM     49  N   UNL     1      -7.563  -1.698  11.000  1.00  0.00    -0.354 N 
ATOM     50  C   UNL     1      -6.029  -5.618  11.955  1.00  0.00     0.074 A 
ATOM     51  C   UNL     1      -5.021  -6.032  11.004  1.00  0.00     0.031 C 
ATOM     52  C   UNL     1      -7.785   0.167   9.787  1.00  0.00     0.029 A 
ATOM     53  C   UNL     1      -8.280  -0.526  10.973  1.00  0.00     0.049 A 
ATOM     54  H   UNL     1      -7.684  -2.386  11.694  1.00  0.00     0.167 HD
ATOM     55  C   UNL     1      -6.423  -6.357  13.019  1.00  0.00     0.037 A 
ATOM     56  C   UNL     1      -9.227  -0.062  11.810  1.00  0.00     0.037 A 
ATOM     57  C   UNL     1      -7.394  -5.928  13.989  1.00  0.00     0.049 A 
ATOM     58  C   UNL     1      -9.636  -0.894  12.995  1.00  0.00     0.074 A 
ATOM     59  C   UNL     1      -7.821  -6.585  15.129  1.00  0.00     0.029 A 
ATOM     60  N   UNL     1      -8.081  -4.724  13.938  1.00  0.00    -0.354 N 
ATOM     61  N   UNL     1      -9.198  -2.072  13.365  1.00  0.00    -0.248 NA
ATOM     62  C   UNL     1     -10.669  -0.332  13.878  1.00  0.00     0.031 C 
ATOM     63  C   UNL     1      -8.787  -5.790  15.755  1.00  0.00     0.029 A 
ATOM     64  C   UNL     1      -8.934  -4.622  15.024  1.00  0.00     0.049 A 
ATOM     65  H   UNL     1      -7.977  -4.043  13.234  1.00  0.00     0.167 HD
ATOM     66  C   UNL     1      -9.882  -2.383  14.532  1.00  0.00     0.074 A 
ATOM     67  C   UNL     1     -10.758  -1.266  14.816  1.00  0.00     0.031 C 
ATOM     68  C   UNL     1      -9.790  -3.497  15.298  1.00  0.00     0.037 A 
BRANCH  55  69
ATOM     69  C   UNL     1      -5.783  -7.700  13.204  1.00  0.00     0.064 A 
ATOM     70  C   UNL     1      -6.522  -8.877  13.018  1.00  0.00     0.173 A 
ATOM     71  C   UNL     1      -4.445  -7.820  13.610  1.00  0.00     0.173 A 
ATOM     72  F   UNL     1      -7.806  -8.816  12.634  1.00  0.00    -0.203 F 
ATOM     73  C   UNL     1      -5.945 -10.126  13.235  1.00  0.00     0.198 A 
ATOM     74  C   UNL     1      -3.864  -9.070  13.799  1.00  0.00     0.198 A 
ATOM     75  F   UNL     1      -3.693  -6.723  13.788  1.00  0.00    -0.203 F 
ATOM     76  F   UNL     1      -6.675 -11.237  13.072  1.00  0.00    -0.200 F 
ATOM     77  C   UNL     1      -4.616 -10.221  13.619  1.00  0.00     0.200 A 
ATOM     78  F   UNL     1      -2.572  -9.161  14.144  1.00  0.00    -0.200 F 
ATOM     79  F   UNL     1      -4.057 -11.424  13.811  1.00  0.00    -0.200 F 
ENDBRANCH  55  69
BRANCH  56  80
ATOM     80  C   UNL     1      -9.815   1.284  11.585  1.00  0.00     0.064 A 
ATOM     81  C   UNL     1     -10.699   1.533  10.526  1.00  0.00     0.173 A 
ATOM     82  C   UNL     1      -9.476   2.357  12.421  1.00  0.00     0.173 A 
ATOM     83  F   UNL     1     -11.050   0.540   9.696  1.00  0.00    -0.203 F 
ATOM     84  C   UNL     1     -11.211   2.810  10.304  1.00  0.00     0.198 A 
ATOM     85  C   UNL     1     -10.006   3.628  12.211  1.00  0.00     0.198 A 
ATOM     86  F   UNL     1      -8.649   2.161  13.458  1.00  0.00    -0.203 F 
ATOM     87  F   UNL     1     -12.034   3.029   9.269  1.00  0.00    -0.200 F 
ATOM     88  C   UNL     1     -10.867   3.855  11.148  1.00  0.00     0.200 A 
ATOM     89  F   UNL     1      -9.687   4.630  13.041  1.00  0.00    -0.200 F 
ATOM     90  F   UNL     1     -11.368   5.080  10.940  1.00  0.00    -0.200 F 
ENDBRANCH  56  80
BRANCH  68  91
ATOM     91  C   UNL     1     -10.637  -3.563  16.533  1.00  0.00     0.064 A 
ATOM     92  C   UNL     1     -10.049  -3.454  17.802  1.00  0.00     0.173 A 
ATOM     93  C   UNL     1     -12.013  -3.819  16.463  1.00  0.00     0.173 A 
ATOM     94  F   UNL     1      -8.733  -3.217  17.919  1.00  0.00    -0.203 F 
ATOM     95  C   UNL     1     -10.807  -3.616  18.958  1.00  0.00     0.198 A 
ATOM     96  C   UNL     1     -12.773  -3.957  17.621  1.00  0.00     0.198 A 
ATOM     97  F   UNL     1     -12.621  -3.918  15.271  1.00  0.00    -0.203 F 
ATOM     98  F   UNL     1     -10.219  -3.541  20.160  1.00  0.00    -0.200 F 
ATOM     99  C   UNL     1     -12.168  -3.865  18.866  1.00  0.00     0.200 A 
ATOM    100  F   UNL     1     -14.092  -4.178  17.532  1.00  0.00    -0.200 F 
ATOM    101  F   UNL     1     -12.898  -4.017  19.980  1.00  0.00    -0.200 F 
ENDBRANCH  68  91
ENDBRANCH  42  43
ENDBRANCH  34  37
ENDBRANCH  32  33
ENDBRANCH  31  32
ENDBRANCH  30  31
ENDBRANCH   1  30
TORSDOF 15
