REMARK SMILES CC[C@](C)(NC(=O)NC[C@@H](C)[NH+](C)C)C(=O)NCCCCNC(=O)c1ccc(-c2c3nc(c(-c4c(F)c(F)c(F)c(F)c4F)c4ccc([nH]4)c(-c4c(F)c(F)c(F)c(F)c4F)c4nc(c(-c5c(F)c(F)c(F)c(F)c5F)c5ccc2[nH]5)C=C4)C=C3)cc1
REMARK SMILES IDX 18 1 17 2 15 3 16 4 3 6 4 7 2 8 1 9 5 10 6 11 7 13 8 14 9 16
REMARK SMILES IDX 10 17 11 18 12 19 13 20 14 21 19 23 20 24 21 25 22 26 23 27
REMARK SMILES IDX 24 29 25 30 26 31 87 32 27 33 86 34 28 35 29 36 30 37 80 38
REMARK SMILES IDX 31 39 85 40 79 41 81 42 32 43 84 44 78 45 77 46 33 48 65 49
REMARK SMILES IDX 45 50 64 51 46 52 49 53 63 54 82 55 47 56 48 57 62 59 83 60
REMARK SMILES IDX 50 61 34 62 35 63 43 64 36 65 37 66 41 67 44 68 38 69 39 70
REMARK SMILES IDX 42 71 40 72 66 73 67 74 75 75 68 76 69 77 73 78 76 79 70 80
REMARK SMILES IDX 71 81 74 82 72 83 51 84 52 85 60 86 53 87 54 88 58 89 61 90
REMARK SMILES IDX 55 91 56 92 59 93 57 94
REMARK H PARENT 17 5 5 12 8 15 12 22 22 28 81 47 49 58
REMARK Flexibility Score: inf
ROOT
ATOM      1  C   UNL     1       1.640   3.252   4.250  1.00  0.00     0.116 C 
ENDROOT
BRANCH   1   2
ATOM      2  N   UNL     1       2.308   2.663   3.098  1.00  0.00    -0.354 N 
ATOM      3  C   UNL     1       1.908   1.740   2.162  1.00  0.00     0.245 C 
ATOM      4  O   UNL     1       2.392   1.862   1.030  1.00  0.00    -0.272 OA
ATOM      5  H   UNL     1       3.227   2.990   2.963  1.00  0.00     0.163 HD
BRANCH   3   6
ATOM      6  C   UNL     1       0.799   0.689   2.433  1.00  0.00     0.117 C 
ATOM      7  C   UNL     1       0.829  -0.527   1.483  1.00  0.00     0.045 C 
BRANCH   6   8
ATOM      8  C   UNL     1      -0.567   1.428   2.217  1.00  0.00     0.035 C 
ATOM      9  C   UNL     1      -0.986   1.622   0.758  1.00  0.00     0.007 C 
ENDBRANCH   6   8
BRANCH   6  10
ATOM     10  N   UNL     1       0.897   0.202   3.820  1.00  0.00    -0.324 N 
ATOM     11  C   UNL     1       1.806  -0.481   4.523  1.00  0.00     0.315 C 
ATOM     12  H   UNL     1       0.105   0.434   4.357  1.00  0.00     0.166 HD
ATOM     13  O   UNL     1       1.446  -0.902   5.628  1.00  0.00    -0.249 OA
ATOM     14  N   UNL     1       3.073  -0.719   4.176  1.00  0.00    -0.332 N 
ATOM     15  H   UNL     1       3.548  -1.210   4.884  1.00  0.00     0.165 HD
BRANCH  14  16
ATOM     16  C   UNL     1       3.956  -0.455   3.037  1.00  0.00     0.182 C 
BRANCH  16  17
ATOM     17  C   UNL     1       4.962   0.714   3.259  1.00  0.00     0.200 C 
ATOM     18  C   UNL     1       6.129   0.289   4.159  1.00  0.00     0.077 C 
BRANCH  17  19
ATOM     19  N   UNL     1       5.375   1.342   1.989  1.00  0.00    -0.336 N 
ATOM     20  C   UNL     1       6.049   2.625   2.146  1.00  0.00     0.332 C 
ATOM     21  C   UNL     1       6.098   0.474   1.069  1.00  0.00     0.332 C 
ATOM     22  H   UNL     1       4.477   1.528   1.543  1.00  0.00     0.347 HD
ENDBRANCH  17  19
ENDBRANCH  16  17
ENDBRANCH  14  16
ENDBRANCH   6  10
ENDBRANCH   3   6
ENDBRANCH   1   2
BRANCH   1  23
ATOM     23  C   UNL     1       1.953   2.743   5.661  1.00  0.00     0.023 C 
BRANCH  23  24
ATOM     24  C   UNL     1       3.404   2.640   6.131  1.00  0.00     0.023 C 
BRANCH  24  25
ATOM     25  C   UNL     1       4.308   3.822   5.808  1.00  0.00     0.116 C 
BRANCH  25  26
ATOM     26  N   UNL     1       3.926   5.016   6.541  1.00  0.00    -0.352 N 
ATOM     27  C   UNL     1       4.694   5.867   7.290  1.00  0.00     0.251 C 
ATOM     28  H   UNL     1       2.970   5.248   6.493  1.00  0.00     0.163 HD
ATOM     29  O   UNL     1       4.142   6.722   7.989  1.00  0.00    -0.269 OA
BRANCH  27  30
ATOM     30  C   UNL     1       6.173   5.782   7.289  1.00  0.00     0.039 A 
ATOM     31  C   UNL     1       6.853   5.971   8.498  1.00  0.00     0.014 A 
ATOM     32  C   UNL     1       6.899   5.596   6.109  1.00  0.00     0.014 A 
ATOM     33  C   UNL     1       8.250   5.942   8.531  1.00  0.00     0.010 A 
ATOM     34  C   UNL     1       8.294   5.518   6.150  1.00  0.00     0.010 A 
ATOM     35  C   UNL     1       8.984   5.702   7.359  1.00  0.00    -0.014 A 
BRANCH  35  36
ATOM     36  C   UNL     1      10.470   5.663   7.383  1.00  0.00     0.031 A 
ATOM     37  C   UNL     1      11.270   6.735   6.696  1.00  0.00     0.074 A 
ATOM     38  C   UNL     1      11.104   4.641   7.991  1.00  0.00     0.049 A 
ATOM     39  N   UNL     1      12.569   6.847   6.567  1.00  0.00    -0.248 NA
ATOM     40  C   UNL     1      10.509   7.815   6.050  1.00  0.00     0.031 C 
ATOM     41  C   UNL     1      10.446   3.525   8.670  1.00  0.00     0.029 A 
ATOM     42  N   UNL     1      12.443   4.373   8.129  1.00  0.00    -0.354 N 
ATOM     43  C   UNL     1      12.779   7.995   5.815  1.00  0.00     0.074 A 
ATOM     44  C   UNL     1      11.474   8.525   5.482  1.00  0.00     0.031 C 
ATOM     45  C   UNL     1      11.383   2.700   9.166  1.00  0.00     0.029 A 
ATOM     46  C   UNL     1      12.705   3.212   8.814  1.00  0.00     0.049 A 
ATOM     47  H   UNL     1      13.150   4.958   7.771  1.00  0.00     0.167 HD
ATOM     48  C   UNL     1      13.953   8.567   5.452  1.00  0.00     0.037 A 
ATOM     49  C   UNL     1      13.877   2.623   9.119  1.00  0.00     0.037 A 
ATOM     50  C   UNL     1      15.252   8.060   5.810  1.00  0.00     0.049 A 
ATOM     51  C   UNL     1      15.166   3.276   8.698  1.00  0.00     0.074 A 
ATOM     52  C   UNL     1      16.495   8.607   5.543  1.00  0.00     0.029 A 
ATOM     53  N   UNL     1      15.475   6.885   6.511  1.00  0.00    -0.354 N 
ATOM     54  N   UNL     1      15.351   4.395   8.042  1.00  0.00    -0.248 NA
ATOM     55  C   UNL     1      16.410   2.585   9.066  1.00  0.00     0.031 C 
ATOM     56  C   UNL     1      17.473   7.742   6.048  1.00  0.00     0.029 A 
ATOM     57  C   UNL     1      16.837   6.678   6.667  1.00  0.00     0.049 A 
ATOM     58  H   UNL     1      14.770   6.286   6.849  1.00  0.00     0.167 HD
ATOM     59  C   UNL     1      16.726   4.557   7.943  1.00  0.00     0.074 A 
ATOM     60  C   UNL     1      17.330   3.427   8.617  1.00  0.00     0.031 C 
ATOM     61  C   UNL     1      17.425   5.554   7.348  1.00  0.00     0.037 A 
BRANCH  48  62
ATOM     62  C   UNL     1      13.890   9.814   4.619  1.00  0.00     0.064 A 
ATOM     63  C   UNL     1      13.474  11.040   5.159  1.00  0.00     0.173 A 
ATOM     64  C   UNL     1      14.297   9.793   3.276  1.00  0.00     0.173 A 
ATOM     65  F   UNL     1      13.067  11.111   6.435  1.00  0.00    -0.203 F 
ATOM     66  C   UNL     1      13.443  12.193   4.379  1.00  0.00     0.198 A 
ATOM     67  C   UNL     1      14.290  10.953   2.506  1.00  0.00     0.198 A 
ATOM     68  F   UNL     1      14.711   8.648   2.712  1.00  0.00    -0.203 F 
ATOM     69  F   UNL     1      13.001  13.344   4.905  1.00  0.00    -0.200 F 
ATOM     70  C   UNL     1      13.857  12.150   3.056  1.00  0.00     0.200 A 
ATOM     71  F   UNL     1      14.703  10.914   1.232  1.00  0.00    -0.200 F 
ATOM     72  F   UNL     1      13.833  13.263   2.309  1.00  0.00    -0.200 F 
ENDBRANCH  48  62
BRANCH  49  73
ATOM     73  C   UNL     1      13.889   1.352   9.888  1.00  0.00     0.064 A 
ATOM     74  C   UNL     1      14.338   1.320  11.215  1.00  0.00     0.173 A 
ATOM     75  C   UNL     1      13.463   0.147   9.312  1.00  0.00     0.173 A 
ATOM     76  F   UNL     1      14.778   2.444  11.800  1.00  0.00    -0.203 F 
ATOM     77  C   UNL     1      14.376   0.127  11.933  1.00  0.00     0.198 A 
ATOM     78  C   UNL     1      13.477  -1.041  10.040  1.00  0.00     0.198 A 
ATOM     79  F   UNL     1      13.023   0.126   8.046  1.00  0.00    -0.203 F 
ATOM     80  F   UNL     1      14.851   0.117  13.186  1.00  0.00    -0.200 F 
ATOM     81  C   UNL     1      13.940  -1.052  11.347  1.00  0.00     0.200 A 
ATOM     82  F   UNL     1      13.044  -2.176   9.474  1.00  0.00    -0.200 F 
ATOM     83  F   UNL     1      13.975  -2.199  12.039  1.00  0.00    -0.200 F 
ENDBRANCH  49  73
BRANCH  61  84
ATOM     84  C   UNL     1      18.922   5.487   7.426  1.00  0.00     0.064 A 
ATOM     85  C   UNL     1      19.657   4.564   6.669  1.00  0.00     0.173 A 
ATOM     86  C   UNL     1      19.631   6.384   8.240  1.00  0.00     0.173 A 
ATOM     87  F   UNL     1      19.024   3.675   5.888  1.00  0.00    -0.203 F 
ATOM     88  C   UNL     1      21.047   4.526   6.741  1.00  0.00     0.198 A 
ATOM     89  C   UNL     1      21.022   6.361   8.289  1.00  0.00     0.198 A 
ATOM     90  F   UNL     1      18.974   7.290   8.980  1.00  0.00    -0.203 F 
ATOM     91  F   UNL     1      21.727   3.607   6.042  1.00  0.00    -0.200 F 
ATOM     92  C   UNL     1      21.728   5.428   7.545  1.00  0.00     0.200 A 
ATOM     93  F   UNL     1      21.679   7.240   9.057  1.00  0.00    -0.200 F 
ATOM     94  F   UNL     1      23.067   5.394   7.607  1.00  0.00    -0.200 F 
ENDBRANCH  61  84
ENDBRANCH  35  36
ENDBRANCH  27  30
ENDBRANCH  25  26
ENDBRANCH  24  25
ENDBRANCH  23  24
ENDBRANCH   1  23
TORSDOF 16
