REMARK SMILES C[C@@H](C(=O)NCCCCNC(=O)c1ccc(-c2c3nc(c(-c4c(F)c(F)c(F)c(F)c4F)c4ccc([nH]4)c(-c4c(F)c(F)c(F)c(F)c4F)c4nc(c(-c5c(F)c(F)c(F)c(F)c5F)c5ccc2[nH]5)C=C4)C=C3)cc1)c1ccc(C[C@H]2CCCC2=O)c(-c2ccc(F)cc2)c1
REMARK SMILES IDX 7 1 6 2 5 3 3 4 4 5 2 7 1 8 76 9 77 10 95 11 78 12 87 13
REMARK SMILES IDX 79 14 88 15 89 16 94 17 90 18 93 19 91 20 92 21 80 22 81 23
REMARK SMILES IDX 82 24 85 25 83 26 84 27 86 28 8 29 9 30 10 31 11 32 12 34
REMARK SMILES IDX 13 35 14 36 75 37 15 38 74 39 16 40 17 41 18 42 68 43 19 44
REMARK SMILES IDX 73 45 67 46 69 47 20 48 72 49 66 50 65 51 21 53 53 54 33 55
REMARK SMILES IDX 52 56 34 57 37 58 51 59 70 60 35 61 36 62 50 64 71 65 38 66
REMARK SMILES IDX 22 67 23 68 31 69 24 70 25 71 29 72 32 73 26 74 27 75 30 76
REMARK SMILES IDX 28 77 54 78 55 79 63 80 56 81 57 82 61 83 64 84 58 85 59 86
REMARK SMILES IDX 62 87 60 88 39 89 40 90 48 91 41 92 42 93 46 94 49 95 43 96
REMARK SMILES IDX 44 97 47 98 45 99
REMARK H PARENT 5 6 10 33 69 52 37 63
REMARK Flexibility Score: inf
ROOT
ATOM      1  C   UNL     1       4.323  -0.986  -0.826  1.00  0.00     0.023 C 
ENDROOT
BRANCH   1   2
ATOM      2  C   UNL     1       3.520  -0.192  -1.859  1.00  0.00     0.116 C 
BRANCH   2   3
ATOM      3  N   UNL     1       2.508  -1.014  -2.488  1.00  0.00    -0.356 N 
ATOM      4  C   UNL     1       1.154  -1.047  -2.316  1.00  0.00     0.227 C 
ATOM      5  O   UNL     1       0.548  -1.897  -2.969  1.00  0.00    -0.274 OA
ATOM      6  H   UNL     1       2.853  -1.656  -3.151  1.00  0.00     0.163 HD
BRANCH   4   7
ATOM      7  C   UNL     1       0.468  -0.038  -1.377  1.00  0.00     0.105 C 
ATOM      8  C   UNL     1       0.813  -0.274   0.097  1.00  0.00     0.023 C 
BRANCH   7   9
ATOM      9  C   UNL     1      -1.054  -0.018  -1.496  1.00  0.00    -0.035 A 
ATOM     10  C   UNL     1      -1.730   1.185  -1.698  1.00  0.00     0.005 A 
ATOM     11  C   UNL     1      -1.815  -1.185  -1.313  1.00  0.00     0.013 A 
ATOM     12  C   UNL     1      -3.124   1.220  -1.672  1.00  0.00     0.004 A 
ATOM     13  C   UNL     1      -3.225  -1.180  -1.283  1.00  0.00    -0.015 A 
ATOM     14  C   UNL     1      -3.888   0.061  -1.424  1.00  0.00    -0.039 A 
BRANCH  13  15
ATOM     15  C   UNL     1      -3.913  -2.474  -1.101  1.00  0.00    -0.018 A 
ATOM     16  C   UNL     1      -4.798  -2.973  -2.074  1.00  0.00     0.012 A 
ATOM     17  C   UNL     1      -3.657  -3.271   0.032  1.00  0.00     0.012 A 
ATOM     18  C   UNL     1      -5.439  -4.202  -1.900  1.00  0.00     0.040 A 
ATOM     19  C   UNL     1      -4.284  -4.507   0.199  1.00  0.00     0.040 A 
ATOM     20  C   UNL     1      -5.177  -4.957  -0.765  1.00  0.00     0.123 A 
ATOM     21  F   UNL     1      -5.788  -6.137  -0.599  1.00  0.00    -0.207 F 
ENDBRANCH  13  15
BRANCH  14  22
ATOM     22  C   UNL     1      -5.389   0.230  -1.274  1.00  0.00     0.047 C 
BRANCH  22  23
ATOM     23  C   UNL     1      -5.891   0.793   0.064  1.00  0.00     0.060 C 
ATOM     24  C   UNL     1      -5.427   0.078   1.336  1.00  0.00     0.012 C 
ATOM     25  C   UNL     1      -5.428   2.210   0.314  1.00  0.00     0.136 C 
ATOM     26  C   UNL     1      -4.246   0.880   1.868  1.00  0.00     0.009 C 
ATOM     27  C   UNL     1      -4.572   2.332   1.546  1.00  0.00     0.076 C 
ATOM     28  O   UNL     1      -5.734   3.163  -0.394  1.00  0.00    -0.299 OA
ENDBRANCH  22  23
ENDBRANCH  14  22
ENDBRANCH   7   9
ENDBRANCH   4   7
ENDBRANCH   2   3
ENDBRANCH   1   2
BRANCH   1  29
ATOM     29  C   UNL     1       5.102  -2.178  -1.390  1.00  0.00     0.023 C 
BRANCH  29  30
ATOM     30  C   UNL     1       6.052  -1.856  -2.538  1.00  0.00     0.116 C 
BRANCH  30  31
ATOM     31  N   UNL     1       7.054  -0.862  -2.183  1.00  0.00    -0.352 N 
ATOM     32  C   UNL     1       8.413  -0.887  -2.381  1.00  0.00     0.251 C 
ATOM     33  H   UNL     1       6.707  -0.055  -1.738  1.00  0.00     0.163 HD
ATOM     34  O   UNL     1       9.124  -0.010  -1.901  1.00  0.00    -0.269 OA
BRANCH  32  35
ATOM     35  C   UNL     1       9.023  -2.000  -3.137  1.00  0.00     0.039 A 
ATOM     36  C   UNL     1      10.113  -2.673  -2.579  1.00  0.00     0.014 A 
ATOM     37  C   UNL     1       8.499  -2.403  -4.369  1.00  0.00     0.014 A 
ATOM     38  C   UNL     1      10.617  -3.812  -3.209  1.00  0.00     0.010 A 
ATOM     39  C   UNL     1       8.964  -3.573  -4.965  1.00  0.00     0.010 A 
ATOM     40  C   UNL     1      10.011  -4.301  -4.378  1.00  0.00    -0.014 A 
BRANCH  40  41
ATOM     41  C   UNL     1      10.407  -5.609  -4.959  1.00  0.00     0.031 A 
ATOM     42  C   UNL     1      11.026  -5.682  -6.324  1.00  0.00     0.074 A 
ATOM     43  C   UNL     1      10.115  -6.740  -4.286  1.00  0.00     0.049 A 
ATOM     44  N   UNL     1      11.338  -6.737  -7.034  1.00  0.00    -0.248 NA
ATOM     45  C   UNL     1      11.315  -4.403  -6.992  1.00  0.00     0.031 C 
ATOM     46  C   UNL     1       9.466  -6.800  -2.974  1.00  0.00     0.029 A 
ATOM     47  N   UNL     1      10.303  -8.059  -4.621  1.00  0.00    -0.354 N 
ATOM     48  C   UNL     1      11.844  -6.252  -8.232  1.00  0.00     0.074 A 
ATOM     49  C   UNL     1      11.766  -4.808  -8.171  1.00  0.00     0.031 C 
ATOM     50  C   UNL     1       9.313  -8.084  -2.616  1.00  0.00     0.029 A 
ATOM     51  C   UNL     1       9.812  -8.939  -3.687  1.00  0.00     0.049 A 
ATOM     52  H   UNL     1      10.746  -8.345  -5.452  1.00  0.00     0.167 HD
ATOM     53  C   UNL     1      12.340  -6.952  -9.279  1.00  0.00     0.037 A 
ATOM     54  C   UNL     1       9.749 -10.285  -3.703  1.00  0.00     0.037 A 
ATOM     55  C   UNL     1      12.444  -8.387  -9.322  1.00  0.00     0.049 A 
ATOM     56  C   UNL     1      10.295 -11.031  -4.889  1.00  0.00     0.074 A 
ATOM     57  C   UNL     1      13.023  -9.179 -10.299  1.00  0.00     0.029 A 
ATOM     58  N   UNL     1      11.949  -9.245  -8.353  1.00  0.00    -0.354 N 
ATOM     59  N   UNL     1      10.857 -10.560  -5.976  1.00  0.00    -0.248 NA
ATOM     60  C   UNL     1      10.197 -12.498  -4.853  1.00  0.00     0.031 C 
ATOM     61  C   UNL     1      12.832 -10.518  -9.947  1.00  0.00     0.029 A 
ATOM     62  C   UNL     1      12.175 -10.560  -8.728  1.00  0.00     0.049 A 
ATOM     63  H   UNL     1      11.503  -8.963  -7.522  1.00  0.00     0.167 HD
ATOM     64  C   UNL     1      11.192 -11.668  -6.742  1.00  0.00     0.074 A 
ATOM     65  C   UNL     1      10.795 -12.837  -5.986  1.00  0.00     0.031 C 
ATOM     66  C   UNL     1      11.772 -11.713  -7.966  1.00  0.00     0.037 A 
BRANCH  53  67
ATOM     67  C   UNL     1      12.822  -6.185 -10.475  1.00  0.00     0.064 A 
ATOM     68  C   UNL     1      14.020  -5.456 -10.445  1.00  0.00     0.173 A 
ATOM     69  C   UNL     1      12.124  -6.255 -11.690  1.00  0.00     0.173 A 
ATOM     70  F   UNL     1      14.719  -5.353  -9.306  1.00  0.00    -0.203 F 
ATOM     71  C   UNL     1      14.496  -4.817 -11.587  1.00  0.00     0.198 A 
ATOM     72  C   UNL     1      12.616  -5.636 -12.835  1.00  0.00     0.198 A 
ATOM     73  F   UNL     1      10.976  -6.945 -11.771  1.00  0.00    -0.203 F 
ATOM     74  F   UNL     1      15.630  -4.106 -11.531  1.00  0.00    -0.200 F 
ATOM     75  C   UNL     1      13.800  -4.916 -12.783  1.00  0.00     0.200 A 
ATOM     76  F   UNL     1      11.949  -5.744 -13.993  1.00  0.00    -0.200 F 
ATOM     77  F   UNL     1      14.271  -4.317 -13.885  1.00  0.00    -0.200 F 
ENDBRANCH  53  67
BRANCH  54  78
ATOM     78  C   UNL     1       9.131 -11.019  -2.567  1.00  0.00     0.064 A 
ATOM     79  C   UNL     1       9.904 -11.831  -1.726  1.00  0.00     0.173 A 
ATOM     80  C   UNL     1       7.752 -10.950  -2.320  1.00  0.00     0.173 A 
ATOM     81  F   UNL     1      11.224 -11.947  -1.937  1.00  0.00    -0.203 F 
ATOM     82  C   UNL     1       9.318 -12.570  -0.700  1.00  0.00     0.198 A 
ATOM     83  C   UNL     1       7.171 -11.665  -1.274  1.00  0.00     0.198 A 
ATOM     84  F   UNL     1       6.968 -10.185  -3.093  1.00  0.00    -0.203 F 
ATOM     85  F   UNL     1      10.072 -13.383   0.052  1.00  0.00    -0.200 F 
ATOM     86  C   UNL     1       7.953 -12.483  -0.472  1.00  0.00     0.200 A 
ATOM     87  F   UNL     1       5.854 -11.567  -1.049  1.00  0.00    -0.200 F 
ATOM     88  F   UNL     1       7.389 -13.196   0.512  1.00  0.00    -0.200 F 
ENDBRANCH  54  78
BRANCH  66  89
ATOM     89  C   UNL     1      12.020 -13.068  -8.559  1.00  0.00     0.064 A 
ATOM     90  C   UNL     1      10.967 -13.857  -9.046  1.00  0.00     0.173 A 
ATOM     91  C   UNL     1      13.326 -13.567  -8.680  1.00  0.00     0.173 A 
ATOM     92  F   UNL     1       9.699 -13.431  -8.937  1.00  0.00    -0.203 F 
ATOM     93  C   UNL     1      11.211 -15.104  -9.613  1.00  0.00     0.198 A 
ATOM     94  C   UNL     1      13.569 -14.801  -9.274  1.00  0.00     0.198 A 
ATOM     95  F   UNL     1      14.368 -12.849  -8.234  1.00  0.00    -0.203 F 
ATOM     96  F   UNL     1      10.186 -15.860 -10.031  1.00  0.00    -0.200 F 
ATOM     97  C   UNL     1      12.511 -15.572  -9.735  1.00  0.00     0.200 A 
ATOM     98  F   UNL     1      14.826 -15.246  -9.403  1.00  0.00    -0.200 F 
ATOM     99  F   UNL     1      12.745 -16.769 -10.289  1.00  0.00    -0.200 F 
ENDBRANCH  66  89
ENDBRANCH  40  41
ENDBRANCH  32  35
ENDBRANCH  30  31
ENDBRANCH  29  30
ENDBRANCH   1  29
TORSDOF 15
