REMARK SMILES C[C@@H]1CC[C@H]([N@@H+]2[C@@H](C(=O)NCCCCNC(=O)c3ccc(-c4c5nc(c(-c6c(F)c(F)c(F)c(F)c6F)c6ccc([nH]6)c(-c6c(F)c(F)c(F)c(F)c6F)c6nc(c(-c7c(F)c(F)c(F)c(F)c7F)c7ccc4[nH]7)C=C6)C=C5)cc3)C[C@H]3CCCC[C@H]32)C1
REMARK SMILES IDX 13 1 12 2 11 3 10 4 8 5 9 6 7 8 6 9 87 10 81 12 82 13 86 14
REMARK SMILES IDX 83 15 85 16 84 17 5 18 1 19 2 20 3 21 88 22 4 23 14 24 15 25
REMARK SMILES IDX 16 26 17 28 18 29 19 30 80 31 20 32 79 33 21 34 22 35 23 36
REMARK SMILES IDX 73 37 24 38 78 39 72 40 74 41 25 42 77 43 71 44 70 45 26 47
REMARK SMILES IDX 58 48 38 49 57 50 39 51 42 52 56 53 75 54 40 55 41 56 55 58
REMARK SMILES IDX 76 59 43 60 27 61 28 62 36 63 29 64 30 65 34 66 37 67 31 68
REMARK SMILES IDX 32 69 35 70 33 71 59 72 60 73 68 74 61 75 62 76 66 77 69 78
REMARK SMILES IDX 63 79 64 80 67 81 65 82 44 83 45 84 53 85 46 86 47 87 51 88
REMARK SMILES IDX 54 89 48 90 49 91 52 92 50 93
REMARK H PARENT 10 7 6 11 15 27 74 46 42 57
REMARK Flexibility Score: inf
ROOT
ATOM      1  C   UNL     1      -6.328   1.254  -5.930  1.00  0.00     0.023 C 
ENDROOT
BRANCH   1   2
ATOM      2  C   UNL     1      -5.576   0.207  -5.116  1.00  0.00     0.023 C 
BRANCH   2   3
ATOM      3  C   UNL     1      -4.077   0.432  -4.974  1.00  0.00     0.116 C 
BRANCH   3   4
ATOM      4  N   UNL     1      -3.738   1.662  -4.290  1.00  0.00    -0.351 N 
ATOM      5  C   UNL     1      -2.787   1.887  -3.329  1.00  0.00     0.278 C 
ATOM      6  O   UNL     1      -2.673   3.051  -2.937  1.00  0.00    -0.268 OA
ATOM      7  H   UNL     1      -4.267   2.450  -4.552  1.00  0.00     0.163 HD
BRANCH   5   8
ATOM      8  C   UNL     1      -1.988   0.692  -2.736  1.00  0.00     0.275 C 
ATOM      9  N   UNL     1      -0.871   1.189  -1.877  1.00  0.00    -0.320 N 
ATOM     10  C   UNL     1       0.382   0.947  -2.603  1.00  0.00     0.188 C 
ATOM     11  H   UNL     1      -0.920   2.196  -1.728  1.00  0.00     0.349 HD
ATOM     12  C   UNL     1      -1.312  -0.200  -3.793  1.00  0.00     0.085 C 
ATOM     13  C   UNL     1       0.129  -0.360  -3.334  1.00  0.00     0.054 C 
ATOM     14  C   UNL     1       0.694   2.111  -3.565  1.00  0.00     0.065 C 
ATOM     15  C   UNL     1       1.119  -0.684  -4.448  1.00  0.00     0.010 C 
ATOM     16  C   UNL     1       1.805   1.737  -4.543  1.00  0.00     0.006 C 
ATOM     17  C   UNL     1       1.428   0.501  -5.354  1.00  0.00     0.001 C 
BRANCH   9  18
ATOM     18  C   UNL     1      -0.969   0.752  -0.473  1.00  0.00     0.185 C 
ATOM     19  C   UNL     1       2.124  -0.525   0.015  1.00  0.00     0.008 C 
ATOM     20  C   UNL     1       0.911  -0.153   0.863  1.00  0.00    -0.008 C 
ATOM     21  C   UNL     1      -0.177  -1.220   0.813  1.00  0.00     0.009 C 
ATOM     22  C   UNL     1       0.205   1.140   0.445  1.00  0.00     0.068 C 
ATOM     23  C   UNL     1      -1.228  -0.740  -0.184  1.00  0.00     0.065 C 
ENDBRANCH   9  18
ENDBRANCH   5   8
ENDBRANCH   3   4
ENDBRANCH   2   3
ENDBRANCH   1   2
BRANCH   1  24
ATOM     24  C   UNL     1      -5.749   1.560  -7.305  1.00  0.00     0.116 C 
BRANCH  24  25
ATOM     25  N   UNL     1      -5.643   0.391  -8.161  1.00  0.00    -0.352 N 
ATOM     26  C   UNL     1      -6.120   0.194  -9.441  1.00  0.00     0.251 C 
ATOM     27  H   UNL     1      -5.160  -0.372  -7.771  1.00  0.00     0.163 HD
ATOM     28  O   UNL     1      -6.030  -0.904  -9.970  1.00  0.00    -0.269 OA
BRANCH  26  29
ATOM     29  C   UNL     1      -6.774   1.311 -10.155  1.00  0.00     0.039 A 
ATOM     30  C   UNL     1      -7.987   1.077 -10.806  1.00  0.00     0.014 A 
ATOM     31  C   UNL     1      -6.204   2.586 -10.165  1.00  0.00     0.014 A 
ATOM     32  C   UNL     1      -8.668   2.141 -11.403  1.00  0.00     0.010 A 
ATOM     33  C   UNL     1      -6.923   3.658 -10.681  1.00  0.00     0.010 A 
ATOM     34  C   UNL     1      -8.158   3.446 -11.313  1.00  0.00    -0.014 A 
BRANCH  34  35
ATOM     35  C   UNL     1      -8.885   4.603 -11.895  1.00  0.00     0.031 A 
ATOM     36  C   UNL     1      -8.254   5.399 -13.004  1.00  0.00     0.074 A 
ATOM     37  C   UNL     1     -10.073   4.979 -11.383  1.00  0.00     0.049 A 
ATOM     38  N   UNL     1      -8.681   6.489 -13.590  1.00  0.00    -0.248 NA
ATOM     39  C   UNL     1      -6.952   4.924 -13.499  1.00  0.00     0.031 C 
ATOM     40  C   UNL     1     -10.765   4.322 -10.274  1.00  0.00     0.029 A 
ATOM     41  N   UNL     1     -10.905   6.017 -11.724  1.00  0.00    -0.354 N 
ATOM     42  C   UNL     1      -7.692   6.839 -14.501  1.00  0.00     0.074 A 
ATOM     43  C   UNL     1      -6.619   5.882 -14.350  1.00  0.00     0.031 C 
ATOM     44  C   UNL     1     -11.926   4.956 -10.041  1.00  0.00     0.029 A 
ATOM     45  C   UNL     1     -12.044   6.084 -10.960  1.00  0.00     0.049 A 
ATOM     46  H   UNL     1     -10.704   6.653 -12.448  1.00  0.00     0.167 HD
ATOM     47  C   UNL     1      -7.691   7.849 -15.402  1.00  0.00     0.037 A 
ATOM     48  C   UNL     1     -13.066   6.961 -10.996  1.00  0.00     0.037 A 
ATOM     49  C   UNL     1      -8.776   8.778 -15.574  1.00  0.00     0.049 A 
ATOM     50  C   UNL     1     -13.047   8.068 -12.016  1.00  0.00     0.074 A 
ATOM     51  C   UNL     1      -8.898   9.803 -16.495  1.00  0.00     0.029 A 
ATOM     52  N   UNL     1      -9.931   8.791 -14.805  1.00  0.00    -0.354 N 
ATOM     53  N   UNL     1     -12.137   8.349 -12.917  1.00  0.00    -0.248 NA
ATOM     54  C   UNL     1     -14.206   8.972 -12.032  1.00  0.00     0.031 C 
ATOM     55  C   UNL     1     -10.109  10.462 -16.258  1.00  0.00     0.029 A 
ATOM     56  C   UNL     1     -10.766   9.814 -15.224  1.00  0.00     0.049 A 
ATOM     57  H   UNL     1     -10.128   8.165 -14.071  1.00  0.00     0.167 HD
ATOM     58  C   UNL     1     -12.628   9.435 -13.629  1.00  0.00     0.074 A 
ATOM     59  C   UNL     1     -13.921   9.757 -13.062  1.00  0.00     0.031 C 
ATOM     60  C   UNL     1     -12.059  10.106 -14.661  1.00  0.00     0.037 A 
BRANCH  47  61
ATOM     61  C   UNL     1      -6.480   7.995 -16.278  1.00  0.00     0.064 A 
ATOM     62  C   UNL     1      -6.174   7.053 -17.273  1.00  0.00     0.173 A 
ATOM     63  C   UNL     1      -5.628   9.100 -16.139  1.00  0.00     0.173 A 
ATOM     64  F   UNL     1      -6.948   5.970 -17.438  1.00  0.00    -0.203 F 
ATOM     65  C   UNL     1      -5.042   7.195 -18.071  1.00  0.00     0.198 A 
ATOM     66  C   UNL     1      -4.515   9.256 -16.961  1.00  0.00     0.198 A 
ATOM     67  F   UNL     1      -5.876  10.034 -15.207  1.00  0.00    -0.203 F 
ATOM     68  F   UNL     1      -4.740   6.253 -18.975  1.00  0.00    -0.200 F 
ATOM     69  C   UNL     1      -4.218   8.299 -17.920  1.00  0.00     0.200 A 
ATOM     70  F   UNL     1      -3.727  10.331 -16.823  1.00  0.00    -0.200 F 
ATOM     71  F   UNL     1      -3.132   8.438 -18.693  1.00  0.00    -0.200 F 
ENDBRANCH  47  61
BRANCH  48  72
ATOM     72  C   UNL     1     -14.213   6.807 -10.062  1.00  0.00     0.064 A 
ATOM     73  C   UNL     1     -15.475   6.420 -10.534  1.00  0.00     0.173 A 
ATOM     74  C   UNL     1     -14.077   7.052  -8.688  1.00  0.00     0.173 A 
ATOM     75  F   UNL     1     -15.660   6.194 -11.843  1.00  0.00    -0.203 F 
ATOM     76  C   UNL     1     -16.564   6.308  -9.672  1.00  0.00     0.198 A 
ATOM     77  C   UNL     1     -15.160   6.912  -7.822  1.00  0.00     0.198 A 
ATOM     78  F   UNL     1     -12.890   7.419  -8.185  1.00  0.00    -0.203 F 
ATOM     79  F   UNL     1     -17.770   5.984 -10.158  1.00  0.00    -0.200 F 
ATOM     80  C   UNL     1     -16.404   6.548  -8.316  1.00  0.00     0.200 A 
ATOM     81  F   UNL     1     -14.999   7.131  -6.510  1.00  0.00    -0.200 F 
ATOM     82  F   UNL     1     -17.451   6.439  -7.486  1.00  0.00    -0.200 F 
ENDBRANCH  48  72
BRANCH  60  83
ATOM     83  C   UNL     1     -12.855  11.216 -15.284  1.00  0.00     0.064 A 
ATOM     84  C   UNL     1     -13.064  12.436 -14.625  1.00  0.00     0.173 A 
ATOM     85  C   UNL     1     -13.380  11.069 -16.577  1.00  0.00     0.173 A 
ATOM     86  F   UNL     1     -12.595  12.622 -13.382  1.00  0.00    -0.203 F 
ATOM     87  C   UNL     1     -13.794  13.458 -15.227  1.00  0.00     0.198 A 
ATOM     88  C   UNL     1     -14.082  12.103 -17.188  1.00  0.00     0.198 A 
ATOM     89  F   UNL     1     -13.200   9.924 -17.253  1.00  0.00    -0.203 F 
ATOM     90  F   UNL     1     -14.024  14.597 -14.560  1.00  0.00    -0.200 F 
ATOM     91  C   UNL     1     -14.295  13.293 -16.510  1.00  0.00     0.200 A 
ATOM     92  F   UNL     1     -14.552  11.948 -18.433  1.00  0.00    -0.200 F 
ATOM     93  F   UNL     1     -14.991  14.281 -17.090  1.00  0.00    -0.200 F 
ENDBRANCH  60  83
ENDBRANCH  34  35
ENDBRANCH  26  29
ENDBRANCH  24  25
ENDBRANCH   1  24
TORSDOF 12
