REMARK SMILES Cc1ccc(-c2c(C)sc(NC(=O)[C@H]3CC=CC[C@H]3C(=O)NCCCCNC(=O)c3ccc(-c4c5nc(c(-c6c(F)c(F)c(F)c(F)c6F)c6ccc([nH]6)c(-c6c(F)c(F)c(F)c(F)c6F)c6nc(c(-c7c(F)c(F)c(F)c(F)c7F)c7ccc4[nH]7)C=C6)C=C5)cc3)c2C(N)=O)cc1
REMARK SMILES IDX 24 1 23 2 22 3 20 4 21 5 19 7 14 8 15 9 16 10 18 11 17 12
REMARK SMILES IDX 12 13 11 14 13 16 10 17 6 18 7 19 93 20 8 21 9 22 5 23 1 24
REMARK SMILES IDX 2 25 3 26 98 27 4 28 97 29 94 30 95 31 96 32 25 35 26 36
REMARK SMILES IDX 27 37 28 38 29 40 30 41 31 42 92 43 32 44 91 45 33 46 34 47
REMARK SMILES IDX 35 48 85 49 36 50 90 51 84 52 86 53 37 54 89 55 83 56 82 57
REMARK SMILES IDX 38 59 70 60 50 61 69 62 51 63 54 64 68 65 87 66 52 67 53 68
REMARK SMILES IDX 67 70 88 71 55 72 39 73 40 74 48 75 41 76 42 77 46 78 49 79
REMARK SMILES IDX 43 80 44 81 47 82 45 83 71 84 72 85 80 86 73 87 74 88 78 89
REMARK SMILES IDX 81 90 75 91 76 92 79 93 77 94 56 95 57 96 65 97 58 98 59 99
REMARK SMILES IDX 63 100 66 101 60 102 61 103 64 104 62 105
REMARK H PARENT 22 6 11 15 95 33 95 34 27 39 86 58 54 69
REMARK Flexibility Score: inf
ROOT
ATOM      1  C   UNL     1      -8.584  -2.313   2.660  1.00  0.00     0.023 C 
ENDROOT
BRANCH   1   2
ATOM      2  C   UNL     1      -7.878  -2.868   1.416  1.00  0.00     0.116 C 
BRANCH   2   3
ATOM      3  N   UNL     1      -8.796  -2.993   0.318  1.00  0.00    -0.356 N 
ATOM      4  C   UNL     1      -9.129  -2.123  -0.657  1.00  0.00     0.224 C 
ATOM      5  O   UNL     1     -10.136  -2.421  -1.312  1.00  0.00    -0.275 OA
ATOM      6  H   UNL     1      -9.261  -3.860   0.269  1.00  0.00     0.163 HD
BRANCH   4   7
ATOM      7  C   UNL     1      -8.313  -0.894  -1.038  1.00  0.00     0.095 C 
ATOM      8  C   UNL     1      -8.312   0.396  -0.195  1.00  0.00     0.095 C 
ATOM      9  C   UNL     1      -8.014   1.583  -1.137  1.00  0.00     0.041 C 
ATOM     10  C   UNL     1      -7.048   1.258  -2.260  1.00  0.00    -0.030 C 
ATOM     11  C   UNL     1      -6.977  -1.187  -1.707  1.00  0.00     0.041 C 
ATOM     12  C   UNL     1      -6.540   0.030  -2.481  1.00  0.00    -0.030 C 
BRANCH   8  13
ATOM     13  C   UNL     1      -7.647   0.504   1.207  1.00  0.00     0.229 C 
ATOM     14  N   UNL     1      -6.372   0.200   1.591  1.00  0.00    -0.317 N 
ATOM     15  H   UNL     1      -6.312  -0.231   2.474  1.00  0.00     0.170 HD
ATOM     16  O   UNL     1      -8.385   0.829   2.155  1.00  0.00    -0.274 OA
BRANCH  14  17
ATOM     17  C   UNL     1      -5.152   0.385   0.972  1.00  0.00     0.109 A 
ATOM     18  C   UNL     1      -2.916   0.396   0.288  1.00  0.00     0.010 A 
ATOM     19  C   UNL     1      -3.523   1.232  -0.637  1.00  0.00     0.012 A 
ATOM     20  C   UNL     1      -3.879  -0.102   1.276  1.00  0.00     0.082 A 
ATOM     21  C   UNL     1      -3.053   1.794  -1.937  1.00  0.00     0.057 C 
ATOM     22  S   UNL     1      -5.008   1.755  -0.015  1.00  0.00    -0.122 S 
BRANCH  18  23
ATOM     23  C   UNL     1      -1.474   0.175   0.215  1.00  0.00    -0.016 A 
ATOM     24  C   UNL     1       2.805  -0.270  -0.089  1.00  0.00     0.044 C 
ATOM     25  C   UNL     1       1.316  -0.113   0.002  1.00  0.00    -0.051 A 
ATOM     26  C   UNL     1       0.472  -1.231  -0.085  1.00  0.00     0.004 A 
ATOM     27  C   UNL     1       0.755   1.148   0.211  1.00  0.00     0.004 A 
ATOM     28  C   UNL     1      -0.918  -1.089   0.015  1.00  0.00     0.009 A 
ATOM     29  C   UNL     1      -0.625   1.287   0.327  1.00  0.00     0.009 A 
ENDBRANCH  18  23
BRANCH  20  30
ATOM     30  C   UNL     1      -3.507  -0.956   2.412  1.00  0.00     0.252 C 
ATOM     31  N   UNL     1      -4.503  -1.697   2.994  1.00  0.00    -0.365 N 
ATOM     32  O   UNL     1      -2.381  -1.034   2.862  1.00  0.00    -0.269 OA
ATOM     33  H   UNL     1      -5.422  -1.648   2.644  1.00  0.00     0.159 HD
ATOM     34  H   UNL     1      -4.299  -2.278   3.762  1.00  0.00     0.159 HD
ENDBRANCH  20  30
ENDBRANCH  14  17
ENDBRANCH   8  13
ENDBRANCH   4   7
ENDBRANCH   2   3
ENDBRANCH   1   2
BRANCH   1  35
ATOM     35  C   UNL     1      -9.729  -3.157   3.221  1.00  0.00     0.023 C 
BRANCH  35  36
ATOM     36  C   UNL     1      -9.299  -4.513   3.738  1.00  0.00     0.116 C 
BRANCH  36  37
ATOM     37  N   UNL     1      -8.774  -4.517   5.093  1.00  0.00    -0.352 N 
ATOM     38  C   UNL     1      -8.182  -5.545   5.806  1.00  0.00     0.251 C 
ATOM     39  H   UNL     1      -8.851  -3.662   5.575  1.00  0.00     0.163 HD
ATOM     40  O   UNL     1      -7.963  -5.393   7.004  1.00  0.00    -0.269 OA
BRANCH  38  41
ATOM     41  C   UNL     1      -7.655  -6.749   5.108  1.00  0.00     0.039 A 
ATOM     42  C   UNL     1      -6.448  -7.293   5.572  1.00  0.00     0.014 A 
ATOM     43  C   UNL     1      -8.172  -7.180   3.893  1.00  0.00     0.014 A 
ATOM     44  C   UNL     1      -5.637  -8.011   4.698  1.00  0.00     0.010 A 
ATOM     45  C   UNL     1      -7.320  -7.757   2.981  1.00  0.00     0.010 A 
ATOM     46  C   UNL     1      -6.025  -8.102   3.367  1.00  0.00    -0.014 A 
BRANCH  46  47
ATOM     47  C   UNL     1      -5.147  -8.491   2.277  1.00  0.00     0.031 A 
ATOM     48  C   UNL     1      -5.275  -9.829   1.684  1.00  0.00     0.074 A 
ATOM     49  C   UNL     1      -4.361  -7.550   1.710  1.00  0.00     0.049 A 
ATOM     50  N   UNL     1      -4.410 -10.360   0.892  1.00  0.00    -0.248 NA
ATOM     51  C   UNL     1      -6.400 -10.702   1.982  1.00  0.00     0.031 C 
ATOM     52  C   UNL     1      -3.665  -7.608   0.427  1.00  0.00     0.029 A 
ATOM     53  N   UNL     1      -3.852  -6.395   2.325  1.00  0.00    -0.354 N 
ATOM     54  C   UNL     1      -4.969 -11.501   0.363  1.00  0.00     0.074 A 
ATOM     55  C   UNL     1      -6.170 -11.710   1.136  1.00  0.00     0.031 C 
ATOM     56  C   UNL     1      -2.621  -6.763   0.469  1.00  0.00     0.029 A 
ATOM     57  C   UNL     1      -2.526  -6.286   1.838  1.00  0.00     0.049 A 
ATOM     58  H   UNL     1      -4.314  -5.796   2.955  1.00  0.00     0.167 HD
ATOM     59  C   UNL     1      -4.393 -12.048  -0.747  1.00  0.00     0.037 A 
ATOM     60  C   UNL     1      -1.468  -6.504   2.675  1.00  0.00     0.037 A 
ATOM     61  C   UNL     1      -3.125 -11.376  -1.060  1.00  0.00     0.049 A 
ATOM     62  C   UNL     1      -0.553  -7.641   2.260  1.00  0.00     0.074 A 
ATOM     63  C   UNL     1      -2.721 -10.423  -1.981  1.00  0.00     0.029 A 
ATOM     64  N   UNL     1      -2.100 -11.458  -0.134  1.00  0.00    -0.354 N 
ATOM     65  N   UNL     1      -0.805  -8.485   1.298  1.00  0.00    -0.248 NA
ATOM     66  C   UNL     1       0.666  -7.980   2.994  1.00  0.00     0.031 C 
ATOM     67  C   UNL     1      -1.434  -9.941  -1.590  1.00  0.00     0.029 A 
ATOM     68  C   UNL     1      -1.055 -10.609  -0.441  1.00  0.00     0.049 A 
ATOM     69  H   UNL     1      -2.114 -12.052   0.651  1.00  0.00     0.167 HD
ATOM     70  C   UNL     1       0.134  -9.483   1.310  1.00  0.00     0.074 A 
ATOM     71  C   UNL     1       1.027  -9.128   2.398  1.00  0.00     0.031 C 
ATOM     72  C   UNL     1       0.083 -10.555   0.465  1.00  0.00     0.037 A 
BRANCH  59  73
ATOM     73  C   UNL     1      -5.062 -13.037  -1.684  1.00  0.00     0.064 A 
ATOM     74  C   UNL     1      -4.601 -13.184  -3.012  1.00  0.00     0.173 A 
ATOM     75  C   UNL     1      -6.193 -13.821  -1.381  1.00  0.00     0.173 A 
ATOM     76  F   UNL     1      -3.474 -12.595  -3.432  1.00  0.00    -0.203 F 
ATOM     77  C   UNL     1      -5.280 -13.947  -3.969  1.00  0.00     0.198 A 
ATOM     78  C   UNL     1      -6.899 -14.546  -2.346  1.00  0.00     0.198 A 
ATOM     79  F   UNL     1      -6.627 -13.983  -0.130  1.00  0.00    -0.203 F 
ATOM     80  F   UNL     1      -4.794 -14.033  -5.215  1.00  0.00    -0.200 F 
ATOM     81  C   UNL     1      -6.449 -14.600  -3.645  1.00  0.00     0.200 A 
ATOM     82  F   UNL     1      -8.017 -15.200  -1.996  1.00  0.00    -0.200 F 
ATOM     83  F   UNL     1      -7.121 -15.300  -4.569  1.00  0.00    -0.200 F 
ENDBRANCH  59  73
BRANCH  60  84
ATOM     84  C   UNL     1      -1.771  -6.147   4.093  1.00  0.00     0.064 A 
ATOM     85  C   UNL     1      -2.233  -4.846   4.377  1.00  0.00     0.173 A 
ATOM     86  C   UNL     1      -1.974  -7.127   5.072  1.00  0.00     0.173 A 
ATOM     87  F   UNL     1      -2.091  -3.873   3.463  1.00  0.00    -0.203 F 
ATOM     88  C   UNL     1      -2.983  -4.572   5.517  1.00  0.00     0.198 A 
ATOM     89  C   UNL     1      -2.690  -6.839   6.235  1.00  0.00     0.198 A 
ATOM     90  F   UNL     1      -1.594  -8.395   4.857  1.00  0.00    -0.203 F 
ATOM     91  F   UNL     1      -3.555  -3.367   5.664  1.00  0.00    -0.200 F 
ATOM     92  C   UNL     1      -3.226  -5.576   6.438  1.00  0.00     0.200 A 
ATOM     93  F   UNL     1      -2.964  -7.823   7.103  1.00  0.00    -0.200 F 
ATOM     94  F   UNL     1      -4.028  -5.348   7.487  1.00  0.00    -0.200 F 
ENDBRANCH  60  84
BRANCH  72  95
ATOM     95  C   UNL     1       1.089 -11.679   0.473  1.00  0.00     0.064 A 
ATOM     96  C   UNL     1       2.466 -11.465   0.641  1.00  0.00     0.173 A 
ATOM     97  C   UNL     1       0.706 -13.018   0.230  1.00  0.00     0.173 A 
ATOM     98  F   UNL     1       2.961 -10.224   0.764  1.00  0.00    -0.203 F 
ATOM     99  C   UNL     1       3.380 -12.523   0.665  1.00  0.00     0.198 A 
ATOM    100  C   UNL     1       1.626 -14.064   0.194  1.00  0.00     0.198 A 
ATOM    101  F   UNL     1      -0.575 -13.365   0.045  1.00  0.00    -0.203 F 
ATOM    102  F   UNL     1       4.674 -12.276   0.908  1.00  0.00    -0.200 F 
ATOM    103  C   UNL     1       2.960 -13.820   0.438  1.00  0.00     0.200 A 
ATOM    104  F   UNL     1       1.203 -15.310  -0.064  1.00  0.00    -0.200 F 
ATOM    105  F   UNL     1       3.837 -14.832   0.452  1.00  0.00    -0.200 F 
ENDBRANCH  72  95
ENDBRANCH  46  47
ENDBRANCH  38  41
ENDBRANCH  36  37
ENDBRANCH  35  36
ENDBRANCH   1  35
TORSDOF 15
