REMARK SMILES COc1ncnc(N2CCSC[C@@H]2CC(=O)NCCCCNC(=O)c2ccc(-c3c4nc(c(-c5c(F)c(F)c(F)c(F)c5F)c5ccc([nH]5)c(-c5c(F)c(F)c(F)c(F)c5F)c5nc(c(-c6c(F)c(F)c(F)c(F)c6F)c6ccc3[nH]6)C=C5)C=C4)cc2)c1[N+](=O)[O-]
REMARK SMILES IDX 19 1 18 2 17 3 15 4 16 5 14 7 13 8 8 9 9 10 10 11 12 12
REMARK SMILES IDX 11 13 7 14 3 15 4 16 88 17 5 18 6 19 2 20 1 21 89 22 90 23
REMARK SMILES IDX 91 24 20 25 21 26 22 27 23 28 24 30 25 31 26 32 87 33 27 34
REMARK SMILES IDX 86 35 28 36 29 37 30 38 80 39 31 40 85 41 79 42 81 43 32 44
REMARK SMILES IDX 84 45 78 46 77 47 33 49 65 50 45 51 64 52 46 53 49 54 63 55
REMARK SMILES IDX 82 56 47 57 48 58 62 60 83 61 50 62 34 63 35 64 43 65 36 66
REMARK SMILES IDX 37 67 41 68 44 69 38 70 39 71 42 72 40 73 66 74 67 75 75 76
REMARK SMILES IDX 68 77 69 78 73 79 76 80 70 81 71 82 74 83 72 84 51 85 52 86
REMARK SMILES IDX 60 87 53 88 54 89 58 90 61 91 55 92 56 93 59 94 57 95
REMARK H PARENT 17 6 22 29 81 48 49 59
REMARK Flexibility Score: inf
ROOT
ATOM      1  C   UNL     1       1.464   1.009  -4.065  1.00  0.00     0.023 C 
ENDROOT
BRANCH   1   2
ATOM      2  C   UNL     1       2.800   1.717  -4.294  1.00  0.00     0.116 C 
BRANCH   2   3
ATOM      3  N   UNL     1       3.847   1.313  -3.376  1.00  0.00    -0.356 N 
ATOM      4  C   UNL     1       4.918   0.492  -3.549  1.00  0.00     0.222 C 
ATOM      5  O   UNL     1       5.765   0.449  -2.654  1.00  0.00    -0.275 OA
ATOM      6  H   UNL     1       3.771   1.699  -2.474  1.00  0.00     0.163 HD
BRANCH   4   7
ATOM      7  C   UNL     1       5.086  -0.333  -4.803  1.00  0.00     0.126 C 
BRANCH   7   8
ATOM      8  C   UNL     1       4.108  -1.513  -4.890  1.00  0.00     0.103 C 
ATOM      9  N   UNL     1       4.051  -2.285  -3.625  1.00  0.00    -0.345 N 
ATOM     10  C   UNL     1       5.211  -3.113  -3.259  1.00  0.00     0.129 C 
ATOM     11  C   UNL     1       5.537  -4.163  -4.327  1.00  0.00     0.091 C 
ATOM     12  C   UNL     1       4.394  -2.423  -6.102  1.00  0.00     0.095 C 
ATOM     13  S   UNL     1       5.913  -3.419  -5.946  1.00  0.00    -0.158 SA
BRANCH   9  14
ATOM     14  C   UNL     1       2.816  -2.485  -3.035  1.00  0.00     0.215 A 
ATOM     15  C   UNL     1       1.259  -2.494  -1.241  1.00  0.00     0.299 A 
ATOM     16  N   UNL     1       0.220  -2.708  -2.067  1.00  0.00    -0.196 NA
ATOM     17  C   UNL     1       2.564  -2.416  -1.676  1.00  0.00     0.372 A 
ATOM     18  C   UNL     1       0.540  -2.811  -3.359  1.00  0.00     0.228 A 
ATOM     19  N   UNL     1       1.776  -2.690  -3.879  1.00  0.00    -0.212 NA
BRANCH  15  20
ATOM     20  O   UNL     1       0.951  -2.413   0.095  1.00  0.00    -0.476 OA
ATOM     21  C   UNL     1       0.415  -1.126   0.402  1.00  0.00     0.280 C 
ENDBRANCH  15  20
BRANCH  17  22
ATOM     22  N   UNL     1       3.563  -2.070  -0.722  1.00  0.00     0.072 N 
ATOM     23  O   UNL     1       3.728  -0.864  -0.493  1.00  0.00    -0.258 OA
ATOM     24  O   UNL     1       4.138  -3.003  -0.144  1.00  0.00    -0.258 OA
ENDBRANCH  17  22
ENDBRANCH   9  14
ENDBRANCH   7   8
ENDBRANCH   4   7
ENDBRANCH   2   3
ENDBRANCH   1   2
BRANCH   1  25
ATOM     25  C   UNL     1       0.959   0.992  -2.622  1.00  0.00     0.023 C 
BRANCH  25  26
ATOM     26  C   UNL     1       0.563   2.346  -2.052  1.00  0.00     0.116 C 
BRANCH  26  27
ATOM     27  N   UNL     1      -0.587   2.906  -2.737  1.00  0.00    -0.352 N 
ATOM     28  C   UNL     1      -1.752   3.439  -2.248  1.00  0.00     0.251 C 
ATOM     29  H   UNL     1      -0.520   2.903  -3.719  1.00  0.00     0.163 HD
ATOM     30  O   UNL     1      -2.662   3.686  -3.036  1.00  0.00    -0.269 OA
BRANCH  28  31
ATOM     31  C   UNL     1      -1.946   3.717  -0.803  1.00  0.00     0.039 A 
ATOM     32  C   UNL     1      -3.242   3.606  -0.284  1.00  0.00     0.014 A 
ATOM     33  C   UNL     1      -0.913   4.164   0.026  1.00  0.00     0.014 A 
ATOM     34  C   UNL     1      -3.497   3.924   1.052  1.00  0.00     0.010 A 
ATOM     35  C   UNL     1      -1.153   4.413   1.379  1.00  0.00     0.010 A 
ATOM     36  C   UNL     1      -2.451   4.321   1.900  1.00  0.00    -0.014 A 
BRANCH  36  37
ATOM     37  C   UNL     1      -2.725   4.677   3.316  1.00  0.00     0.031 A 
ATOM     38  C   UNL     1      -2.554   6.095   3.792  1.00  0.00     0.074 A 
ATOM     39  C   UNL     1      -3.116   3.721   4.180  1.00  0.00     0.049 A 
ATOM     40  N   UNL     1      -2.768   6.600   4.982  1.00  0.00    -0.248 NA
ATOM     41  C   UNL     1      -2.055   7.070   2.810  1.00  0.00     0.031 C 
ATOM     42  C   UNL     1      -3.266   2.302   3.857  1.00  0.00     0.029 A 
ATOM     43  N   UNL     1      -3.463   3.801   5.505  1.00  0.00    -0.354 N 
ATOM     44  C   UNL     1      -2.417   7.941   4.894  1.00  0.00     0.074 A 
ATOM     45  C   UNL     1      -1.931   8.163   3.549  1.00  0.00     0.031 C 
ATOM     46  C   UNL     1      -3.704   1.649   4.945  1.00  0.00     0.029 A 
ATOM     47  C   UNL     1      -3.847   2.598   6.045  1.00  0.00     0.049 A 
ATOM     48  H   UNL     1      -3.438   4.640   6.020  1.00  0.00     0.167 HD
ATOM     49  C   UNL     1      -2.514   8.906   5.839  1.00  0.00     0.037 A 
ATOM     50  C   UNL     1      -4.279   2.299   7.285  1.00  0.00     0.037 A 
ATOM     51  C   UNL     1      -3.031   8.696   7.166  1.00  0.00     0.049 A 
ATOM     52  C   UNL     1      -4.419   3.397   8.302  1.00  0.00     0.074 A 
ATOM     53  C   UNL     1      -3.227   9.623   8.175  1.00  0.00     0.029 A 
ATOM     54  N   UNL     1      -3.439   7.469   7.667  1.00  0.00    -0.354 N 
ATOM     55  N   UNL     1      -4.152   4.674   8.184  1.00  0.00    -0.248 NA
ATOM     56  C   UNL     1      -4.936   3.011   9.623  1.00  0.00     0.031 C 
ATOM     57  C   UNL     1      -3.725   8.951   9.297  1.00  0.00     0.029 A 
ATOM     58  C   UNL     1      -3.874   7.612   8.974  1.00  0.00     0.049 A 
ATOM     59  H   UNL     1      -3.421   6.621   7.167  1.00  0.00     0.167 HD
ATOM     60  C   UNL     1      -4.487   5.248   9.402  1.00  0.00     0.074 A 
ATOM     61  C   UNL     1      -4.996   4.182  10.240  1.00  0.00     0.031 C 
ATOM     62  C   UNL     1      -4.380   6.541   9.793  1.00  0.00     0.037 A 
BRANCH  49  63
ATOM     63  C   UNL     1      -2.059  10.288   5.468  1.00  0.00     0.064 A 
ATOM     64  C   UNL     1      -2.795  11.089   4.583  1.00  0.00     0.173 A 
ATOM     65  C   UNL     1      -0.893  10.830   6.030  1.00  0.00     0.173 A 
ATOM     66  F   UNL     1      -3.910  10.612   4.009  1.00  0.00    -0.203 F 
ATOM     67  C   UNL     1      -2.367  12.373   4.253  1.00  0.00     0.198 A 
ATOM     68  C   UNL     1      -0.482  12.123   5.718  1.00  0.00     0.198 A 
ATOM     69  F   UNL     1      -0.155  10.107   6.886  1.00  0.00    -0.203 F 
ATOM     70  F   UNL     1      -3.063  13.103   3.370  1.00  0.00    -0.200 F 
ATOM     71  C   UNL     1      -1.216  12.891   4.826  1.00  0.00     0.200 A 
ATOM     72  F   UNL     1       0.625  12.627   6.280  1.00  0.00    -0.200 F 
ATOM     73  F   UNL     1      -0.808  14.128   4.511  1.00  0.00    -0.200 F 
ENDBRANCH  49  63
BRANCH  50  74
ATOM     74  C   UNL     1      -4.658   0.902   7.615  1.00  0.00     0.064 A 
ATOM     75  C   UNL     1      -6.002   0.546   7.790  1.00  0.00     0.173 A 
ATOM     76  C   UNL     1      -3.690  -0.102   7.759  1.00  0.00     0.173 A 
ATOM     77  F   UNL     1      -6.961   1.478   7.682  1.00  0.00    -0.203 F 
ATOM     78  C   UNL     1      -6.364  -0.760   8.114  1.00  0.00     0.198 A 
ATOM     79  C   UNL     1      -4.055  -1.413   8.059  1.00  0.00     0.198 A 
ATOM     80  F   UNL     1      -2.392   0.189   7.596  1.00  0.00    -0.203 F 
ATOM     81  F   UNL     1      -7.653  -1.065   8.313  1.00  0.00    -0.200 F 
ATOM     82  C   UNL     1      -5.391  -1.739   8.242  1.00  0.00     0.200 A 
ATOM     83  F   UNL     1      -3.113  -2.359   8.170  1.00  0.00    -0.200 F 
ATOM     84  F   UNL     1      -5.739  -2.996   8.549  1.00  0.00    -0.200 F 
ENDBRANCH  50  74
BRANCH  62  85
ATOM     85  C   UNL     1      -4.841   6.874  11.181  1.00  0.00     0.064 A 
ATOM     86  C   UNL     1      -4.100   6.496  12.310  1.00  0.00     0.173 A 
ATOM     87  C   UNL     1      -6.027   7.596  11.382  1.00  0.00     0.173 A 
ATOM     88  F   UNL     1      -2.967   5.791  12.168  1.00  0.00    -0.203 F 
ATOM     89  C   UNL     1      -4.545   6.802  13.592  1.00  0.00     0.198 A 
ATOM     90  C   UNL     1      -6.456   7.923  12.665  1.00  0.00     0.198 A 
ATOM     91  F   UNL     1      -6.768   7.986  10.334  1.00  0.00    -0.203 F 
ATOM     92  F   UNL     1      -3.847   6.388  14.659  1.00  0.00    -0.200 F 
ATOM     93  C   UNL     1      -5.720   7.519  13.769  1.00  0.00     0.200 A 
ATOM     94  F   UNL     1      -7.586   8.624  12.834  1.00  0.00    -0.200 F 
ATOM     95  F   UNL     1      -6.147   7.812  15.005  1.00  0.00    -0.200 F 
ENDBRANCH  62  85
ENDBRANCH  36  37
ENDBRANCH  28  31
ENDBRANCH  26  27
ENDBRANCH  25  26
ENDBRANCH   1  25
TORSDOF 15
