REMARK SMILES O=C(CC1(C(=O)NCCCCNC(=O)c2ccc(-c3c4nc(c(-c5c(F)c(F)c(F)c(F)c5F)c5ccc([nH]5)c(-c5c(F)c(F)c(F)c(F)c5F)c5nc(c(-c6c(F)c(F)c(F)c(F)c6F)c6ccc3[nH]6)C=C5)C=C4)cc2)CCCCC1)Nc1ccc(N2CCOC2=O)cc1
REMARK SMILES IDX 8 1 7 2 5 3 6 4 4 6 78 7 82 8 79 9 81 10 80 11 3 12 2 13
REMARK SMILES IDX 1 14 83 15 84 17 85 18 95 19 86 20 94 21 87 22 88 23 89 24
REMARK SMILES IDX 92 25 90 26 91 27 93 28 9 29 10 30 11 31 12 32 13 33 14 35
REMARK SMILES IDX 15 36 16 37 77 38 17 39 76 40 18 41 19 42 20 43 70 44 21 45
REMARK SMILES IDX 75 46 69 47 71 48 22 49 74 50 68 51 67 52 23 54 55 55 35 56
REMARK SMILES IDX 54 57 36 58 39 59 53 60 72 61 37 62 38 63 52 65 73 66 40 67
REMARK SMILES IDX 24 68 25 69 33 70 26 71 27 72 31 73 34 74 28 75 29 76 32 77
REMARK SMILES IDX 30 78 56 79 57 80 65 81 58 82 59 83 63 84 66 85 60 86 61 87
REMARK SMILES IDX 64 88 62 89 41 90 42 91 50 92 43 93 44 94 48 95 51 96 45 97
REMARK SMILES IDX 46 98 49 99 47 100
REMARK H PARENT 7 5 83 16 12 34 71 53 39 64
REMARK Flexibility Score: inf
ROOT
ATOM      1  C   UNL     1       5.206   1.185  -4.507  1.00  0.00     0.116 C 
ENDROOT
BRANCH   1   2
ATOM      2  N   UNL     1       4.260   0.137  -4.258  1.00  0.00    -0.356 N 
ATOM      3  C   UNL     1       3.663  -0.325  -3.133  1.00  0.00     0.226 C 
ATOM      4  O   UNL     1       2.835  -1.212  -3.370  1.00  0.00    -0.274 OA
ATOM      5  H   UNL     1       3.987  -0.346  -5.071  1.00  0.00     0.163 HD
BRANCH   3   6
ATOM      6  C   UNL     1       3.958   0.171  -1.665  1.00  0.00     0.058 C 
ATOM      7  C   UNL     1       3.631   1.688  -1.524  1.00  0.00     0.017 C 
ATOM      8  C   UNL     1       5.403  -0.184  -1.223  1.00  0.00     0.017 C 
ATOM      9  C   UNL     1       4.762   2.720  -1.610  1.00  0.00     0.001 C 
ATOM     10  C   UNL     1       6.514   0.818  -1.478  1.00  0.00     0.001 C 
ATOM     11  C   UNL     1       6.144   2.258  -1.160  1.00  0.00     0.000 C 
BRANCH   6  12
ATOM     12  C   UNL     1       3.022  -0.743  -0.732  1.00  0.00     0.117 C 
BRANCH  12  13
ATOM     13  C   UNL     1       2.170  -0.089   0.343  1.00  0.00     0.225 C 
ATOM     14  O   UNL     1       0.944  -0.131   0.288  1.00  0.00    -0.275 OA
ATOM     15  N   UNL     1       2.904   0.567   1.315  1.00  0.00    -0.326 N 
ATOM     16  H   UNL     1       3.883   0.464   1.313  1.00  0.00     0.169 HD
BRANCH  15  17
ATOM     17  C   UNL     1       2.317   1.371   2.304  1.00  0.00     0.041 A 
ATOM     18  C   UNL     1       2.904   2.611   2.567  1.00  0.00     0.028 A 
ATOM     19  C   UNL     1       1.177   0.981   3.001  1.00  0.00     0.028 A 
ATOM     20  C   UNL     1       2.309   3.487   3.478  1.00  0.00     0.028 A 
ATOM     21  C   UNL     1       0.649   1.813   3.991  1.00  0.00     0.028 A 
ATOM     22  C   UNL     1       1.197   3.079   4.220  1.00  0.00     0.047 A 
BRANCH  22  23
ATOM     23  N   UNL     1       0.625   3.930   5.178  1.00  0.00    -0.274 N 
ATOM     24  C   UNL     1       0.499   5.341   5.018  1.00  0.00     0.171 C 
ATOM     25  C   UNL     1       0.189   3.547   6.430  1.00  0.00     0.414 C 
ATOM     26  C   UNL     1      -0.433   5.703   6.149  1.00  0.00     0.257 C 
ATOM     27  O   UNL     1      -0.307   4.638   7.094  1.00  0.00    -0.447 OA
ATOM     28  O   UNL     1       0.263   2.440   6.947  1.00  0.00    -0.224 OA
ENDBRANCH  22  23
ENDBRANCH  15  17
ENDBRANCH  12  13
ENDBRANCH   6  12
ENDBRANCH   3   6
ENDBRANCH   1   2
BRANCH   1  29
ATOM     29  C   UNL     1       6.515   0.687  -5.104  1.00  0.00     0.023 C 
BRANCH  29  30
ATOM     30  C   UNL     1       6.566   0.742  -6.620  1.00  0.00     0.023 C 
BRANCH  30  31
ATOM     31  C   UNL     1       6.295   2.118  -7.211  1.00  0.00     0.116 C 
BRANCH  31  32
ATOM     32  N   UNL     1       7.193   3.166  -6.736  1.00  0.00    -0.352 N 
ATOM     33  C   UNL     1       7.792   4.157  -7.484  1.00  0.00     0.251 C 
ATOM     34  H   UNL     1       7.393   3.165  -5.772  1.00  0.00     0.163 HD
ATOM     35  O   UNL     1       8.592   4.939  -6.990  1.00  0.00    -0.269 OA
BRANCH  33  36
ATOM     36  C   UNL     1       7.471   4.210  -8.922  1.00  0.00     0.039 A 
ATOM     37  C   UNL     1       8.500   4.061  -9.852  1.00  0.00     0.014 A 
ATOM     38  C   UNL     1       6.133   4.219  -9.322  1.00  0.00     0.014 A 
ATOM     39  C   UNL     1       8.177   3.825 -11.189  1.00  0.00     0.010 A 
ATOM     40  C   UNL     1       5.817   3.873 -10.627  1.00  0.00     0.010 A 
ATOM     41  C   UNL     1       6.835   3.672 -11.575  1.00  0.00    -0.014 A 
BRANCH  41  42
ATOM     42  C   UNL     1       6.460   3.311 -12.966  1.00  0.00     0.031 A 
ATOM     43  C   UNL     1       5.591   4.245 -13.761  1.00  0.00     0.074 A 
ATOM     44  C   UNL     1       6.827   2.120 -13.480  1.00  0.00     0.049 A 
ATOM     45  N   UNL     1       5.064   4.079 -14.947  1.00  0.00    -0.248 NA
ATOM     46  C   UNL     1       5.238   5.523 -13.122  1.00  0.00     0.031 C 
ATOM     47  C   UNL     1       7.625   1.106 -12.790  1.00  0.00     0.029 A 
ATOM     48  N   UNL     1       6.563   1.554 -14.704  1.00  0.00    -0.354 N 
ATOM     49  C   UNL     1       4.304   5.217 -15.181  1.00  0.00     0.074 A 
ATOM     50  C   UNL     1       4.381   6.034 -13.991  1.00  0.00     0.031 C 
ATOM     51  C   UNL     1       7.809   0.057 -13.608  1.00  0.00     0.029 A 
ATOM     52  C   UNL     1       7.102   0.300 -14.862  1.00  0.00     0.049 A 
ATOM     53  H   UNL     1       6.036   2.006 -15.403  1.00  0.00     0.167 HD
ATOM     54  C   UNL     1       3.629   5.566 -16.301  1.00  0.00     0.037 A 
ATOM     55  C   UNL     1       7.022  -0.560 -15.896  1.00  0.00     0.037 A 
ATOM     56  C   UNL     1       3.580   4.762 -17.492  1.00  0.00     0.049 A 
ATOM     57  C   UNL     1       6.247  -0.157 -17.124  1.00  0.00     0.074 A 
ATOM     58  C   UNL     1       2.977   5.052 -18.702  1.00  0.00     0.029 A 
ATOM     59  N   UNL     1       4.153   3.504 -17.619  1.00  0.00    -0.354 N 
ATOM     60  N   UNL     1       5.596   0.955 -17.364  1.00  0.00    -0.248 NA
ATOM     61  C   UNL     1       6.199  -1.128 -18.227  1.00  0.00     0.031 C 
ATOM     62  C   UNL     1       3.131   3.945 -19.541  1.00  0.00     0.029 A 
ATOM     63  C   UNL     1       3.890   2.993 -18.879  1.00  0.00     0.049 A 
ATOM     64  H   UNL     1       4.669   3.045 -16.918  1.00  0.00     0.167 HD
ATOM     65  C   UNL     1       5.092   0.834 -18.652  1.00  0.00     0.074 A 
ATOM     66  C   UNL     1       5.522  -0.457 -19.148  1.00  0.00     0.031 C 
ATOM     67  C   UNL     1       4.341   1.712 -19.361  1.00  0.00     0.037 A 
BRANCH  54  68
ATOM     68  C   UNL     1       2.890   6.873 -16.288  1.00  0.00     0.064 A 
ATOM     69  C   UNL     1       3.565   8.103 -16.241  1.00  0.00     0.173 A 
ATOM     70  C   UNL     1       1.489   6.898 -16.354  1.00  0.00     0.173 A 
ATOM     71  F   UNL     1       4.904   8.137 -16.163  1.00  0.00    -0.203 F 
ATOM     72  C   UNL     1       2.864   9.306 -16.224  1.00  0.00     0.198 A 
ATOM     73  C   UNL     1       0.793   8.103 -16.375  1.00  0.00     0.198 A 
ATOM     74  F   UNL     1       0.793   5.752 -16.404  1.00  0.00    -0.203 F 
ATOM     75  F   UNL     1       3.529  10.465 -16.117  1.00  0.00    -0.200 F 
ATOM     76  C   UNL     1       1.480   9.305 -16.300  1.00  0.00     0.200 A 
ATOM     77  F   UNL     1      -0.544   8.101 -16.464  1.00  0.00    -0.200 F 
ATOM     78  F   UNL     1       0.807  10.464 -16.293  1.00  0.00    -0.200 F 
ENDBRANCH  54  68
BRANCH  55  79
ATOM     79  C   UNL     1       7.704  -1.881 -15.826  1.00  0.00     0.064 A 
ATOM     80  C   UNL     1       8.793  -2.177 -16.659  1.00  0.00     0.173 A 
ATOM     81  C   UNL     1       7.276  -2.880 -14.938  1.00  0.00     0.173 A 
ATOM     82  F   UNL     1       9.229  -1.264 -17.540  1.00  0.00    -0.203 F 
ATOM     83  C   UNL     1       9.409  -3.427 -16.626  1.00  0.00     0.198 A 
ATOM     84  C   UNL     1       7.914  -4.118 -14.883  1.00  0.00     0.198 A 
ATOM     85  F   UNL     1       6.244  -2.649 -14.114  1.00  0.00    -0.203 F 
ATOM     86  F   UNL     1      10.412  -3.699 -17.472  1.00  0.00    -0.200 F 
ATOM     87  C   UNL     1       8.973  -4.394 -15.734  1.00  0.00     0.200 A 
ATOM     88  F   UNL     1       7.501  -5.043 -14.006  1.00  0.00    -0.200 F 
ATOM     89  F   UNL     1       9.568  -5.594 -15.700  1.00  0.00    -0.200 F 
ENDBRANCH  55  79
BRANCH  67  90
ATOM     90  C   UNL     1       3.973   1.336 -20.768  1.00  0.00     0.064 A 
ATOM     91  C   UNL     1       3.040   0.326 -21.045  1.00  0.00     0.173 A 
ATOM     92  C   UNL     1       4.514   2.045 -21.852  1.00  0.00     0.173 A 
ATOM     93  F   UNL     1       2.504  -0.391 -20.046  1.00  0.00    -0.203 F 
ATOM     94  C   UNL     1       2.679   0.026 -22.356  1.00  0.00     0.198 A 
ATOM     95  C   UNL     1       4.124   1.767 -23.158  1.00  0.00     0.198 A 
ATOM     96  F   UNL     1       5.404   3.027 -21.641  1.00  0.00    -0.203 F 
ATOM     97  F   UNL     1       1.820  -0.973 -22.600  1.00  0.00    -0.200 F 
ATOM     98  C   UNL     1       3.212   0.754 -23.410  1.00  0.00     0.200 A 
ATOM     99  F   UNL     1       4.626   2.485 -24.173  1.00  0.00    -0.200 F 
ATOM    100  F   UNL     1       2.850   0.475 -24.669  1.00  0.00    -0.200 F 
ENDBRANCH  67  90
ENDBRANCH  41  42
ENDBRANCH  33  36
ENDBRANCH  31  32
ENDBRANCH  30  31
ENDBRANCH  29  30
ENDBRANCH   1  29
TORSDOF 15
