REMARK SMILES O=C(NCCCCNC(=O)c1cc(S(=O)(=O)NNC(=O)[C@H]2C=C(c3ccccc3)N=N2)ccc1F)c1ccc(-c2c3nc(c(-c4c(F)c(F)c(F)c(F)c4F)c4ccc([nH]4)c(-c4c(F)c(F)c(F)c(F)c4F)c4nc(c(-c5c(F)c(F)c(F)c(F)c5F)c5ccc2[nH]5)C=C4)C=C3)cc1
REMARK SMILES IDX 7 1 6 2 5 3 4 4 3 5 1 6 2 7 36 9 37 10 98 11 38 12 97 13
REMARK SMILES IDX 39 14 40 15 41 16 91 17 42 18 96 19 90 20 92 21 43 22 95 23
REMARK SMILES IDX 89 24 88 25 44 27 76 28 56 29 75 30 57 31 60 32 74 33 93 34
REMARK SMILES IDX 58 35 59 36 73 38 94 39 61 40 45 41 46 42 54 43 47 44 48 45
REMARK SMILES IDX 52 46 55 47 49 48 50 49 53 50 51 51 77 52 78 53 86 54 79 55
REMARK SMILES IDX 80 56 84 57 87 58 81 59 82 60 85 61 83 62 62 63 63 64 71 65
REMARK SMILES IDX 64 66 65 67 69 68 72 69 66 70 67 71 70 72 68 73 8 74 9 75
REMARK SMILES IDX 10 77 11 78 12 79 34 80 13 81 33 82 35 83 32 84 14 85 15 86
REMARK SMILES IDX 16 87 17 88 18 90 19 91 20 93 21 94 22 95 31 96 23 97 30 98
REMARK SMILES IDX 24 99 25 100 29 101 26 102 28 103 27 104
REMARK H PARENT 3 8 92 26 60 37 8 76 17 89 18 92
REMARK Flexibility Score: inf
ROOT
ATOM      1  C   UNL     1       7.350   6.953 -13.095  1.00  0.00     0.116 C 
ENDROOT
BRANCH   1   2
ATOM      2  C   UNL     1       6.239   6.060 -13.639  1.00  0.00     0.023 C 
BRANCH   2   3
ATOM      3  C   UNL     1       6.320   5.713 -15.129  1.00  0.00     0.023 C 
BRANCH   3   4
ATOM      4  C   UNL     1       7.642   5.101 -15.591  1.00  0.00     0.116 C 
BRANCH   4   5
ATOM      5  N   UNL     1       8.032   3.908 -14.867  1.00  0.00    -0.352 N 
ATOM      6  O   UNL     1       8.511   1.837 -14.296  1.00  0.00    -0.269 OA
ATOM      7  C   UNL     1       7.837   2.566 -15.030  1.00  0.00     0.251 C 
ATOM      8  H   UNL     1       8.565   4.115 -14.066  1.00  0.00     0.163 HD
BRANCH   7   9
ATOM      9  C   UNL     1       6.853   1.928 -15.950  1.00  0.00     0.039 A 
ATOM     10  C   UNL     1       6.060   2.579 -16.895  1.00  0.00     0.014 A 
ATOM     11  C   UNL     1       6.692   0.536 -15.790  1.00  0.00     0.014 A 
ATOM     12  C   UNL     1       5.079   1.875 -17.597  1.00  0.00     0.010 A 
ATOM     13  C   UNL     1       5.720  -0.171 -16.489  1.00  0.00     0.010 A 
ATOM     14  C   UNL     1       4.883   0.508 -17.366  1.00  0.00    -0.014 A 
BRANCH  14  15
ATOM     15  C   UNL     1       3.885  -0.208 -18.164  1.00  0.00     0.031 A 
ATOM     16  C   UNL     1       4.176  -0.254 -19.631  1.00  0.00     0.074 A 
ATOM     17  C   UNL     1       2.862  -0.912 -17.634  1.00  0.00     0.049 A 
ATOM     18  N   UNL     1       3.438   0.158 -20.612  1.00  0.00    -0.248 NA
ATOM     19  C   UNL     1       5.498  -0.749 -20.050  1.00  0.00     0.031 C 
ATOM     20  C   UNL     1       2.601  -1.219 -16.225  1.00  0.00     0.029 A 
ATOM     21  N   UNL     1       1.862  -1.585 -18.276  1.00  0.00    -0.354 N 
ATOM     22  C   UNL     1       4.134  -0.151 -21.782  1.00  0.00     0.074 A 
ATOM     23  C   UNL     1       5.436  -0.609 -21.375  1.00  0.00     0.031 C 
ATOM     24  C   UNL     1       1.655  -2.184 -16.140  1.00  0.00     0.029 A 
ATOM     25  C   UNL     1       1.142  -2.461 -17.471  1.00  0.00     0.049 A 
ATOM     26  H   UNL     1       1.666  -1.460 -19.233  1.00  0.00     0.167 HD
ATOM     27  C   UNL     1       3.527  -0.167 -23.002  1.00  0.00     0.037 A 
ATOM     28  C   UNL     1       0.229  -3.379 -17.882  1.00  0.00     0.037 A 
ATOM     29  C   UNL     1       2.305   0.585 -22.991  1.00  0.00     0.049 A 
ATOM     30  C   UNL     1      -0.230  -2.970 -19.232  1.00  0.00     0.074 A 
ATOM     31  C   UNL     1       1.988   1.915 -22.803  1.00  0.00     0.029 A 
ATOM     32  N   UNL     1       1.122  -0.098 -22.865  1.00  0.00    -0.354 N 
ATOM     33  N   UNL     1      -0.930  -1.897 -19.472  1.00  0.00    -0.248 NA
ATOM     34  C   UNL     1       0.467  -3.539 -20.373  1.00  0.00     0.031 C 
ATOM     35  C   UNL     1       0.761   1.900 -22.079  1.00  0.00     0.029 A 
ATOM     36  C   UNL     1       0.377   0.567 -21.927  1.00  0.00     0.049 A 
ATOM     37  H   UNL     1       0.859  -0.910 -23.355  1.00  0.00     0.167 HD
ATOM     38  C   UNL     1      -0.429  -1.418 -20.672  1.00  0.00     0.074 A 
ATOM     39  C   UNL     1       0.376  -2.509 -21.216  1.00  0.00     0.031 C 
ATOM     40  C   UNL     1      -0.487  -0.091 -20.978  1.00  0.00     0.037 A 
BRANCH  27  41
ATOM     41  C   UNL     1       3.874  -1.116 -24.122  1.00  0.00     0.064 A 
ATOM     42  C   UNL     1       4.518  -2.354 -23.915  1.00  0.00     0.173 A 
ATOM     43  C   UNL     1       3.286  -0.942 -25.392  1.00  0.00     0.173 A 
ATOM     44  F   UNL     1       5.032  -2.695 -22.727  1.00  0.00    -0.203 F 
ATOM     45  C   UNL     1       4.559  -3.346 -24.894  1.00  0.00     0.198 A 
ATOM     46  C   UNL     1       3.285  -1.958 -26.352  1.00  0.00     0.198 A 
ATOM     47  F   UNL     1       2.625   0.187 -25.692  1.00  0.00    -0.203 F 
ATOM     48  F   UNL     1       5.157  -4.515 -24.622  1.00  0.00    -0.200 F 
ATOM     49  C   UNL     1       3.917  -3.161 -26.100  1.00  0.00     0.200 A 
ATOM     50  F   UNL     1       2.610  -1.791 -27.498  1.00  0.00    -0.200 F 
ATOM     51  F   UNL     1       3.867  -4.158 -26.993  1.00  0.00    -0.200 F 
ENDBRANCH  27  41
BRANCH  28  52
ATOM     52  C   UNL     1       0.012  -4.762 -17.380  1.00  0.00     0.064 A 
ATOM     53  C   UNL     1       1.062  -5.497 -16.798  1.00  0.00     0.173 A 
ATOM     54  C   UNL     1      -1.131  -5.496 -17.748  1.00  0.00     0.173 A 
ATOM     55  F   UNL     1       2.221  -4.904 -16.480  1.00  0.00    -0.203 F 
ATOM     56  C   UNL     1       0.989  -6.882 -16.627  1.00  0.00     0.198 A 
ATOM     57  C   UNL     1      -1.201  -6.884 -17.580  1.00  0.00     0.198 A 
ATOM     58  F   UNL     1      -2.160  -4.883 -18.352  1.00  0.00    -0.203 F 
ATOM     59  F   UNL     1       2.043  -7.546 -16.132  1.00  0.00    -0.200 F 
ATOM     60  C   UNL     1      -0.135  -7.577 -17.032  1.00  0.00     0.200 A 
ATOM     61  F   UNL     1      -2.277  -7.558 -18.010  1.00  0.00    -0.200 F 
ATOM     62  F   UNL     1      -0.171  -8.914 -16.936  1.00  0.00    -0.200 F 
ENDBRANCH  28  52
BRANCH  40  63
ATOM     63  C   UNL     1      -1.317   0.807 -20.107  1.00  0.00     0.064 A 
ATOM     64  C   UNL     1      -2.328   1.561 -20.718  1.00  0.00     0.173 A 
ATOM     65  C   UNL     1      -1.011   1.097 -18.766  1.00  0.00     0.173 A 
ATOM     66  F   UNL     1      -2.628   1.357 -22.010  1.00  0.00    -0.203 F 
ATOM     67  C   UNL     1      -2.983   2.579 -20.032  1.00  0.00     0.198 A 
ATOM     68  C   UNL     1      -1.693   2.095 -18.071  1.00  0.00     0.198 A 
ATOM     69  F   UNL     1      -0.003   0.480 -18.139  1.00  0.00    -0.203 F 
ATOM     70  F   UNL     1      -3.888   3.334 -20.670  1.00  0.00    -0.200 F 
ATOM     71  C   UNL     1      -2.667   2.846 -18.710  1.00  0.00     0.200 A 
ATOM     72  F   UNL     1      -1.372   2.368 -16.797  1.00  0.00    -0.200 F 
ATOM     73  F   UNL     1      -3.275   3.850 -18.063  1.00  0.00    -0.200 F 
ENDBRANCH  40  63
ENDBRANCH  14  15
ENDBRANCH   7   9
ENDBRANCH   4   5
ENDBRANCH   3   4
ENDBRANCH   2   3
ENDBRANCH   1   2
BRANCH   1  74
ATOM     74  N   UNL     1       7.354   8.286 -13.676  1.00  0.00    -0.352 N 
ATOM     75  C   UNL     1       7.396   9.507 -13.046  1.00  0.00     0.254 C 
ATOM     76  H   UNL     1       7.322   8.319 -14.660  1.00  0.00     0.163 HD
ATOM     77  O   UNL     1       7.332  10.543 -13.701  1.00  0.00    -0.269 OA
BRANCH  75  78
ATOM     78  C   UNL     1       7.439   9.588 -11.575  1.00  0.00     0.076 A 
ATOM     79  C   UNL     1       6.498  10.389 -10.922  1.00  0.00     0.038 A 
ATOM     80  C   UNL     1       8.394   8.902 -10.829  1.00  0.00     0.136 A 
ATOM     81  C   UNL     1       6.460  10.409  -9.521  1.00  0.00     0.085 A 
ATOM     82  C   UNL     1       8.335   8.894  -9.436  1.00  0.00     0.041 A 
ATOM     83  F   UNL     1       9.372   8.209 -11.430  1.00  0.00    -0.206 F 
ATOM     84  C   UNL     1       7.344   9.623  -8.775  1.00  0.00     0.025 A 
BRANCH  81  85
ATOM     85  S   UNL     1       5.329  11.550  -8.764  1.00  0.00     0.257 S 
ATOM     86  O   UNL     1       5.611  12.854  -9.347  1.00  0.00    -0.205 OA
ATOM     87  O   UNL     1       4.026  10.950  -8.810  1.00  0.00    -0.205 OA
BRANCH  85  88
ATOM     88  N   UNL     1       5.776  11.647  -7.125  1.00  0.00    -0.123 NA
ATOM     89  H   UNL     1       5.682  10.709  -6.736  1.00  0.00     0.167 HD
BRANCH  88  90
ATOM     90  N   UNL     1       7.095  12.117  -6.769  1.00  0.00    -0.275 N 
ATOM     91  C   UNL     1       7.417  12.855  -5.664  1.00  0.00     0.265 C 
ATOM     92  H   UNL     1       7.831  11.884  -7.380  1.00  0.00     0.186 HD
ATOM     93  O   UNL     1       8.617  12.947  -5.375  1.00  0.00    -0.271 OA
BRANCH  91  94
ATOM     94  C   UNL     1       6.341  13.547  -4.819  1.00  0.00     0.244 C 
ATOM     95  C   UNL     1       6.805  14.928  -4.523  1.00  0.00     0.042 C 
ATOM     96  N   UNL     1       5.101  13.801  -5.606  1.00  0.00    -0.171 NA
ATOM     97  C   UNL     1       5.967  15.733  -5.176  1.00  0.00     0.091 C 
ATOM     98  N   UNL     1       4.947  15.044  -5.782  1.00  0.00    -0.155 NA
BRANCH  97  99
ATOM     99  C   UNL     1       6.124  17.181  -5.285  1.00  0.00     0.002 A 
ATOM    100  C   UNL     1       5.111  18.042  -4.848  1.00  0.00     0.010 A 
ATOM    101  C   UNL     1       7.292  17.729  -5.840  1.00  0.00     0.010 A 
ATOM    102  C   UNL     1       5.272  19.427  -4.944  1.00  0.00     0.001 A 
ATOM    103  C   UNL     1       7.446  19.113  -5.945  1.00  0.00     0.001 A 
ATOM    104  C   UNL     1       6.439  19.961  -5.491  1.00  0.00     0.000 A 
ENDBRANCH  97  99
ENDBRANCH  91  94
ENDBRANCH  88  90
ENDBRANCH  85  88
ENDBRANCH  81  85
ENDBRANCH  75  78
ENDBRANCH   1  74
TORSDOF 16
