REMARK SMILES C[C@@H]1[C@H](C(=O)NCCCCNC(=O)c2ccc(-c3c4nc(c(-c5c(F)c(F)c(F)c(F)c5F)c5ccc([nH]5)c(-c5c(F)c(F)c(F)c(F)c5F)c5nc(c(-c6c(F)c(F)c(F)c(F)c6F)c6ccc3[nH]6)C=C5)C=C4)cc2)CC[N@H+]1Cc1cnn(-c2ccccc2)c1
REMARK SMILES IDX 8 1 7 2 6 3 4 4 5 5 3 7 1 8 2 9 79 10 77 11 78 12 80 14
REMARK SMILES IDX 81 15 82 16 91 17 83 18 84 19 85 20 86 21 90 22 87 23 89 24
REMARK SMILES IDX 88 25 9 26 10 27 11 28 12 29 13 31 14 32 15 33 76 34 16 35
REMARK SMILES IDX 75 36 17 37 18 38 19 39 69 40 20 41 74 42 68 43 70 44 21 45
REMARK SMILES IDX 73 46 67 47 66 48 22 50 54 51 34 52 53 53 35 54 38 55 52 56
REMARK SMILES IDX 71 57 36 58 37 59 51 61 72 62 39 63 23 64 24 65 32 66 25 67
REMARK SMILES IDX 26 68 30 69 33 70 27 71 28 72 31 73 29 74 55 75 56 76 64 77
REMARK SMILES IDX 57 78 58 79 62 80 65 81 59 82 60 83 63 84 61 85 40 86 41 87
REMARK SMILES IDX 49 88 42 89 43 90 47 91 50 92 44 93 45 94 48 95 46 96
REMARK H PARENT 6 6 79 13 11 30 70 49 38 60
REMARK Flexibility Score: inf
ROOT
ATOM      1  C   UNL     1       2.789   1.509   2.331  1.00  0.00     0.023 C 
ENDROOT
BRANCH   1   2
ATOM      2  C   UNL     1       1.342   1.846   1.982  1.00  0.00     0.116 C 
BRANCH   2   3
ATOM      3  N   UNL     1       1.262   2.650   0.783  1.00  0.00    -0.356 N 
ATOM      4  C   UNL     1       0.704   2.379  -0.424  1.00  0.00     0.229 C 
ATOM      5  O   UNL     1       0.863   3.228  -1.308  1.00  0.00    -0.275 OA
ATOM      6  H   UNL     1       1.679   3.539   0.855  1.00  0.00     0.163 HD
BRANCH   4   7
ATOM      7  C   UNL     1      -0.104   1.122  -0.724  1.00  0.00     0.142 C 
ATOM      8  C   UNL     1       2.098  -0.315  -0.546  1.00  0.00     0.076 C 
ATOM      9  C   UNL     1       0.599  -0.251  -0.788  1.00  0.00     0.193 C 
ATOM     10  N   UNL     1      -0.219  -1.058   0.099  1.00  0.00    -0.328 N 
ATOM     11  C   UNL     1      -1.347   0.926   0.159  1.00  0.00     0.081 C 
ATOM     12  C   UNL     1      -1.576  -0.577   0.149  1.00  0.00     0.263 C 
ATOM     13  H   UNL     1       0.399  -1.311   0.871  1.00  0.00     0.348 HD
BRANCH  10  14
ATOM     14  C   UNL     1       0.179  -2.278   0.746  1.00  0.00     0.302 C 
BRANCH  14  15
ATOM     15  C   UNL     1       0.563  -1.980   2.161  1.00  0.00     0.045 A 
ATOM     16  C   UNL     1      -0.281  -1.607   3.228  1.00  0.00     0.145 A 
ATOM     17  C   UNL     1       1.816  -2.010   2.745  1.00  0.00     0.124 A 
ATOM     18  N   UNL     1       0.370  -1.437   4.378  1.00  0.00    -0.176 NA
ATOM     19  N   UNL     1       1.672  -1.662   4.073  1.00  0.00    -0.240 N 
BRANCH  19  20
ATOM     20  C   UNL     1       2.691  -1.466   5.043  1.00  0.00     0.065 A 
ATOM     21  C   UNL     1       2.350  -1.453   6.402  1.00  0.00     0.028 A 
ATOM     22  C   UNL     1       4.020  -1.232   4.661  1.00  0.00     0.028 A 
ATOM     23  C   UNL     1       3.331  -1.223   7.368  1.00  0.00     0.002 A 
ATOM     24  C   UNL     1       4.986  -0.952   5.632  1.00  0.00     0.002 A 
ATOM     25  C   UNL     1       4.644  -0.957   6.983  1.00  0.00     0.000 A 
ENDBRANCH  19  20
ENDBRANCH  14  15
ENDBRANCH  10  14
ENDBRANCH   4   7
ENDBRANCH   2   3
ENDBRANCH   1   2
BRANCH   1  26
ATOM     26  C   UNL     1       3.611   2.616   2.960  1.00  0.00     0.023 C 
BRANCH  26  27
ATOM     27  C   UNL     1       2.990   3.266   4.180  1.00  0.00     0.116 C 
BRANCH  27  28
ATOM     28  N   UNL     1       2.608   2.341   5.240  1.00  0.00    -0.352 N 
ATOM     29  C   UNL     1       2.874   2.444   6.587  1.00  0.00     0.251 C 
ATOM     30  H   UNL     1       2.098   1.547   4.958  1.00  0.00     0.163 HD
ATOM     31  O   UNL     1       2.399   1.687   7.417  1.00  0.00    -0.269 OA
BRANCH  29  32
ATOM     32  C   UNL     1       3.761   3.524   7.030  1.00  0.00     0.039 A 
ATOM     33  C   UNL     1       4.968   3.215   7.663  1.00  0.00     0.014 A 
ATOM     34  C   UNL     1       3.401   4.841   6.750  1.00  0.00     0.014 A 
ATOM     35  C   UNL     1       5.842   4.248   7.996  1.00  0.00     0.010 A 
ATOM     36  C   UNL     1       4.314   5.851   6.985  1.00  0.00     0.010 A 
ATOM     37  C   UNL     1       5.521   5.568   7.646  1.00  0.00    -0.014 A 
BRANCH  37  38
ATOM     38  C   UNL     1       6.346   6.721   8.066  1.00  0.00     0.031 A 
ATOM     39  C   UNL     1       5.726   7.718   9.004  1.00  0.00     0.074 A 
ATOM     40  C   UNL     1       7.561   6.928   7.532  1.00  0.00     0.049 A 
ATOM     41  N   UNL     1       6.124   8.919   9.326  1.00  0.00    -0.248 NA
ATOM     42  C   UNL     1       4.442   7.325   9.614  1.00  0.00     0.031 C 
ATOM     43  C   UNL     1       8.244   6.035   6.596  1.00  0.00     0.029 A 
ATOM     44  N   UNL     1       8.425   7.982   7.682  1.00  0.00    -0.354 N 
ATOM     45  C   UNL     1       5.119   9.439  10.132  1.00  0.00     0.074 A 
ATOM     46  C   UNL     1       4.067   8.450  10.199  1.00  0.00     0.031 C 
ATOM     47  C   UNL     1       9.427   6.576   6.260  1.00  0.00     0.029 A 
ATOM     48  C   UNL     1       9.561   7.872   6.919  1.00  0.00     0.049 A 
ATOM     49  H   UNL     1       8.248   8.744   8.279  1.00  0.00     0.167 HD
ATOM     50  C   UNL     1       5.090  10.628  10.777  1.00  0.00     0.037 A 
ATOM     51  C   UNL     1      10.580   8.737   6.763  1.00  0.00     0.037 A 
ATOM     52  C   UNL     1       6.171  11.574  10.737  1.00  0.00     0.049 A 
ATOM     53  C   UNL     1      10.538  10.045   7.509  1.00  0.00     0.074 A 
ATOM     54  C   UNL     1       6.287  12.784  11.394  1.00  0.00     0.029 A 
ATOM     55  N   UNL     1       7.336  11.401  10.001  1.00  0.00    -0.354 N 
ATOM     56  N   UNL     1       9.603  10.521   8.297  1.00  0.00    -0.248 NA
ATOM     57  C   UNL     1      11.697  10.934   7.350  1.00  0.00     0.031 C 
ATOM     58  C   UNL     1       7.506  13.362  11.026  1.00  0.00     0.029 A 
ATOM     59  C   UNL     1       8.174  12.487  10.182  1.00  0.00     0.049 A 
ATOM     60  H   UNL     1       7.536  10.621   9.434  1.00  0.00     0.167 HD
ATOM     61  C   UNL     1      10.074  11.743   8.756  1.00  0.00     0.074 A 
ATOM     62  C   UNL     1      11.383  11.931   8.164  1.00  0.00     0.031 C 
ATOM     63  C   UNL     1       9.481  12.632   9.593  1.00  0.00     0.037 A 
BRANCH  50  64
ATOM     64  C   UNL     1       3.858  10.957  11.569  1.00  0.00     0.064 A 
ATOM     65  C   UNL     1       3.506  10.238  12.724  1.00  0.00     0.173 A 
ATOM     66  C   UNL     1       3.013  12.003  11.169  1.00  0.00     0.173 A 
ATOM     67  F   UNL     1       4.268   9.216  13.142  1.00  0.00    -0.203 F 
ATOM     68  C   UNL     1       2.336  10.527  13.421  1.00  0.00     0.198 A 
ATOM     69  C   UNL     1       1.863  12.313  11.892  1.00  0.00     0.198 A 
ATOM     70  F   UNL     1       3.299  12.724  10.075  1.00  0.00    -0.203 F 
ATOM     71  F   UNL     1       1.988   9.781  14.479  1.00  0.00    -0.200 F 
ATOM     72  C   UNL     1       1.520  11.569  13.009  1.00  0.00     0.200 A 
ATOM     73  F   UNL     1       1.082  13.329  11.499  1.00  0.00    -0.200 F 
ATOM     74  F   UNL     1       0.396  11.848  13.684  1.00  0.00    -0.200 F 
ENDBRANCH  50  64
BRANCH  51  75
ATOM     75  C   UNL     1      11.734   8.380   5.897  1.00  0.00     0.064 A 
ATOM     76  C   UNL     1      12.990   8.106   6.458  1.00  0.00     0.173 A 
ATOM     77  C   UNL     1      11.612   8.296   4.503  1.00  0.00     0.173 A 
ATOM     78  F   UNL     1      13.162   8.190   7.785  1.00  0.00    -0.203 F 
ATOM     79  C   UNL     1      14.083   7.782   5.657  1.00  0.00     0.198 A 
ATOM     80  C   UNL     1      12.699   7.944   3.704  1.00  0.00     0.198 A 
ATOM     81  F   UNL     1      10.431   8.540   3.916  1.00  0.00    -0.203 F 
ATOM     82  F   UNL     1      15.281   7.566   6.218  1.00  0.00    -0.200 F 
ATOM     83  C   UNL     1      13.935   7.694   4.281  1.00  0.00     0.200 A 
ATOM     84  F   UNL     1      12.549   7.844   2.377  1.00  0.00    -0.200 F 
ATOM     85  F   UNL     1      14.985   7.375   3.512  1.00  0.00    -0.200 F 
ENDBRANCH  51  75
BRANCH  63  86
ATOM     86  C   UNL     1      10.269  13.854   9.963  1.00  0.00     0.064 A 
ATOM     87  C   UNL     1      10.495  14.893   9.049  1.00  0.00     0.173 A 
ATOM     88  C   UNL     1      10.762  14.004  11.268  1.00  0.00     0.173 A 
ATOM     89  F   UNL     1      10.055  14.789   7.786  1.00  0.00    -0.203 F 
ATOM     90  C   UNL     1      11.213  16.026   9.421  1.00  0.00     0.198 A 
ATOM     91  C   UNL     1      11.450  15.153  11.646  1.00  0.00     0.198 A 
ATOM     92  F   UNL     1      10.562  13.043  12.182  1.00  0.00    -0.203 F 
ATOM     93  F   UNL     1      11.462  16.984   8.518  1.00  0.00    -0.200 F 
ATOM     94  C   UNL     1      11.682  16.159  10.720  1.00  0.00     0.200 A 
ATOM     95  F   UNL     1      11.888  15.287  12.905  1.00  0.00    -0.200 F 
ATOM     96  F   UNL     1      12.365  17.255  11.078  1.00  0.00    -0.200 F 
ENDBRANCH  63  86
ENDBRANCH  37  38
ENDBRANCH  29  32
ENDBRANCH  27  28
ENDBRANCH  26  27
ENDBRANCH   1  26
TORSDOF 14
