REMARK SMILES Cc1[nH]c(=O)sc1S(=O)(=O)NC1(CC(=O)NCCCCNC(=O)c2ccc(-c3c4nc(c(-c5c(F)c(F)c(F)c(F)c5F)c5ccc([nH]5)c(-c5c(F)c(F)c(F)c(F)c5F)c5nc(c(-c6c(F)c(F)c(F)c(F)c6F)c6ccc3[nH]6)C=C5)C=C4)cc2)CCC1
REMARK SMILES IDX 17 1 16 2 14 3 15 4 13 6 12 7 87 8 89 9 88 10 11 11 8 13
REMARK SMILES IDX 9 14 10 15 7 16 1 17 2 18 3 19 4 20 6 22 5 23 18 24 19 25
REMARK SMILES IDX 20 26 21 27 22 28 23 30 24 31 25 32 86 33 26 34 85 35 27 36
REMARK SMILES IDX 28 37 29 38 79 39 30 40 84 41 78 42 80 43 31 44 83 45 77 46
REMARK SMILES IDX 76 47 32 49 64 50 44 51 63 52 45 53 48 54 62 55 81 56 46 57
REMARK SMILES IDX 47 58 61 60 82 61 49 62 33 63 34 64 42 65 35 66 36 67 40 68
REMARK SMILES IDX 43 69 37 70 38 71 41 72 39 73 65 74 66 75 74 76 67 77 68 78
REMARK SMILES IDX 72 79 75 80 69 81 70 82 73 83 71 84 50 85 51 86 59 87 52 88
REMARK SMILES IDX 53 89 57 90 60 91 54 92 55 93 58 94 56 95
REMARK H PARENT 16 5 11 12 3 21 21 29 80 48 48 59
REMARK Flexibility Score: inf
ROOT
ATOM      1  C   UNL     1       1.105   1.761  -3.166  1.00  0.00     0.116 C 
ENDROOT
BRANCH   1   2
ATOM      2  N   UNL     1       2.111   2.655  -2.636  1.00  0.00    -0.356 N 
ATOM      3  C   UNL     1       3.443   2.428  -2.475  1.00  0.00     0.221 C 
ATOM      4  O   UNL     1       4.197   3.393  -2.630  1.00  0.00    -0.275 OA
ATOM      5  H   UNL     1       1.791   3.543  -2.356  1.00  0.00     0.163 HD
BRANCH   3   6
ATOM      6  C   UNL     1       4.012   1.050  -2.245  1.00  0.00     0.123 C 
BRANCH   6   7
ATOM      7  C   UNL     1       3.519   0.146  -1.099  1.00  0.00     0.042 C 
ATOM      8  C   UNL     1       4.416  -1.183  -1.104  1.00  0.00     0.024 C 
ATOM      9  C   UNL     1       2.348  -0.879  -1.369  1.00  0.00     0.024 C 
ATOM     10  C   UNL     1       3.353  -1.867  -1.960  1.00  0.00     0.004 C 
BRANCH   7  11
ATOM     11  N   UNL     1       3.597   0.745   0.301  1.00  0.00    -0.204 NA
ATOM     12  H   UNL     1       3.029   0.095   0.844  1.00  0.00     0.142 HD
BRANCH  11  13
ATOM     13  S   UNL     1       3.250   2.223   1.046  1.00  0.00     0.252 S 
ATOM     14  O   UNL     1       3.880   3.235   0.230  1.00  0.00    -0.206 OA
ATOM     15  O   UNL     1       3.755   2.011   2.391  1.00  0.00    -0.206 OA
BRANCH  13  16
ATOM     16  C   UNL     1       1.559   2.563   1.188  1.00  0.00     0.158 A 
ATOM     17  C   UNL     1       0.700   0.178   1.678  1.00  0.00     0.067 C 
ATOM     18  C   UNL     1       0.614   1.653   1.492  1.00  0.00     0.046 A 
ATOM     19  N   UNL     1      -0.636   2.219   1.644  1.00  0.00    -0.315 N 
ATOM     20  C   UNL     1      -0.735   3.579   1.472  1.00  0.00     0.305 A 
ATOM     21  H   UNL     1      -1.424   1.672   1.866  1.00  0.00     0.170 HD
ATOM     22  S   UNL     1       0.883   4.195   1.179  1.00  0.00    -0.061 S 
ATOM     23  O   UNL     1      -1.754   4.234   1.452  1.00  0.00    -0.257 OA
ENDBRANCH  13  16
ENDBRANCH  11  13
ENDBRANCH   7  11
ENDBRANCH   6   7
ENDBRANCH   3   6
ENDBRANCH   1   2
BRANCH   1  24
ATOM     24  C   UNL     1       0.082   1.303  -2.124  1.00  0.00     0.023 C 
BRANCH  24  25
ATOM     25  C   UNL     1      -0.877   2.347  -1.570  1.00  0.00     0.023 C 
BRANCH  25  26
ATOM     26  C   UNL     1      -1.905   2.863  -2.535  1.00  0.00     0.116 C 
BRANCH  26  27
ATOM     27  N   UNL     1      -2.958   1.893  -2.857  1.00  0.00    -0.352 N 
ATOM     28  C   UNL     1      -4.038   2.111  -3.707  1.00  0.00     0.251 C 
ATOM     29  H   UNL     1      -2.894   1.006  -2.433  1.00  0.00     0.163 HD
ATOM     30  O   UNL     1      -5.065   1.452  -3.638  1.00  0.00    -0.269 OA
BRANCH  28  31
ATOM     31  C   UNL     1      -3.870   3.167  -4.720  1.00  0.00     0.039 A 
ATOM     32  C   UNL     1      -4.806   4.172  -4.963  1.00  0.00     0.014 A 
ATOM     33  C   UNL     1      -2.599   3.228  -5.266  1.00  0.00     0.014 A 
ATOM     34  C   UNL     1      -4.387   5.282  -5.696  1.00  0.00     0.010 A 
ATOM     35  C   UNL     1      -2.122   4.458  -5.589  1.00  0.00     0.010 A 
ATOM     36  C   UNL     1      -3.015   5.431  -5.975  1.00  0.00    -0.014 A 
BRANCH  36  37
ATOM     37  C   UNL     1      -2.429   6.616  -6.585  1.00  0.00     0.031 A 
ATOM     38  C   UNL     1      -2.916   7.880  -5.993  1.00  0.00     0.074 A 
ATOM     39  C   UNL     1      -1.415   6.572  -7.483  1.00  0.00     0.049 A 
ATOM     40  N   UNL     1      -3.792   8.674  -6.506  1.00  0.00    -0.248 NA
ATOM     41  C   UNL     1      -2.557   8.202  -4.604  1.00  0.00     0.031 C 
ATOM     42  C   UNL     1      -0.615   5.424  -7.944  1.00  0.00     0.029 A 
ATOM     43  N   UNL     1      -0.837   7.603  -8.159  1.00  0.00    -0.354 N 
ATOM     44  C   UNL     1      -3.927   9.723  -5.608  1.00  0.00     0.074 A 
ATOM     45  C   UNL     1      -3.315   9.280  -4.383  1.00  0.00     0.031 C 
ATOM     46  C   UNL     1       0.466   5.852  -8.633  1.00  0.00     0.029 A 
ATOM     47  C   UNL     1       0.336   7.278  -8.839  1.00  0.00     0.049 A 
ATOM     48  H   UNL     1      -1.218   8.510  -8.165  1.00  0.00     0.167 HD
ATOM     49  C   UNL     1      -4.293  10.955  -6.058  1.00  0.00     0.037 A 
ATOM     50  C   UNL     1       1.127   8.129  -9.542  1.00  0.00     0.037 A 
ATOM     51  C   UNL     1      -4.822  10.865  -7.401  1.00  0.00     0.049 A 
ATOM     52  C   UNL     1       0.288   9.306  -9.879  1.00  0.00     0.074 A 
ATOM     53  C   UNL     1      -5.900  10.223  -7.977  1.00  0.00     0.029 A 
ATOM     54  N   UNL     1      -3.960  11.151  -8.432  1.00  0.00    -0.354 N 
ATOM     55  N   UNL     1      -0.734   9.250 -10.689  1.00  0.00    -0.248 NA
ATOM     56  C   UNL     1       0.281  10.408  -8.931  1.00  0.00     0.031 C 
ATOM     57  C   UNL     1      -5.416   9.738  -9.229  1.00  0.00     0.029 A 
ATOM     58  C   UNL     1      -4.104  10.186  -9.394  1.00  0.00     0.049 A 
ATOM     59  H   UNL     1      -3.344  11.919  -8.473  1.00  0.00     0.167 HD
ATOM     60  C   UNL     1      -1.709  10.023 -10.074  1.00  0.00     0.074 A 
ATOM     61  C   UNL     1      -1.003  10.764  -9.029  1.00  0.00     0.031 C 
ATOM     62  C   UNL     1      -3.034   9.764 -10.271  1.00  0.00     0.037 A 
BRANCH  49  63
ATOM     63  C   UNL     1      -3.793  12.261  -5.491  1.00  0.00     0.064 A 
ATOM     64  C   UNL     1      -4.308  13.464  -6.018  1.00  0.00     0.173 A 
ATOM     65  C   UNL     1      -2.630  12.393  -4.702  1.00  0.00     0.173 A 
ATOM     66  F   UNL     1      -5.407  13.458  -6.787  1.00  0.00    -0.203 F 
ATOM     67  C   UNL     1      -3.649  14.684  -5.854  1.00  0.00     0.198 A 
ATOM     68  C   UNL     1      -2.004  13.622  -4.499  1.00  0.00     0.198 A 
ATOM     69  F   UNL     1      -1.983  11.341  -4.194  1.00  0.00    -0.203 F 
ATOM     70  F   UNL     1      -4.100  15.773  -6.490  1.00  0.00    -0.200 F 
ATOM     71  C   UNL     1      -2.492  14.760  -5.103  1.00  0.00     0.200 A 
ATOM     72  F   UNL     1      -0.872  13.671  -3.783  1.00  0.00    -0.200 F 
ATOM     73  F   UNL     1      -1.819  15.913  -5.002  1.00  0.00    -0.200 F 
ENDBRANCH  49  63
BRANCH  50  74
ATOM     74  C   UNL     1       2.609   8.161  -9.630  1.00  0.00     0.064 A 
ATOM     75  C   UNL     1       3.263   8.941 -10.600  1.00  0.00     0.173 A 
ATOM     76  C   UNL     1       3.409   7.676  -8.577  1.00  0.00     0.173 A 
ATOM     77  F   UNL     1       2.568   9.478 -11.613  1.00  0.00    -0.203 F 
ATOM     78  C   UNL     1       4.627   9.245 -10.504  1.00  0.00     0.198 A 
ATOM     79  C   UNL     1       4.769   7.981  -8.482  1.00  0.00     0.198 A 
ATOM     80  F   UNL     1       2.864   6.981  -7.569  1.00  0.00    -0.203 F 
ATOM     81  F   UNL     1       5.201  10.045 -11.414  1.00  0.00    -0.200 F 
ATOM     82  C   UNL     1       5.375   8.777  -9.437  1.00  0.00     0.200 A 
ATOM     83  F   UNL     1       5.474   7.555  -7.424  1.00  0.00    -0.200 F 
ATOM     84  F   UNL     1       6.664   9.124  -9.307  1.00  0.00    -0.200 F 
ENDBRANCH  50  74
BRANCH  62  85
ATOM     85  C   UNL     1      -3.411   8.808 -11.372  1.00  0.00     0.064 A 
ATOM     86  C   UNL     1      -3.108   7.435 -11.375  1.00  0.00     0.173 A 
ATOM     87  C   UNL     1      -4.263   9.280 -12.379  1.00  0.00     0.173 A 
ATOM     88  F   UNL     1      -2.368   6.888 -10.404  1.00  0.00    -0.203 F 
ATOM     89  C   UNL     1      -3.623   6.583 -12.354  1.00  0.00     0.198 A 
ATOM     90  C   UNL     1      -4.802   8.423 -13.333  1.00  0.00     0.198 A 
ATOM     91  F   UNL     1      -4.623  10.573 -12.399  1.00  0.00    -0.203 F 
ATOM     92  F   UNL     1      -3.322   5.275 -12.334  1.00  0.00    -0.200 F 
ATOM     93  C   UNL     1      -4.478   7.076 -13.325  1.00  0.00     0.200 A 
ATOM     94  F   UNL     1      -5.665   8.899 -14.241  1.00  0.00    -0.200 F 
ATOM     95  F   UNL     1      -5.013   6.251 -14.236  1.00  0.00    -0.200 F 
ENDBRANCH  62  85
ENDBRANCH  36  37
ENDBRANCH  28  31
ENDBRANCH  26  27
ENDBRANCH  25  26
ENDBRANCH  24  25
ENDBRANCH   1  24
TORSDOF 15
