REMARK SMILES CC[C@H](NC(=O)N1CCO[C@@H](CC(=O)NCCCCNC(=O)c2ccc(-c3c4nc(c(-c5c(F)c(F)c(F)c(F)c5F)c5ccc([nH]5)c(-c5c(F)c(F)c(F)c(F)c5F)c5nc(c(-c6c(F)c(F)c(F)c(F)c6F)c6ccc3[nH]6)C=C5)C=C4)cc2)C1)c1cccs1
REMARK SMILES IDX 16 1 15 2 13 3 14 4 12 6 11 7 7 8 8 9 86 10 9 11 10 12 5 13
REMARK SMILES IDX 4 14 6 16 3 17 2 18 1 19 87 20 88 21 91 22 89 23 90 24 17 25
REMARK SMILES IDX 18 26 19 27 20 28 21 29 22 31 23 32 24 33 85 34 25 35 84 36
REMARK SMILES IDX 26 37 27 38 28 39 78 40 29 41 83 42 77 43 79 44 30 45 82 46
REMARK SMILES IDX 76 47 75 48 31 50 63 51 43 52 62 53 44 54 47 55 61 56 80 57
REMARK SMILES IDX 45 58 46 59 60 61 81 62 48 63 32 64 33 65 41 66 34 67 35 68
REMARK SMILES IDX 39 69 42 70 36 71 37 72 40 73 38 74 64 75 65 76 73 77 66 78
REMARK SMILES IDX 67 79 71 80 74 81 68 82 69 83 72 84 70 85 49 86 50 87 58 88
REMARK SMILES IDX 51 89 52 90 56 91 59 92 53 93 54 94 57 95 55 96
REMARK H PARENT 15 5 4 15 20 30 79 49 47 60
REMARK Flexibility Score: inf
ROOT
ATOM      1  C   UNL     1       3.980   1.671  -3.979  1.00  0.00     0.116 C 
ENDROOT
BRANCH   1   2
ATOM      2  N   UNL     1       4.812   2.022  -2.835  1.00  0.00    -0.356 N 
ATOM      3  C   UNL     1       5.628   1.256  -2.053  1.00  0.00     0.222 C 
ATOM      4  O   UNL     1       6.128   1.776  -1.054  1.00  0.00    -0.275 OA
ATOM      5  H   UNL     1       4.780   2.974  -2.584  1.00  0.00     0.163 HD
BRANCH   3   6
ATOM      6  C   UNL     1       5.895  -0.202  -2.378  1.00  0.00     0.133 C 
BRANCH   6   7
ATOM      7  C   UNL     1       5.027  -1.167  -1.561  1.00  0.00     0.147 C 
ATOM      8  N   UNL     1       2.618  -1.865  -1.356  1.00  0.00    -0.320 N 
ATOM      9  C   UNL     1       3.009  -3.208  -1.770  1.00  0.00     0.150 C 
ATOM     10  C   UNL     1       3.551  -0.857  -1.798  1.00  0.00     0.154 C 
ATOM     11  C   UNL     1       4.460  -3.474  -1.371  1.00  0.00     0.182 C 
ATOM     12  O   UNL     1       5.339  -2.513  -1.984  1.00  0.00    -0.374 OA
BRANCH   8  13
ATOM     13  C   UNL     1       1.299  -1.479  -1.367  1.00  0.00     0.318 C 
ATOM     14  N   UNL     1       0.484  -1.967  -0.414  1.00  0.00    -0.330 N 
ATOM     15  H   UNL     1      -0.444  -1.638  -0.451  1.00  0.00     0.166 HD
ATOM     16  O   UNL     1       0.851  -0.631  -2.137  1.00  0.00    -0.249 OA
BRANCH  14  17
ATOM     17  C   UNL     1       0.759  -2.899   0.657  1.00  0.00     0.124 C 
BRANCH  17  18
ATOM     18  C   UNL     1       0.186  -2.408   1.991  1.00  0.00     0.027 C 
ATOM     19  C   UNL     1       0.892  -1.147   2.483  1.00  0.00     0.006 C 
ENDBRANCH  17  18
BRANCH  17  20
ATOM     20  C   UNL     1       0.214  -4.247   0.239  1.00  0.00     0.027 A 
ATOM     21  C   UNL     1       0.811  -5.481   0.425  1.00  0.00     0.017 A 
ATOM     22  S   UNL     1      -1.249  -4.401  -0.654  1.00  0.00    -0.147 S 
ATOM     23  C   UNL     1       0.146  -6.519  -0.289  1.00  0.00     0.012 A 
ATOM     24  C   UNL     1      -0.969  -6.058  -0.951  1.00  0.00     0.065 A 
ENDBRANCH  17  20
ENDBRANCH  14  17
ENDBRANCH   8  13
ENDBRANCH   6   7
ENDBRANCH   3   6
ENDBRANCH   1   2
BRANCH   1  25
ATOM     25  C   UNL     1       2.504   1.570  -3.584  1.00  0.00     0.023 C 
BRANCH  25  26
ATOM     26  C   UNL     1       1.686   2.843  -3.669  1.00  0.00     0.023 C 
BRANCH  26  27
ATOM     27  C   UNL     1       1.427   3.323  -5.080  1.00  0.00     0.116 C 
BRANCH  27  28
ATOM     28  N   UNL     1       0.705   2.369  -5.912  1.00  0.00    -0.352 N 
ATOM     29  C   UNL     1      -0.322   2.598  -6.801  1.00  0.00     0.251 C 
ATOM     30  H   UNL     1       0.991   1.431  -5.826  1.00  0.00     0.163 HD
ATOM     31  O   UNL     1      -0.864   1.672  -7.386  1.00  0.00    -0.269 OA
BRANCH  29  32
ATOM     32  C   UNL     1      -0.803   3.982  -6.994  1.00  0.00     0.039 A 
ATOM     33  C   UNL     1      -2.178   4.226  -6.960  1.00  0.00     0.014 A 
ATOM     34  C   UNL     1       0.099   5.039  -7.114  1.00  0.00     0.014 A 
ATOM     35  C   UNL     1      -2.639   5.542  -6.957  1.00  0.00     0.010 A 
ATOM     36  C   UNL     1      -0.353   6.343  -6.982  1.00  0.00     0.010 A 
ATOM     37  C   UNL     1      -1.727   6.611  -6.916  1.00  0.00    -0.014 A 
BRANCH  37  38
ATOM     38  C   UNL     1      -2.193   8.015  -6.816  1.00  0.00     0.031 A 
ATOM     39  C   UNL     1      -1.845   9.000  -7.897  1.00  0.00     0.074 A 
ATOM     40  C   UNL     1      -2.860   8.418  -5.717  1.00  0.00     0.049 A 
ATOM     41  N   UNL     1      -2.129  10.275  -7.978  1.00  0.00    -0.248 NA
ATOM     42  C   UNL     1      -1.030   8.499  -9.015  1.00  0.00     0.031 C 
ATOM     43  C   UNL     1      -3.166   7.581  -4.556  1.00  0.00     0.029 A 
ATOM     44  N   UNL     1      -3.395   9.640  -5.395  1.00  0.00    -0.354 N 
ATOM     45  C   UNL     1      -1.506  10.726  -9.133  1.00  0.00     0.074 A 
ATOM     46  C   UNL     1      -0.770   9.611  -9.684  1.00  0.00     0.031 C 
ATOM     47  C   UNL     1      -3.864   8.303  -3.664  1.00  0.00     0.029 A 
ATOM     48  C   UNL     1      -4.032   9.658  -4.179  1.00  0.00     0.049 A 
ATOM     49  H   UNL     1      -3.329  10.429  -5.980  1.00  0.00     0.167 HD
ATOM     50  C   UNL     1      -1.570  11.952  -9.704  1.00  0.00     0.037 A 
ATOM     51  C   UNL     1      -4.686  10.655  -3.555  1.00  0.00     0.037 A 
ATOM     52  C   UNL     1      -2.345  13.042  -9.177  1.00  0.00     0.049 A 
ATOM     53  C   UNL     1      -4.808  11.987  -4.243  1.00  0.00     0.074 A 
ATOM     54  C   UNL     1      -2.567  14.291  -9.728  1.00  0.00     0.029 A 
ATOM     55  N   UNL     1      -3.028  13.008  -7.970  1.00  0.00    -0.354 N 
ATOM     56  N   UNL     1      -4.306  12.373  -5.392  1.00  0.00    -0.248 NA
ATOM     57  C   UNL     1      -5.601  13.016  -3.558  1.00  0.00     0.031 C 
ATOM     58  C   UNL     1      -3.348  15.029  -8.832  1.00  0.00     0.029 A 
ATOM     59  C   UNL     1      -3.654  14.224  -7.745  1.00  0.00     0.049 A 
ATOM     60  H   UNL     1      -3.064  12.234  -7.362  1.00  0.00     0.167 HD
ATOM     61  C   UNL     1      -4.730  13.682  -5.574  1.00  0.00     0.074 A 
ATOM     62  C   UNL     1      -5.556  14.013  -4.429  1.00  0.00     0.031 C 
ATOM     63  C   UNL     1      -4.459  14.535  -6.592  1.00  0.00     0.037 A 
BRANCH  50  64
ATOM     64  C   UNL     1      -0.786  12.166 -10.968  1.00  0.00     0.064 A 
ATOM     65  C   UNL     1      -1.130  11.525 -12.169  1.00  0.00     0.173 A 
ATOM     66  C   UNL     1       0.322  13.027 -10.979  1.00  0.00     0.173 A 
ATOM     67  F   UNL     1      -2.171  10.680 -12.210  1.00  0.00    -0.203 F 
ATOM     68  C   UNL     1      -0.370  11.705 -13.322  1.00  0.00     0.198 A 
ATOM     69  C   UNL     1       1.059  13.230 -12.143  1.00  0.00     0.198 A 
ATOM     70  F   UNL     1       0.693  13.667  -9.861  1.00  0.00    -0.203 F 
ATOM     71  F   UNL     1      -0.679  11.030 -14.438  1.00  0.00    -0.200 F 
ATOM     72  C   UNL     1       0.720  12.561 -13.309  1.00  0.00     0.200 A 
ATOM     73  F   UNL     1       2.106  14.067 -12.133  1.00  0.00    -0.200 F 
ATOM     74  F   UNL     1       1.451  12.734 -14.419  1.00  0.00    -0.200 F 
ENDBRANCH  50  64
BRANCH  51  75
ATOM     75  C   UNL     1      -5.314  10.412  -2.231  1.00  0.00     0.064 A 
ATOM     76  C   UNL     1      -6.707  10.332  -2.097  1.00  0.00     0.173 A 
ATOM     77  C   UNL     1      -4.536  10.234  -1.078  1.00  0.00     0.173 A 
ATOM     78  F   UNL     1      -7.494  10.513  -3.168  1.00  0.00    -0.203 F 
ATOM     79  C   UNL     1      -7.299  10.100  -0.857  1.00  0.00     0.198 A 
ATOM     80  C   UNL     1      -5.128   9.975   0.157  1.00  0.00     0.198 A 
ATOM     81  F   UNL     1      -3.199  10.293  -1.155  1.00  0.00    -0.203 F 
ATOM     82  F   UNL     1      -8.635  10.067  -0.751  1.00  0.00    -0.200 F 
ATOM     83  C   UNL     1      -6.510   9.915   0.267  1.00  0.00     0.200 A 
ATOM     84  F   UNL     1      -4.362   9.783   1.238  1.00  0.00    -0.200 F 
ATOM     85  F   UNL     1      -7.079   9.683   1.458  1.00  0.00    -0.200 F 
ENDBRANCH  51  75
BRANCH  63  86
ATOM     86  C   UNL     1      -5.066  15.905  -6.511  1.00  0.00     0.064 A 
ATOM     87  C   UNL     1      -4.614  16.852  -5.580  1.00  0.00     0.173 A 
ATOM     88  C   UNL     1      -6.095  16.282  -7.386  1.00  0.00     0.173 A 
ATOM     89  F   UNL     1      -3.641  16.535  -4.711  1.00  0.00    -0.203 F 
ATOM     90  C   UNL     1      -5.194  18.115  -5.506  1.00  0.00     0.198 A 
ATOM     91  C   UNL     1      -6.651  17.556  -7.330  1.00  0.00     0.198 A 
ATOM     92  F   UNL     1      -6.557  15.415  -8.300  1.00  0.00    -0.203 F 
ATOM     93  F   UNL     1      -4.785  18.984  -4.571  1.00  0.00    -0.200 F 
ATOM     94  C   UNL     1      -6.207  18.468  -6.384  1.00  0.00     0.200 A 
ATOM     95  F   UNL     1      -7.621  17.901  -8.189  1.00  0.00    -0.200 F 
ATOM     96  F   UNL     1      -6.764  19.685  -6.312  1.00  0.00    -0.200 F 
ENDBRANCH  63  86
ENDBRANCH  37  38
ENDBRANCH  29  32
ENDBRANCH  27  28
ENDBRANCH  26  27
ENDBRANCH  25  26
ENDBRANCH   1  25
TORSDOF 16
