REMARK SMILES CCc1nc(C(=O)N2CC[NH+]([C@H](C)C(=O)NCCCCNC(=O)c3ccc(-c4c5nc(c(-c6c(F)c(F)c(F)c(F)c6F)c6ccc([nH]6)c(-c6c(F)c(F)c(F)c(F)c6F)c6nc(c(-c7c(F)c(F)c(F)c(F)c7F)c7ccc4[nH]7)C=C6)C=C5)cc3)CC2)n[nH]1
REMARK SMILES IDX 18 1 17 2 16 3 14 4 15 5 12 7 13 8 11 9 6 10 7 11 8 12 9 13
REMARK SMILES IDX 88 14 10 15 87 16 5 18 3 19 4 20 90 21 89 22 2 24 1 25 19 26
REMARK SMILES IDX 20 27 21 28 22 29 23 31 24 32 25 33 86 34 26 35 85 36 27 37
REMARK SMILES IDX 28 38 29 39 79 40 30 41 84 42 78 43 80 44 31 45 83 46 77 47
REMARK SMILES IDX 76 48 32 50 64 51 44 52 63 53 45 54 48 55 62 56 81 57 46 58
REMARK SMILES IDX 47 59 61 61 82 62 49 63 33 64 34 65 42 66 35 67 36 68 40 69
REMARK SMILES IDX 43 70 37 71 38 72 41 73 39 74 65 75 66 76 74 77 67 78 68 79
REMARK SMILES IDX 72 80 75 81 69 82 70 83 73 84 71 85 50 86 51 87 59 88 52 89
REMARK SMILES IDX 53 90 57 91 60 92 54 93 55 94 58 95 56 96
REMARK H PARENT 16 6 11 17 90 23 21 30 80 49 48 60
REMARK Flexibility Score: inf
ROOT
ATOM      1  C   UNL     1      -0.141  -1.121   9.231  1.00  0.00     0.023 C 
ENDROOT
BRANCH   1   2
ATOM      2  C   UNL     1       1.304  -0.653   9.145  1.00  0.00     0.116 C 
BRANCH   2   3
ATOM      3  N   UNL     1       2.256  -1.554   9.759  1.00  0.00    -0.351 N 
ATOM      4  C   UNL     1       3.542  -1.849   9.393  1.00  0.00     0.278 C 
ATOM      5  O   UNL     1       4.227  -2.450  10.229  1.00  0.00    -0.268 OA
ATOM      6  H   UNL     1       1.930  -2.024  10.560  1.00  0.00     0.163 HD
BRANCH   4   7
ATOM      7  C   UNL     1       4.117  -1.492   7.999  1.00  0.00     0.271 C 
ATOM      8  C   UNL     1       3.227  -1.998   6.854  1.00  0.00     0.086 C 
BRANCH   7   9
ATOM      9  N   UNL     1       4.707  -0.122   7.895  1.00  0.00    -0.322 N 
ATOM     10  C   UNL     1       3.906   3.554   6.425  1.00  0.00     0.293 C 
ATOM     11  O   UNL     1       3.452   4.486   7.094  1.00  0.00    -0.265 OA
ATOM     12  N   UNL     1       4.787   2.635   7.006  1.00  0.00    -0.325 N 
ATOM     13  C   UNL     1       4.647   2.347   8.424  1.00  0.00     0.181 C 
ATOM     14  C   UNL     1       5.610   1.654   6.306  1.00  0.00     0.181 C 
ATOM     15  C   UNL     1       3.969   0.965   8.562  1.00  0.00     0.284 C 
ATOM     16  C   UNL     1       5.046   0.230   6.492  1.00  0.00     0.284 C 
ATOM     17  H   UNL     1       5.567  -0.198   8.438  1.00  0.00     0.348 HD
BRANCH  10  18
ATOM     18  C   UNL     1       3.438   3.306   5.036  1.00  0.00     0.239 A 
ATOM     19  C   UNL     1       2.662   2.227   3.363  1.00  0.00     0.124 A 
ATOM     20  N   UNL     1       3.344   2.040   4.471  1.00  0.00    -0.208 NA
ATOM     21  N   UNL     1       2.397   3.558   3.234  1.00  0.00    -0.263 N 
ATOM     22  N   UNL     1       2.875   4.260   4.268  1.00  0.00    -0.148 NA
ATOM     23  H   UNL     1       1.912   3.955   2.474  1.00  0.00     0.192 HD
BRANCH  19  24
ATOM     24  C   UNL     1       2.152   1.190   2.428  1.00  0.00     0.073 C 
ATOM     25  C   UNL     1       2.605   1.411   0.995  1.00  0.00     0.012 C 
ENDBRANCH  19  24
ENDBRANCH  10  18
ENDBRANCH   7   9
ENDBRANCH   4   7
ENDBRANCH   2   3
ENDBRANCH   1   2
BRANCH   1  26
ATOM     26  C   UNL     1      -0.730  -1.160  10.638  1.00  0.00     0.023 C 
BRANCH  26  27
ATOM     27  C   UNL     1      -0.517   0.091  11.484  1.00  0.00     0.116 C 
BRANCH  27  28
ATOM     28  N   UNL     1      -1.015   1.310  10.863  1.00  0.00    -0.352 N 
ATOM     29  C   UNL     1      -1.867   2.266  11.365  1.00  0.00     0.251 C 
ATOM     30  H   UNL     1      -0.694   1.474   9.947  1.00  0.00     0.163 HD
ATOM     31  O   UNL     1      -2.260   3.180  10.652  1.00  0.00    -0.269 OA
BRANCH  29  32
ATOM     32  C   UNL     1      -2.347   2.162  12.760  1.00  0.00     0.039 A 
ATOM     33  C   UNL     1      -3.711   2.326  13.014  1.00  0.00     0.014 A 
ATOM     34  C   UNL     1      -1.467   1.871  13.804  1.00  0.00     0.014 A 
ATOM     35  C   UNL     1      -4.203   2.115  14.303  1.00  0.00     0.010 A 
ATOM     36  C   UNL     1      -1.970   1.572  15.066  1.00  0.00     0.010 A 
ATOM     37  C   UNL     1      -3.343   1.693  15.330  1.00  0.00    -0.014 A 
BRANCH  37  38
ATOM     38  C   UNL     1      -3.862   1.375  16.684  1.00  0.00     0.031 A 
ATOM     39  C   UNL     1      -3.405   2.169  17.875  1.00  0.00     0.074 A 
ATOM     40  C   UNL     1      -4.689   0.323  16.851  1.00  0.00     0.049 A 
ATOM     41  N   UNL     1      -3.703   2.011  19.140  1.00  0.00    -0.248 NA
ATOM     42  C   UNL     1      -2.459   3.265  17.615  1.00  0.00     0.031 C 
ATOM     43  C   UNL     1      -5.146  -0.571  15.787  1.00  0.00     0.029 A 
ATOM     44  N   UNL     1      -5.280  -0.179  17.983  1.00  0.00    -0.354 N 
ATOM     45  C   UNL     1      -2.965   2.969  19.823  1.00  0.00     0.074 A 
ATOM     46  C   UNL     1      -2.162   3.664  18.842  1.00  0.00     0.031 C 
ATOM     47  C   UNL     1      -5.963  -1.498  16.312  1.00  0.00     0.029 A 
ATOM     48  C   UNL     1      -6.063  -1.284  17.752  1.00  0.00     0.049 A 
ATOM     49  H   UNL     1      -5.156   0.215  18.877  1.00  0.00     0.167 HD
ATOM     50  C   UNL     1      -2.975   3.259  21.146  1.00  0.00     0.037 A 
ATOM     51  C   UNL     1      -6.778  -2.041  18.606  1.00  0.00     0.037 A 
ATOM     52  C   UNL     1      -3.804   2.589  22.113  1.00  0.00     0.049 A 
ATOM     53  C   UNL     1      -6.804  -1.675  20.066  1.00  0.00     0.074 A 
ATOM     54  C   UNL     1      -3.955   2.867  23.460  1.00  0.00     0.029 A 
ATOM     55  N   UNL     1      -4.619   1.502  21.835  1.00  0.00    -0.354 N 
ATOM     56  N   UNL     1      -6.176  -0.706  20.687  1.00  0.00    -0.248 NA
ATOM     57  C   UNL     1      -7.649  -2.499  20.940  1.00  0.00     0.031 C 
ATOM     58  C   UNL     1      -4.824   1.917  24.007  1.00  0.00     0.029 A 
ATOM     59  C   UNL     1      -5.258   1.081  22.991  1.00  0.00     0.049 A 
ATOM     60  H   UNL     1      -4.728   1.090  20.947  1.00  0.00     0.167 HD
ATOM     61  C   UNL     1      -6.567  -0.788  22.016  1.00  0.00     0.074 A 
ATOM     62  C   UNL     1      -7.501  -1.891  22.109  1.00  0.00     0.031 C 
ATOM     63  C   UNL     1      -6.186  -0.019  23.066  1.00  0.00     0.037 A 
BRANCH  50  64
ATOM     64  C   UNL     1      -2.061   4.352  21.622  1.00  0.00     0.064 A 
ATOM     65  C   UNL     1      -2.275   5.696  21.279  1.00  0.00     0.173 A 
ATOM     66  C   UNL     1      -0.969   4.054  22.450  1.00  0.00     0.173 A 
ATOM     67  F   UNL     1      -3.299   6.035  20.481  1.00  0.00    -0.203 F 
ATOM     68  C   UNL     1      -1.408   6.695  21.715  1.00  0.00     0.198 A 
ATOM     69  C   UNL     1      -0.123   5.059  22.912  1.00  0.00     0.198 A 
ATOM     70  F   UNL     1      -0.721   2.787  22.815  1.00  0.00    -0.203 F 
ATOM     71  F   UNL     1      -1.599   7.963  21.326  1.00  0.00    -0.200 F 
ATOM     72  C   UNL     1      -0.337   6.377  22.536  1.00  0.00     0.200 A 
ATOM     73  F   UNL     1       0.903   4.752  23.717  1.00  0.00    -0.200 F 
ATOM     74  F   UNL     1       0.494   7.339  22.959  1.00  0.00    -0.200 F 
ENDBRANCH  50  64
BRANCH  51  75
ATOM     75  C   UNL     1      -7.554  -3.200  18.094  1.00  0.00     0.064 A 
ATOM     76  C   UNL     1      -8.955  -3.169  18.052  1.00  0.00     0.173 A 
ATOM     77  C   UNL     1      -6.913  -4.356  17.625  1.00  0.00     0.173 A 
ATOM     78  F   UNL     1      -9.614  -2.092  18.506  1.00  0.00    -0.203 F 
ATOM     79  C   UNL     1      -9.686  -4.256  17.578  1.00  0.00     0.198 A 
ATOM     80  C   UNL     1      -7.644  -5.432  17.126  1.00  0.00     0.198 A 
ATOM     81  F   UNL     1      -5.574  -4.433  17.637  1.00  0.00    -0.203 F 
ATOM     82  F   UNL     1     -11.025  -4.216  17.587  1.00  0.00    -0.200 F 
ATOM     83  C   UNL     1      -9.030  -5.384  17.109  1.00  0.00     0.200 A 
ATOM     84  F   UNL     1      -7.006  -6.514  16.659  1.00  0.00    -0.200 F 
ATOM     85  F   UNL     1      -9.733  -6.427  16.646  1.00  0.00    -0.200 F 
ENDBRANCH  51  75
BRANCH  63  86
ATOM     86  C   UNL     1      -6.800  -0.325  24.401  1.00  0.00     0.064 A 
ATOM     87  C   UNL     1      -6.457  -1.477  25.124  1.00  0.00     0.173 A 
ATOM     88  C   UNL     1      -7.715   0.567  24.982  1.00  0.00     0.173 A 
ATOM     89  F   UNL     1      -5.598  -2.368  24.606  1.00  0.00    -0.203 F 
ATOM     90  C   UNL     1      -7.029  -1.739  26.366  1.00  0.00     0.198 A 
ATOM     91  C   UNL     1      -8.260   0.318  26.238  1.00  0.00     0.198 A 
ATOM     92  F   UNL     1      -8.071   1.688  24.336  1.00  0.00    -0.203 F 
ATOM     93  F   UNL     1      -6.725  -2.870  27.016  1.00  0.00    -0.200 F 
ATOM     94  C   UNL     1      -7.923  -0.838  26.925  1.00  0.00     0.200 A 
ATOM     95  F   UNL     1      -9.113   1.196  26.783  1.00  0.00    -0.200 F 
ATOM     96  F   UNL     1      -8.467  -1.089  28.124  1.00  0.00    -0.200 F 
ENDBRANCH  63  86
ENDBRANCH  37  38
ENDBRANCH  29  32
ENDBRANCH  27  28
ENDBRANCH  26  27
ENDBRANCH   1  26
TORSDOF 14
