REMARK SMILES Nc1nc(N)nc(N/C=C/C(=O)NCCCCNC(=O)c2ccc(-c3c4nc(c(-c5c(F)c(F)c(F)c(F)c5F)c5ccc([nH]5)c(-c5c(F)c(F)c(F)c(F)c5F)c5nc(c(-c6c(F)c(F)c(F)c(F)c6F)c6ccc3[nH]6)C=C5)C=C4)cc2)n1
REMARK SMILES IDX 15 1 14 2 13 3 11 4 12 5 10 7 9 8 8 9 7 11 2 12 3 13 84 14
REMARK SMILES IDX 4 15 6 16 1 17 5 20 16 23 17 24 18 25 19 26 20 28 21 29
REMARK SMILES IDX 22 30 83 31 23 32 82 33 24 34 25 35 26 36 76 37 27 38 81 39
REMARK SMILES IDX 75 40 77 41 28 42 80 43 74 44 73 45 29 47 61 48 41 49 60 50
REMARK SMILES IDX 42 51 45 52 59 53 78 54 43 55 44 56 58 58 79 59 46 60 30 61
REMARK SMILES IDX 31 62 39 63 32 64 33 65 37 66 40 67 34 68 35 69 38 70 36 71
REMARK SMILES IDX 62 72 63 73 71 74 64 75 65 76 69 77 72 78 66 79 67 80 70 81
REMARK SMILES IDX 68 82 47 83 48 84 56 85 49 86 50 87 54 88 57 89 51 90 52 91
REMARK SMILES IDX 55 92 53 93
REMARK H PARENT 13 6 8 10 1 18 1 19 5 21 5 22 18 27 77 46 45 57
REMARK Flexibility Score: inf
ROOT
ATOM      1  C   UNL     1       4.405   3.280  -1.051  1.00  0.00     0.023 C 
ENDROOT
BRANCH   1   2
ATOM      2  C   UNL     1       3.970   3.968   0.246  1.00  0.00     0.116 C 
BRANCH   2   3
ATOM      3  N   UNL     1       3.545   5.334  -0.005  1.00  0.00    -0.353 N 
ATOM      4  C   UNL     1       2.305   5.889  -0.084  1.00  0.00     0.245 C 
ATOM      5  O   UNL     1       2.205   7.107  -0.226  1.00  0.00    -0.270 OA
ATOM      6  H   UNL     1       4.284   5.970  -0.143  1.00  0.00     0.163 HD
BRANCH   4   7
ATOM      7  C   UNL     1       1.070   5.088   0.089  1.00  0.00     0.089 C 
ATOM      8  C   UNL     1       0.893   3.837  -0.345  1.00  0.00     0.091 C 
BRANCH   8   9
ATOM      9  N   UNL     1      -0.196   3.026  -0.183  1.00  0.00    -0.330 N 
ATOM     10  H   UNL     1      -1.069   3.462  -0.055  1.00  0.00     0.169 HD
BRANCH   9  11
ATOM     11  C   UNL     1      -0.173   1.629  -0.183  1.00  0.00     0.233 A 
ATOM     12  C   UNL     1      -1.286  -0.303  -0.006  1.00  0.00     0.226 A 
ATOM     13  N   UNL     1      -0.177  -1.020  -0.033  1.00  0.00    -0.177 NA
ATOM     14  N   UNL     1      -1.343   1.018  -0.057  1.00  0.00    -0.177 NA
ATOM     15  C   UNL     1       0.938  -0.321  -0.143  1.00  0.00     0.226 A 
ATOM     16  N   UNL     1       0.997   0.994  -0.240  1.00  0.00    -0.177 NA
BRANCH  12  17
ATOM     17  N   UNL     1      -2.468  -0.982   0.080  1.00  0.00    -0.368 N 
ATOM     18  H   UNL     1      -2.469  -1.966   0.120  1.00  0.00     0.159 HD
ATOM     19  H   UNL     1      -3.320  -0.488   0.102  1.00  0.00     0.159 HD
ENDBRANCH  12  17
BRANCH  15  20
ATOM     20  N   UNL     1       2.119  -1.007  -0.134  1.00  0.00    -0.368 N 
ATOM     21  H   UNL     1       2.118  -1.989  -0.064  1.00  0.00     0.159 HD
ATOM     22  H   UNL     1       2.972  -0.520  -0.199  1.00  0.00     0.159 HD
ENDBRANCH  15  20
ENDBRANCH   9  11
ENDBRANCH   8   9
ENDBRANCH   4   7
ENDBRANCH   2   3
ENDBRANCH   1   2
BRANCH   1  23
ATOM     23  C   UNL     1       5.814   3.656  -1.521  1.00  0.00     0.023 C 
BRANCH  23  24
ATOM     24  C   UNL     1       6.939   3.255  -0.572  1.00  0.00     0.116 C 
BRANCH  24  25
ATOM     25  N   UNL     1       6.982   1.827  -0.299  1.00  0.00    -0.352 N 
ATOM     26  C   UNL     1       8.076   1.032  -0.049  1.00  0.00     0.251 C 
ATOM     27  H   UNL     1       6.111   1.369  -0.292  1.00  0.00     0.163 HD
ATOM     28  O   UNL     1       7.949  -0.179   0.066  1.00  0.00    -0.269 OA
BRANCH  26  29
ATOM     29  C   UNL     1       9.415   1.651   0.037  1.00  0.00     0.039 A 
ATOM     30  C   UNL     1      10.461   1.091  -0.701  1.00  0.00     0.014 A 
ATOM     31  C   UNL     1       9.630   2.791   0.815  1.00  0.00     0.014 A 
ATOM     32  C   UNL     1      11.709   1.718  -0.715  1.00  0.00     0.010 A 
ATOM     33  C   UNL     1      10.853   3.451   0.748  1.00  0.00     0.010 A 
ATOM     34  C   UNL     1      11.902   2.924  -0.020  1.00  0.00    -0.014 A 
BRANCH  34  35
ATOM     35  C   UNL     1      13.191   3.655  -0.094  1.00  0.00     0.031 A 
ATOM     36  C   UNL     1      14.034   3.825   1.136  1.00  0.00     0.074 A 
ATOM     37  C   UNL     1      13.561   4.231  -1.254  1.00  0.00     0.049 A 
ATOM     38  N   UNL     1      15.152   4.489   1.289  1.00  0.00    -0.248 NA
ATOM     39  C   UNL     1      13.541   3.188   2.366  1.00  0.00     0.031 C 
ATOM     40  C   UNL     1      12.801   4.182  -2.503  1.00  0.00     0.029 A 
ATOM     41  N   UNL     1      14.667   4.982  -1.566  1.00  0.00    -0.354 N 
ATOM     42  C   UNL     1      15.484   4.364   2.631  1.00  0.00     0.074 A 
ATOM     43  C   UNL     1      14.425   3.605   3.260  1.00  0.00     0.031 C 
ATOM     44  C   UNL     1      13.472   4.853  -3.453  1.00  0.00     0.029 A 
ATOM     45  C   UNL     1      14.691   5.408  -2.872  1.00  0.00     0.049 A 
ATOM     46  H   UNL     1      15.375   5.195  -0.917  1.00  0.00     0.167 HD
ATOM     47  C   UNL     1      16.585   4.822   3.275  1.00  0.00     0.037 A 
ATOM     48  C   UNL     1      15.593   6.164  -3.524  1.00  0.00     0.037 A 
ATOM     49  C   UNL     1      17.649   5.553   2.639  1.00  0.00     0.049 A 
ATOM     50  C   UNL     1      16.808   6.658  -2.788  1.00  0.00     0.074 A 
ATOM     51  C   UNL     1      18.838   5.999   3.188  1.00  0.00     0.029 A 
ATOM     52  N   UNL     1      17.648   5.951   1.310  1.00  0.00    -0.354 N 
ATOM     53  N   UNL     1      17.150   6.470  -1.537  1.00  0.00    -0.248 NA
ATOM     54  C   UNL     1      17.766   7.465  -3.558  1.00  0.00     0.031 C 
ATOM     55  C   UNL     1      19.538   6.703   2.202  1.00  0.00     0.029 A 
ATOM     56  C   UNL     1      18.807   6.656   1.026  1.00  0.00     0.049 A 
ATOM     57  H   UNL     1      16.930   5.759   0.663  1.00  0.00     0.167 HD
ATOM     58  C   UNL     1      18.371   7.110  -1.375  1.00  0.00     0.074 A 
ATOM     59  C   UNL     1      18.717   7.681  -2.660  1.00  0.00     0.031 C 
ATOM     60  C   UNL     1      19.137   7.215  -0.261  1.00  0.00     0.037 A 
BRANCH  47  61
ATOM     61  C   UNL     1      16.689   4.541   4.746  1.00  0.00     0.064 A 
ATOM     62  C   UNL     1      16.904   3.243   5.234  1.00  0.00     0.173 A 
ATOM     63  C   UNL     1      16.591   5.584   5.679  1.00  0.00     0.173 A 
ATOM     64  F   UNL     1      16.993   2.208   4.384  1.00  0.00    -0.203 F 
ATOM     65  C   UNL     1      16.980   2.994   6.601  1.00  0.00     0.198 A 
ATOM     66  C   UNL     1      16.699   5.336   7.045  1.00  0.00     0.198 A 
ATOM     67  F   UNL     1      16.392   6.845   5.267  1.00  0.00    -0.203 F 
ATOM     68  F   UNL     1      17.128   1.738   7.045  1.00  0.00    -0.200 F 
ATOM     69  C   UNL     1      16.883   4.041   7.505  1.00  0.00     0.200 A 
ATOM     70  F   UNL     1      16.617   6.350   7.917  1.00  0.00    -0.200 F 
ATOM     71  F   UNL     1      16.958   3.800   8.822  1.00  0.00    -0.200 F 
ENDBRANCH  47  61
BRANCH  48  72
ATOM     72  C   UNL     1      15.398   6.469  -4.965  1.00  0.00     0.064 A 
ATOM     73  C   UNL     1      16.213   5.875  -5.938  1.00  0.00     0.173 A 
ATOM     74  C   UNL     1      14.392   7.344  -5.399  1.00  0.00     0.173 A 
ATOM     75  F   UNL     1      17.201   5.047  -5.569  1.00  0.00    -0.203 F 
ATOM     76  C   UNL     1      16.040   6.157  -7.291  1.00  0.00     0.198 A 
ATOM     77  C   UNL     1      14.203   7.606  -6.754  1.00  0.00     0.198 A 
ATOM     78  F   UNL     1      13.583   7.933  -4.506  1.00  0.00    -0.203 F 
ATOM     79  F   UNL     1      16.857   5.605  -8.198  1.00  0.00    -0.200 F 
ATOM     80  C   UNL     1      15.031   7.017  -7.699  1.00  0.00     0.200 A 
ATOM     81  F   UNL     1      13.219   8.426  -7.145  1.00  0.00    -0.200 F 
ATOM     82  F   UNL     1      14.859   7.282  -9.001  1.00  0.00    -0.200 F 
ENDBRANCH  48  72
BRANCH  60  83
ATOM     83  C   UNL     1      20.440   7.948  -0.390  1.00  0.00     0.064 A 
ATOM     84  C   UNL     1      20.488   9.343  -0.524  1.00  0.00     0.173 A 
ATOM     85  C   UNL     1      21.656   7.249  -0.338  1.00  0.00     0.173 A 
ATOM     86  F   UNL     1      19.352  10.054  -0.595  1.00  0.00    -0.203 F 
ATOM     87  C   UNL     1      21.706  10.010  -0.625  1.00  0.00     0.198 A 
ATOM     88  C   UNL     1      22.872   7.922  -0.410  1.00  0.00     0.198 A 
ATOM     89  F   UNL     1      21.664   5.915  -0.205  1.00  0.00    -0.203 F 
ATOM     90  F   UNL     1      21.728  11.339  -0.797  1.00  0.00    -0.200 F 
ATOM     91  C   UNL     1      22.896   9.300  -0.560  1.00  0.00     0.200 A 
ATOM     92  F   UNL     1      24.021   7.236  -0.336  1.00  0.00    -0.200 F 
ATOM     93  F   UNL     1      24.068   9.945  -0.650  1.00  0.00    -0.200 F 
ENDBRANCH  60  83
ENDBRANCH  34  35
ENDBRANCH  26  29
ENDBRANCH  24  25
ENDBRANCH  23  24
ENDBRANCH   1  23
TORSDOF 15
