REMARK SMILES O=C(COc1ccc(Br)cc1/C=C1\NC(=O)N(Cc2ccc(F)cc2)C1=O)NCCCCNC(=O)c1ccc(-c2c3nc(c(-c4c(F)c(F)c(F)c(F)c4F)c4ccc([nH]4)c(-c4c(F)c(F)c(F)c(F)c4F)c4nc(c(-c5c(F)c(F)c(F)c(F)c5F)c5ccc2[nH]5)C=C4)C=C3)cc1
REMARK SMILES IDX 29 1 28 2 1 3 2 4 3 6 4 7 5 8 6 9 11 10 7 11 10 12 8 13 9 14
REMARK SMILES IDX 12 15 13 16 14 17 26 18 15 19 17 21 27 22 16 23 18 24 19 25
REMARK SMILES IDX 20 26 25 27 21 28 24 29 22 30 23 31 30 32 31 33 32 34 33 35
REMARK SMILES IDX 34 36 35 38 36 39 37 40 98 41 38 42 97 43 39 44 40 45 41 46
REMARK SMILES IDX 91 47 42 48 96 49 90 50 92 51 43 52 95 53 89 54 88 55 44 57
REMARK SMILES IDX 76 58 56 59 75 60 57 61 60 62 74 63 93 64 58 65 59 66 73 68
REMARK SMILES IDX 94 69 61 70 45 71 46 72 54 73 47 74 48 75 52 76 55 77 49 78
REMARK SMILES IDX 50 79 53 80 51 81 77 82 78 83 86 84 79 85 80 86 84 87 87 88
REMARK SMILES IDX 81 89 82 90 85 91 83 92 62 93 63 94 71 95 64 96 65 97 69 98
REMARK SMILES IDX 72 99 66 100 67 101 70 102 68 103
REMARK H PARENT 28 5 14 20 33 37 92 56 60 67
REMARK Flexibility Score: inf
ROOT
ATOM      1  C   UNL     1       2.139  -0.013  -2.557  1.00  0.00     0.116 C 
ENDROOT
BRANCH   1   2
ATOM      2  N   UNL     1       2.813  -0.001  -1.277  1.00  0.00    -0.353 N 
ATOM      3  O   UNL     1       1.021   0.775  -0.059  1.00  0.00    -0.271 OA
ATOM      4  C   UNL     1       2.156   0.312  -0.104  1.00  0.00     0.257 C 
ATOM      5  H   UNL     1       3.771  -0.222  -1.241  1.00  0.00     0.163 HD
BRANCH   4   6
ATOM      6  C   UNL     1       2.964   0.008   1.158  1.00  0.00     0.329 C 
BRANCH   6   7
ATOM      7  O   UNL     1       3.823  -1.129   1.053  1.00  0.00    -0.483 OA
BRANCH   7   8
ATOM      8  C   UNL     1       3.198  -2.325   1.317  1.00  0.00     0.127 A 
ATOM      9  C   UNL     1       2.219  -2.830   0.457  1.00  0.00     0.048 A 
ATOM     10  C   UNL     1       3.668  -3.115   2.380  1.00  0.00     0.020 A 
ATOM     11  C   UNL     1       1.696  -4.109   0.653  1.00  0.00     0.019 A 
ATOM     12  C   UNL     1       3.143  -4.402   2.569  1.00  0.00     0.027 A 
ATOM     13  C   UNL     1       2.164  -4.891   1.704  1.00  0.00     0.018 A 
ATOM     14  Br  UNL     1       1.488  -6.641   1.936  1.00  0.00    -0.051 Br
BRANCH  10  15
ATOM     15  C   UNL     1       4.718  -2.653   3.290  1.00  0.00     0.044 C 
ATOM     16  C   UNL     1       4.548  -1.730   4.240  1.00  0.00     0.109 C 
ATOM     17  N   UNL     1       3.417  -1.051   4.583  1.00  0.00    -0.303 N 
ATOM     18  C   UNL     1       5.623  -1.271   5.166  1.00  0.00     0.278 C 
ATOM     19  C   UNL     1       3.676  -0.226   5.669  1.00  0.00     0.329 C 
ATOM     20  H   UNL     1       2.548  -1.134   4.130  1.00  0.00     0.172 HD
ATOM     21  N   UNL     1       4.996  -0.403   6.022  1.00  0.00    -0.254 N 
ATOM     22  O   UNL     1       6.794  -1.610   5.124  1.00  0.00    -0.267 OA
ATOM     23  O   UNL     1       2.859   0.519   6.185  1.00  0.00    -0.248 OA
BRANCH  21  24
ATOM     24  C   UNL     1       5.636   0.235   7.150  1.00  0.00     0.166 C 
BRANCH  24  25
ATOM     25  C   UNL     1       5.713  -0.700   8.341  1.00  0.00    -0.028 A 
ATOM     26  C   UNL     1       6.655  -1.743   8.363  1.00  0.00     0.008 A 
ATOM     27  C   UNL     1       4.822  -0.569   9.419  1.00  0.00     0.008 A 
ATOM     28  C   UNL     1       6.695  -2.646   9.425  1.00  0.00     0.039 A 
ATOM     29  C   UNL     1       4.877  -1.464  10.490  1.00  0.00     0.039 A 
ATOM     30  C   UNL     1       5.806  -2.498  10.479  1.00  0.00     0.123 A 
ATOM     31  F   UNL     1       5.843  -3.365  11.499  1.00  0.00    -0.207 F 
ENDBRANCH  24  25
ENDBRANCH  21  24
ENDBRANCH  10  15
ENDBRANCH   7   8
ENDBRANCH   6   7
ENDBRANCH   4   6
ENDBRANCH   1   2
BRANCH   1  32
ATOM     32  C   UNL     1       2.559   1.136  -3.464  1.00  0.00     0.023 C 
BRANCH  32  33
ATOM     33  C   UNL     1       4.048   1.170  -3.814  1.00  0.00     0.023 C 
BRANCH  33  34
ATOM     34  C   UNL     1       4.604  -0.099  -4.453  1.00  0.00     0.116 C 
BRANCH  34  35
ATOM     35  N   UNL     1       3.997  -0.405  -5.738  1.00  0.00    -0.352 N 
ATOM     36  C   UNL     1       4.591  -0.655  -6.952  1.00  0.00     0.251 C 
ATOM     37  H   UNL     1       3.013  -0.439  -5.739  1.00  0.00     0.163 HD
ATOM     38  O   UNL     1       3.903  -0.757  -7.963  1.00  0.00    -0.269 OA
BRANCH  36  39
ATOM     39  C   UNL     1       6.064  -0.769  -7.056  1.00  0.00     0.039 A 
ATOM     40  C   UNL     1       6.717  -0.117  -8.105  1.00  0.00     0.014 A 
ATOM     41  C   UNL     1       6.801  -1.514  -6.131  1.00  0.00     0.014 A 
ATOM     42  C   UNL     1       8.112  -0.150  -8.184  1.00  0.00     0.010 A 
ATOM     43  C   UNL     1       8.194  -1.482  -6.167  1.00  0.00     0.010 A 
ATOM     44  C   UNL     1       8.865  -0.796  -7.190  1.00  0.00    -0.014 A 
BRANCH  44  45
ATOM     45  C   UNL     1      10.351  -0.750  -7.197  1.00  0.00     0.031 A 
ATOM     46  C   UNL     1      11.153  -2.013  -7.346  1.00  0.00     0.074 A 
ATOM     47  C   UNL     1      10.982   0.427  -7.011  1.00  0.00     0.049 A 
ATOM     48  N   UNL     1      12.452  -2.178  -7.306  1.00  0.00    -0.248 NA
ATOM     49  C   UNL     1      10.398  -3.260  -7.544  1.00  0.00     0.031 C 
ATOM     50  C   UNL     1      10.320   1.718  -6.821  1.00  0.00     0.029 A 
ATOM     51  N   UNL     1      12.321   0.730  -6.947  1.00  0.00    -0.354 N 
ATOM     52  C   UNL     1      12.666  -3.540  -7.464  1.00  0.00     0.074 A 
ATOM     53  C   UNL     1      11.365  -4.167  -7.548  1.00  0.00     0.031 C 
ATOM     54  C   UNL     1      11.251   2.676  -6.693  1.00  0.00     0.029 A 
ATOM     55  C   UNL     1      12.576   2.065  -6.745  1.00  0.00     0.049 A 
ATOM     56  H   UNL     1      13.031   0.054  -7.037  1.00  0.00     0.167 HD
ATOM     57  C   UNL     1      13.843  -4.204  -7.557  1.00  0.00     0.037 A 
ATOM     58  C   UNL     1      13.743   2.724  -6.607  1.00  0.00     0.037 A 
ATOM     59  C   UNL     1      15.136  -3.574  -7.501  1.00  0.00     0.049 A 
ATOM     60  C   UNL     1      15.036   1.958  -6.686  1.00  0.00     0.074 A 
ATOM     61  C   UNL     1      16.383  -4.159  -7.641  1.00  0.00     0.029 A 
ATOM     62  N   UNL     1      15.352  -2.221  -7.287  1.00  0.00    -0.354 N 
ATOM     63  N   UNL     1      15.225   0.677  -6.890  1.00  0.00    -0.248 NA
ATOM     64  C   UNL     1      16.278   2.727  -6.517  1.00  0.00     0.031 C 
ATOM     65  C   UNL     1      17.353  -3.172  -7.456  1.00  0.00     0.029 A 
ATOM     66  C   UNL     1      16.712  -1.959  -7.264  1.00  0.00     0.049 A 
ATOM     67  H   UNL     1      14.643  -1.547  -7.169  1.00  0.00     0.167 HD
ATOM     68  C   UNL     1      16.601   0.491  -6.903  1.00  0.00     0.074 A 
ATOM     69  C   UNL     1      17.201   1.792  -6.697  1.00  0.00     0.031 C 
ATOM     70  C   UNL     1      17.301  -0.658  -7.070  1.00  0.00     0.037 A 
BRANCH  57  71
ATOM     71  C   UNL     1      13.801  -5.693  -7.745  1.00  0.00     0.064 A 
ATOM     72  C   UNL     1      14.273  -6.551  -6.740  1.00  0.00     0.173 A 
ATOM     73  C   UNL     1      13.382  -6.267  -8.954  1.00  0.00     0.173 A 
ATOM     74  F   UNL     1      14.693  -6.053  -5.567  1.00  0.00    -0.203 F 
ATOM     75  C   UNL     1      14.345  -7.926  -6.947  1.00  0.00     0.198 A 
ATOM     76  C   UNL     1      13.426  -7.646  -9.146  1.00  0.00     0.198 A 
ATOM     77  F   UNL     1      12.913  -5.492  -9.944  1.00  0.00    -0.203 F 
ATOM     78  F   UNL     1      14.839  -8.721  -5.987  1.00  0.00    -0.200 F 
ATOM     79  C   UNL     1      13.919  -8.472  -8.148  1.00  0.00     0.200 A 
ATOM     80  F   UNL     1      12.992  -8.174 -10.299  1.00  0.00    -0.200 F 
ATOM     81  F   UNL     1      13.985  -9.796  -8.344  1.00  0.00    -0.200 F 
ENDBRANCH  57  71
BRANCH  58  82
ATOM     82  C   UNL     1      13.739   4.198  -6.413  1.00  0.00     0.064 A 
ATOM     83  C   UNL     1      13.252   4.781  -5.234  1.00  0.00     0.173 A 
ATOM     84  C   UNL     1      14.204   5.056  -7.419  1.00  0.00     0.173 A 
ATOM     85  F   UNL     1      12.792   4.005  -4.241  1.00  0.00    -0.203 F 
ATOM     86  C   UNL     1      13.210   6.165  -5.078  1.00  0.00     0.198 A 
ATOM     87  C   UNL     1      14.190   6.440  -7.250  1.00  0.00     0.198 A 
ATOM     88  F   UNL     1      14.700   4.547  -8.556  1.00  0.00    -0.203 F 
ATOM     89  F   UNL     1      12.705   6.696  -3.956  1.00  0.00    -0.200 F 
ATOM     90  C   UNL     1      13.684   6.993  -6.084  1.00  0.00     0.200 A 
ATOM     91  F   UNL     1      14.673   7.235  -8.214  1.00  0.00    -0.200 F 
ATOM     92  F   UNL     1      13.657   8.324  -5.928  1.00  0.00    -0.200 F 
ENDBRANCH  58  82
BRANCH  70  93
ATOM     93  C   UNL     1      18.800  -0.574  -7.069  1.00  0.00     0.064 A 
ATOM     94  C   UNL     1      19.525  -0.826  -8.245  1.00  0.00     0.173 A 
ATOM     95  C   UNL     1      19.523  -0.337  -5.891  1.00  0.00     0.173 A 
ATOM     96  F   UNL     1      18.881  -1.067  -9.397  1.00  0.00    -0.203 F 
ATOM     97  C   UNL     1      20.916  -0.866  -8.235  1.00  0.00     0.198 A 
ATOM     98  C   UNL     1      20.915  -0.347  -5.892  1.00  0.00     0.198 A 
ATOM     99  F   UNL     1      18.878  -0.080  -4.743  1.00  0.00    -0.203 F 
ATOM    100  F   UNL     1      21.584  -1.153  -9.361  1.00  0.00    -0.200 F 
ATOM    101  C   UNL     1      21.610  -0.624  -7.060  1.00  0.00     0.200 A 
ATOM    102  F   UNL     1      21.586  -0.088  -4.761  1.00  0.00    -0.200 F 
ATOM    103  F   UNL     1      22.950  -0.656  -7.053  1.00  0.00    -0.200 F 
ENDBRANCH  70  93
ENDBRANCH  44  45
ENDBRANCH  36  39
ENDBRANCH  34  35
ENDBRANCH  33  34
ENDBRANCH  32  33
ENDBRANCH   1  32
TORSDOF 16
