REMARK SMILES Cn1ccc(NC(=O)[C@@H]2CCCC[C@@H]2C(=O)NCCCCNC(=O)c2ccc(-c3c4nc(c(-c5c(F)c(F)c(F)c(F)c5F)c5ccc([nH]5)c(-c5c(F)c(F)c(F)c(F)c5F)c5nc(c(-c6c(F)c(F)c(F)c(F)c6F)c6ccc3[nH]6)C=C5)C=C4)cc2)n1
REMARK SMILES IDX 19 1 18 2 17 3 15 4 16 5 14 7 9 8 10 9 11 10 13 11 12 12
REMARK SMILES IDX 7 13 6 14 8 16 5 17 1 18 2 19 3 20 88 21 4 22 20 23 21 24
REMARK SMILES IDX 22 25 23 26 24 28 25 29 26 30 87 31 27 32 86 33 28 34 29 35
REMARK SMILES IDX 30 36 80 37 31 38 85 39 79 40 81 41 32 42 84 43 78 44 77 45
REMARK SMILES IDX 33 47 65 48 45 49 64 50 46 51 49 52 63 53 82 54 47 55 48 56
REMARK SMILES IDX 62 58 83 59 50 60 34 61 35 62 43 63 36 64 37 65 41 66 44 67
REMARK SMILES IDX 38 68 39 69 42 70 40 71 66 72 67 73 75 74 68 75 69 76 73 77
REMARK SMILES IDX 76 78 70 79 71 80 74 81 72 82 51 83 52 84 60 85 53 86 54 87
REMARK SMILES IDX 58 88 61 89 55 90 56 91 59 92 57 93
REMARK H PARENT 17 6 6 15 22 27 81 46 49 57
REMARK Flexibility Score: inf
ROOT
ATOM      1  C   UNL     1       3.939   2.208   1.452  1.00  0.00     0.023 C 
ENDROOT
BRANCH   1   2
ATOM      2  C   UNL     1       2.702   1.569   2.079  1.00  0.00     0.116 C 
BRANCH   2   3
ATOM      3  N   UNL     1       1.978   2.540   2.859  1.00  0.00    -0.356 N 
ATOM      4  C   UNL     1       0.841   3.231   2.584  1.00  0.00     0.223 C 
ATOM      5  O   UNL     1       0.477   4.016   3.462  1.00  0.00    -0.275 OA
ATOM      6  H   UNL     1       2.373   2.735   3.740  1.00  0.00     0.163 HD
BRANCH   4   7
ATOM      7  C   UNL     1       0.024   2.972   1.303  1.00  0.00     0.091 C 
ATOM      8  C   UNL     1       0.515   3.616  -0.018  1.00  0.00     0.091 C 
ATOM      9  C   UNL     1       0.632   5.136   0.185  1.00  0.00     0.014 C 
ATOM     10  C   UNL     1      -0.747   5.738   0.452  1.00  0.00     0.001 C 
ATOM     11  C   UNL     1      -1.425   3.487   1.510  1.00  0.00     0.014 C 
ATOM     12  C   UNL     1      -1.536   5.020   1.547  1.00  0.00     0.001 C 
BRANCH   8  13
ATOM     13  C   UNL     1       1.734   3.036  -0.739  1.00  0.00     0.229 C 
ATOM     14  N   UNL     1       1.798   1.740  -1.159  1.00  0.00    -0.309 N 
ATOM     15  H   UNL     1       2.650   1.480  -1.578  1.00  0.00     0.171 HD
ATOM     16  O   UNL     1       2.724   3.738  -0.980  1.00  0.00    -0.274 OA
BRANCH  14  17
ATOM     17  C   UNL     1       0.857   0.744  -1.088  1.00  0.00     0.154 A 
ATOM     18  C   UNL     1      -2.331  -0.454  -0.356  1.00  0.00     0.173 C 
ATOM     19  N   UNL     1      -0.945  -0.303  -0.725  1.00  0.00    -0.274 N 
ATOM     20  C   UNL     1      -0.013  -1.285  -0.868  1.00  0.00     0.110 A 
ATOM     21  N   UNL     1      -0.445   0.931  -0.888  1.00  0.00    -0.155 NA
ATOM     22  C   UNL     1       1.166  -0.637  -1.159  1.00  0.00     0.068 A 
ENDBRANCH  14  17
ENDBRANCH   8  13
ENDBRANCH   4   7
ENDBRANCH   2   3
ENDBRANCH   1   2
BRANCH   1  23
ATOM     23  C   UNL     1       5.157   2.258   2.368  1.00  0.00     0.023 C 
BRANCH  23  24
ATOM     24  C   UNL     1       5.730   0.894   2.717  1.00  0.00     0.116 C 
BRANCH  24  25
ATOM     25  N   UNL     1       6.198   0.139   1.562  1.00  0.00    -0.352 N 
ATOM     26  C   UNL     1       7.210  -0.792   1.531  1.00  0.00     0.251 C 
ATOM     27  H   UNL     1       5.738   0.314   0.710  1.00  0.00     0.163 HD
ATOM     28  O   UNL     1       7.559  -1.321   0.482  1.00  0.00    -0.269 OA
BRANCH  26  29
ATOM     29  C   UNL     1       7.906  -1.096   2.795  1.00  0.00     0.039 A 
ATOM     30  C   UNL     1       9.282  -0.874   2.878  1.00  0.00     0.014 A 
ATOM     31  C   UNL     1       7.169  -1.464   3.923  1.00  0.00     0.014 A 
ATOM     32  C   UNL     1       9.911  -0.941   4.121  1.00  0.00     0.010 A 
ATOM     33  C   UNL     1       7.782  -1.453   5.168  1.00  0.00     0.010 A 
ATOM     34  C   UNL     1       9.156  -1.184   5.281  1.00  0.00    -0.014 A 
BRANCH  34  35
ATOM     35  C   UNL     1       9.772  -1.164   6.630  1.00  0.00     0.031 A 
ATOM     36  C   UNL     1       9.772  -2.413   7.462  1.00  0.00     0.074 A 
ATOM     37  C   UNL     1      10.239  -0.007   7.139  1.00  0.00     0.049 A 
ATOM     38  N   UNL     1      10.127  -2.579   8.710  1.00  0.00    -0.248 NA
ATOM     39  C   UNL     1       9.265  -3.634   6.814  1.00  0.00     0.031 C 
ATOM     40  C   UNL     1      10.245   1.284   6.449  1.00  0.00     0.029 A 
ATOM     41  N   UNL     1      10.781   0.271   8.369  1.00  0.00    -0.354 N 
ATOM     42  C   UNL     1       9.858  -3.908   9.003  1.00  0.00     0.074 A 
ATOM     43  C   UNL     1       9.267  -4.494   7.820  1.00  0.00     0.031 C 
ATOM     44  C   UNL     1      10.783   2.212   7.258  1.00  0.00     0.029 A 
ATOM     45  C   UNL     1      11.123   1.591   8.534  1.00  0.00     0.049 A 
ATOM     46  H   UNL     1      10.913  -0.411   9.067  1.00  0.00     0.167 HD
ATOM     47  C   UNL     1      10.104  -4.585  10.149  1.00  0.00     0.037 A 
ATOM     48  C   UNL     1      11.645   2.228   9.600  1.00  0.00     0.037 A 
ATOM     49  C   UNL     1      10.735  -4.011  11.307  1.00  0.00     0.049 A 
ATOM     50  C   UNL     1      11.939   1.445  10.851  1.00  0.00     0.074 A 
ATOM     51  C   UNL     1      11.087  -4.629  12.493  1.00  0.00     0.029 A 
ATOM     52  N   UNL     1      11.117  -2.682  11.416  1.00  0.00    -0.354 N 
ATOM     53  N   UNL     1      11.732   0.174  11.099  1.00  0.00    -0.248 NA
ATOM     54  C   UNL     1      12.543   2.183  11.969  1.00  0.00     0.031 C 
ATOM     55  C   UNL     1      11.657  -3.666  13.334  1.00  0.00     0.029 A 
ATOM     56  C   UNL     1      11.695  -2.458  12.655  1.00  0.00     0.049 A 
ATOM     57  H   UNL     1      10.995  -1.999  10.718  1.00  0.00     0.167 HD
ATOM     58  C   UNL     1      12.208  -0.046  12.384  1.00  0.00     0.074 A 
ATOM     59  C   UNL     1      12.720   1.221  12.864  1.00  0.00     0.031 C 
ATOM     60  C   UNL     1      12.219  -1.194  13.103  1.00  0.00     0.037 A 
BRANCH  47  61
ATOM     61  C   UNL     1       9.695  -6.027  10.200  1.00  0.00     0.064 A 
ATOM     62  C   UNL     1      10.370  -7.008   9.458  1.00  0.00     0.173 A 
ATOM     63  C   UNL     1       8.629  -6.437  11.014  1.00  0.00     0.173 A 
ATOM     64  F   UNL     1      11.385  -6.665   8.651  1.00  0.00    -0.203 F 
ATOM     65  C   UNL     1       9.973  -8.342   9.506  1.00  0.00     0.198 A 
ATOM     66  C   UNL     1       8.254  -7.776  11.083  1.00  0.00     0.198 A 
ATOM     67  F   UNL     1       7.952  -5.539  11.746  1.00  0.00    -0.203 F 
ATOM     68  F   UNL     1      10.599  -9.252   8.748  1.00  0.00    -0.200 F 
ATOM     69  C   UNL     1       8.920  -8.725  10.323  1.00  0.00     0.200 A 
ATOM     70  F   UNL     1       7.242  -8.147  11.880  1.00  0.00    -0.200 F 
ATOM     71  F   UNL     1       8.542 -10.010  10.370  1.00  0.00    -0.200 F 
ENDBRANCH  47  61
BRANCH  48  72
ATOM     72  C   UNL     1      11.956   3.678   9.521  1.00  0.00     0.064 A 
ATOM     73  C   UNL     1      13.284   4.123   9.471  1.00  0.00     0.173 A 
ATOM     74  C   UNL     1      10.941   4.645   9.498  1.00  0.00     0.173 A 
ATOM     75  F   UNL     1      14.289   3.236   9.512  1.00  0.00    -0.203 F 
ATOM     76  C   UNL     1      13.587   5.482   9.420  1.00  0.00     0.198 A 
ATOM     77  C   UNL     1      11.245   6.003   9.422  1.00  0.00     0.198 A 
ATOM     78  F   UNL     1       9.655   4.270   9.540  1.00  0.00    -0.203 F 
ATOM     79  F   UNL     1      14.866   5.882   9.416  1.00  0.00    -0.200 F 
ATOM     80  C   UNL     1      12.567   6.421   9.391  1.00  0.00     0.200 A 
ATOM     81  F   UNL     1      10.256   6.907   9.383  1.00  0.00    -0.200 F 
ATOM     82  F   UNL     1      12.858   7.728   9.341  1.00  0.00    -0.200 F 
ENDBRANCH  48  72
BRANCH  60  83
ATOM     83  C   UNL     1      12.845  -1.149  14.464  1.00  0.00     0.064 A 
ATOM     84  C   UNL     1      12.200  -0.544  15.551  1.00  0.00     0.173 A 
ATOM     85  C   UNL     1      14.084  -1.768  14.692  1.00  0.00     0.173 A 
ATOM     86  F   UNL     1      11.021   0.072  15.379  1.00  0.00    -0.203 F 
ATOM     87  C   UNL     1      12.781  -0.545  16.816  1.00  0.00     0.198 A 
ATOM     88  C   UNL     1      14.650  -1.788  15.963  1.00  0.00     0.198 A 
ATOM     89  F   UNL     1      14.737  -2.365  13.683  1.00  0.00    -0.203 F 
ATOM     90  F   UNL     1      12.165   0.070  17.835  1.00  0.00    -0.200 F 
ATOM     91  C   UNL     1      14.001  -1.173  17.022  1.00  0.00     0.200 A 
ATOM     92  F   UNL     1      15.823  -2.406  16.163  1.00  0.00    -0.200 F 
ATOM     93  F   UNL     1      14.553  -1.182  18.243  1.00  0.00    -0.200 F 
ENDBRANCH  60  83
ENDBRANCH  34  35
ENDBRANCH  26  29
ENDBRANCH  24  25
ENDBRANCH  23  24
ENDBRANCH   1  23
TORSDOF 13
