REMARK SMILES Cc1c(NCc2ccccn2)cccc1C(=O)N1CCOC[C@@H]1CC(=O)NCCCCNC(=O)c1ccc(-c2c3nc(c(-c4c(F)c(F)c(F)c(F)c4F)c4ccc([nH]4)c(-c4c(F)c(F)c(F)c(F)c4F)c4nc(c(-c5c(F)c(F)c(F)c(F)c5F)c5ccc2[nH]5)C=C4)C=C3)cc1
REMARK SMILES IDX 25 1 26 2 27 3 24 5 23 6 18 7 19 8 20 9 22 10 21 11 16 12
REMARK SMILES IDX 17 13 15 14 1 15 2 16 3 17 12 18 14 19 13 20 4 21 5 23 6 24
REMARK SMILES IDX 7 25 11 26 8 27 10 28 9 29 28 30 29 31 30 32 31 33 32 34
REMARK SMILES IDX 33 35 34 37 35 38 36 39 97 40 37 41 96 42 38 43 39 44 40 45
REMARK SMILES IDX 90 46 41 47 95 48 89 49 91 50 42 51 94 52 88 53 87 54 43 56
REMARK SMILES IDX 75 57 55 58 74 59 56 60 59 61 73 62 92 63 57 64 58 65 72 67
REMARK SMILES IDX 93 68 60 69 44 70 45 71 53 72 46 73 47 74 51 75 54 76 48 77
REMARK SMILES IDX 49 78 52 79 50 80 76 81 77 82 85 83 78 84 79 85 83 86 86 87
REMARK SMILES IDX 80 88 81 89 84 90 82 91 61 92 62 93 70 94 63 95 64 96 68 97
REMARK SMILES IDX 71 98 65 99 66 100 69 101 67 102
REMARK H PARENT 27 4 4 22 32 36 91 55 59 66
REMARK Flexibility Score: inf
ROOT
ATOM      1  C   UNL     1       2.480   3.574   3.057  1.00  0.00     0.222 C 
ATOM      2  O   UNL     1       3.430   3.843   3.791  1.00  0.00    -0.275 OA
ATOM      3  N   UNL     1       1.411   2.916   3.596  1.00  0.00    -0.356 N 
ATOM      4  H   UNL     1       1.203   3.065   4.547  1.00  0.00     0.163 HD
ENDROOT
BRANCH   1   5
ATOM      5  C   UNL     1       2.428   4.016   1.595  1.00  0.00     0.127 C 
BRANCH   5   6
ATOM      6  C   UNL     1       3.288   3.305   0.523  1.00  0.00     0.120 C 
ATOM      7  N   UNL     1       2.688   2.315  -0.471  1.00  0.00    -0.331 N 
ATOM      8  C   UNL     1       3.690   2.017  -1.505  1.00  0.00     0.148 C 
ATOM      9  C   UNL     1       5.030   1.546  -0.920  1.00  0.00     0.181 C 
ATOM     10  C   UNL     1       4.574   2.677   1.115  1.00  0.00     0.185 C 
ATOM     11  O   UNL     1       5.535   2.449   0.069  1.00  0.00    -0.377 OA
BRANCH   7  12
ATOM     12  C   UNL     1       1.376   2.414  -0.970  1.00  0.00     0.254 C 
ATOM     13  O   UNL     1       0.805   3.501  -1.033  1.00  0.00    -0.269 OA
BRANCH  12  14
ATOM     14  C   UNL     1       0.512   1.135  -1.176  1.00  0.00     0.045 A 
ATOM     15  C   UNL     1       2.528  -0.924  -1.075  1.00  0.00     0.047 C 
ATOM     16  C   UNL     1       1.114  -0.537  -0.811  1.00  0.00    -0.015 A 
ATOM     17  C   UNL     1       0.023  -1.788  -0.058  1.00  0.00     0.038 A 
ATOM     18  C   UNL     1      -1.648  -1.325   0.455  1.00  0.00     0.026 A 
ATOM     19  C   UNL     1      -1.224   1.536  -0.815  1.00  0.00     0.014 A 
ATOM     20  C   UNL     1      -2.294   0.350   0.035  1.00  0.00     0.003 A 
BRANCH  17  21
ATOM     21  N   UNL     1       0.518  -3.064   0.197  1.00  0.00    -0.379 N 
ATOM     22  H   UNL     1       1.413  -3.170   0.593  1.00  0.00     0.160 HD
BRANCH  21  23
ATOM     23  C   UNL     1      -0.278  -4.244  -0.120  1.00  0.00     0.169 C 
BRANCH  23  24
ATOM     24  C   UNL     1       0.182  -4.933  -1.399  1.00  0.00     0.059 A 
ATOM     25  C   UNL     1       0.556  -4.205  -2.530  1.00  0.00     0.026 A 
ATOM     26  N   UNL     1       0.171  -6.293  -1.400  1.00  0.00    -0.259 NA
ATOM     27  C   UNL     1       0.952  -4.883  -3.680  1.00  0.00     0.004 A 
ATOM     28  C   UNL     1       0.541  -6.924  -2.538  1.00  0.00     0.111 A 
ATOM     29  C   UNL     1       0.942  -6.270  -3.690  1.00  0.00     0.020 A 
ENDBRANCH  23  24
ENDBRANCH  21  23
ENDBRANCH  17  21
ENDBRANCH  12  14
ENDBRANCH   7  12
ENDBRANCH   5   6
ENDBRANCH   1   5
BRANCH   3  30
ATOM     30  C   UNL     1       0.578   2.019   2.849  1.00  0.00     0.116 C 
BRANCH  30  31
ATOM     31  C   UNL     1       1.425   0.786   2.512  1.00  0.00     0.023 C 
BRANCH  31  32
ATOM     32  C   UNL     1       0.737  -0.374   1.796  1.00  0.00     0.023 C 
BRANCH  32  33
ATOM     33  C   UNL     1      -0.293   0.228   0.633  1.00  0.00     0.116 C 
BRANCH  33  34
ATOM     34  N   UNL     1      -0.925  -0.461  -1.235  1.00  0.00    -0.352 N 
ATOM     35  C   UNL     1      -1.956  -1.090  -2.109  1.00  0.00     0.251 C 
ATOM     36  H   UNL     1      -0.167  -0.280  -1.836  1.00  0.00     0.163 HD
ATOM     37  O   UNL     1      -1.560  -1.376  -3.248  1.00  0.00    -0.269 OA
BRANCH  35  38
ATOM     38  C   UNL     1      -3.455  -1.270  -1.879  1.00  0.00     0.039 A 
ATOM     39  C   UNL     1      -4.297  -0.482  -2.661  1.00  0.00     0.014 A 
ATOM     40  C   UNL     1      -4.033  -1.882  -0.774  1.00  0.00     0.014 A 
ATOM     41  C   UNL     1      -5.413   0.113  -2.070  1.00  0.00     0.010 A 
ATOM     42  C   UNL     1      -5.032  -1.174  -0.105  1.00  0.00     0.010 A 
ATOM     43  C   UNL     1      -5.598  -0.041  -0.702  1.00  0.00    -0.014 A 
BRANCH  43  44
ATOM     44  C   UNL     1      -6.029   1.087   0.163  1.00  0.00     0.031 A 
ATOM     45  C   UNL     1      -7.041   0.900   1.229  1.00  0.00     0.074 A 
ATOM     46  C   UNL     1      -5.406   2.297   0.084  1.00  0.00     0.049 A 
ATOM     47  N   UNL     1      -7.534   1.863   1.932  1.00  0.00    -0.248 NA
ATOM     48  C   UNL     1      -7.645  -0.386   1.552  1.00  0.00     0.031 C 
ATOM     49  C   UNL     1      -5.445   3.413   1.038  1.00  0.00     0.029 A 
ATOM     50  N   UNL     1      -4.688   2.835  -0.999  1.00  0.00    -0.354 N 
ATOM     51  C   UNL     1      -8.343   1.341   2.908  1.00  0.00     0.074 A 
ATOM     52  C   UNL     1      -8.423  -0.062   2.591  1.00  0.00     0.031 C 
ATOM     53  C   UNL     1      -5.092   4.547   0.415  1.00  0.00     0.029 A 
ATOM     54  C   UNL     1      -4.916   4.233  -0.985  1.00  0.00     0.049 A 
ATOM     55  H   UNL     1      -4.135   2.336  -1.643  1.00  0.00     0.167 HD
ATOM     56  C   UNL     1      -8.801   2.177   3.884  1.00  0.00     0.037 A 
ATOM     57  C   UNL     1      -5.565   4.833  -2.025  1.00  0.00     0.037 A 
ATOM     58  C   UNL     1      -8.651   3.577   3.463  1.00  0.00     0.049 A 
ATOM     59  C   UNL     1      -6.940   5.356  -1.656  1.00  0.00     0.074 A 
ATOM     60  C   UNL     1      -7.814   4.637   3.766  1.00  0.00     0.029 A 
ATOM     61  N   UNL     1      -9.351   3.967   2.333  1.00  0.00    -0.354 N 
ATOM     62  N   UNL     1      -7.437   5.326  -0.448  1.00  0.00    -0.248 NA
ATOM     63  C   UNL     1      -7.900   5.874  -2.631  1.00  0.00     0.031 C 
ATOM     64  C   UNL     1      -7.991   5.640   2.757  1.00  0.00     0.029 A 
ATOM     65  C   UNL     1      -8.959   5.204   1.869  1.00  0.00     0.049 A 
ATOM     66  H   UNL     1     -10.052   3.420   1.908  1.00  0.00     0.167 HD
ATOM     67  C   UNL     1      -8.746   5.721  -0.476  1.00  0.00     0.074 A 
ATOM     68  C   UNL     1      -8.991   6.062  -1.867  1.00  0.00     0.031 C 
ATOM     69  C   UNL     1      -9.547   5.701   0.630  1.00  0.00     0.037 A 
BRANCH  56  70
ATOM     70  C   UNL     1      -9.346   1.770   5.242  1.00  0.00     0.064 A 
ATOM     71  C   UNL     1      -9.664   2.756   6.205  1.00  0.00     0.173 A 
ATOM     72  C   UNL     1      -9.480   0.445   5.712  1.00  0.00     0.173 A 
ATOM     73  F   UNL     1      -9.588   4.063   5.916  1.00  0.00    -0.203 F 
ATOM     74  C   UNL     1     -10.046   2.441   7.516  1.00  0.00     0.198 A 
ATOM     75  C   UNL     1      -9.891   0.131   7.011  1.00  0.00     0.198 A 
ATOM     76  F   UNL     1      -9.187  -0.617   4.962  1.00  0.00    -0.203 F 
ATOM     77  F   UNL     1     -10.287   3.425   8.394  1.00  0.00    -0.200 F 
ATOM     78  C   UNL     1     -10.160   1.128   7.920  1.00  0.00     0.200 A 
ATOM     79  F   UNL     1      -9.996  -1.155   7.376  1.00  0.00    -0.200 F 
ATOM     80  F   UNL     1     -10.511   0.822   9.175  1.00  0.00    -0.200 F 
ENDBRANCH  56  70
BRANCH  57  81
ATOM     81  C   UNL     1      -5.132   4.253  -3.327  1.00  0.00     0.064 A 
ATOM     82  C   UNL     1      -3.760   4.371  -3.646  1.00  0.00     0.173 A 
ATOM     83  C   UNL     1      -5.854   3.236  -3.958  1.00  0.00     0.173 A 
ATOM     84  F   UNL     1      -3.028   5.348  -3.086  1.00  0.00    -0.203 F 
ATOM     85  C   UNL     1      -3.104   3.400  -4.396  1.00  0.00     0.198 A 
ATOM     86  C   UNL     1      -5.198   2.288  -4.749  1.00  0.00     0.198 A 
ATOM     87  F   UNL     1      -7.152   3.050  -3.677  1.00  0.00    -0.203 F 
ATOM     88  F   UNL     1      -1.770   3.435  -4.521  1.00  0.00    -0.200 F 
ATOM     89  C   UNL     1      -3.820   2.339  -4.918  1.00  0.00     0.200 A 
ATOM     90  F   UNL     1      -5.879   1.233  -5.219  1.00  0.00    -0.200 F 
ATOM     91  F   UNL     1      -3.179   1.327  -5.520  1.00  0.00    -0.200 F 
ENDBRANCH  57  81
BRANCH  69  92
ATOM     92  C   UNL     1     -10.989   6.134   0.604  1.00  0.00     0.064 A 
ATOM     93  C   UNL     1     -11.399   7.322  -0.021  1.00  0.00     0.173 A 
ATOM     94  C   UNL     1     -11.994   5.422   1.294  1.00  0.00     0.173 A 
ATOM     95  F   UNL     1     -10.510   8.108  -0.648  1.00  0.00    -0.203 F 
ATOM     96  C   UNL     1     -12.732   7.739  -0.005  1.00  0.00     0.198 A 
ATOM     97  C   UNL     1     -13.311   5.872   1.362  1.00  0.00     0.198 A 
ATOM     98  F   UNL     1     -11.739   4.251   1.895  1.00  0.00    -0.203 F 
ATOM     99  F   UNL     1     -13.091   8.844  -0.673  1.00  0.00    -0.200 F 
ATOM    100  C   UNL     1     -13.685   7.021   0.697  1.00  0.00     0.200 A 
ATOM    101  F   UNL     1     -14.215   5.177   2.068  1.00  0.00    -0.200 F 
ATOM    102  F   UNL     1     -14.960   7.431   0.726  1.00  0.00    -0.200 F 
ENDBRANCH  69  92
ENDBRANCH  43  44
ENDBRANCH  35  38
ENDBRANCH  33  34
ENDBRANCH  32  33
ENDBRANCH  31  32
ENDBRANCH  30  31
ENDBRANCH   3  30
TORSDOF 17
