REMARK SMILES CCCCNC(=O)[C@@H](C)Oc1ccc(N)cc1C(=O)NCCCCNC(=O)c1ccc(-c2c3nc(c(-c4c(F)c(F)c(F)c(F)c4F)c4ccc([nH]4)c(-c4c(F)c(F)c(F)c(F)c4F)c4nc(c(-c5c(F)c(F)c(F)c(F)c5F)c5ccc2[nH]5)C=C4)C=C3)cc1
REMARK SMILES IDX 18 1 19 2 20 3 17 5 11 6 12 7 13 8 16 9 14 10 10 11 8 12
REMARK SMILES IDX 9 13 6 14 5 15 7 17 4 18 3 19 2 20 1 21 15 22 21 25 22 26
REMARK SMILES IDX 23 27 24 28 25 29 26 30 27 32 28 33 29 34 90 35 30 36 89 37
REMARK SMILES IDX 31 38 32 39 33 40 83 41 34 42 88 43 82 44 84 45 35 46 87 47
REMARK SMILES IDX 81 48 80 49 36 51 68 52 48 53 67 54 49 55 52 56 66 57 85 58
REMARK SMILES IDX 50 59 51 60 65 62 86 63 53 64 37 65 38 66 46 67 39 68 40 69
REMARK SMILES IDX 44 70 47 71 41 72 42 73 45 74 43 75 69 76 70 77 78 78 71 79
REMARK SMILES IDX 72 80 76 81 79 82 73 83 74 84 77 85 75 86 54 87 55 88 63 89
REMARK SMILES IDX 56 90 57 91 61 92 64 93 58 94 59 95 62 96 60 97
REMARK H PARENT 20 4 5 16 15 23 15 24 25 31 84 50 52 61
REMARK Flexibility Score: inf
ROOT
ATOM      1  C   UNL     1       2.422   5.903  -3.350  1.00  0.00     0.255 C 
ATOM      2  O   UNL     1       3.567   6.071  -3.790  1.00  0.00    -0.269 OA
ATOM      3  N   UNL     1       1.698   7.063  -3.264  1.00  0.00    -0.352 N 
ATOM      4  H   UNL     1       2.153   7.854  -3.633  1.00  0.00     0.163 HD
ENDROOT
BRANCH   1   5
ATOM      5  C   UNL     1       1.981   4.489  -3.020  1.00  0.00     0.083 A 
ATOM      6  C   UNL     1       0.707   3.939  -2.784  1.00  0.00     0.133 A 
ATOM      7  C   UNL     1       0.518   2.560  -2.962  1.00  0.00     0.049 A 
ATOM      8  C   UNL     1       1.599   1.688  -3.087  1.00  0.00     0.029 A 
ATOM      9  C   UNL     1       3.060   3.566  -3.089  1.00  0.00     0.043 A 
ATOM     10  C   UNL     1       2.891   2.182  -3.041  1.00  0.00     0.032 A 
BRANCH   6  11
ATOM     11  O   UNL     1      -0.419   4.651  -2.514  1.00  0.00    -0.480 OA
BRANCH  11  12
ATOM     12  C   UNL     1      -1.040   4.530  -1.216  1.00  0.00     0.258 C 
ATOM     13  C   UNL     1      -0.327   5.207  -0.020  1.00  0.00     0.064 C 
BRANCH  12  14
ATOM     14  C   UNL     1      -1.762   3.235  -0.764  1.00  0.00     0.260 C 
ATOM     15  N   UNL     1      -1.119   2.251  -0.071  1.00  0.00    -0.353 N 
ATOM     16  H   UNL     1      -1.704   1.616   0.401  1.00  0.00     0.163 HD
ATOM     17  O   UNL     1      -2.966   3.075  -0.991  1.00  0.00    -0.271 OA
BRANCH  15  18
ATOM     18  C   UNL     1       0.303   2.006   0.070  1.00  0.00     0.116 C 
BRANCH  18  19
ATOM     19  C   UNL     1       0.720   1.640   1.485  1.00  0.00     0.021 C 
BRANCH  19  20
ATOM     20  C   UNL     1       0.370   0.204   1.881  1.00  0.00    -0.002 C 
ATOM     21  C   UNL     1       0.922  -0.842   0.919  1.00  0.00     0.004 C 
ENDBRANCH  19  20
ENDBRANCH  18  19
ENDBRANCH  15  18
ENDBRANCH  12  14
ENDBRANCH  11  12
ENDBRANCH   6  11
BRANCH  10  22
ATOM     22  N   UNL     1       3.980   1.331  -3.111  1.00  0.00    -0.399 N 
ATOM     23  H   UNL     1       3.846   0.357  -3.076  1.00  0.00     0.156 HD
ATOM     24  H   UNL     1       4.888   1.701  -3.196  1.00  0.00     0.156 HD
ENDBRANCH  10  22
ENDBRANCH   1   5
BRANCH   3  25
ATOM     25  C   UNL     1       0.398   7.324  -2.734  1.00  0.00     0.116 C 
BRANCH  25  26
ATOM     26  C   UNL     1       0.316   8.535  -1.821  1.00  0.00     0.023 C 
BRANCH  26  27
ATOM     27  C   UNL     1       0.091   9.849  -2.537  1.00  0.00     0.023 C 
BRANCH  27  28
ATOM     28  C   UNL     1      -1.051   9.827  -3.541  1.00  0.00     0.116 C 
BRANCH  28  29
ATOM     29  N   UNL     1      -2.336   9.407  -2.980  1.00  0.00    -0.352 N 
ATOM     30  C   UNL     1      -3.538  10.079  -2.984  1.00  0.00     0.251 C 
ATOM     31  H   UNL     1      -2.341   8.526  -2.540  1.00  0.00     0.163 HD
ATOM     32  O   UNL     1      -4.524   9.639  -2.407  1.00  0.00    -0.269 OA
BRANCH  30  33
ATOM     33  C   UNL     1      -3.587  11.386  -3.663  1.00  0.00     0.039 A 
ATOM     34  C   UNL     1      -3.927  12.522  -2.928  1.00  0.00     0.014 A 
ATOM     35  C   UNL     1      -3.102  11.488  -4.966  1.00  0.00     0.014 A 
ATOM     36  C   UNL     1      -3.655  13.782  -3.461  1.00  0.00     0.010 A 
ATOM     37  C   UNL     1      -2.720  12.733  -5.438  1.00  0.00     0.010 A 
ATOM     38  C   UNL     1      -2.982  13.893  -4.688  1.00  0.00    -0.014 A 
BRANCH  38  39
ATOM     39  C   UNL     1      -2.538  15.199  -5.240  1.00  0.00     0.031 A 
ATOM     40  C   UNL     1      -3.002  15.597  -6.614  1.00  0.00     0.074 A 
ATOM     41  C   UNL     1      -1.631  15.951  -4.585  1.00  0.00     0.049 A 
ATOM     42  N   UNL     1      -2.559  16.544  -7.398  1.00  0.00    -0.248 NA
ATOM     43  C   UNL     1      -4.066  14.771  -7.209  1.00  0.00     0.031 C 
ATOM     44  C   UNL     1      -1.060  15.651  -3.270  1.00  0.00     0.029 A 
ATOM     45  N   UNL     1      -1.009  17.119  -4.954  1.00  0.00    -0.354 N 
ATOM     46  C   UNL     1      -3.246  16.386  -8.595  1.00  0.00     0.074 A 
ATOM     47  C   UNL     1      -4.097  15.226  -8.451  1.00  0.00     0.031 C 
ATOM     48  C   UNL     1      -0.192  16.620  -2.934  1.00  0.00     0.029 A 
ATOM     49  C   UNL     1      -0.105  17.582  -4.028  1.00  0.00     0.049 A 
ATOM     50  H   UNL     1      -1.193  17.581  -5.803  1.00  0.00     0.167 HD
ATOM     51  C   UNL     1      -3.188  17.154  -9.707  1.00  0.00     0.037 A 
ATOM     52  C   UNL     1       0.709  18.654  -4.067  1.00  0.00     0.037 A 
ATOM     53  C   UNL     1      -2.406  18.354  -9.811  1.00  0.00     0.049 A 
ATOM     54  C   UNL     1       0.700  19.536  -5.287  1.00  0.00     0.074 A 
ATOM     55  C   UNL     1      -2.336  19.250 -10.862  1.00  0.00     0.029 A 
ATOM     56  N   UNL     1      -1.575  18.838  -8.812  1.00  0.00    -0.354 N 
ATOM     57  N   UNL     1       0.018  19.401  -6.399  1.00  0.00    -0.248 NA
ATOM     58  C   UNL     1       1.569  20.721  -5.259  1.00  0.00     0.031 C 
ATOM     59  C   UNL     1      -1.449  20.270 -10.506  1.00  0.00     0.029 A 
ATOM     60  C   UNL     1      -0.993  20.025  -9.220  1.00  0.00     0.049 A 
ATOM     61  H   UNL     1      -1.422  18.402  -7.942  1.00  0.00     0.167 HD
ATOM     62  C   UNL     1       0.345  20.498  -7.184  1.00  0.00     0.074 A 
ATOM     63  C   UNL     1       1.287  21.292  -6.423  1.00  0.00     0.031 C 
ATOM     64  C   UNL     1      -0.094  20.819  -8.424  1.00  0.00     0.037 A 
BRANCH  51  65
ATOM     65  C   UNL     1      -4.008  16.727 -10.887  1.00  0.00     0.064 A 
ATOM     66  C   UNL     1      -5.409  16.804 -10.876  1.00  0.00     0.173 A 
ATOM     67  C   UNL     1      -3.385  16.253 -12.050  1.00  0.00     0.173 A 
ATOM     68  F   UNL     1      -6.053  17.235  -9.780  1.00  0.00    -0.203 F 
ATOM     69  C   UNL     1      -6.157  16.389 -11.974  1.00  0.00     0.198 A 
ATOM     70  C   UNL     1      -4.135  15.870 -13.159  1.00  0.00     0.198 A 
ATOM     71  F   UNL     1      -2.048  16.163 -12.114  1.00  0.00    -0.203 F 
ATOM     72  F   UNL     1      -7.496  16.418 -11.918  1.00  0.00    -0.200 F 
ATOM     73  C   UNL     1      -5.520  15.930 -13.117  1.00  0.00     0.200 A 
ATOM     74  F   UNL     1      -3.518  15.437 -14.267  1.00  0.00    -0.200 F 
ATOM     75  F   UNL     1      -6.242  15.537 -14.175  1.00  0.00    -0.200 F 
ENDBRANCH  51  65
BRANCH  52  76
ATOM     76  C   UNL     1       1.580  18.976  -2.906  1.00  0.00     0.064 A 
ATOM     77  C   UNL     1       1.306  20.086  -2.095  1.00  0.00     0.173 A 
ATOM     78  C   UNL     1       2.703  18.199  -2.590  1.00  0.00     0.173 A 
ATOM     79  F   UNL     1       0.255  20.872  -2.370  1.00  0.00    -0.203 F 
ATOM     80  C   UNL     1       2.135  20.420  -1.025  1.00  0.00     0.198 A 
ATOM     81  C   UNL     1       3.517  18.519  -1.505  1.00  0.00     0.198 A 
ATOM     82  F   UNL     1       3.006  17.123  -3.331  1.00  0.00    -0.203 F 
ATOM     83  F   UNL     1       1.875  21.514  -0.295  1.00  0.00    -0.200 F 
ATOM     84  C   UNL     1       3.237  19.634  -0.729  1.00  0.00     0.200 A 
ATOM     85  F   UNL     1       4.576  17.751  -1.213  1.00  0.00    -0.200 F 
ATOM     86  F   UNL     1       4.035  19.956   0.299  1.00  0.00    -0.200 F 
ENDBRANCH  52  76
BRANCH  64  87
ATOM     87  C   UNL     1       0.375  22.113  -9.014  1.00  0.00     0.064 A 
ATOM     88  C   UNL     1       1.665  22.257  -9.542  1.00  0.00     0.173 A 
ATOM     89  C   UNL     1      -0.512  23.195  -9.126  1.00  0.00     0.173 A 
ATOM     90  F   UNL     1       2.550  21.253  -9.445  1.00  0.00    -0.203 F 
ATOM     91  C   UNL     1       2.054  23.443 -10.157  1.00  0.00     0.198 A 
ATOM     92  C   UNL     1      -0.127  24.370  -9.762  1.00  0.00     0.198 A 
ATOM     93  F   UNL     1      -1.759  23.100  -8.641  1.00  0.00    -0.203 F 
ATOM     94  F   UNL     1       3.299  23.570 -10.635  1.00  0.00    -0.200 F 
ATOM     95  C   UNL     1       1.156  24.494 -10.275  1.00  0.00     0.200 A 
ATOM     96  F   UNL     1      -0.999  25.380  -9.886  1.00  0.00    -0.200 F 
ATOM     97  F   UNL     1       1.527  25.629 -10.883  1.00  0.00    -0.200 F 
ENDBRANCH  64  87
ENDBRANCH  38  39
ENDBRANCH  30  33
ENDBRANCH  28  29
ENDBRANCH  27  28
ENDBRANCH  26  27
ENDBRANCH  25  26
ENDBRANCH   3  25
TORSDOF 18
