REMARK SMILES Cc1ccc(-n2nc(C(=O)NCCCCNC(=O)c3ccc(-c4c5nc(c(-c6c(F)c(F)c(F)c(F)c6F)c6ccc([nH]6)c(-c6c(F)c(F)c(F)c(F)c6F)c6nc(c(-c7c(F)c(F)c(F)c(F)c7F)c7ccc4[nH]7)C=C6)C=C5)cc3)c(C)c(C#N)c2=O)cc1Cl
REMARK SMILES IDX 14 1 13 2 12 3 11 4 9 5 10 6 8 8 6 9 7 10 87 11 84 12 88 13
REMARK SMILES IDX 82 14 83 15 5 16 1 17 2 18 3 19 90 20 4 21 89 22 91 23 85 24
REMARK SMILES IDX 86 25 15 26 16 27 17 28 18 30 19 31 20 32 81 33 21 34 80 35
REMARK SMILES IDX 22 36 23 37 24 38 74 39 25 40 79 41 73 42 75 43 26 44 78 45
REMARK SMILES IDX 72 46 71 47 27 49 59 50 39 51 58 52 40 53 43 54 57 55 76 56
REMARK SMILES IDX 41 57 42 58 56 60 77 61 44 62 28 63 29 64 37 65 30 66 31 67
REMARK SMILES IDX 35 68 38 69 32 70 33 71 36 72 34 73 60 74 61 75 69 76 62 77
REMARK SMILES IDX 63 78 67 79 70 80 64 81 65 82 68 83 66 84 45 85 46 86 54 87
REMARK SMILES IDX 47 88 48 89 52 90 55 91 49 92 50 93 53 94 51 95
REMARK H PARENT 11 7 16 29 75 48 43 59
REMARK Flexibility Score: inf
ROOT
ATOM      1  C   UNL     1      -4.514  -9.796   1.641  1.00  0.00     0.023 C 
ENDROOT
BRANCH   1   2
ATOM      2  C   UNL     1      -4.407  -8.457   0.929  1.00  0.00     0.023 C 
BRANCH   2   3
ATOM      3  C   UNL     1      -4.779  -7.287   1.836  1.00  0.00     0.116 C 
BRANCH   3   4
ATOM      4  N   UNL     1      -3.646  -6.479   2.165  1.00  0.00    -0.351 N 
ATOM      5  C   UNL     1      -3.165  -5.254   1.827  1.00  0.00     0.272 C 
ATOM      6  O   UNL     1      -2.339  -4.834   2.648  1.00  0.00    -0.267 OA
ATOM      7  H   UNL     1      -3.056  -6.933   2.810  1.00  0.00     0.163 HD
BRANCH   5   8
ATOM      8  C   UNL     1      -3.452  -4.347   0.599  1.00  0.00     0.153 A 
ATOM      9  N   UNL     1      -2.720  -2.335  -0.277  1.00  0.00    -0.195 N 
ATOM     10  N   UNL     1      -2.622  -3.339   0.620  1.00  0.00    -0.159 NA
ATOM     11  C   UNL     1      -3.603  -2.322  -1.336  1.00  0.00     0.289 A 
ATOM     12  C   UNL     1      -4.471  -3.508  -1.435  1.00  0.00     0.124 A 
ATOM     13  O   UNL     1      -3.691  -1.434  -2.181  1.00  0.00    -0.266 OA
ATOM     14  C   UNL     1      -4.478  -4.485  -0.500  1.00  0.00     0.006 A 
ATOM     15  C   UNL     1      -5.448  -5.604  -0.655  1.00  0.00     0.048 C 
BRANCH   9  16
ATOM     16  C   UNL     1      -1.881  -1.226  -0.020  1.00  0.00     0.070 A 
ATOM     17  C   UNL     1       0.666   2.240   0.087  1.00  0.00     0.046 C 
ATOM     18  C   UNL     1      -0.204   1.018   0.139  1.00  0.00    -0.032 A 
ATOM     19  C   UNL     1      -1.588   1.178   0.011  1.00  0.00     0.007 A 
ATOM     20  C   UNL     1       0.322  -0.281   0.254  1.00  0.00     0.046 A 
ATOM     21  C   UNL     1      -2.415   0.065  -0.080  1.00  0.00     0.029 A 
ATOM     22  C   UNL     1      -0.515  -1.400   0.215  1.00  0.00     0.049 A 
ATOM     23  Cl  UNL     1       2.026  -0.549   0.371  1.00  0.00    -0.084 Cl
ENDBRANCH   9  16
BRANCH  12  24
ATOM     24  C   UNL     1      -5.316  -3.529  -2.588  1.00  0.00     0.105 C 
ATOM     25  N   UNL     1      -6.016  -3.616  -3.504  1.00  0.00    -0.192 NA
ENDBRANCH  12  24
ENDBRANCH   5   8
ENDBRANCH   3   4
ENDBRANCH   2   3
ENDBRANCH   1   2
BRANCH   1  26
ATOM     26  C   UNL     1      -5.898 -10.076   2.205  1.00  0.00     0.116 C 
BRANCH  26  27
ATOM     27  N   UNL     1      -6.946 -10.158   1.198  1.00  0.00    -0.352 N 
ATOM     28  C   UNL     1      -7.966 -11.082   1.139  1.00  0.00     0.251 C 
ATOM     29  H   UNL     1      -6.924  -9.482   0.483  1.00  0.00     0.163 HD
ATOM     30  O   UNL     1      -8.757 -11.106   0.206  1.00  0.00    -0.269 OA
BRANCH  28  31
ATOM     31  C   UNL     1      -8.029 -12.088   2.216  1.00  0.00     0.039 A 
ATOM     32  C   UNL     1      -7.897 -13.433   1.879  1.00  0.00     0.014 A 
ATOM     33  C   UNL     1      -8.009 -11.671   3.551  1.00  0.00     0.014 A 
ATOM     34  C   UNL     1      -7.667 -14.362   2.890  1.00  0.00     0.010 A 
ATOM     35  C   UNL     1      -7.658 -12.582   4.538  1.00  0.00     0.010 A 
ATOM     36  C   UNL     1      -7.494 -13.938   4.221  1.00  0.00    -0.014 A 
BRANCH  36  37
ATOM     37  C   UNL     1      -7.165 -14.920   5.285  1.00  0.00     0.031 A 
ATOM     38  C   UNL     1      -8.120 -15.132   6.425  1.00  0.00     0.074 A 
ATOM     39  C   UNL     1      -6.014 -15.620   5.221  1.00  0.00     0.049 A 
ATOM     40  N   UNL     1      -8.048 -15.992   7.409  1.00  0.00    -0.248 NA
ATOM     41  C   UNL     1      -9.299 -14.253   6.488  1.00  0.00     0.031 C 
ATOM     42  C   UNL     1      -4.981 -15.456   4.197  1.00  0.00     0.029 A 
ATOM     43  N   UNL     1      -5.527 -16.623   6.023  1.00  0.00    -0.354 N 
ATOM     44  C   UNL     1      -9.173 -15.764   8.188  1.00  0.00     0.074 A 
ATOM     45  C   UNL     1      -9.864 -14.629   7.623  1.00  0.00     0.031 C 
ATOM     46  C   UNL     1      -4.016 -16.369   4.394  1.00  0.00     0.029 A 
ATOM     47  C   UNL     1      -4.339 -17.157   5.580  1.00  0.00     0.049 A 
ATOM     48  H   UNL     1      -5.985 -16.932   6.838  1.00  0.00     0.167 HD
ATOM     49  C   UNL     1      -9.618 -16.471   9.250  1.00  0.00     0.037 A 
ATOM     50  C   UNL     1      -3.603 -18.176   6.068  1.00  0.00     0.037 A 
ATOM     51  C   UNL     1      -8.940 -17.613   9.794  1.00  0.00     0.049 A 
ATOM     52  C   UNL     1      -4.100 -18.921   7.279  1.00  0.00     0.074 A 
ATOM     53  C   UNL     1      -9.332 -18.424  10.843  1.00  0.00     0.029 A 
ATOM     54  N   UNL     1      -7.726 -18.103   9.336  1.00  0.00    -0.354 N 
ATOM     55  N   UNL     1      -5.213 -18.753   7.952  1.00  0.00    -0.248 NA
ATOM     56  C   UNL     1      -3.245 -19.998   7.800  1.00  0.00     0.031 C 
ATOM     57  C   UNL     1      -8.325 -19.365  11.062  1.00  0.00     0.029 A 
ATOM     58  C   UNL     1      -7.337 -19.185  10.107  1.00  0.00     0.049 A 
ATOM     59  H   UNL     1      -7.218 -17.737   8.576  1.00  0.00     0.167 HD
ATOM     60  C   UNL     1      -5.205 -19.715   8.954  1.00  0.00     0.074 A 
ATOM     61  C   UNL     1      -3.984 -20.475   8.793  1.00  0.00     0.031 C 
ATOM     62  C   UNL     1      -6.125 -19.942   9.922  1.00  0.00     0.037 A 
BRANCH  49  63
ATOM     63  C   UNL     1     -10.914 -16.051   9.880  1.00  0.00     0.064 A 
ATOM     64  C   UNL     1     -12.138 -16.216   9.213  1.00  0.00     0.173 A 
ATOM     65  C   UNL     1     -10.942 -15.550  11.190  1.00  0.00     0.173 A 
ATOM     66  F   UNL     1     -12.165 -16.676   7.953  1.00  0.00    -0.203 F 
ATOM     67  C   UNL     1     -13.340 -15.883   9.829  1.00  0.00     0.198 A 
ATOM     68  C   UNL     1     -12.149 -15.251  11.815  1.00  0.00     0.198 A 
ATOM     69  F   UNL     1      -9.800 -15.375  11.872  1.00  0.00    -0.203 F 
ATOM     70  F   UNL     1     -14.493 -16.012   9.159  1.00  0.00    -0.200 F 
ATOM     71  C   UNL     1     -13.346 -15.414  11.134  1.00  0.00     0.200 A 
ATOM     72  F   UNL     1     -12.154 -14.813  13.082  1.00  0.00    -0.200 F 
ATOM     73  F   UNL     1     -14.506 -15.116  11.735  1.00  0.00    -0.200 F 
ENDBRANCH  49  63
BRANCH  50  74
ATOM     74  C   UNL     1      -2.343 -18.577   5.384  1.00  0.00     0.064 A 
ATOM     75  C   UNL     1      -2.234 -19.816   4.735  1.00  0.00     0.173 A 
ATOM     76  C   UNL     1      -1.226 -17.728   5.350  1.00  0.00     0.173 A 
ATOM     77  F   UNL     1      -3.266 -20.673   4.753  1.00  0.00    -0.203 F 
ATOM     78  C   UNL     1      -1.057 -20.194   4.092  1.00  0.00     0.198 A 
ATOM     79  C   UNL     1      -0.060 -18.093   4.679  1.00  0.00     0.198 A 
ATOM     80  F   UNL     1      -1.275 -16.530   5.951  1.00  0.00    -0.203 F 
ATOM     81  F   UNL     1      -0.969 -21.400   3.515  1.00  0.00    -0.200 F 
ATOM     82  C   UNL     1       0.026 -19.329   4.057  1.00  0.00     0.200 A 
ATOM     83  F   UNL     1       0.976 -17.245   4.632  1.00  0.00    -0.200 F 
ATOM     84  F   UNL     1       1.153 -19.687   3.427  1.00  0.00    -0.200 F 
ENDBRANCH  50  74
BRANCH  62  85
ATOM     85  C   UNL     1      -5.877 -21.063  10.888  1.00  0.00     0.064 A 
ATOM     86  C   UNL     1      -4.905 -20.959  11.892  1.00  0.00     0.173 A 
ATOM     87  C   UNL     1      -6.713 -22.191  10.895  1.00  0.00     0.173 A 
ATOM     88  F   UNL     1      -4.075 -19.905  11.922  1.00  0.00    -0.203 F 
ATOM     89  C   UNL     1      -4.781 -21.942  12.870  1.00  0.00     0.198 A 
ATOM     90  C   UNL     1      -6.609 -23.154  11.894  1.00  0.00     0.198 A 
ATOM     91  F   UNL     1      -7.668 -22.331   9.962  1.00  0.00    -0.203 F 
ATOM     92  F   UNL     1      -3.833 -21.830  13.812  1.00  0.00    -0.200 F 
ATOM     93  C   UNL     1      -5.643 -23.028  12.880  1.00  0.00     0.200 A 
ATOM     94  F   UNL     1      -7.459 -24.190  11.916  1.00  0.00    -0.200 F 
ATOM     95  F   UNL     1      -5.546 -23.953  13.846  1.00  0.00    -0.200 F 
ENDBRANCH  62  85
ENDBRANCH  36  37
ENDBRANCH  28  31
ENDBRANCH  26  27
ENDBRANCH   1  26
TORSDOF 13
