REMARK SMILES Cc1cc(C)cc(CSc2cc(C(=O)NCCCCNC(=O)c3ccc(-c4c5nc(c(-c6c(F)c(F)c(F)c(F)c6F)c6ccc([nH]6)c(-c6c(F)c(F)c(F)c(F)c6F)c6nc(c(-c7c(F)c(F)c(F)c(F)c7F)c7ccc4[nH]7)C=C6)C=C5)cc3)cc(Cl)n2)c1
REMARK SMILES IDX 17 1 16 2 15 3 13 4 14 5 12 7 10 8 11 9 89 10 87 11 86 12
REMARK SMILES IDX 88 13 9 14 8 15 7 16 1 17 2 18 3 19 90 20 4 21 5 22 6 23
REMARK SMILES IDX 18 24 19 25 20 26 21 27 22 29 23 30 24 31 85 32 25 33 84 34
REMARK SMILES IDX 26 35 27 36 28 37 78 38 29 39 83 40 77 41 79 42 30 43 82 44
REMARK SMILES IDX 76 45 75 46 31 48 63 49 43 50 62 51 44 52 47 53 61 54 80 55
REMARK SMILES IDX 45 56 46 57 60 59 81 60 48 61 32 62 33 63 41 64 34 65 35 66
REMARK SMILES IDX 39 67 42 68 36 69 37 70 40 71 38 72 64 73 65 74 73 75 66 76
REMARK SMILES IDX 67 77 71 78 74 79 68 80 69 81 72 82 70 83 49 84 50 85 58 86
REMARK SMILES IDX 51 87 52 88 56 89 59 90 53 91 54 92 57 93 55 94
REMARK H PARENT 15 6 20 28 79 47 47 58
REMARK Flexibility Score: inf
ROOT
ATOM      1  C   UNL     1       1.774  -2.454   8.577  1.00  0.00     0.023 C 
ENDROOT
BRANCH   1   2
ATOM      2  C   UNL     1       2.711  -2.732   7.400  1.00  0.00     0.116 C 
BRANCH   2   3
ATOM      3  N   UNL     1       2.424  -4.024   6.813  1.00  0.00    -0.352 N 
ATOM      4  C   UNL     1       1.679  -4.440   5.743  1.00  0.00     0.251 C 
ATOM      5  O   UNL     1       1.660  -5.655   5.532  1.00  0.00    -0.269 OA
ATOM      6  H   UNL     1       2.860  -4.767   7.289  1.00  0.00     0.163 HD
BRANCH   4   7
ATOM      7  C   UNL     1       0.928  -3.548   4.813  1.00  0.00     0.045 A 
ATOM      8  C   UNL     1      -0.232  -3.370   2.706  1.00  0.00     0.099 A 
ATOM      9  C   UNL     1       0.477  -4.135   3.619  1.00  0.00     0.049 A 
ATOM     10  N   UNL     1      -0.507  -2.074   2.917  1.00  0.00    -0.230 NA
ATOM     11  C   UNL     1      -0.066  -1.529   4.058  1.00  0.00     0.131 A 
ATOM     12  C   UNL     1       0.614  -2.215   5.046  1.00  0.00     0.055 A 
ATOM     13  Cl  UNL     1      -0.408   0.143   4.228  1.00  0.00    -0.062 Cl
BRANCH   8  14
ATOM     14  S   UNL     1      -0.937  -4.116   1.255  1.00  0.00    -0.102 SA
BRANCH  14  15
ATOM     15  C   UNL     1       0.027  -3.301  -0.060  1.00  0.00     0.112 C 
BRANCH  15  16
ATOM     16  C   UNL     1      -0.001  -1.792  -0.076  1.00  0.00    -0.037 A 
ATOM     17  C   UNL     1       2.499   1.092   0.001  1.00  0.00     0.044 C 
ATOM     18  C   UNL     1       1.210   0.326  -0.041  1.00  0.00    -0.051 A 
ATOM     19  C   UNL     1      -0.009   1.013  -0.049  1.00  0.00     0.006 A 
ATOM     20  C   UNL     1       1.205  -1.073  -0.054  1.00  0.00     0.008 A 
ATOM     21  C   UNL     1      -1.224   0.318  -0.081  1.00  0.00    -0.051 A 
ATOM     22  C   UNL     1      -2.518   1.077  -0.054  1.00  0.00     0.044 C 
ATOM     23  C   UNL     1      -1.211  -1.081  -0.114  1.00  0.00     0.008 A 
ENDBRANCH  15  16
ENDBRANCH  14  15
ENDBRANCH   8  14
ENDBRANCH   4   7
ENDBRANCH   2   3
ENDBRANCH   1   2
BRANCH   1  24
ATOM     24  C   UNL     1       2.198  -3.139   9.883  1.00  0.00     0.023 C 
BRANCH  24  25
ATOM     25  C   UNL     1       3.585  -2.756  10.397  1.00  0.00     0.116 C 
BRANCH  25  26
ATOM     26  N   UNL     1       3.769  -1.321  10.536  1.00  0.00    -0.352 N 
ATOM     27  C   UNL     1       4.506  -0.625  11.463  1.00  0.00     0.251 C 
ATOM     28  H   UNL     1       3.297  -0.769   9.872  1.00  0.00     0.163 HD
ATOM     29  O   UNL     1       4.447   0.597  11.500  1.00  0.00    -0.269 OA
BRANCH  27  30
ATOM     30  C   UNL     1       5.340  -1.357  12.439  1.00  0.00     0.039 A 
ATOM     31  C   UNL     1       5.298  -0.958  13.777  1.00  0.00     0.014 A 
ATOM     32  C   UNL     1       6.152  -2.425  12.048  1.00  0.00     0.014 A 
ATOM     33  C   UNL     1       6.026  -1.668  14.731  1.00  0.00     0.010 A 
ATOM     34  C   UNL     1       6.815  -3.180  13.012  1.00  0.00     0.010 A 
ATOM     35  C   UNL     1       6.761  -2.808  14.362  1.00  0.00    -0.014 A 
BRANCH  35  36
ATOM     36  C   UNL     1       7.452  -3.619  15.396  1.00  0.00     0.031 A 
ATOM     37  C   UNL     1       8.950  -3.744  15.403  1.00  0.00     0.074 A 
ATOM     38  C   UNL     1       6.716  -4.267  16.320  1.00  0.00     0.049 A 
ATOM     39  N   UNL     1       9.722  -4.374  16.253  1.00  0.00    -0.248 NA
ATOM     40  C   UNL     1       9.677  -3.098  14.300  1.00  0.00     0.031 C 
ATOM     41  C   UNL     1       5.253  -4.279  16.375  1.00  0.00     0.029 A 
ATOM     42  N   UNL     1       7.094  -5.032  17.394  1.00  0.00    -0.354 N 
ATOM     43  C   UNL     1      11.019  -4.200  15.787  1.00  0.00     0.074 A 
ATOM     44  C   UNL     1      10.926  -3.463  14.546  1.00  0.00     0.031 C 
ATOM     45  C   UNL     1       4.858  -4.978  17.451  1.00  0.00     0.029 A 
ATOM     46  C   UNL     1       6.036  -5.491  18.141  1.00  0.00     0.049 A 
ATOM     47  H   UNL     1       8.033  -5.233  17.609  1.00  0.00     0.167 HD
ATOM     48  C   UNL     1      12.182  -4.595  16.358  1.00  0.00     0.037 A 
ATOM     49  C   UNL     1       6.020  -6.238  19.262  1.00  0.00     0.037 A 
ATOM     50  C   UNL     1      12.268  -5.321  17.600  1.00  0.00     0.049 A 
ATOM     51  C   UNL     1       7.327  -6.659  19.876  1.00  0.00     0.074 A 
ATOM     52  C   UNL     1      13.399  -5.718  18.292  1.00  0.00     0.029 A 
ATOM     53  N   UNL     1      11.177  -5.766  18.332  1.00  0.00    -0.354 N 
ATOM     54  N   UNL     1       8.550  -6.411  19.475  1.00  0.00    -0.248 NA
ATOM     55  C   UNL     1       7.249  -7.452  21.109  1.00  0.00     0.031 C 
ATOM     56  C   UNL     1      12.993  -6.454  19.410  1.00  0.00     0.029 A 
ATOM     57  C   UNL     1      11.608  -6.459  19.453  1.00  0.00     0.049 A 
ATOM     58  H   UNL     1      10.234  -5.613  18.091  1.00  0.00     0.167 HD
ATOM     59  C   UNL     1       9.386  -6.995  20.417  1.00  0.00     0.074 A 
ATOM     60  C   UNL     1       8.528  -7.583  21.425  1.00  0.00     0.031 C 
ATOM     61  C   UNL     1      10.742  -7.045  20.445  1.00  0.00     0.037 A 
BRANCH  48  62
ATOM     62  C   UNL     1      13.460  -4.249  15.646  1.00  0.00     0.064 A 
ATOM     63  C   UNL     1      13.909  -2.923  15.537  1.00  0.00     0.173 A 
ATOM     64  C   UNL     1      14.269  -5.258  15.101  1.00  0.00     0.173 A 
ATOM     65  F   UNL     1      13.170  -1.918  16.031  1.00  0.00    -0.203 F 
ATOM     66  C   UNL     1      15.101  -2.619  14.885  1.00  0.00     0.198 A 
ATOM     67  C   UNL     1      15.477  -4.953  14.479  1.00  0.00     0.198 A 
ATOM     68  F   UNL     1      13.892  -6.543  15.179  1.00  0.00    -0.203 F 
ATOM     69  F   UNL     1      15.481  -1.341  14.748  1.00  0.00    -0.200 F 
ATOM     70  C   UNL     1      15.888  -3.634  14.364  1.00  0.00     0.200 A 
ATOM     71  F   UNL     1      16.244  -5.937  13.989  1.00  0.00    -0.200 F 
ATOM     72  F   UNL     1      17.040  -3.341  13.745  1.00  0.00    -0.200 F 
ENDBRANCH  48  62
BRANCH  49  73
ATOM     73  C   UNL     1       4.725  -6.607  19.892  1.00  0.00     0.064 A 
ATOM     74  C   UNL     1       4.355  -6.090  21.142  1.00  0.00     0.173 A 
ATOM     75  C   UNL     1       3.836  -7.493  19.265  1.00  0.00     0.173 A 
ATOM     76  F   UNL     1       5.178  -5.253  21.790  1.00  0.00    -0.203 F 
ATOM     77  C   UNL     1       3.160  -6.467  21.753  1.00  0.00     0.198 A 
ATOM     78  C   UNL     1       2.626  -7.843  19.862  1.00  0.00     0.198 A 
ATOM     79  F   UNL     1       4.137  -8.011  18.065  1.00  0.00    -0.203 F 
ATOM     80  F   UNL     1       2.859  -6.001  22.972  1.00  0.00    -0.200 F 
ATOM     81  C   UNL     1       2.295  -7.338  21.110  1.00  0.00     0.200 A 
ATOM     82  F   UNL     1       1.784  -8.671  19.228  1.00  0.00    -0.200 F 
ATOM     83  F   UNL     1       1.145  -7.699  21.696  1.00  0.00    -0.200 F 
ENDBRANCH  49  73
BRANCH  61  84
ATOM     84  C   UNL     1      11.374  -7.737  21.620  1.00  0.00     0.064 A 
ATOM     85  C   UNL     1      11.263  -9.123  21.809  1.00  0.00     0.173 A 
ATOM     86  C   UNL     1      12.102  -7.003  22.569  1.00  0.00     0.173 A 
ATOM     87  F   UNL     1      10.568  -9.870  20.938  1.00  0.00    -0.203 F 
ATOM     88  C   UNL     1      11.815  -9.740  22.929  1.00  0.00     0.198 A 
ATOM     89  C   UNL     1      12.686  -7.630  23.667  1.00  0.00     0.198 A 
ATOM     90  F   UNL     1      12.250  -5.677  22.433  1.00  0.00    -0.203 F 
ATOM     91  F   UNL     1      11.632 -11.053  23.126  1.00  0.00    -0.200 F 
ATOM     92  C   UNL     1      12.530  -8.994  23.854  1.00  0.00     0.200 A 
ATOM     93  F   UNL     1      13.391  -6.910  24.550  1.00  0.00    -0.200 F 
ATOM     94  F   UNL     1      13.057  -9.589  24.933  1.00  0.00    -0.200 F 
ENDBRANCH  61  84
ENDBRANCH  35  36
ENDBRANCH  27  30
ENDBRANCH  25  26
ENDBRANCH  24  25
ENDBRANCH   1  24
TORSDOF 14
