REMARK SMILES CC/C=C/C/C=C/C/C=C/C/C=C/CC/C=C/COCC(=O)NCCCCNC(=O)c1ccc(-c2c3nc(c(-c4c(F)c(F)c(F)c(F)c4F)c4ccc([nH]4)c(-c4c(F)c(F)c(F)c(F)c4F)c4nc(c(-c5c(F)c(F)c(F)c(F)c5F)c5ccc2[nH]5)C=C4)C=C3)cc1
REMARK SMILES IDX 18 1 17 2 16 3 15 4 14 5 13 6 12 7 11 8 10 9 9 10 8 11 7 12
REMARK SMILES IDX 6 13 5 14 4 15 3 16 2 17 1 18 19 19 20 20 21 21 22 22 23 23
REMARK SMILES IDX 24 25 25 26 26 27 27 28 28 29 29 30 30 32 31 33 32 34 93 35
REMARK SMILES IDX 33 36 92 37 34 38 35 39 36 40 86 41 37 42 91 43 85 44 87 45
REMARK SMILES IDX 38 46 90 47 84 48 83 49 39 51 71 52 51 53 70 54 52 55 55 56
REMARK SMILES IDX 69 57 88 58 53 59 54 60 68 62 89 63 56 64 40 65 41 66 49 67
REMARK SMILES IDX 42 68 43 69 47 70 50 71 44 72 45 73 48 74 46 75 72 76 73 77
REMARK SMILES IDX 81 78 74 79 75 80 79 81 82 82 76 83 77 84 80 85 78 86 57 87
REMARK SMILES IDX 58 88 66 89 59 90 60 91 64 92 67 93 61 94 62 95 65 96 63 97
REMARK H PARENT 23 24 28 31 87 50 55 61
REMARK Flexibility Score: inf
ROOT
ATOM      1  C   UNL     1      -8.029  14.907   1.389  1.00  0.00     0.188 C 
ENDROOT
BRANCH   1   2
ATOM      2  C   UNL     1      -7.433  14.012   2.430  1.00  0.00    -0.003 C 
ATOM      3  C   UNL     1      -6.621  12.986   2.131  1.00  0.00    -0.029 C 
BRANCH   3   4
ATOM      4  C   UNL     1      -6.124  11.976   3.127  1.00  0.00     0.031 C 
BRANCH   4   5
ATOM      5  C   UNL     1      -6.710  10.575   2.883  1.00  0.00     0.031 C 
BRANCH   5   6
ATOM      6  C   UNL     1      -6.270   9.973   1.575  1.00  0.00    -0.031 C 
ATOM      7  C   UNL     1      -5.461   8.907   1.469  1.00  0.00    -0.027 C 
BRANCH   7   8
ATOM      8  C   UNL     1      -4.985   8.347   0.160  1.00  0.00     0.054 C 
BRANCH   8   9
ATOM      9  C   UNL     1      -3.484   8.356   0.103  1.00  0.00    -0.027 C 
ATOM     10  C   UNL     1      -2.730   7.256  -0.065  1.00  0.00    -0.027 C 
BRANCH  10  11
ATOM     11  C   UNL     1      -1.229   7.255  -0.070  1.00  0.00     0.054 C 
BRANCH  11  12
ATOM     12  C   UNL     1      -0.701   6.372   1.024  1.00  0.00    -0.027 C 
ATOM     13  C   UNL     1       0.071   5.293   0.815  1.00  0.00    -0.027 C 
BRANCH  13  14
ATOM     14  C   UNL     1       0.572   4.391   1.905  1.00  0.00     0.054 C 
BRANCH  14  15
ATOM     15  C   UNL     1       0.098   2.982   1.691  1.00  0.00    -0.027 C 
ATOM     16  C   UNL     1       0.913   1.932   1.504  1.00  0.00    -0.031 C 
BRANCH  16  17
ATOM     17  C   UNL     1       0.433   0.528   1.280  1.00  0.00     0.023 C 
ATOM     18  C   UNL     1       0.908  -0.010  -0.061  1.00  0.00     0.008 C 
ENDBRANCH  16  17
ENDBRANCH  14  15
ENDBRANCH  13  14
ENDBRANCH  11  12
ENDBRANCH  10  11
ENDBRANCH   8   9
ENDBRANCH   7   8
ENDBRANCH   5   6
ENDBRANCH   4   5
ENDBRANCH   3   4
ENDBRANCH   1   2
BRANCH   1  19
ATOM     19  O   UNL     1      -9.454  14.809   1.408  1.00  0.00    -0.368 OA
BRANCH  19  20
ATOM     20  C   UNL     1      -9.950  13.528   1.037  1.00  0.00     0.260 C 
BRANCH  20  21
ATOM     21  C   UNL     1      -9.599  13.030  -0.370  1.00  0.00     0.246 C 
ATOM     22  O   UNL     1      -8.939  12.008  -0.560  1.00  0.00    -0.272 OA
ATOM     23  N   UNL     1     -10.053  13.732  -1.452  1.00  0.00    -0.354 N 
ATOM     24  H   UNL     1      -9.841  13.349  -2.334  1.00  0.00     0.163 HD
BRANCH  23  25
ATOM     25  C   UNL     1     -10.806  14.970  -1.459  1.00  0.00     0.116 C 
BRANCH  25  26
ATOM     26  C   UNL     1      -9.967  16.145  -1.958  1.00  0.00     0.023 C 
BRANCH  26  27
ATOM     27  C   UNL     1      -9.454  16.007  -3.394  1.00  0.00     0.023 C 
BRANCH  27  28
ATOM     28  C   UNL     1     -10.517  15.721  -4.451  1.00  0.00     0.116 C 
BRANCH  28  29
ATOM     29  N   UNL     1     -11.532  16.759  -4.539  1.00  0.00    -0.352 N 
ATOM     30  C   UNL     1     -12.048  17.378  -5.652  1.00  0.00     0.251 C 
ATOM     31  H   UNL     1     -11.902  17.062  -3.678  1.00  0.00     0.163 HD
ATOM     32  O   UNL     1     -12.826  18.320  -5.533  1.00  0.00    -0.269 OA
BRANCH  30  33
ATOM     33  C   UNL     1     -11.631  16.935  -7.000  1.00  0.00     0.039 A 
ATOM     34  C   UNL     1     -11.212  17.897  -7.924  1.00  0.00     0.014 A 
ATOM     35  C   UNL     1     -11.625  15.581  -7.343  1.00  0.00     0.014 A 
ATOM     36  C   UNL     1     -10.701  17.494  -9.160  1.00  0.00     0.010 A 
ATOM     37  C   UNL     1     -11.059  15.177  -8.550  1.00  0.00     0.010 A 
ATOM     38  C   UNL     1     -10.575  16.128  -9.461  1.00  0.00    -0.014 A 
BRANCH  38  39
ATOM     39  C   UNL     1      -9.898  15.670 -10.701  1.00  0.00     0.031 A 
ATOM     40  C   UNL     1     -10.662  14.914 -11.749  1.00  0.00     0.074 A 
ATOM     41  C   UNL     1      -8.570  15.856 -10.838  1.00  0.00     0.049 A 
ATOM     42  N   UNL     1     -10.221  14.334 -12.838  1.00  0.00    -0.248 NA
ATOM     43  C   UNL     1     -12.109  14.768 -11.534  1.00  0.00     0.031 C 
ATOM     44  C   UNL     1      -7.708  16.537  -9.870  1.00  0.00     0.029 A 
ATOM     45  N   UNL     1      -7.708  15.468 -11.834  1.00  0.00    -0.354 N 
ATOM     46  C   UNL     1     -11.331  13.742 -13.426  1.00  0.00     0.074 A 
ATOM     47  C   UNL     1     -12.458  13.998 -12.555  1.00  0.00     0.031 C 
ATOM     48  C   UNL     1      -6.444  16.527 -10.323  1.00  0.00     0.029 A 
ATOM     49  C   UNL     1      -6.398  15.803 -11.590  1.00  0.00     0.049 A 
ATOM     50  H   UNL     1      -8.001  14.995 -12.646  1.00  0.00     0.167 HD
ATOM     51  C   UNL     1     -11.403  13.063 -14.595  1.00  0.00     0.037 A 
ATOM     52  C   UNL     1      -5.282  15.540 -12.296  1.00  0.00     0.037 A 
ATOM     53  C   UNL     1     -10.286  12.834 -15.473  1.00  0.00     0.049 A 
ATOM     54  C   UNL     1      -5.389  14.767 -13.582  1.00  0.00     0.074 A 
ATOM     55  C   UNL     1     -10.277  12.226 -16.716  1.00  0.00     0.029 A 
ATOM     56  N   UNL     1      -8.977  13.199 -15.197  1.00  0.00    -0.354 N 
ATOM     57  N   UNL     1      -6.455  14.275 -14.164  1.00  0.00    -0.248 NA
ATOM     58  C   UNL     1      -4.137  14.511 -14.309  1.00  0.00     0.031 C 
ATOM     59  C   UNL     1      -8.956  12.181 -17.172  1.00  0.00     0.029 A 
ATOM     60  C   UNL     1      -8.147  12.801 -16.234  1.00  0.00     0.049 A 
ATOM     61  H   UNL     1      -8.680  13.670 -14.385  1.00  0.00     0.167 HD
ATOM     62  C   UNL     1      -6.008  13.671 -15.331  1.00  0.00     0.074 A 
ATOM     63  C   UNL     1      -4.575  13.871 -15.384  1.00  0.00     0.031 C 
ATOM     64  C   UNL     1      -6.722  13.008 -16.273  1.00  0.00     0.037 A 
BRANCH  51  65
ATOM     65  C   UNL     1     -12.741  12.516 -15.000  1.00  0.00     0.064 A 
ATOM     66  C   UNL     1     -13.778  13.356 -15.429  1.00  0.00     0.173 A 
ATOM     67  C   UNL     1     -12.970  11.132 -15.006  1.00  0.00     0.173 A 
ATOM     68  F   UNL     1     -13.612  14.687 -15.433  1.00  0.00    -0.203 F 
ATOM     69  C   UNL     1     -15.005  12.832 -15.827  1.00  0.00     0.198 A 
ATOM     70  C   UNL     1     -14.189  10.610 -15.431  1.00  0.00     0.198 A 
ATOM     71  F   UNL     1     -12.008  10.284 -14.611  1.00  0.00    -0.203 F 
ATOM     72  F   UNL     1     -15.996  13.656 -16.194  1.00  0.00    -0.200 F 
ATOM     73  C   UNL     1     -15.207  11.460 -15.835  1.00  0.00     0.200 A 
ATOM     74  F   UNL     1     -14.379   9.283 -15.449  1.00  0.00    -0.200 F 
ATOM     75  F   UNL     1     -16.386  10.957 -16.227  1.00  0.00    -0.200 F 
ENDBRANCH  51  65
BRANCH  52  76
ATOM     76  C   UNL     1      -3.963  16.015 -11.804  1.00  0.00     0.064 A 
ATOM     77  C   UNL     1      -3.278  17.043 -12.465  1.00  0.00     0.173 A 
ATOM     78  C   UNL     1      -3.362  15.453 -10.669  1.00  0.00     0.173 A 
ATOM     79  F   UNL     1      -3.803  17.596 -13.568  1.00  0.00    -0.203 F 
ATOM     80  C   UNL     1      -2.032  17.479 -12.020  1.00  0.00     0.198 A 
ATOM     81  C   UNL     1      -2.128  15.908 -10.209  1.00  0.00     0.198 A 
ATOM     82  F   UNL     1      -3.979  14.468  -9.999  1.00  0.00    -0.203 F 
ATOM     83  F   UNL     1      -1.378  18.434 -12.695  1.00  0.00    -0.200 F 
ATOM     84  C   UNL     1      -1.460  16.915 -10.888  1.00  0.00     0.200 A 
ATOM     85  F   UNL     1      -1.585  15.369  -9.108  1.00  0.00    -0.200 F 
ATOM     86  F   UNL     1      -0.264  17.338 -10.458  1.00  0.00    -0.200 F 
ENDBRANCH  52  76
BRANCH  64  87
ATOM     87  C   UNL     1      -5.971  12.467 -17.453  1.00  0.00     0.064 A 
ATOM     88  C   UNL     1      -5.148  11.337 -17.341  1.00  0.00     0.173 A 
ATOM     89  C   UNL     1      -6.117  13.052 -18.720  1.00  0.00     0.173 A 
ATOM     90  F   UNL     1      -4.964  10.752 -16.147  1.00  0.00    -0.203 F 
ATOM     91  C   UNL     1      -4.486  10.822 -18.452  1.00  0.00     0.198 A 
ATOM     92  C   UNL     1      -5.474  12.519 -19.833  1.00  0.00     0.198 A 
ATOM     93  F   UNL     1      -6.896  14.132 -18.880  1.00  0.00    -0.203 F 
ATOM     94  F   UNL     1      -3.675   9.763 -18.315  1.00  0.00    -0.200 F 
ATOM     95  C   UNL     1      -4.656  11.408 -19.698  1.00  0.00     0.200 A 
ATOM     96  F   UNL     1      -5.649  13.079 -21.038  1.00  0.00    -0.200 F 
ATOM     97  F   UNL     1      -4.027  10.903 -20.768  1.00  0.00    -0.200 F 
ENDBRANCH  64  87
ENDBRANCH  38  39
ENDBRANCH  30  33
ENDBRANCH  28  29
ENDBRANCH  27  28
ENDBRANCH  26  27
ENDBRANCH  25  26
ENDBRANCH  23  25
ENDBRANCH  20  21
ENDBRANCH  19  20
ENDBRANCH   1  19
TORSDOF 24
