REMARK SMILES O=C(NCCCCNC(=O)[C@@H]1CC[C@H](CNC(=O)c2cccn2C2CC2)O1)c1ccc(-c2c3nc(c(-c4c(F)c(F)c(F)c(F)c4F)c4ccc([nH]4)c(-c4c(F)c(F)c(F)c(F)c4F)c4nc(c(-c5c(F)c(F)c(F)c(F)c5F)c5ccc2[nH]5)C=C4)C=C3)cc1
REMARK SMILES IDX 6 1 5 2 4 3 3 4 1 5 2 6 28 8 29 9 90 10 30 11 89 12 31 13
REMARK SMILES IDX 32 14 33 15 83 16 34 17 88 18 82 19 84 20 35 21 87 22 81 23
REMARK SMILES IDX 80 24 36 26 68 27 48 28 67 29 49 30 52 31 66 32 85 33 50 34
REMARK SMILES IDX 51 35 65 37 86 38 53 39 37 40 38 41 46 42 39 43 40 44 44 45
REMARK SMILES IDX 47 46 41 47 42 48 45 49 43 50 69 51 70 52 78 53 71 54 72 55
REMARK SMILES IDX 76 56 79 57 73 58 74 59 77 60 75 61 54 62 55 63 63 64 56 65
REMARK SMILES IDX 57 66 61 67 64 68 58 69 59 70 62 71 60 72 7 73 8 74 9 75
REMARK SMILES IDX 10 77 11 78 12 79 27 80 13 81 14 82 15 83 16 84 17 85 18 87
REMARK SMILES IDX 19 88 20 89 23 90 21 91 22 92 24 93 25 94 26 95
REMARK H PARENT 3 7 84 25 52 36 8 76 16 86
REMARK Flexibility Score: inf
ROOT
ATOM      1  C   UNL     1       4.216  -0.794  -3.482  1.00  0.00     0.023 C 
ENDROOT
BRANCH   1   2
ATOM      2  C   UNL     1       4.829  -0.823  -2.079  1.00  0.00     0.023 C 
BRANCH   2   3
ATOM      3  C   UNL     1       4.652   0.471  -1.283  1.00  0.00     0.116 C 
BRANCH   3   4
ATOM      4  N   UNL     1       3.280   0.780  -0.919  1.00  0.00    -0.352 N 
ATOM      5  O   UNL     1       1.258   0.594   0.038  1.00  0.00    -0.269 OA
ATOM      6  C   UNL     1       2.387   0.130  -0.106  1.00  0.00     0.251 C 
ATOM      7  H   UNL     1       2.929   1.603  -1.330  1.00  0.00     0.163 HD
BRANCH   6   8
ATOM      8  C   UNL     1       2.730  -1.151   0.552  1.00  0.00     0.039 A 
ATOM      9  C   UNL     1       3.981  -1.380   1.130  1.00  0.00     0.014 A 
ATOM     10  C   UNL     1       1.742  -2.144   0.614  1.00  0.00     0.014 A 
ATOM     11  C   UNL     1       4.286  -2.622   1.669  1.00  0.00     0.010 A 
ATOM     12  C   UNL     1       2.021  -3.373   1.213  1.00  0.00     0.010 A 
ATOM     13  C   UNL     1       3.300  -3.611   1.736  1.00  0.00    -0.014 A 
BRANCH  13  14
ATOM     14  C   UNL     1       3.584  -4.800   2.572  1.00  0.00     0.031 A 
ATOM     15  C   UNL     1       3.545  -4.504   4.069  1.00  0.00     0.074 A 
ATOM     16  C   UNL     1       3.867  -5.972   1.943  1.00  0.00     0.049 A 
ATOM     17  N   UNL     1       4.051  -5.169   5.065  1.00  0.00    -0.248 NA
ATOM     18  C   UNL     1       2.888  -3.247   4.521  1.00  0.00     0.031 C 
ATOM     19  C   UNL     1       3.898  -6.132   0.481  1.00  0.00     0.029 A 
ATOM     20  N   UNL     1       4.182  -7.244   2.382  1.00  0.00    -0.354 N 
ATOM     21  C   UNL     1       3.617  -4.528   6.238  1.00  0.00     0.074 A 
ATOM     22  C   UNL     1       3.029  -3.283   5.845  1.00  0.00     0.031 C 
ATOM     23  C   UNL     1       4.246  -7.390   0.153  1.00  0.00     0.029 A 
ATOM     24  C   UNL     1       4.476  -8.171   1.355  1.00  0.00     0.049 A 
ATOM     25  H   UNL     1       4.200  -7.486   3.336  1.00  0.00     0.167 HD
ATOM     26  C   UNL     1       3.610  -5.110   7.469  1.00  0.00     0.037 A 
ATOM     27  C   UNL     1       4.884  -9.473   1.448  1.00  0.00     0.037 A 
ATOM     28  C   UNL     1       4.146  -6.427   7.449  1.00  0.00     0.049 A 
ATOM     29  C   UNL     1       4.730  -9.862   2.864  1.00  0.00     0.074 A 
ATOM     30  C   UNL     1       5.414  -6.944   7.444  1.00  0.00     0.029 A 
ATOM     31  N   UNL     1       3.261  -7.454   7.235  1.00  0.00    -0.354 N 
ATOM     32  N   UNL     1       3.583 -10.011   3.461  1.00  0.00    -0.248 NA
ATOM     33  C   UNL     1       5.920 -10.093   3.688  1.00  0.00     0.031 C 
ATOM     34  C   UNL     1       5.280  -8.253   6.925  1.00  0.00     0.029 A 
ATOM     35  C   UNL     1       3.937  -8.472   6.605  1.00  0.00     0.049 A 
ATOM     36  H   UNL     1       2.310  -7.461   7.487  1.00  0.00     0.167 HD
ATOM     37  C   UNL     1       3.926 -10.031   4.793  1.00  0.00     0.074 A 
ATOM     38  C   UNL     1       5.330 -10.360   4.851  1.00  0.00     0.031 C 
ATOM     39  C   UNL     1       3.197  -9.300   5.674  1.00  0.00     0.037 A 
BRANCH  26  40
ATOM     40  C   UNL     1       2.915  -4.663   8.720  1.00  0.00     0.064 A 
ATOM     41  C   UNL     1       3.453  -5.048   9.968  1.00  0.00     0.173 A 
ATOM     42  C   UNL     1       1.604  -4.165   8.729  1.00  0.00     0.173 A 
ATOM     43  F   UNL     1       4.703  -5.530  10.054  1.00  0.00    -0.203 F 
ATOM     44  C   UNL     1       2.695  -5.014  11.137  1.00  0.00     0.198 A 
ATOM     45  C   UNL     1       0.863  -4.090   9.911  1.00  0.00     0.198 A 
ATOM     46  F   UNL     1       0.982  -3.837   7.588  1.00  0.00    -0.203 F 
ATOM     47  F   UNL     1       3.208  -5.492  12.279  1.00  0.00    -0.200 F 
ATOM     48  C   UNL     1       1.396  -4.543  11.106  1.00  0.00     0.200 A 
ATOM     49  F   UNL     1      -0.399  -3.639   9.874  1.00  0.00    -0.200 F 
ATOM     50  F   UNL     1       0.647  -4.558  12.216  1.00  0.00    -0.200 F 
ENDBRANCH  26  40
BRANCH  27  51
ATOM     51  C   UNL     1       5.410 -10.535   0.504  1.00  0.00     0.064 A 
ATOM     52  C   UNL     1       5.777 -10.334  -0.836  1.00  0.00     0.173 A 
ATOM     53  C   UNL     1       5.698 -11.843   0.990  1.00  0.00     0.173 A 
ATOM     54  F   UNL     1       5.574  -9.168  -1.452  1.00  0.00    -0.203 F 
ATOM     55  C   UNL     1       6.414 -11.326  -1.601  1.00  0.00     0.198 A 
ATOM     56  C   UNL     1       6.385 -12.808   0.248  1.00  0.00     0.198 A 
ATOM     57  F   UNL     1       5.343 -12.226   2.225  1.00  0.00    -0.203 F 
ATOM     58  F   UNL     1       6.734 -11.071  -2.878  1.00  0.00    -0.200 F 
ATOM     59  C   UNL     1       6.748 -12.547  -1.051  1.00  0.00     0.200 A 
ATOM     60  F   UNL     1       6.713 -13.977   0.819  1.00  0.00    -0.200 F 
ATOM     61  F   UNL     1       7.421 -13.460  -1.764  1.00  0.00    -0.200 F 
ENDBRANCH  27  51
BRANCH  39  62
ATOM     62  C   UNL     1       1.775  -9.066   5.200  1.00  0.00     0.064 A 
ATOM     63  C   UNL     1       0.887 -10.144   5.061  1.00  0.00     0.173 A 
ATOM     64  C   UNL     1       1.316  -7.826   4.728  1.00  0.00     0.173 A 
ATOM     65  F   UNL     1       1.242 -11.364   5.492  1.00  0.00    -0.203 F 
ATOM     66  C   UNL     1      -0.369  -9.985   4.466  1.00  0.00     0.198 A 
ATOM     67  C   UNL     1       0.062  -7.660   4.144  1.00  0.00     0.198 A 
ATOM     68  F   UNL     1       2.079  -6.741   4.830  1.00  0.00    -0.203 F 
ATOM     69  F   UNL     1      -1.185 -11.040   4.337  1.00  0.00    -0.200 F 
ATOM     70  C   UNL     1      -0.779  -8.744   4.005  1.00  0.00     0.200 A 
ATOM     71  F   UNL     1      -0.323  -6.446   3.721  1.00  0.00    -0.200 F 
ATOM     72  F   UNL     1      -1.984  -8.591   3.438  1.00  0.00    -0.200 F 
ENDBRANCH  39  62
ENDBRANCH  13  14
ENDBRANCH   6   8
ENDBRANCH   3   4
ENDBRANCH   2   3
ENDBRANCH   1   2
BRANCH   1  73
ATOM     73  C   UNL     1       4.705   0.360  -4.356  1.00  0.00     0.116 C 
BRANCH  73  74
ATOM     74  N   UNL     1       6.150   0.333  -4.505  1.00  0.00    -0.354 N 
ATOM     75  C   UNL     1       6.914   0.152  -5.621  1.00  0.00     0.249 C 
ATOM     76  H   UNL     1       6.656   0.466  -3.672  1.00  0.00     0.163 HD
ATOM     77  O   UNL     1       8.140   0.142  -5.481  1.00  0.00    -0.272 OA
BRANCH  75  78
ATOM     78  C   UNL     1       6.243   0.019  -6.991  1.00  0.00     0.207 C 
ATOM     79  C   UNL     1       6.955  -0.967  -7.903  1.00  0.00     0.045 C 
ATOM     80  O   UNL     1       6.259   1.301  -7.656  1.00  0.00    -0.363 OA
ATOM     81  C   UNL     1       6.754  -0.341  -9.259  1.00  0.00     0.037 C 
ATOM     82  C   UNL     1       6.868   1.145  -8.954  1.00  0.00     0.138 C 
BRANCH  82  83
ATOM     83  C   UNL     1       8.315   1.673  -8.912  1.00  0.00     0.148 C 
BRANCH  83  84
ATOM     84  N   UNL     1       8.998   1.532 -10.190  1.00  0.00    -0.348 N 
ATOM     85  C   UNL     1       9.563   2.472 -11.011  1.00  0.00     0.268 C 
ATOM     86  H   UNL     1       9.064   0.606 -10.519  1.00  0.00     0.163 HD
ATOM     87  O   UNL     1      10.056   2.070 -12.062  1.00  0.00    -0.268 OA
BRANCH  85  88
ATOM     88  C   UNL     1       9.632   3.842 -10.574  1.00  0.00     0.107 A 
ATOM     89  C   UNL     1      10.233   4.297  -9.402  1.00  0.00     0.033 A 
ATOM     90  N   UNL     1       9.270   4.972 -11.279  1.00  0.00    -0.340 N 
ATOM     91  C   UNL     1      10.236   5.707  -9.408  1.00  0.00     0.020 A 
ATOM     92  C   UNL     1       9.657   6.097 -10.591  1.00  0.00     0.086 A 
BRANCH  90  93
ATOM     93  C   UNL     1       8.497   5.116 -12.502  1.00  0.00     0.087 C 
ATOM     94  C   UNL     1       8.235   4.077 -13.568  1.00  0.00     0.027 C 
ATOM     95  C   UNL     1       7.136   4.457 -12.637  1.00  0.00     0.027 C 
ENDBRANCH  90  93
ENDBRANCH  85  88
ENDBRANCH  83  84
ENDBRANCH  82  83
ENDBRANCH  75  78
ENDBRANCH  73  74
ENDBRANCH   1  73
TORSDOF 15
