REMARK SMILES Cc1oc2cc3c(cc2c1C)[C@H](C)[C@@H](CC(=O)N[C@H](CC1=c2ccccc2=NC1)C(=O)NCCCCNC(=O)c1ccc(-c2c4nc(c(-c5c(F)c(F)c(F)c(F)c5F)c5ccc([nH]5)c(-c5c(F)c(F)c(F)c(F)c5F)c5nc(c(-c6c(F)c(F)c(F)c(F)c6F)c6ccc2[nH]6)C=C5)C=C4)cc1)C(=O)O3
REMARK SMILES IDX 34 1 33 2 32 3 30 4 31 5 19 7 18 8 16 9 17 10 15 12 14 13
REMARK SMILES IDX 1 14 2 15 3 16 10 17 4 18 9 19 11 20 5 21 8 22 6 23 7 24
REMARK SMILES IDX 105 25 12 26 103 27 13 28 104 29 20 30 21 31 22 32 29 33
REMARK SMILES IDX 23 34 27 35 28 36 24 37 26 38 25 39 35 40 36 41 37 42 38 43
REMARK SMILES IDX 39 45 40 46 41 47 102 48 42 49 101 50 43 51 44 52 45 53
REMARK SMILES IDX 95 54 46 55 100 56 94 57 96 58 47 59 99 60 93 61 92 62 48 64
REMARK SMILES IDX 80 65 60 66 79 67 61 68 64 69 78 70 97 71 62 72 63 73 77 75
REMARK SMILES IDX 98 76 65 77 49 78 50 79 58 80 51 81 52 82 56 83 59 84 53 85
REMARK SMILES IDX 54 86 57 87 55 88 81 89 82 90 90 91 83 92 84 93 88 94 91 95
REMARK SMILES IDX 85 96 86 97 89 98 87 99 66 100 67 101 75 102 68 103 69 104
REMARK SMILES IDX 73 105 76 106 70 107 71 108 74 109 72 110
REMARK H PARENT 32 6 18 11 37 44 96 63 64 74
REMARK Flexibility Score: inf
ROOT
ATOM      1  C   UNL     1      -3.571   4.024  12.847  1.00  0.00     0.023 C 
ENDROOT
BRANCH   1   2
ATOM      2  C   UNL     1      -2.894   4.225  11.483  1.00  0.00     0.116 C 
BRANCH   2   3
ATOM      3  N   UNL     1      -1.570   3.631  11.441  1.00  0.00    -0.354 N 
ATOM      4  C   UNL     1      -1.439   2.268  11.493  1.00  0.00     0.242 C 
ATOM      5  O   UNL     1      -1.282   1.747  12.593  1.00  0.00    -0.273 OA
ATOM      6  H   UNL     1      -0.772   4.203  11.377  1.00  0.00     0.163 HD
BRANCH   4   7
ATOM      7  C   UNL     1      -1.629   1.491  10.185  1.00  0.00     0.175 C 
BRANCH   7   8
ATOM      8  N   UNL     1      -1.409   2.423   9.053  1.00  0.00    -0.344 N 
ATOM      9  C   UNL     1      -0.261   2.868   8.456  1.00  0.00     0.221 C 
ATOM     10  O   UNL     1      -0.352   3.898   7.780  1.00  0.00    -0.275 OA
ATOM     11  H   UNL     1      -2.236   2.786   8.661  1.00  0.00     0.164 HD
BRANCH   9  12
ATOM     12  C   UNL     1       1.101   2.162   8.568  1.00  0.00     0.116 C 
BRANCH  12  13
ATOM     13  C   UNL     1       1.817   2.442   9.892  1.00  0.00     0.116 C 
ATOM     14  C   UNL     1       6.311   0.673  16.847  1.00  0.00     0.088 C 
ATOM     15  C   UNL     1       5.770   1.073  15.533  1.00  0.00     0.105 A 
ATOM     16  O   UNL     1       4.442   1.343  15.532  1.00  0.00    -0.461 OA
ATOM     17  C   UNL     1       6.295   1.213  14.256  1.00  0.00    -0.002 A 
ATOM     18  C   UNL     1       4.098   1.634  14.259  1.00  0.00     0.138 A 
ATOM     19  C   UNL     1       5.200   1.602  13.414  1.00  0.00     0.024 A 
ATOM     20  C   UNL     1       7.692   0.961  13.835  1.00  0.00     0.049 C 
ATOM     21  C   UNL     1       2.804   1.871  13.858  1.00  0.00     0.095 A 
ATOM     22  C   UNL     1       5.010   1.883  12.031  1.00  0.00     0.020 A 
ATOM     23  C   UNL     1       2.647   2.032  12.488  1.00  0.00     0.138 A 
ATOM     24  C   UNL     1       3.707   2.114  11.552  1.00  0.00    -0.001 A 
ATOM     25  O   UNL     1       1.320   1.977  12.099  1.00  0.00    -0.426 OA
ATOM     26  C   UNL     1       3.361   2.273  10.043  1.00  0.00     0.035 C 
ATOM     27  C   UNL     1       1.374   1.403  10.867  1.00  0.00     0.315 C 
ATOM     28  C   UNL     1       4.123   3.430   9.399  1.00  0.00     0.014 C 
ATOM     29  O   UNL     1       1.206   0.217  10.631  1.00  0.00    -0.251 OA
ENDBRANCH  12  13
ENDBRANCH   9  12
ENDBRANCH   7   8
BRANCH   7  30
ATOM     30  C   UNL     1      -3.025   0.850  10.253  1.00  0.00     0.068 C 
BRANCH  30  31
ATOM     31  C   UNL     1      -3.118  -0.525  10.874  1.00  0.00    -0.037 C 
ATOM     32  C   UNL     1      -2.245  -1.327  11.490  1.00  0.00     0.001 A 
ATOM     33  C   UNL     1      -4.369  -1.321  10.626  1.00  0.00     0.174 C 
ATOM     34  C   UNL     1      -1.024  -1.272  12.229  1.00  0.00     0.010 A 
ATOM     35  C   UNL     1      -2.687  -2.619  10.907  1.00  0.00     0.065 A 
ATOM     36  N   UNL     1      -3.885  -2.692  10.407  1.00  0.00    -0.280 NA
ATOM     37  C   UNL     1      -0.225  -2.351  12.273  1.00  0.00     0.001 A 
ATOM     38  C   UNL     1      -1.650  -3.669  10.791  1.00  0.00     0.028 A 
ATOM     39  C   UNL     1      -0.482  -3.501  11.430  1.00  0.00     0.002 A 
ENDBRANCH  30  31
ENDBRANCH   7  30
ENDBRANCH   4   7
ENDBRANCH   2   3
ENDBRANCH   1   2
BRANCH   1  40
ATOM     40  C   UNL     1      -2.683   4.345  14.055  1.00  0.00     0.023 C 
BRANCH  40  41
ATOM     41  C   UNL     1      -1.929   5.665  13.940  1.00  0.00     0.116 C 
BRANCH  41  42
ATOM     42  N   UNL     1      -2.772   6.811  14.208  1.00  0.00    -0.352 N 
ATOM     43  C   UNL     1      -3.048   7.389  15.429  1.00  0.00     0.251 C 
ATOM     44  H   UNL     1      -3.199   7.228  13.425  1.00  0.00     0.163 HD
ATOM     45  O   UNL     1      -3.868   8.274  15.546  1.00  0.00    -0.269 OA
BRANCH  43  46
ATOM     46  C   UNL     1      -2.334   6.853  16.603  1.00  0.00     0.039 A 
ATOM     47  C   UNL     1      -0.937   6.882  16.634  1.00  0.00     0.014 A 
ATOM     48  C   UNL     1      -3.072   6.222  17.606  1.00  0.00     0.014 A 
ATOM     49  C   UNL     1      -0.266   6.156  17.604  1.00  0.00     0.010 A 
ATOM     50  C   UNL     1      -2.396   5.540  18.612  1.00  0.00     0.010 A 
ATOM     51  C   UNL     1      -0.996   5.478  18.587  1.00  0.00    -0.014 A 
BRANCH  51  52
ATOM     52  C   UNL     1      -0.219   4.832  19.647  1.00  0.00     0.031 A 
ATOM     53  C   UNL     1      -0.296   5.554  20.945  1.00  0.00     0.074 A 
ATOM     54  C   UNL     1       0.072   3.518  19.654  1.00  0.00     0.049 A 
ATOM     55  N   UNL     1      -1.289   5.388  21.769  1.00  0.00    -0.248 NA
ATOM     56  C   UNL     1       0.556   6.699  21.254  1.00  0.00     0.031 C 
ATOM     57  C   UNL     1      -0.752   2.480  19.026  1.00  0.00     0.029 A 
ATOM     58  N   UNL     1       0.994   2.822  20.399  1.00  0.00    -0.354 N 
ATOM     59  C   UNL     1      -1.255   6.445  22.653  1.00  0.00     0.074 A 
ATOM     60  C   UNL     1      -0.078   7.217  22.317  1.00  0.00     0.031 C 
ATOM     61  C   UNL     1      -0.429   1.291  19.576  1.00  0.00     0.029 A 
ATOM     62  C   UNL     1       0.728   1.459  20.451  1.00  0.00     0.049 A 
ATOM     63  H   UNL     1       1.761   3.245  20.849  1.00  0.00     0.167 HD
ATOM     64  C   UNL     1      -2.214   6.652  23.590  1.00  0.00     0.037 A 
ATOM     65  C   UNL     1       1.026   0.654  21.506  1.00  0.00     0.037 A 
ATOM     66  C   UNL     1      -3.278   5.696  23.632  1.00  0.00     0.049 A 
ATOM     67  C   UNL     1       0.078   1.183  22.555  1.00  0.00     0.074 A 
ATOM     68  C   UNL     1      -4.550   5.587  23.115  1.00  0.00     0.029 A 
ATOM     69  N   UNL     1      -3.050   4.498  24.267  1.00  0.00    -0.354 N 
ATOM     70  N   UNL     1      -1.189   0.881  22.670  1.00  0.00    -0.248 NA
ATOM     71  C   UNL     1       0.491   2.363  23.319  1.00  0.00     0.031 C 
ATOM     72  C   UNL     1      -4.832   4.184  23.082  1.00  0.00     0.029 A 
ATOM     73  C   UNL     1      -3.686   3.530  23.530  1.00  0.00     0.049 A 
ATOM     74  H   UNL     1      -2.530   4.360  25.092  1.00  0.00     0.167 HD
ATOM     75  C   UNL     1      -1.775   1.979  23.304  1.00  0.00     0.074 A 
ATOM     76  C   UNL     1      -0.683   2.835  23.711  1.00  0.00     0.031 C 
ATOM     77  C   UNL     1      -3.116   2.225  23.294  1.00  0.00     0.037 A 
BRANCH  64  78
ATOM     78  C   UNL     1      -2.132   7.701  24.614  1.00  0.00     0.064 A 
ATOM     79  C   UNL     1      -1.638   7.353  25.878  1.00  0.00     0.173 A 
ATOM     80  C   UNL     1      -2.678   8.974  24.435  1.00  0.00     0.173 A 
ATOM     81  F   UNL     1      -1.120   6.130  26.079  1.00  0.00    -0.203 F 
ATOM     82  C   UNL     1      -1.715   8.240  26.942  1.00  0.00     0.198 A 
ATOM     83  C   UNL     1      -2.750   9.865  25.504  1.00  0.00     0.198 A 
ATOM     84  F   UNL     1      -3.168   9.340  23.242  1.00  0.00    -0.203 F 
ATOM     85  F   UNL     1      -1.266   7.871  28.149  1.00  0.00    -0.200 F 
ATOM     86  C   UNL     1      -2.280   9.493  26.758  1.00  0.00     0.200 A 
ATOM     87  F   UNL     1      -3.297  11.076  25.331  1.00  0.00    -0.200 F 
ATOM     88  F   UNL     1      -2.379  10.338  27.792  1.00  0.00    -0.200 F 
ENDBRANCH  64  78
BRANCH  65  89
ATOM     89  C   UNL     1       2.493   0.444  21.736  1.00  0.00     0.064 A 
ATOM     90  C   UNL     1       3.294   0.037  20.645  1.00  0.00     0.173 A 
ATOM     91  C   UNL     1       3.164   0.614  22.956  1.00  0.00     0.173 A 
ATOM     92  F   UNL     1       2.726  -0.264  19.466  1.00  0.00    -0.203 F 
ATOM     93  C   UNL     1       4.682  -0.065  20.741  1.00  0.00     0.198 A 
ATOM     94  C   UNL     1       4.557   0.544  23.044  1.00  0.00     0.198 A 
ATOM     95  F   UNL     1       2.493   0.862  24.088  1.00  0.00    -0.203 F 
ATOM     96  F   UNL     1       5.404  -0.430  19.673  1.00  0.00    -0.200 F 
ATOM     97  C   UNL     1       5.317   0.224  21.933  1.00  0.00     0.200 A 
ATOM     98  F   UNL     1       5.162   0.810  24.210  1.00  0.00    -0.200 F 
ATOM     99  F   UNL     1       6.654   0.184  22.016  1.00  0.00    -0.200 F 
ENDBRANCH  65  89
BRANCH  77 100
ATOM    100  C   UNL     1      -3.961   1.127  22.751  1.00  0.00     0.064 A 
ATOM    101  C   UNL     1      -4.170  -0.033  23.507  1.00  0.00     0.173 A 
ATOM    102  C   UNL     1      -4.590   1.227  21.502  1.00  0.00     0.173 A 
ATOM    103  F   UNL     1      -3.594  -0.169  24.712  1.00  0.00    -0.203 F 
ATOM    104  C   UNL     1      -4.999  -1.048  23.040  1.00  0.00     0.198 A 
ATOM    105  C   UNL     1      -5.438   0.221  21.049  1.00  0.00     0.198 A 
ATOM    106  F   UNL     1      -4.409   2.307  20.726  1.00  0.00    -0.203 F 
ATOM    107  F   UNL     1      -5.194  -2.147  23.782  1.00  0.00    -0.200 F 
ATOM    108  C   UNL     1      -5.642  -0.914  21.818  1.00  0.00     0.200 A 
ATOM    109  F   UNL     1      -6.074   0.359  19.877  1.00  0.00    -0.200 F 
ATOM    110  F   UNL     1      -6.471  -1.876  21.387  1.00  0.00    -0.200 F 
ENDBRANCH  77 100
ENDBRANCH  51  52
ENDBRANCH  43  46
ENDBRANCH  41  42
ENDBRANCH  40  41
ENDBRANCH   1  40
TORSDOF 16
