REMARK SMILES CS(=O)(=O)c1ccc(N2N=C(C(=O)NCCCCNC(=O)c3ccc(-c4c5nc(c(-c6c(F)c(F)c(F)c(F)c6F)c6ccc([nH]6)c(-c6c(F)c(F)c(F)c(F)c6F)c6nc(c(-c7c(F)c(F)c(F)c(F)c7F)c7ccc4[nH]7)C=C6)C=C5)cc3)C[C@H]2c2ccco2)cc1
REMARK SMILES IDX 16 1 15 2 14 3 12 4 13 5 11 7 9 8 10 9 86 10 85 11 8 12 5 13
REMARK SMILES IDX 6 14 93 15 7 16 92 17 2 18 1 19 3 20 4 21 87 22 88 23 91 24
REMARK SMILES IDX 89 25 90 26 17 27 18 28 19 29 20 30 21 32 22 33 23 34 84 35
REMARK SMILES IDX 24 36 83 37 25 38 26 39 27 40 77 41 28 42 82 43 76 44 78 45
REMARK SMILES IDX 29 46 81 47 75 48 74 49 30 51 62 52 42 53 61 54 43 55 46 56
REMARK SMILES IDX 60 57 79 58 44 59 45 60 59 62 80 63 47 64 31 65 32 66 40 67
REMARK SMILES IDX 33 68 34 69 38 70 41 71 35 72 36 73 39 74 37 75 63 76 64 77
REMARK SMILES IDX 72 78 65 79 66 80 70 81 73 82 67 83 68 84 71 85 69 86 48 87
REMARK SMILES IDX 49 88 57 89 50 90 51 91 55 92 58 93 52 94 53 95 56 96 54 97
REMARK H PARENT 14 6 19 31 78 50 46 61
REMARK Flexibility Score: inf
ROOT
ATOM      1  C   UNL     1       4.759  10.309  -5.876  1.00  0.00     0.023 C 
ENDROOT
BRANCH   1   2
ATOM      2  C   UNL     1       3.297   9.897  -5.753  1.00  0.00     0.116 C 
BRANCH   2   3
ATOM      3  N   UNL     1       2.951   8.869  -6.714  1.00  0.00    -0.351 N 
ATOM      4  C   UNL     1       2.638   7.534  -6.621  1.00  0.00     0.267 C 
ATOM      5  O   UNL     1       2.461   6.921  -7.671  1.00  0.00    -0.268 OA
ATOM      6  H   UNL     1       2.938   9.201  -7.641  1.00  0.00     0.163 HD
BRANCH   4   7
ATOM      7  C   UNL     1       2.459   6.796  -5.303  1.00  0.00     0.128 C 
ATOM      8  N   UNL     1       1.861   5.262  -3.957  1.00  0.00    -0.254 N 
ATOM      9  N   UNL     1       2.095   5.549  -5.264  1.00  0.00    -0.171 NA
ATOM     10  C   UNL     1       2.250   6.320  -3.024  1.00  0.00     0.180 C 
ATOM     11  C   UNL     1       2.643   7.447  -3.975  1.00  0.00     0.099 C 
BRANCH   8  12
ATOM     12  C   UNL     1       1.528   3.979  -3.552  1.00  0.00     0.060 A 
ATOM     13  C   UNL     1       0.877   1.438  -2.567  1.00  0.00     0.067 A 
ATOM     14  C   UNL     1       2.053   1.614  -3.300  1.00  0.00     0.022 A 
ATOM     15  C   UNL     1      -0.006   2.497  -2.373  1.00  0.00     0.022 A 
ATOM     16  C   UNL     1       2.369   2.886  -3.794  1.00  0.00     0.029 A 
ATOM     17  C   UNL     1       0.324   3.754  -2.870  1.00  0.00     0.029 A 
BRANCH  13  18
ATOM     18  S   UNL     1       0.461  -0.152  -1.897  1.00  0.00     0.175 S 
ATOM     19  C   UNL     1       1.080  -0.057  -0.236  1.00  0.00     0.163 C 
ATOM     20  O   UNL     1       1.236  -1.153  -2.607  1.00  0.00    -0.224 OA
ATOM     21  O   UNL     1      -0.984  -0.234  -1.830  1.00  0.00    -0.224 OA
ENDBRANCH  13  18
ENDBRANCH   8  12
BRANCH  10  22
ATOM     22  C   UNL     1       1.248   6.761  -1.995  1.00  0.00     0.128 A 
ATOM     23  C   UNL     1       0.882   6.250  -0.763  1.00  0.00     0.048 A 
ATOM     24  O   UNL     1       0.509   7.884  -2.253  1.00  0.00    -0.467 OA
ATOM     25  C   UNL     1      -0.147   7.085  -0.265  1.00  0.00     0.042 A 
ATOM     26  C   UNL     1      -0.323   8.075  -1.201  1.00  0.00     0.195 A 
ENDBRANCH  10  22
ENDBRANCH   4   7
ENDBRANCH   2   3
ENDBRANCH   1   2
BRANCH   1  27
ATOM     27  C   UNL     1       5.041  11.236  -7.055  1.00  0.00     0.023 C 
BRANCH  27  28
ATOM     28  C   UNL     1       4.206  12.511  -7.080  1.00  0.00     0.116 C 
BRANCH  28  29
ATOM     29  N   UNL     1       4.315  13.299  -5.859  1.00  0.00    -0.352 N 
ATOM     30  C   UNL     1       4.468  14.659  -5.731  1.00  0.00     0.251 C 
ATOM     31  H   UNL     1       4.273  12.791  -5.016  1.00  0.00     0.163 HD
ATOM     32  O   UNL     1       4.670  15.168  -4.635  1.00  0.00    -0.269 OA
BRANCH  30  33
ATOM     33  C   UNL     1       4.427  15.493  -6.947  1.00  0.00     0.039 A 
ATOM     34  C   UNL     1       5.468  16.389  -7.190  1.00  0.00     0.014 A 
ATOM     35  C   UNL     1       3.398  15.325  -7.877  1.00  0.00     0.014 A 
ATOM     36  C   UNL     1       5.521  17.061  -8.412  1.00  0.00     0.010 A 
ATOM     37  C   UNL     1       3.501  15.926  -9.125  1.00  0.00     0.010 A 
ATOM     38  C   UNL     1       4.564  16.798  -9.407  1.00  0.00    -0.014 A 
BRANCH  38  39
ATOM     39  C   UNL     1       4.655  17.419 -10.752  1.00  0.00     0.031 A 
ATOM     40  C   UNL     1       3.556  18.322 -11.237  1.00  0.00     0.074 A 
ATOM     41  C   UNL     1       5.684  17.108 -11.564  1.00  0.00     0.049 A 
ATOM     42  N   UNL     1       3.403  18.888 -12.407  1.00  0.00    -0.248 NA
ATOM     43  C   UNL     1       2.466  18.602 -10.288  1.00  0.00     0.031 C 
ATOM     44  C   UNL     1       6.788  16.207 -11.226  1.00  0.00     0.029 A 
ATOM     45  N   UNL     1       5.964  17.507 -12.848  1.00  0.00    -0.354 N 
ATOM     46  C   UNL     1       2.200  19.576 -12.338  1.00  0.00     0.074 A 
ATOM     47  C   UNL     1       1.631  19.307 -11.036  1.00  0.00     0.031 C 
ATOM     48  C   UNL     1       7.636  16.142 -12.265  1.00  0.00     0.029 A 
ATOM     49  C   UNL     1       7.114  16.956 -13.358  1.00  0.00     0.049 A 
ATOM     50  H   UNL     1       5.394  18.129 -13.355  1.00  0.00     0.167 HD
ATOM     51  C   UNL     1       1.633  20.382 -13.267  1.00  0.00     0.037 A 
ATOM     52  C   UNL     1       7.677  17.084 -14.575  1.00  0.00     0.037 A 
ATOM     53  C   UNL     1       2.213  20.659 -14.555  1.00  0.00     0.049 A 
ATOM     54  C   UNL     1       7.013  17.965 -15.600  1.00  0.00     0.074 A 
ATOM     55  C   UNL     1       1.745  21.502 -15.547  1.00  0.00     0.029 A 
ATOM     56  N   UNL     1       3.386  20.091 -15.033  1.00  0.00    -0.354 N 
ATOM     57  N   UNL     1       5.911  18.668 -15.499  1.00  0.00    -0.248 NA
ATOM     58  C   UNL     1       7.676  18.075 -16.907  1.00  0.00     0.031 C 
ATOM     59  C   UNL     1       2.602  21.399 -16.648  1.00  0.00     0.029 A 
ATOM     60  C   UNL     1       3.642  20.546 -16.316  1.00  0.00     0.049 A 
ATOM     61  H   UNL     1       3.952  19.459 -14.533  1.00  0.00     0.167 HD
ATOM     62  C   UNL     1       5.767  19.329 -16.712  1.00  0.00     0.074 A 
ATOM     63  C   UNL     1       6.903  18.954 -17.528  1.00  0.00     0.031 C 
ATOM     64  C   UNL     1       4.785  20.174 -17.112  1.00  0.00     0.037 A 
BRANCH  51  65
ATOM     65  C   UNL     1       0.317  21.020 -12.924  1.00  0.00     0.064 A 
ATOM     66  C   UNL     1       0.211  22.003 -11.927  1.00  0.00     0.173 A 
ATOM     67  C   UNL     1      -0.848  20.670 -13.623  1.00  0.00     0.173 A 
ATOM     68  F   UNL     1       1.292  22.367 -11.219  1.00  0.00    -0.203 F 
ATOM     69  C   UNL     1      -1.016  22.584 -11.620  1.00  0.00     0.198 A 
ATOM     70  C   UNL     1      -2.067  21.280 -13.338  1.00  0.00     0.198 A 
ATOM     71  F   UNL     1      -0.804  19.741 -14.590  1.00  0.00    -0.203 F 
ATOM     72  F   UNL     1      -1.102  23.477 -10.624  1.00  0.00    -0.200 F 
ATOM     73  C   UNL     1      -2.152  22.229 -12.331  1.00  0.00     0.200 A 
ATOM     74  F   UNL     1      -3.160  20.947 -14.037  1.00  0.00    -0.200 F 
ATOM     75  F   UNL     1      -3.331  22.796 -12.040  1.00  0.00    -0.200 F 
ENDBRANCH  51  65
BRANCH  52  76
ATOM     76  C   UNL     1       8.947  16.375 -14.889  1.00  0.00     0.064 A 
ATOM     77  C   UNL     1      10.135  17.088 -15.104  1.00  0.00     0.173 A 
ATOM     78  C   UNL     1       8.999  14.977 -14.994  1.00  0.00     0.173 A 
ATOM     79  F   UNL     1      10.134  18.427 -15.034  1.00  0.00    -0.203 F 
ATOM     80  C   UNL     1      11.319  16.433 -15.438  1.00  0.00     0.198 A 
ATOM     81  C   UNL     1      10.191  14.321 -15.295  1.00  0.00     0.198 A 
ATOM     82  F   UNL     1       7.893  14.246 -14.791  1.00  0.00    -0.203 F 
ATOM     83  F   UNL     1      12.427  17.143 -15.691  1.00  0.00    -0.200 F 
ATOM     84  C   UNL     1      11.347  15.049 -15.528  1.00  0.00     0.200 A 
ATOM     85  F   UNL     1      10.217  12.983 -15.363  1.00  0.00    -0.200 F 
ATOM     86  F   UNL     1      12.486  14.419 -15.846  1.00  0.00    -0.200 F 
ENDBRANCH  52  76
BRANCH  64  87
ATOM     87  C   UNL     1       4.916  20.793 -18.475  1.00  0.00     0.064 A 
ATOM     88  C   UNL     1       4.763  20.042 -19.650  1.00  0.00     0.173 A 
ATOM     89  C   UNL     1       5.154  22.170 -18.604  1.00  0.00     0.173 A 
ATOM     90  F   UNL     1       4.548  18.719 -19.583  1.00  0.00    -0.203 F 
ATOM     91  C   UNL     1       4.872  20.642 -20.902  1.00  0.00     0.198 A 
ATOM     92  C   UNL     1       5.226  22.773 -19.856  1.00  0.00     0.198 A 
ATOM     93  F   UNL     1       5.301  22.937 -17.513  1.00  0.00    -0.203 F 
ATOM     94  F   UNL     1       4.775  19.895 -22.011  1.00  0.00    -0.200 F 
ATOM     95  C   UNL     1       5.094  22.007 -21.004  1.00  0.00     0.200 A 
ATOM     96  F   UNL     1       5.423  24.095 -19.952  1.00  0.00    -0.200 F 
ATOM     97  F   UNL     1       5.187  22.584 -22.210  1.00  0.00    -0.200 F 
ENDBRANCH  64  87
ENDBRANCH  38  39
ENDBRANCH  30  33
ENDBRANCH  28  29
ENDBRANCH  27  28
ENDBRANCH   1  27
TORSDOF 14
