REMARK SMILES O=C(NCCCCNC(=O)c1ccc(-c2c3nc(c(-c4c(F)c(F)c(F)c(F)c4F)c4ccc([nH]4)c(-c4c(F)c(F)c(F)c(F)c4F)c4nc(c(-c5c(F)c(F)c(F)c(F)c5F)c5ccc2[nH]5)C=C4)C=C3)cc1)c1ccc(N[C@H]2OC[C@@H](O)[C@@H](O)[C@H]2O)cc1
REMARK SMILES IDX 5 1 4 2 3 3 1 4 2 5 74 7 75 8 89 9 76 10 88 11 77 12 78 13
REMARK SMILES IDX 79 15 80 16 86 17 81 18 84 19 82 20 87 21 85 23 83 25 6 27
REMARK SMILES IDX 7 28 8 29 9 30 10 32 11 33 12 34 73 35 13 36 72 37 14 38
REMARK SMILES IDX 15 39 16 40 66 41 17 42 71 43 65 44 67 45 18 46 70 47 64 48
REMARK SMILES IDX 63 49 19 51 51 52 31 53 50 54 32 55 35 56 49 57 68 58 33 59
REMARK SMILES IDX 34 60 48 62 69 63 36 64 20 65 21 66 29 67 22 68 23 69 27 70
REMARK SMILES IDX 30 71 24 72 25 73 28 74 26 75 52 76 53 77 61 78 54 79 55 80
REMARK SMILES IDX 59 81 62 82 56 83 57 84 60 85 58 86 37 87 38 88 46 89 39 90
REMARK SMILES IDX 40 91 44 92 47 93 41 94 42 95 45 96 43 97
REMARK H PARENT 3 6 78 14 87 22 85 24 83 26 8 31 67 50 35 61
REMARK Flexibility Score: inf
ROOT
ATOM      1  C   UNL     1       1.996   3.664   9.494  1.00  0.00     0.023 C 
ENDROOT
BRANCH   1   2
ATOM      2  C   UNL     1       2.415   4.764   8.524  1.00  0.00     0.116 C 
BRANCH   2   3
ATOM      3  N   UNL     1       3.121   5.854   9.178  1.00  0.00    -0.352 N 
ATOM      4  O   UNL     1       4.900   7.130   9.737  1.00  0.00    -0.269 OA
ATOM      5  C   UNL     1       4.416   6.278   8.999  1.00  0.00     0.251 C 
ATOM      6  H   UNL     1       2.598   6.358   9.843  1.00  0.00     0.163 HD
BRANCH   5   7
ATOM      7  C   UNL     1       5.234   5.668   7.934  1.00  0.00     0.039 A 
ATOM      8  C   UNL     1       4.786   5.641   6.614  1.00  0.00     0.016 A 
ATOM      9  C   UNL     1       6.456   5.092   8.268  1.00  0.00     0.016 A 
ATOM     10  C   UNL     1       5.502   4.923   5.654  1.00  0.00     0.026 A 
ATOM     11  C   UNL     1       7.178   4.402   7.290  1.00  0.00     0.026 A 
ATOM     12  C   UNL     1       6.689   4.260   5.979  1.00  0.00     0.036 A 
BRANCH  12  13
ATOM     13  N   UNL     1       7.429   3.515   5.076  1.00  0.00    -0.358 N 
ATOM     14  H   UNL     1       8.375   3.344   5.291  1.00  0.00     0.163 HD
BRANCH  13  15
ATOM     15  C   UNL     1       6.908   2.965   3.830  1.00  0.00     0.244 C 
ATOM     16  O   UNL     1       6.492   4.029   2.972  1.00  0.00    -0.353 OA
ATOM     17  C   UNL     1       8.063   2.204   3.134  1.00  0.00     0.195 C 
ATOM     18  C   UNL     1       5.948   3.565   1.730  1.00  0.00     0.197 C 
ATOM     19  C   UNL     1       7.585   1.672   1.780  1.00  0.00     0.178 C 
ATOM     20  C   UNL     1       6.997   2.800   0.920  1.00  0.00     0.171 C 
BRANCH  17  21
ATOM     21  O   UNL     1       9.174   3.115   2.925  1.00  0.00    -0.386 OA
ATOM     22  H   UNL     1       8.885   3.854   2.367  1.00  0.00     0.211 HD
ENDBRANCH  17  21
BRANCH  19  23
ATOM     23  O   UNL     1       8.669   1.042   1.093  1.00  0.00    -0.387 OA
ATOM     24  H   UNL     1       9.371   1.692   0.933  1.00  0.00     0.211 HD
ENDBRANCH  19  23
BRANCH  20  25
ATOM     25  O   UNL     1       8.035   3.700   0.503  1.00  0.00    -0.388 OA
ATOM     26  H   UNL     1       8.456   4.091   1.284  1.00  0.00     0.211 HD
ENDBRANCH  20  25
ENDBRANCH  13  15
ENDBRANCH  12  13
ENDBRANCH   5   7
ENDBRANCH   2   3
ENDBRANCH   1   2
BRANCH   1  27
ATOM     27  C   UNL     1       1.028   4.097  10.592  1.00  0.00     0.023 C 
BRANCH  27  28
ATOM     28  C   UNL     1      -0.212   4.844  10.115  1.00  0.00     0.116 C 
BRANCH  28  29
ATOM     29  N   UNL     1      -1.036   4.072   9.196  1.00  0.00    -0.352 N 
ATOM     30  C   UNL     1      -2.396   3.872   9.218  1.00  0.00     0.251 C 
ATOM     31  H   UNL     1      -0.553   3.634   8.458  1.00  0.00     0.163 HD
ATOM     32  O   UNL     1      -2.928   3.109   8.418  1.00  0.00    -0.269 OA
BRANCH  30  33
ATOM     33  C   UNL     1      -3.211   4.553  10.245  1.00  0.00     0.039 A 
ATOM     34  C   UNL     1      -4.083   3.794  11.030  1.00  0.00     0.014 A 
ATOM     35  C   UNL     1      -3.073   5.926  10.464  1.00  0.00     0.014 A 
ATOM     36  C   UNL     1      -4.752   4.397  12.098  1.00  0.00     0.010 A 
ATOM     37  C   UNL     1      -3.687   6.508  11.568  1.00  0.00     0.010 A 
ATOM     38  C   UNL     1      -4.522   5.748  12.403  1.00  0.00    -0.014 A 
BRANCH  38  39
ATOM     39  C   UNL     1      -5.129   6.398  13.592  1.00  0.00     0.031 A 
ATOM     40  C   UNL     1      -6.083   7.545  13.407  1.00  0.00     0.074 A 
ATOM     41  C   UNL     1      -4.737   6.037  14.830  1.00  0.00     0.049 A 
ATOM     42  N   UNL     1      -6.580   8.362  14.301  1.00  0.00    -0.248 NA
ATOM     43  C   UNL     1      -6.508   7.832  12.028  1.00  0.00     0.031 C 
ATOM     44  C   UNL     1      -3.787   4.967  15.142  1.00  0.00     0.029 A 
ATOM     45  N   UNL     1      -5.068   6.552  16.060  1.00  0.00    -0.354 N 
ATOM     46  C   UNL     1      -7.339   9.281  13.589  1.00  0.00     0.074 A 
ATOM     47  C   UNL     1      -7.221   8.937  12.189  1.00  0.00     0.031 C 
ATOM     48  C   UNL     1      -3.613   4.906  16.473  1.00  0.00     0.029 A 
ATOM     49  C   UNL     1      -4.405   5.956  17.105  1.00  0.00     0.049 A 
ATOM     50  H   UNL     1      -5.720   7.280  16.180  1.00  0.00     0.167 HD
ATOM     51  C   UNL     1      -8.076  10.311  14.065  1.00  0.00     0.037 A 
ATOM     52  C   UNL     1      -4.416   6.241  18.422  1.00  0.00     0.037 A 
ATOM     53  C   UNL     1      -8.242  10.612  15.461  1.00  0.00     0.049 A 
ATOM     54  C   UNL     1      -5.269   7.377  18.923  1.00  0.00     0.074 A 
ATOM     55  C   UNL     1      -9.045  11.577  16.044  1.00  0.00     0.029 A 
ATOM     56  N   UNL     1      -7.599   9.947  16.493  1.00  0.00    -0.354 N 
ATOM     57  N   UNL     1      -6.037   8.195  18.246  1.00  0.00    -0.248 NA
ATOM     58  C   UNL     1      -5.258   7.628  20.372  1.00  0.00     0.031 C 
ATOM     59  C   UNL     1      -8.861  11.519  17.429  1.00  0.00     0.029 A 
ATOM     60  C   UNL     1      -7.974  10.493  17.709  1.00  0.00     0.049 A 
ATOM     61  H   UNL     1      -6.969   9.200  16.379  1.00  0.00     0.167 HD
ATOM     62  C   UNL     1      -6.626   9.030  19.186  1.00  0.00     0.074 A 
ATOM     63  C   UNL     1      -6.131   8.619  20.482  1.00  0.00     0.031 C 
ATOM     64  C   UNL     1      -7.498  10.048  18.992  1.00  0.00     0.037 A 
BRANCH  51  65
ATOM     65  C   UNL     1      -8.773  11.192  13.073  1.00  0.00     0.064 A 
ATOM     66  C   UNL     1      -9.910  10.760  12.376  1.00  0.00     0.173 A 
ATOM     67  C   UNL     1      -8.339  12.511  12.873  1.00  0.00     0.173 A 
ATOM     68  F   UNL     1     -10.356   9.504  12.526  1.00  0.00    -0.203 F 
ATOM     69  C   UNL     1     -10.580  11.613  11.503  1.00  0.00     0.198 A 
ATOM     70  C   UNL     1      -9.025  13.369  12.019  1.00  0.00     0.198 A 
ATOM     71  F   UNL     1      -7.258  12.973  13.521  1.00  0.00    -0.203 F 
ATOM     72  F   UNL     1     -11.647  11.170  10.824  1.00  0.00    -0.200 F 
ATOM     73  C   UNL     1     -10.143  12.918  11.332  1.00  0.00     0.200 A 
ATOM     74  F   UNL     1      -8.609  14.633  11.863  1.00  0.00    -0.200 F 
ATOM     75  F   UNL     1     -10.799  13.742  10.504  1.00  0.00    -0.200 F 
ENDBRANCH  51  65
BRANCH  52  76
ATOM     76  C   UNL     1      -3.599   5.441  19.371  1.00  0.00     0.064 A 
ATOM     77  C   UNL     1      -4.209   4.586  20.299  1.00  0.00     0.173 A 
ATOM     78  C   UNL     1      -2.200   5.541  19.396  1.00  0.00     0.173 A 
ATOM     79  F   UNL     1      -5.545   4.476  20.329  1.00  0.00    -0.203 F 
ATOM     80  C   UNL     1      -3.454   3.884  21.236  1.00  0.00     0.198 A 
ATOM     81  C   UNL     1      -1.444   4.817  20.316  1.00  0.00     0.198 A 
ATOM     82  F   UNL     1      -1.568   6.343  18.527  1.00  0.00    -0.203 F 
ATOM     83  F   UNL     1      -4.067   3.118  22.148  1.00  0.00    -0.200 F 
ATOM     84  C   UNL     1      -2.072   3.998  21.242  1.00  0.00     0.200 A 
ATOM     85  F   UNL     1      -0.108   4.921  20.311  1.00  0.00    -0.200 F 
ATOM     86  F   UNL     1      -1.346   3.328  22.148  1.00  0.00    -0.200 F 
ENDBRANCH  52  76
BRANCH  64  87
ATOM     87  C   UNL     1      -8.022  10.752  20.206  1.00  0.00     0.064 A 
ATOM     88  C   UNL     1      -7.234  11.659  20.928  1.00  0.00     0.173 A 
ATOM     89  C   UNL     1      -9.351  10.562  20.613  1.00  0.00     0.173 A 
ATOM     90  F   UNL     1      -5.953  11.862  20.585  1.00  0.00    -0.203 F 
ATOM     91  C   UNL     1      -7.755  12.342  22.024  1.00  0.00     0.198 A 
ATOM     92  C   UNL     1      -9.876  11.264  21.693  1.00  0.00     0.198 A 
ATOM     93  F   UNL     1     -10.146   9.708  19.950  1.00  0.00    -0.203 F 
ATOM     94  F   UNL     1      -6.976  13.180  22.720  1.00  0.00    -0.200 F 
ATOM     95  C   UNL     1      -9.077  12.151  22.400  1.00  0.00     0.200 A 
ATOM     96  F   UNL     1     -11.156  11.088  22.048  1.00  0.00    -0.200 F 
ATOM     97  F   UNL     1      -9.580  12.819  23.447  1.00  0.00    -0.200 F 
ENDBRANCH  64  87
ENDBRANCH  38  39
ENDBRANCH  30  33
ENDBRANCH  28  29
ENDBRANCH  27  28
ENDBRANCH   1  27
TORSDOF 16
