REMARK SMILES C=CC[C@@]1(C(=O)NCCCCNC(=O)c2ccc(-c3c4nc(c(-c5c(F)c(F)c(F)c(F)c5F)c5ccc([nH]5)c(-c5c(F)c(F)c(F)c(F)c5F)c5nc(c(-c6c(F)c(F)c(F)c(F)c6F)c6ccc3[nH]6)C=C5)C=C4)cc2)CCCN(C(=O)c2ccc3c(c2)OCO3)C1
REMARK SMILES IDX 9 1 8 2 7 3 5 4 6 5 4 7 78 8 93 9 79 10 81 11 80 12 3 13
REMARK SMILES IDX 2 14 1 15 82 16 83 17 84 18 85 19 89 20 86 21 88 22 87 23
REMARK SMILES IDX 90 24 92 25 91 26 10 27 11 28 12 29 13 30 14 32 15 33 16 34
REMARK SMILES IDX 77 35 17 36 76 37 18 38 19 39 20 40 70 41 21 42 75 43 69 44
REMARK SMILES IDX 71 45 22 46 74 47 68 48 67 49 23 51 55 52 35 53 54 54 36 55
REMARK SMILES IDX 39 56 53 57 72 58 37 59 38 60 52 62 73 63 40 64 24 65 25 66
REMARK SMILES IDX 33 67 26 68 27 69 31 70 34 71 28 72 29 73 32 74 30 75 56 76
REMARK SMILES IDX 57 77 65 78 58 79 59 80 63 81 66 82 60 83 61 84 64 85 62 86
REMARK SMILES IDX 41 87 42 88 50 89 43 90 44 91 48 92 51 93 45 94 46 95 49 96
REMARK SMILES IDX 47 97
REMARK H PARENT 7 6 12 31 71 50 39 61
REMARK Flexibility Score: inf
ROOT
ATOM      1  C   UNL     1       1.282   2.168  -0.414  1.00  0.00     0.023 C 
ENDROOT
BRANCH   1   2
ATOM      2  C   UNL     1       0.844   0.978  -1.254  1.00  0.00     0.116 C 
BRANCH   2   3
ATOM      3  N   UNL     1       0.099  -0.018  -0.519  1.00  0.00    -0.356 N 
ATOM      4  C   UNL     1      -0.892  -0.865  -0.914  1.00  0.00     0.228 C 
ATOM      5  O   UNL     1      -1.208  -1.705  -0.069  1.00  0.00    -0.274 OA
ATOM      6  H   UNL     1       0.350  -0.099   0.430  1.00  0.00     0.163 HD
BRANCH   4   7
ATOM      7  C   UNL     1      -1.645  -0.705  -2.261  1.00  0.00     0.070 C 
ATOM      8  C   UNL     1      -2.567   0.546  -2.147  1.00  0.00     0.021 C 
ATOM      9  C   UNL     1      -2.523  -1.968  -2.486  1.00  0.00     0.137 C 
ATOM     10  C   UNL     1      -3.749   0.342  -1.193  1.00  0.00     0.023 C 
ATOM     11  N   UNL     1      -3.677  -2.071  -1.608  1.00  0.00    -0.338 N 
ATOM     12  C   UNL     1      -4.549  -0.900  -1.564  1.00  0.00     0.120 C 
BRANCH   7  13
ATOM     13  C   UNL     1      -0.652  -0.670  -3.477  1.00  0.00     0.045 C 
BRANCH  13  14
ATOM     14  C   UNL     1      -0.943   0.350  -4.551  1.00  0.00    -0.034 C 
ATOM     15  C   UNL     1      -0.175   1.411  -4.832  1.00  0.00     0.004 C 
ENDBRANCH  13  14
ENDBRANCH   7  13
BRANCH  11  16
ATOM     16  C   UNL     1      -3.885  -3.268  -0.920  1.00  0.00     0.254 C 
ATOM     17  O   UNL     1      -3.119  -4.224  -0.899  1.00  0.00    -0.269 OA
BRANCH  16  18
ATOM     18  C   UNL     1      -5.190  -3.424  -0.268  1.00  0.00     0.043 A 
ATOM     19  C   UNL     1      -5.353  -3.124   1.098  1.00  0.00     0.018 A 
ATOM     20  C   UNL     1      -6.273  -3.711  -1.105  1.00  0.00     0.064 A 
ATOM     21  C   UNL     1      -6.642  -3.042   1.630  1.00  0.00     0.051 A 
ATOM     22  C   UNL     1      -7.521  -3.577  -0.557  1.00  0.00     0.166 A 
ATOM     23  C   UNL     1      -7.703  -3.238   0.767  1.00  0.00     0.165 A 
ATOM     24  O   UNL     1      -8.692  -3.669  -1.240  1.00  0.00    -0.454 OA
ATOM     25  O   UNL     1      -9.021  -3.071   1.067  1.00  0.00    -0.454 OA
ATOM     26  C   UNL     1      -9.601  -3.146  -0.253  1.00  0.00     0.468 C 
ENDBRANCH  16  18
ENDBRANCH  11  16
ENDBRANCH   4   7
ENDBRANCH   2   3
ENDBRANCH   1   2
BRANCH   1  27
ATOM     27  C   UNL     1       2.095   1.839   0.834  1.00  0.00     0.023 C 
BRANCH  27  28
ATOM     28  C   UNL     1       3.275   0.897   0.627  1.00  0.00     0.116 C 
BRANCH  28  29
ATOM     29  N   UNL     1       4.268   1.418  -0.300  1.00  0.00    -0.352 N 
ATOM     30  C   UNL     1       5.587   1.753  -0.091  1.00  0.00     0.251 C 
ATOM     31  H   UNL     1       3.946   1.552  -1.221  1.00  0.00     0.163 HD
ATOM     32  O   UNL     1       6.226   2.309  -0.971  1.00  0.00    -0.269 OA
BRANCH  30  33
ATOM     33  C   UNL     1       6.222   1.472   1.217  1.00  0.00     0.039 A 
ATOM     34  C   UNL     1       6.988   2.473   1.821  1.00  0.00     0.014 A 
ATOM     35  C   UNL     1       6.053   0.241   1.852  1.00  0.00     0.014 A 
ATOM     36  C   UNL     1       7.509   2.268   3.101  1.00  0.00     0.010 A 
ATOM     37  C   UNL     1       6.495   0.071   3.161  1.00  0.00     0.010 A 
ATOM     38  C   UNL     1       7.226   1.084   3.802  1.00  0.00    -0.014 A 
BRANCH  38  39
ATOM     39  C   UNL     1       7.674   0.889   5.206  1.00  0.00     0.031 A 
ATOM     40  C   UNL     1       8.616  -0.232   5.550  1.00  0.00     0.074 A 
ATOM     41  C   UNL     1       7.172   1.672   6.182  1.00  0.00     0.049 A 
ATOM     42  N   UNL     1       9.059  -0.613   6.722  1.00  0.00    -0.248 NA
ATOM     43  C   UNL     1       9.106  -1.054   4.431  1.00  0.00     0.031 C 
ATOM     44  C   UNL     1       6.212   2.760   5.987  1.00  0.00     0.029 A 
ATOM     45  N   UNL     1       7.391   1.666   7.538  1.00  0.00    -0.354 N 
ATOM     46  C   UNL     1       9.852  -1.727   6.484  1.00  0.00     0.074 A 
ATOM     47  C   UNL     1       9.796  -1.992   5.063  1.00  0.00     0.031 C 
ATOM     48  C   UNL     1       5.945   3.331   7.172  1.00  0.00     0.029 A 
ATOM     49  C   UNL     1       6.677   2.624   8.218  1.00  0.00     0.049 A 
ATOM     50  H   UNL     1       8.002   1.034   7.982  1.00  0.00     0.167 HD
ATOM     51  C   UNL     1      10.578  -2.452   7.368  1.00  0.00     0.037 A 
ATOM     52  C   UNL     1       6.613   2.894   9.536  1.00  0.00     0.037 A 
ATOM     53  C   UNL     1      10.663  -2.161   8.775  1.00  0.00     0.049 A 
ATOM     54  C   UNL     1       7.430   2.068  10.495  1.00  0.00     0.074 A 
ATOM     55  C   UNL     1      11.442  -2.781   9.736  1.00  0.00     0.029 A 
ATOM     56  N   UNL     1       9.941  -1.171   9.423  1.00  0.00    -0.354 N 
ATOM     57  N   UNL     1       8.249   1.076  10.244  1.00  0.00    -0.248 NA
ATOM     58  C   UNL     1       7.316   2.404  11.921  1.00  0.00     0.031 C 
ATOM     59  C   UNL     1      11.147  -2.205  10.976  1.00  0.00     0.029 A 
ATOM     60  C   UNL     1      10.231  -1.185  10.778  1.00  0.00     0.049 A 
ATOM     61  H   UNL     1       9.314  -0.550   8.985  1.00  0.00     0.167 HD
ATOM     62  C   UNL     1       8.774   0.695  11.472  1.00  0.00     0.074 A 
ATOM     63  C   UNL     1       8.193   1.573  12.465  1.00  0.00     0.031 C 
ATOM     64  C   UNL     1       9.659  -0.293  11.752  1.00  0.00     0.037 A 
BRANCH  51  65
ATOM     65  C   UNL     1      11.343  -3.634   6.848  1.00  0.00     0.064 A 
ATOM     66  C   UNL     1      12.472  -3.483   6.029  1.00  0.00     0.173 A 
ATOM     67  C   UNL     1      10.978  -4.936   7.225  1.00  0.00     0.173 A 
ATOM     68  F   UNL     1      12.859  -2.261   5.631  1.00  0.00    -0.203 F 
ATOM     69  C   UNL     1      13.193  -4.590   5.589  1.00  0.00     0.198 A 
ATOM     70  C   UNL     1      11.719  -6.038   6.810  1.00  0.00     0.198 A 
ATOM     71  F   UNL     1       9.910  -5.137   8.012  1.00  0.00    -0.203 F 
ATOM     72  F   UNL     1      14.243  -4.423   4.774  1.00  0.00    -0.200 F 
ATOM     73  C   UNL     1      12.822  -5.866   5.988  1.00  0.00     0.200 A 
ATOM     74  F   UNL     1      11.369  -7.269   7.210  1.00  0.00    -0.200 F 
ATOM     75  F   UNL     1      13.527  -6.929   5.577  1.00  0.00    -0.200 F 
ENDBRANCH  51  65
BRANCH  52  76
ATOM     76  C   UNL     1       5.758   4.005  10.037  1.00  0.00     0.064 A 
ATOM     77  C   UNL     1       6.331   5.144  10.621  1.00  0.00     0.173 A 
ATOM     78  C   UNL     1       4.359   3.937   9.979  1.00  0.00     0.173 A 
ATOM     79  F   UNL     1       7.664   5.247  10.720  1.00  0.00    -0.203 F 
ATOM     80  C   UNL     1       5.537   6.155  11.159  1.00  0.00     0.198 A 
ATOM     81  C   UNL     1       3.566   4.965  10.487  1.00  0.00     0.198 A 
ATOM     82  F   UNL     1       3.759   2.872   9.427  1.00  0.00    -0.203 F 
ATOM     83  F   UNL     1       6.111   7.202  11.768  1.00  0.00    -0.200 F 
ATOM     84  C   UNL     1       4.155   6.067  11.088  1.00  0.00     0.200 A 
ATOM     85  F   UNL     1       2.231   4.882  10.403  1.00  0.00    -0.200 F 
ATOM     86  F   UNL     1       3.392   7.037  11.609  1.00  0.00    -0.200 F 
ENDBRANCH  52  76
BRANCH  64  87
ATOM     87  C   UNL     1      10.094  -0.447  13.181  1.00  0.00     0.064 A 
ATOM     88  C   UNL     1       9.228  -0.939  14.169  1.00  0.00     0.173 A 
ATOM     89  C   UNL     1      11.410  -0.137  13.557  1.00  0.00     0.173 A 
ATOM     90  F   UNL     1       7.955  -1.236  13.865  1.00  0.00    -0.203 F 
ATOM     91  C   UNL     1       9.656  -1.088  15.486  1.00  0.00     0.198 A 
ATOM     92  C   UNL     1      11.844  -0.320  14.867  1.00  0.00     0.198 A 
ATOM     93  F   UNL     1      12.281   0.330  12.650  1.00  0.00    -0.203 F 
ATOM     94  F   UNL     1       8.796  -1.510  16.423  1.00  0.00    -0.200 F 
ATOM     95  C   UNL     1      10.965  -0.787  15.832  1.00  0.00     0.200 A 
ATOM     96  F   UNL     1      13.114  -0.043  15.195  1.00  0.00    -0.200 F 
ATOM     97  F   UNL     1      11.377  -0.940  17.097  1.00  0.00    -0.200 F 
ENDBRANCH  64  87
ENDBRANCH  38  39
ENDBRANCH  30  33
ENDBRANCH  28  29
ENDBRANCH  27  28
ENDBRANCH   1  27
TORSDOF 15
