REMARK SMILES CC[C@@H](C)CN(C)C(=O)NC(=O)CCC(=O)NCCCCNC(=O)c1ccc(-c2c3nc(c(-c4c(F)c(F)c(F)c(F)c4F)c4ccc([nH]4)c(-c4c(F)c(F)c(F)c(F)c4F)c4nc(c(-c5c(F)c(F)c(F)c(F)c5F)c5ccc2[nH]5)C=C4)C=C3)cc1
REMARK SMILES IDX 15 1 16 2 17 3 14 5 13 6 11 7 8 8 9 9 10 10 12 12 6 13 7 14
REMARK SMILES IDX 5 15 3 16 4 17 2 18 1 19 18 20 19 21 20 22 21 23 22 24 23 25
REMARK SMILES IDX 24 27 25 28 26 29 87 30 27 31 86 32 28 33 29 34 30 35 80 36
REMARK SMILES IDX 31 37 85 38 79 39 81 40 32 41 84 42 78 43 77 44 33 46 65 47
REMARK SMILES IDX 45 48 64 49 46 50 49 51 63 52 82 53 47 54 48 55 62 57 83 58
REMARK SMILES IDX 50 59 34 60 35 61 43 62 36 63 37 64 41 65 44 66 38 67 39 68
REMARK SMILES IDX 42 69 40 70 66 71 67 72 75 73 68 74 69 75 73 76 76 77 70 78
REMARK SMILES IDX 71 79 74 80 72 81 51 82 52 83 60 84 53 85 54 86 58 87 61 88
REMARK SMILES IDX 55 89 56 90 59 91 57 92
REMARK H PARENT 17 4 10 11 22 26 81 45 49 56
REMARK Flexibility Score: inf
ROOT
ATOM      1  C   UNL     1       3.292   0.096  -4.023  1.00  0.00     0.220 C 
ATOM      2  O   UNL     1       3.390  -0.852  -3.247  1.00  0.00    -0.275 OA
ATOM      3  N   UNL     1       2.604   1.208  -3.645  1.00  0.00    -0.356 N 
ATOM      4  H   UNL     1       2.036   1.108  -2.847  1.00  0.00     0.163 HD
ENDROOT
BRANCH   1   5
ATOM      5  C   UNL     1       3.925   0.029  -5.386  1.00  0.00     0.110 C 
BRANCH   5   6
ATOM      6  C   UNL     1       2.986  -0.375  -6.508  1.00  0.00     0.110 C 
BRANCH   6   7
ATOM      7  C   UNL     1       1.687   0.378  -6.640  1.00  0.00     0.228 C 
ATOM      8  C   UNL     1       0.068  -0.481  -4.922  1.00  0.00     0.323 C 
ATOM      9  O   UNL     1      -0.711   0.291  -4.360  1.00  0.00    -0.248 OA
ATOM     10  N   UNL     1       0.491  -0.148  -6.192  1.00  0.00    -0.278 N 
ATOM     11  H   UNL     1      -0.173  -0.314  -6.900  1.00  0.00     0.174 HD
ATOM     12  O   UNL     1       1.673   1.462  -7.232  1.00  0.00    -0.275 OA
BRANCH   8  13
ATOM     13  N   UNL     1       0.382  -1.717  -4.405  1.00  0.00    -0.327 N 
ATOM     14  C   UNL     1       1.122  -2.733  -5.134  1.00  0.00     0.148 C 
BRANCH  13  15
ATOM     15  C   UNL     1      -0.231  -2.142  -3.129  1.00  0.00     0.124 C 
BRANCH  15  16
ATOM     16  C   UNL     1       0.538  -1.787  -1.831  1.00  0.00     0.005 C 
ATOM     17  C   UNL     1       0.314  -2.896  -0.792  1.00  0.00     0.009 C 
BRANCH  16  18
ATOM     18  C   UNL     1       0.091  -0.422  -1.268  1.00  0.00     0.002 C 
ATOM     19  C   UNL     1       0.831   0.028  -0.013  1.00  0.00     0.004 C 
ENDBRANCH  16  18
ENDBRANCH  15  16
ENDBRANCH  13  15
ENDBRANCH   8  13
ENDBRANCH   6   7
ENDBRANCH   5   6
ENDBRANCH   1   5
BRANCH   3  20
ATOM     20  C   UNL     1       2.596   2.522  -4.262  1.00  0.00     0.116 C 
BRANCH  20  21
ATOM     21  C   UNL     1       1.199   3.052  -4.578  1.00  0.00     0.023 C 
BRANCH  21  22
ATOM     22  C   UNL     1       0.290   3.287  -3.381  1.00  0.00     0.023 C 
BRANCH  22  23
ATOM     23  C   UNL     1       0.879   4.200  -2.326  1.00  0.00     0.116 C 
BRANCH  23  24
ATOM     24  N   UNL     1       1.283   5.485  -2.882  1.00  0.00    -0.352 N 
ATOM     25  C   UNL     1       0.805   6.742  -2.612  1.00  0.00     0.251 C 
ATOM     26  H   UNL     1       2.006   5.445  -3.549  1.00  0.00     0.163 HD
ATOM     27  O   UNL     1       1.086   7.684  -3.341  1.00  0.00    -0.269 OA
BRANCH  25  28
ATOM     28  C   UNL     1      -0.060   6.942  -1.435  1.00  0.00     0.039 A 
ATOM     29  C   UNL     1      -1.175   7.776  -1.537  1.00  0.00     0.014 A 
ATOM     30  C   UNL     1       0.230   6.291  -0.234  1.00  0.00     0.014 A 
ATOM     31  C   UNL     1      -2.031   7.910  -0.444  1.00  0.00     0.010 A 
ATOM     32  C   UNL     1      -0.685   6.328   0.806  1.00  0.00     0.010 A 
ATOM     33  C   UNL     1      -1.809   7.160   0.724  1.00  0.00    -0.014 A 
BRANCH  33  34
ATOM     34  C   UNL     1      -2.711   7.257   1.895  1.00  0.00     0.031 A 
ATOM     35  C   UNL     1      -2.163   7.724   3.216  1.00  0.00     0.074 A 
ATOM     36  C   UNL     1      -3.991   6.852   1.789  1.00  0.00     0.049 A 
ATOM     37  N   UNL     1      -2.752   7.792   4.382  1.00  0.00    -0.248 NA
ATOM     38  C   UNL     1      -0.746   8.127   3.239  1.00  0.00     0.031 C 
ATOM     39  C   UNL     1      -4.613   6.318   0.576  1.00  0.00     0.029 A 
ATOM     40  N   UNL     1      -4.995   6.816   2.721  1.00  0.00    -0.354 N 
ATOM     41  C   UNL     1      -1.774   8.215   5.273  1.00  0.00     0.074 A 
ATOM     42  C   UNL     1      -0.538   8.319   4.532  1.00  0.00     0.031 C 
ATOM     43  C   UNL     1      -5.901   6.039   0.830  1.00  0.00     0.029 A 
ATOM     44  C   UNL     1      -6.183   6.333   2.231  1.00  0.00     0.049 A 
ATOM     45  H   UNL     1      -4.877   7.110   3.654  1.00  0.00     0.167 HD
ATOM     46  C   UNL     1      -1.904   8.521   6.585  1.00  0.00     0.037 A 
ATOM     47  C   UNL     1      -7.364   6.145   2.848  1.00  0.00     0.037 A 
ATOM     48  C   UNL     1      -3.149   8.453   7.301  1.00  0.00     0.049 A 
ATOM     49  C   UNL     1      -7.490   6.512   4.302  1.00  0.00     0.074 A 
ATOM     50  C   UNL     1      -3.413   8.813   8.610  1.00  0.00     0.029 A 
ATOM     51  N   UNL     1      -4.342   7.992   6.761  1.00  0.00    -0.354 N 
ATOM     52  N   UNL     1      -6.579   6.988   5.118  1.00  0.00    -0.248 NA
ATOM     53  C   UNL     1      -8.809   6.325   4.920  1.00  0.00     0.031 C 
ATOM     54  C   UNL     1      -4.754   8.521   8.878  1.00  0.00     0.029 A 
ATOM     55  C   UNL     1      -5.341   8.036   7.719  1.00  0.00     0.049 A 
ATOM     56  H   UNL     1      -4.461   7.681   5.835  1.00  0.00     0.167 HD
ATOM     57  C   UNL     1      -7.219   7.183   6.334  1.00  0.00     0.074 A 
ATOM     58  C   UNL     1      -8.601   6.790   6.143  1.00  0.00     0.031 C 
ATOM     59  C   UNL     1      -6.711   7.644   7.504  1.00  0.00     0.037 A 
BRANCH  46  60
ATOM     60  C   UNL     1      -0.669   8.959   7.322  1.00  0.00     0.064 A 
ATOM     61  C   UNL     1      -0.027  10.174   7.033  1.00  0.00     0.173 A 
ATOM     62  C   UNL     1      -0.129   8.160   8.341  1.00  0.00     0.173 A 
ATOM     63  F   UNL     1      -0.493  10.970   6.059  1.00  0.00    -0.203 F 
ATOM     64  C   UNL     1       1.131  10.552   7.708  1.00  0.00     0.198 A 
ATOM     65  C   UNL     1       1.008   8.560   9.039  1.00  0.00     0.198 A 
ATOM     66  F   UNL     1      -0.703   6.991   8.662  1.00  0.00    -0.203 F 
ATOM     67  F   UNL     1       1.761  11.685   7.370  1.00  0.00    -0.200 F 
ATOM     68  C   UNL     1       1.643   9.749   8.715  1.00  0.00     0.200 A 
ATOM     69  F   UNL     1       1.494   7.789  10.022  1.00  0.00    -0.200 F 
ATOM     70  F   UNL     1       2.754  10.117   9.367  1.00  0.00    -0.200 F 
ENDBRANCH  46  60
BRANCH  47  71
ATOM     71  C   UNL     1      -8.525   5.617   2.084  1.00  0.00     0.064 A 
ATOM     72  C   UNL     1      -9.628   6.433   1.796  1.00  0.00     0.173 A 
ATOM     73  C   UNL     1      -8.554   4.294   1.619  1.00  0.00     0.173 A 
ATOM     74  F   UNL     1      -9.655   7.701   2.233  1.00  0.00    -0.203 F 
ATOM     75  C   UNL     1     -10.724   5.941   1.090  1.00  0.00     0.198 A 
ATOM     76  C   UNL     1      -9.638   3.812   0.887  1.00  0.00     0.198 A 
ATOM     77  F   UNL     1      -7.521   3.474   1.862  1.00  0.00    -0.203 F 
ATOM     78  F   UNL     1     -11.784   6.730   0.868  1.00  0.00    -0.200 F 
ATOM     79  C   UNL     1     -10.725   4.633   0.631  1.00  0.00     0.200 A 
ATOM     80  F   UNL     1      -9.628   2.552   0.432  1.00  0.00    -0.200 F 
ATOM     81  F   UNL     1     -11.777   4.161  -0.053  1.00  0.00    -0.200 F 
ENDBRANCH  47  71
BRANCH  59  82
ATOM     82  C   UNL     1      -7.661   7.782   8.658  1.00  0.00     0.064 A 
ATOM     83  C   UNL     1      -8.184   6.662   9.321  1.00  0.00     0.173 A 
ATOM     84  C   UNL     1      -8.017   9.054   9.133  1.00  0.00     0.173 A 
ATOM     85  F   UNL     1      -7.884   5.425   8.897  1.00  0.00    -0.203 F 
ATOM     86  C   UNL     1      -9.050   6.811  10.400  1.00  0.00     0.198 A 
ATOM     87  C   UNL     1      -8.856   9.198  10.234  1.00  0.00     0.198 A 
ATOM     88  F   UNL     1      -7.537  10.157   8.539  1.00  0.00    -0.203 F 
ATOM     89  F   UNL     1      -9.578   5.728  10.987  1.00  0.00    -0.200 F 
ATOM     90  C   UNL     1      -9.378   8.078  10.861  1.00  0.00     0.200 A 
ATOM     91  F   UNL     1      -9.158  10.423  10.688  1.00  0.00    -0.200 F 
ATOM     92  F   UNL     1     -10.205   8.219  11.906  1.00  0.00    -0.200 F 
ENDBRANCH  59  82
ENDBRANCH  33  34
ENDBRANCH  25  28
ENDBRANCH  23  24
ENDBRANCH  22  23
ENDBRANCH  21  22
ENDBRANCH  20  21
ENDBRANCH   3  20
TORSDOF 17
