REMARK SMILES CCN(Cc1ccccn1)C(=O)N1CCC[C@H](C(=O)NCCCCNC(=O)c2ccc(-c3c4nc(c(-c5c(F)c(F)c(F)c(F)c5F)c5ccc([nH]5)c(-c5c(F)c(F)c(F)c(F)c5F)c5nc(c(-c6c(F)c(F)c(F)c(F)c6F)c6ccc3[nH]6)C=C5)C=C4)cc2)C1
REMARK SMILES IDX 21 1 20 2 18 3 19 4 17 6 13 7 14 8 91 9 15 10 16 11 11 12
REMARK SMILES IDX 12 13 3 14 2 15 1 16 4 17 5 18 6 19 10 20 7 21 9 22 8 23
REMARK SMILES IDX 22 24 23 25 24 26 25 27 26 28 27 30 28 31 29 32 90 33 30 34
REMARK SMILES IDX 89 35 31 36 32 37 33 38 83 39 34 40 88 41 82 42 84 43 35 44
REMARK SMILES IDX 87 45 81 46 80 47 36 49 68 50 48 51 67 52 49 53 52 54 66 55
REMARK SMILES IDX 85 56 50 57 51 58 65 60 86 61 53 62 37 63 38 64 46 65 39 66
REMARK SMILES IDX 40 67 44 68 47 69 41 70 42 71 45 72 43 73 69 74 70 75 78 76
REMARK SMILES IDX 71 77 72 78 76 79 79 80 73 81 74 82 77 83 75 84 54 85 55 86
REMARK SMILES IDX 63 87 56 88 57 89 61 90 64 91 58 92 59 93 62 94 60 95
REMARK H PARENT 20 5 25 29 84 48 52 59
REMARK Flexibility Score: inf
ROOT
ATOM      1  C   UNL     1       5.219   2.207  -2.920  1.00  0.00     0.116 C 
ENDROOT
BRANCH   1   2
ATOM      2  N   UNL     1       5.051   3.297  -3.847  1.00  0.00    -0.356 N 
ATOM      3  C   UNL     1       4.428   3.330  -5.051  1.00  0.00     0.224 C 
ATOM      4  O   UNL     1       4.327   4.442  -5.585  1.00  0.00    -0.275 OA
ATOM      5  H   UNL     1       5.450   4.151  -3.561  1.00  0.00     0.163 HD
BRANCH   3   6
ATOM      6  C   UNL     1       3.853   2.096  -5.759  1.00  0.00     0.098 C 
ATOM      7  N   UNL     1       2.792   0.337  -4.275  1.00  0.00    -0.324 N 
ATOM      8  C   UNL     1       3.638  -0.710  -4.834  1.00  0.00     0.121 C 
ATOM      9  C   UNL     1       2.601   1.520  -5.101  1.00  0.00     0.134 C 
ATOM     10  C   UNL     1       4.973  -0.199  -5.371  1.00  0.00     0.022 C 
ATOM     11  C   UNL     1       4.861   1.054  -6.234  1.00  0.00     0.017 C 
BRANCH   7  12
ATOM     12  C   UNL     1       2.389   0.278  -2.952  1.00  0.00     0.320 C 
ATOM     13  O   UNL     1       3.143  -0.195  -2.099  1.00  0.00    -0.248 OA
BRANCH  12  14
ATOM     14  N   UNL     1       1.145   0.800  -2.619  1.00  0.00    -0.319 N 
BRANCH  14  15
ATOM     15  C   UNL     1       0.881   1.125  -1.216  1.00  0.00     0.118 C 
ATOM     16  C   UNL     1       0.801  -0.079  -0.286  1.00  0.00     0.027 C 
ENDBRANCH  14  15
BRANCH  14  17
ATOM     17  C   UNL     1      -0.029   0.731  -3.518  1.00  0.00     0.177 C 
BRANCH  17  18
ATOM     18  C   UNL     1      -0.310   1.986  -4.328  1.00  0.00     0.060 A 
ATOM     19  C   UNL     1      -0.253   3.257  -3.757  1.00  0.00     0.026 A 
ATOM     20  N   UNL     1      -0.480   1.812  -5.667  1.00  0.00    -0.259 NA
ATOM     21  C   UNL     1      -0.258   4.373  -4.594  1.00  0.00     0.004 A 
ATOM     22  C   UNL     1      -0.484   2.912  -6.453  1.00  0.00     0.111 A 
ATOM     23  C   UNL     1      -0.352   4.199  -5.968  1.00  0.00     0.020 A 
ENDBRANCH  17  18
ENDBRANCH  14  17
ENDBRANCH  12  14
ENDBRANCH   7  12
ENDBRANCH   3   6
ENDBRANCH   1   2
BRANCH   1  24
ATOM     24  C   UNL     1       6.672   1.775  -2.765  1.00  0.00     0.023 C 
BRANCH  24  25
ATOM     25  C   UNL     1       7.363   2.342  -1.533  1.00  0.00     0.023 C 
BRANCH  25  26
ATOM     26  C   UNL     1       6.692   2.002  -0.207  1.00  0.00     0.116 C 
BRANCH  26  27
ATOM     27  N   UNL     1       6.518   0.578   0.038  1.00  0.00    -0.352 N 
ATOM     28  C   UNL     1       6.632  -0.094   1.238  1.00  0.00     0.251 C 
ATOM     29  H   UNL     1       6.290   0.028  -0.746  1.00  0.00     0.163 HD
ATOM     30  O   UNL     1       6.560  -1.310   1.300  1.00  0.00    -0.269 OA
BRANCH  28  31
ATOM     31  C   UNL     1       6.883   0.699   2.461  1.00  0.00     0.039 A 
ATOM     32  C   UNL     1       7.936   0.337   3.301  1.00  0.00     0.014 A 
ATOM     33  C   UNL     1       6.117   1.835   2.731  1.00  0.00     0.014 A 
ATOM     34  C   UNL     1       8.264   1.160   4.379  1.00  0.00     0.010 A 
ATOM     35  C   UNL     1       6.507   2.703   3.742  1.00  0.00     0.010 A 
ATOM     36  C   UNL     1       7.574   2.367   4.587  1.00  0.00    -0.014 A 
BRANCH  36  37
ATOM     37  C   UNL     1       7.934   3.272   5.707  1.00  0.00     0.031 A 
ATOM     38  C   UNL     1       6.933   3.550   6.795  1.00  0.00     0.074 A 
ATOM     39  C   UNL     1       9.136   3.880   5.719  1.00  0.00     0.049 A 
ATOM     40  N   UNL     1       7.045   4.321   7.847  1.00  0.00    -0.248 NA
ATOM     41  C   UNL     1       5.615   2.908   6.663  1.00  0.00     0.031 C 
ATOM     42  C   UNL     1      10.161   3.754   4.682  1.00  0.00     0.029 A 
ATOM     43  N   UNL     1       9.697   4.729   6.640  1.00  0.00    -0.354 N 
ATOM     44  C   UNL     1       5.813   4.266   8.486  1.00  0.00     0.074 A 
ATOM     45  C   UNL     1       4.946   3.450   7.667  1.00  0.00     0.031 C 
ATOM     46  C   UNL     1      11.242   4.466   5.043  1.00  0.00     0.029 A 
ATOM     47  C   UNL     1      10.977   5.115   6.324  1.00  0.00     0.049 A 
ATOM     48  H   UNL     1       9.228   5.032   7.450  1.00  0.00     0.167 HD
ATOM     49  C   UNL     1       5.447   4.815   9.668  1.00  0.00     0.037 A 
ATOM     50  C   UNL     1      11.841   5.894   7.002  1.00  0.00     0.037 A 
ATOM     51  C   UNL     1       6.326   5.592  10.500  1.00  0.00     0.049 A 
ATOM     52  C   UNL     1      11.428   6.452   8.337  1.00  0.00     0.074 A 
ATOM     53  C   UNL     1       6.077   6.143  11.745  1.00  0.00     0.029 A 
ATOM     54  N   UNL     1       7.632   5.922  10.170  1.00  0.00    -0.354 N 
ATOM     55  N   UNL     1      10.288   6.326   8.972  1.00  0.00    -0.248 NA
ATOM     56  C   UNL     1      12.433   7.244   9.060  1.00  0.00     0.031 C 
ATOM     57  C   UNL     1       7.222   6.835  12.153  1.00  0.00     0.029 A 
ATOM     58  C   UNL     1       8.200   6.676  11.184  1.00  0.00     0.049 A 
ATOM     59  H   UNL     1       8.088   5.659   9.338  1.00  0.00     0.167 HD
ATOM     60  C   UNL     1      10.447   6.994  10.179  1.00  0.00     0.074 A 
ATOM     61  C   UNL     1      11.801   7.507  10.195  1.00  0.00     0.031 C 
ATOM     62  C   UNL     1       9.554   7.168  11.184  1.00  0.00     0.037 A 
BRANCH  49  63
ATOM     63  C   UNL     1       4.040   4.575  10.133  1.00  0.00     0.064 A 
ATOM     64  C   UNL     1       3.605   3.301  10.534  1.00  0.00     0.173 A 
ATOM     65  C   UNL     1       3.117   5.629  10.189  1.00  0.00     0.173 A 
ATOM     66  F   UNL     1       4.444   2.255  10.483  1.00  0.00    -0.203 F 
ATOM     67  C   UNL     1       2.291   3.085  10.937  1.00  0.00     0.198 A 
ATOM     68  C   UNL     1       1.811   5.416  10.625  1.00  0.00     0.198 A 
ATOM     69  F   UNL     1       3.479   6.867   9.821  1.00  0.00    -0.203 F 
ATOM     70  F   UNL     1       1.884   1.849  11.255  1.00  0.00    -0.200 F 
ATOM     71  C   UNL     1       1.397   4.144  10.989  1.00  0.00     0.200 A 
ATOM     72  F   UNL     1       0.950   6.442  10.685  1.00  0.00    -0.200 F 
ATOM     73  F   UNL     1       0.132   3.935  11.379  1.00  0.00    -0.200 F 
ENDBRANCH  49  63
BRANCH  50  74
ATOM     74  C   UNL     1      13.203   6.141   6.461  1.00  0.00     0.064 A 
ATOM     75  C   UNL     1      14.331   5.572   7.069  1.00  0.00     0.173 A 
ATOM     76  C   UNL     1      13.409   6.955   5.338  1.00  0.00     0.173 A 
ATOM     77  F   UNL     1      14.187   4.802   8.158  1.00  0.00    -0.203 F 
ATOM     78  C   UNL     1      15.615   5.829   6.592  1.00  0.00     0.198 A 
ATOM     79  C   UNL     1      14.691   7.189   4.844  1.00  0.00     0.198 A 
ATOM     80  F   UNL     1      12.363   7.517   4.716  1.00  0.00    -0.203 F 
ATOM     81  F   UNL     1      16.678   5.312   7.223  1.00  0.00    -0.200 F 
ATOM     82  C   UNL     1      15.793   6.633   5.477  1.00  0.00     0.200 A 
ATOM     83  F   UNL     1      14.859   7.956   3.759  1.00  0.00    -0.200 F 
ATOM     84  F   UNL     1      17.027   6.880   5.017  1.00  0.00    -0.200 F 
ENDBRANCH  50  74
BRANCH  62  85
ATOM     85  C   UNL     1      10.028   7.911  12.399  1.00  0.00     0.064 A 
ATOM     86  C   UNL     1      10.276   9.291  12.370  1.00  0.00     0.173 A 
ATOM     87  C   UNL     1      10.219   7.233  13.613  1.00  0.00     0.173 A 
ATOM     88  F   UNL     1      10.121   9.981  11.229  1.00  0.00    -0.203 F 
ATOM     89  C   UNL     1      10.733   9.959  13.502  1.00  0.00     0.198 A 
ATOM     90  C   UNL     1      10.645   7.910  14.751  1.00  0.00     0.198 A 
ATOM     91  F   UNL     1       9.987   5.915  13.695  1.00  0.00    -0.203 F 
ATOM     92  F   UNL     1      11.020  11.267  13.436  1.00  0.00    -0.200 F 
ATOM     93  C   UNL     1      10.912   9.270  14.693  1.00  0.00     0.200 A 
ATOM     94  F   UNL     1      10.804   7.246  15.904  1.00  0.00    -0.200 F 
ATOM     95  F   UNL     1      11.352   9.915  15.782  1.00  0.00    -0.200 F 
ENDBRANCH  62  85
ENDBRANCH  36  37
ENDBRANCH  28  31
ENDBRANCH  26  27
ENDBRANCH  25  26
ENDBRANCH  24  25
ENDBRANCH   1  24
TORSDOF 16
