REMARK SMILES CC(C)(C)OC(=O)Nc1ccc(-c2cccc(Cl)c2C(=O)NCCCCNC(=O)c2ccc(-c3c4nc(c(-c5c(F)c(F)c(F)c(F)c5F)c5ccc([nH]5)c(-c5c(F)c(F)c(F)c(F)c5F)c5nc(c(-c6c(F)c(F)c(F)c(F)c6F)c6ccc3[nH]6)C=C5)C=C4)cc2)cc1
REMARK SMILES IDX 23 1 22 2 20 3 21 4 19 6 13 7 14 8 15 9 17 10 16 11 18 12
REMARK SMILES IDX 12 13 9 14 10 15 94 16 11 17 93 18 8 19 6 20 7 21 5 23 2 24
REMARK SMILES IDX 1 25 3 26 4 27 24 28 25 29 26 30 27 31 28 32 29 34 30 35
REMARK SMILES IDX 31 36 92 37 32 38 91 39 33 40 34 41 35 42 85 43 36 44 90 45
REMARK SMILES IDX 84 46 86 47 37 48 89 49 83 50 82 51 38 53 70 54 50 55 69 56
REMARK SMILES IDX 51 57 54 58 68 59 87 60 52 61 53 62 67 64 88 65 55 66 39 67
REMARK SMILES IDX 40 68 48 69 41 70 42 71 46 72 49 73 43 74 44 75 47 76 45 77
REMARK SMILES IDX 71 78 72 79 80 80 73 81 74 82 78 83 81 84 75 85 76 86 79 87
REMARK SMILES IDX 77 88 56 89 57 90 65 91 58 92 59 93 63 94 66 95 60 96 61 97
REMARK SMILES IDX 64 98 62 99
REMARK H PARENT 22 5 8 22 27 33 86 52 54 63
REMARK Flexibility Score: inf
ROOT
ATOM      1  C   UNL     1       4.683  -6.200  -0.179  1.00  0.00     0.116 C 
ENDROOT
BRANCH   1   2
ATOM      2  N   UNL     1       6.014  -5.851  -0.581  1.00  0.00    -0.352 N 
ATOM      3  C   UNL     1       6.420  -5.426  -1.834  1.00  0.00     0.253 C 
ATOM      4  O   UNL     1       7.426  -4.713  -1.867  1.00  0.00    -0.269 OA
ATOM      5  H   UNL     1       6.714  -5.921   0.108  1.00  0.00     0.163 HD
BRANCH   3   6
ATOM      6  C   UNL     1       5.777  -5.813  -3.143  1.00  0.00     0.066 A 
ATOM      7  C   UNL     1       4.419  -5.600  -3.520  1.00  0.00    -0.004 A 
ATOM      8  C   UNL     1       4.027  -5.865  -4.858  1.00  0.00     0.009 A 
ATOM      9  C   UNL     1       4.919  -6.324  -5.816  1.00  0.00     0.002 A 
ATOM     10  C   UNL     1       6.660  -6.319  -4.135  1.00  0.00     0.054 A 
ATOM     11  C   UNL     1       6.233  -6.559  -5.452  1.00  0.00     0.021 A 
ATOM     12  Cl  UNL     1       8.313  -6.759  -3.820  1.00  0.00    -0.083 Cl
BRANCH   7  13
ATOM     13  C   UNL     1       3.325  -5.154  -2.646  1.00  0.00    -0.017 A 
ATOM     14  C   UNL     1       1.290  -4.441  -0.804  1.00  0.00     0.044 A 
ATOM     15  C   UNL     1       1.316  -5.718  -1.365  1.00  0.00     0.027 A 
ATOM     16  C   UNL     1       2.251  -3.511  -1.221  1.00  0.00     0.027 A 
ATOM     17  C   UNL     1       2.300  -6.059  -2.296  1.00  0.00     0.011 A 
ATOM     18  C   UNL     1       3.259  -3.860  -2.134  1.00  0.00     0.011 A 
BRANCH  14  19
ATOM     19  N   UNL     1       0.319  -4.210   0.188  1.00  0.00    -0.291 N 
ATOM     20  C   UNL     1      -0.058  -3.063   0.840  1.00  0.00     0.412 C 
ATOM     21  O   UNL     1      -0.935  -3.074   1.689  1.00  0.00    -0.224 OA
ATOM     22  H   UNL     1      -0.178  -5.014   0.464  1.00  0.00     0.173 HD
BRANCH  20  23
ATOM     23  O   UNL     1       0.588  -1.960   0.413  1.00  0.00    -0.444 OA
BRANCH  23  24
ATOM     24  C   UNL     1       0.277  -0.644   0.919  1.00  0.00     0.106 C 
ATOM     25  C   UNL     1       0.981   0.291  -0.073  1.00  0.00     0.056 C 
ATOM     26  C   UNL     1       0.882  -0.463   2.312  1.00  0.00     0.056 C 
ATOM     27  C   UNL     1      -1.226  -0.348   0.898  1.00  0.00     0.056 C 
ENDBRANCH  23  24
ENDBRANCH  20  23
ENDBRANCH  14  19
ENDBRANCH   7  13
ENDBRANCH   3   6
ENDBRANCH   1   2
BRANCH   1  28
ATOM     28  C   UNL     1       4.469  -6.959   1.118  1.00  0.00     0.023 C 
BRANCH  28  29
ATOM     29  C   UNL     1       4.768  -6.226   2.423  1.00  0.00     0.023 C 
BRANCH  29  30
ATOM     30  C   UNL     1       4.167  -4.831   2.587  1.00  0.00     0.116 C 
BRANCH  30  31
ATOM     31  N   UNL     1       2.719  -4.821   2.431  1.00  0.00    -0.352 N 
ATOM     32  C   UNL     1       1.722  -4.587   3.348  1.00  0.00     0.251 C 
ATOM     33  H   UNL     1       2.401  -5.012   1.519  1.00  0.00     0.163 HD
ATOM     34  O   UNL     1       0.608  -5.060   3.141  1.00  0.00    -0.269 OA
BRANCH  32  35
ATOM     35  C   UNL     1       1.995  -3.830   4.593  1.00  0.00     0.039 A 
ATOM     36  C   UNL     1       1.245  -4.120   5.737  1.00  0.00     0.014 A 
ATOM     37  C   UNL     1       3.023  -2.890   4.664  1.00  0.00     0.014 A 
ATOM     38  C   UNL     1       1.646  -3.615   6.973  1.00  0.00     0.010 A 
ATOM     39  C   UNL     1       3.501  -2.489   5.905  1.00  0.00     0.010 A 
ATOM     40  C   UNL     1       2.843  -2.889   7.075  1.00  0.00    -0.014 A 
BRANCH  40  41
ATOM     41  C   UNL     1       3.476  -2.647   8.396  1.00  0.00     0.031 A 
ATOM     42  C   UNL     1       3.760  -1.253   8.868  1.00  0.00     0.074 A 
ATOM     43  C   UNL     1       3.881  -3.713   9.118  1.00  0.00     0.049 A 
ATOM     44  N   UNL     1       4.343  -0.858   9.971  1.00  0.00    -0.248 NA
ATOM     45  C   UNL     1       3.372  -0.155   7.969  1.00  0.00     0.031 C 
ATOM     46  C   UNL     1       3.743  -5.114   8.707  1.00  0.00     0.029 A 
ATOM     47  N   UNL     1       4.494  -3.793  10.343  1.00  0.00    -0.354 N 
ATOM     48  C   UNL     1       4.393   0.526   9.895  1.00  0.00     0.074 A 
ATOM     49  C   UNL     1       3.854   0.900   8.607  1.00  0.00     0.031 C 
ATOM     50  C   UNL     1       4.209  -5.911   9.679  1.00  0.00     0.029 A 
ATOM     51  C   UNL     1       4.724  -5.082  10.761  1.00  0.00     0.049 A 
ATOM     52  H   UNL     1       4.745  -3.002  10.872  1.00  0.00     0.167 HD
ATOM     53  C   UNL     1       4.821   1.405  10.833  1.00  0.00     0.037 A 
ATOM     54  C   UNL     1       5.289  -5.543  11.893  1.00  0.00     0.037 A 
ATOM     55  C   UNL     1       5.353   1.014  12.112  1.00  0.00     0.049 A 
ATOM     56  C   UNL     1       5.753  -4.545  12.918  1.00  0.00     0.074 A 
ATOM     57  C   UNL     1       5.773   1.816  13.157  1.00  0.00     0.029 A 
ATOM     58  N   UNL     1       5.547  -0.302  12.515  1.00  0.00    -0.354 N 
ATOM     59  N   UNL     1       5.710  -3.235  12.875  1.00  0.00    -0.248 NA
ATOM     60  C   UNL     1       6.333  -5.088  14.152  1.00  0.00     0.031 C 
ATOM     61  C   UNL     1       6.272   0.989  14.168  1.00  0.00     0.029 A 
ATOM     62  C   UNL     1       6.101  -0.332  13.784  1.00  0.00     0.049 A 
ATOM     63  H   UNL     1       5.323  -1.096  11.977  1.00  0.00     0.167 HD
ATOM     64  C   UNL     1       6.228  -2.796  14.085  1.00  0.00     0.074 A 
ATOM     65  C   UNL     1       6.558  -3.983  14.849  1.00  0.00     0.031 C 
ATOM     66  C   UNL     1       6.415  -1.528  14.526  1.00  0.00     0.037 A 
BRANCH  53  67
ATOM     67  C   UNL     1       4.723   2.869  10.505  1.00  0.00     0.064 A 
ATOM     68  C   UNL     1       3.481   3.508  10.356  1.00  0.00     0.173 A 
ATOM     69  C   UNL     1       5.880   3.649  10.354  1.00  0.00     0.173 A 
ATOM     70  F   UNL     1       2.342   2.809  10.478  1.00  0.00    -0.203 F 
ATOM     71  C   UNL     1       3.402   4.859  10.029  1.00  0.00     0.198 A 
ATOM     72  C   UNL     1       5.796   5.009  10.063  1.00  0.00     0.198 A 
ATOM     73  F   UNL     1       7.093   3.094  10.490  1.00  0.00    -0.203 F 
ATOM     74  F   UNL     1       2.206   5.429   9.829  1.00  0.00    -0.200 F 
ATOM     75  C   UNL     1       4.559   5.610   9.890  1.00  0.00     0.200 A 
ATOM     76  F   UNL     1       6.915   5.737   9.943  1.00  0.00    -0.200 F 
ATOM     77  F   UNL     1       4.481   6.912   9.579  1.00  0.00    -0.200 F 
ENDBRANCH  53  67
BRANCH  54  78
ATOM     78  C   UNL     1       5.416  -7.008  12.127  1.00  0.00     0.064 A 
ATOM     79  C   UNL     1       4.685  -7.644  13.142  1.00  0.00     0.173 A 
ATOM     80  C   UNL     1       6.271  -7.803  11.350  1.00  0.00     0.173 A 
ATOM     81  F   UNL     1       3.862  -6.928  13.923  1.00  0.00    -0.203 F 
ATOM     82  C   UNL     1       4.827  -9.008  13.389  1.00  0.00     0.198 A 
ATOM     83  C   UNL     1       6.388  -9.174  11.576  1.00  0.00     0.198 A 
ATOM     84  F   UNL     1       6.986  -7.251  10.358  1.00  0.00    -0.203 F 
ATOM     85  F   UNL     1       4.158  -9.576  14.401  1.00  0.00    -0.200 F 
ATOM     86  C   UNL     1       5.675  -9.773  12.603  1.00  0.00     0.200 A 
ATOM     87  F   UNL     1       7.193  -9.912  10.800  1.00  0.00    -0.200 F 
ATOM     88  F   UNL     1       5.810 -11.085  12.839  1.00  0.00    -0.200 F 
ENDBRANCH  54  78
BRANCH  66  89
ATOM     89  C   UNL     1       6.964  -1.363  15.914  1.00  0.00     0.064 A 
ATOM     90  C   UNL     1       8.288  -1.701  16.232  1.00  0.00     0.173 A 
ATOM     91  C   UNL     1       6.159  -0.829  16.932  1.00  0.00     0.173 A 
ATOM     92  F   UNL     1       9.094  -2.229  15.298  1.00  0.00    -0.203 F 
ATOM     93  C   UNL     1       8.774  -1.544  17.527  1.00  0.00     0.198 A 
ATOM     94  C   UNL     1       6.661  -0.637  18.215  1.00  0.00     0.198 A 
ATOM     95  F   UNL     1       4.889  -0.481  16.679  1.00  0.00    -0.203 F 
ATOM     96  F   UNL     1      10.022  -1.932  17.822  1.00  0.00    -0.200 F 
ATOM     97  C   UNL     1       7.964  -1.005  18.515  1.00  0.00     0.200 A 
ATOM     98  F   UNL     1       5.882  -0.098  19.163  1.00  0.00    -0.200 F 
ATOM     99  F   UNL     1       8.436  -0.847  19.759  1.00  0.00    -0.200 F 
ENDBRANCH  66  89
ENDBRANCH  40  41
ENDBRANCH  32  35
ENDBRANCH  30  31
ENDBRANCH  29  30
ENDBRANCH  28  29
ENDBRANCH   1  28
TORSDOF 15
