REMARK SMILES Cc1ccc(C(=O)NCCCCNC(=O)c2ccc(-c3c4nc(c(-c5c(F)c(F)c(F)c(F)c5F)c5ccc([nH]5)c(-c5c(F)c(F)c(F)c(F)c5F)c5nc(c(-c6c(F)c(F)c(F)c(F)c6F)c6ccc3[nH]6)C=C5)C=C4)cc2)c(NC(=O)C[C@@H]2SC(=O)N(c3cccc(C)c3C)C2=O)c1
REMARK SMILES IDX 9 1 8 2 6 3 7 4 5 6 1 7 2 8 3 9 99 10 4 11 79 12 80 13 81 14
REMARK SMILES IDX 82 16 83 17 84 18 85 19 97 20 86 21 88 22 98 23 87 24 89 25
REMARK SMILES IDX 90 26 95 27 91 28 93 29 96 30 92 31 94 32 10 33 11 34 12 35
REMARK SMILES IDX 13 36 14 37 15 39 16 40 17 41 78 42 18 43 77 44 19 45 20 46
REMARK SMILES IDX 21 47 71 48 22 49 76 50 70 51 72 52 23 53 75 54 69 55 68 56
REMARK SMILES IDX 24 58 56 59 36 60 55 61 37 62 40 63 54 64 73 65 38 66 39 67
REMARK SMILES IDX 53 69 74 70 41 71 25 72 26 73 34 74 27 75 28 76 32 77 35 78
REMARK SMILES IDX 29 79 30 80 33 81 31 82 57 83 58 84 66 85 59 86 60 87 64 88
REMARK SMILES IDX 67 89 61 90 62 91 65 92 63 93 42 94 43 95 51 96 44 97 45 98
REMARK SMILES IDX 49 99 52 100 46 101 47 102 50 103 48 104
REMARK H PARENT 8 5 80 15 13 38 72 57 40 68
REMARK Flexibility Score: inf
ROOT
ATOM      1  C   UNL     1      -2.485   3.269  -1.874  1.00  0.00     0.116 C 
ENDROOT
BRANCH   1   2
ATOM      2  N   UNL     1      -2.698   1.842  -1.764  1.00  0.00    -0.352 N 
ATOM      3  C   UNL     1      -1.842   0.991  -1.138  1.00  0.00     0.253 C 
ATOM      4  O   UNL     1      -2.048  -0.097  -0.654  1.00  0.00    -0.269 OA
ATOM      5  H   UNL     1      -3.512   1.464  -2.168  1.00  0.00     0.163 HD
BRANCH   3   6
ATOM      6  C   UNL     1      -0.603   1.351  -0.630  1.00  0.00     0.063 A 
ATOM      7  C   UNL     1       3.184   2.169   0.898  1.00  0.00     0.044 C 
ATOM      8  C   UNL     1       1.804   1.771   0.468  1.00  0.00    -0.049 A 
ATOM      9  C   UNL     1       1.724   0.981  -0.685  1.00  0.00     0.004 A 
ATOM     10  C   UNL     1       0.620   2.168   1.167  1.00  0.00     0.030 A 
ATOM     11  C   UNL     1       0.503   0.804  -1.270  1.00  0.00     0.016 A 
ATOM     12  C   UNL     1      -0.638   1.819   0.666  1.00  0.00     0.054 A 
BRANCH  12  13
ATOM     13  N   UNL     1      -1.869   1.972   1.396  1.00  0.00    -0.325 N 
ATOM     14  C   UNL     1      -3.202   1.607   1.280  1.00  0.00     0.226 C 
ATOM     15  H   UNL     1      -1.722   2.489   2.221  1.00  0.00     0.169 HD
ATOM     16  O   UNL     1      -3.912   2.423   1.925  1.00  0.00    -0.275 OA
BRANCH  14  17
ATOM     17  C   UNL     1      -4.087   0.315   0.723  1.00  0.00     0.125 C 
BRANCH  17  18
ATOM     18  C   UNL     1      -4.393  -0.769  -0.457  1.00  0.00     0.156 C 
ATOM     19  S   UNL     1      -5.045  -2.335   0.325  1.00  0.00    -0.050 SA
ATOM     20  C   UNL     1      -3.463  -1.473  -1.520  1.00  0.00     0.248 C 
ATOM     21  C   UNL     1      -3.579  -3.245  -0.093  1.00  0.00     0.293 C 
ATOM     22  N   UNL     1      -2.779  -2.516  -0.916  1.00  0.00    -0.240 N 
ATOM     23  O   UNL     1      -3.383  -1.096  -2.689  1.00  0.00    -0.273 OA
ATOM     24  O   UNL     1      -3.417  -4.395   0.292  1.00  0.00    -0.261 OA
BRANCH  22  25
ATOM     25  C   UNL     1      -1.395  -2.826  -1.152  1.00  0.00     0.056 A 
ATOM     26  C   UNL     1      -0.908  -2.970  -2.460  1.00  0.00     0.027 A 
ATOM     27  C   UNL     1      -0.451  -2.851  -0.073  1.00  0.00    -0.024 A 
ATOM     28  C   UNL     1       0.450  -3.213  -2.705  1.00  0.00     0.002 A 
ATOM     29  C   UNL     1       0.940  -3.023  -0.343  1.00  0.00    -0.046 A 
ATOM     30  C   UNL     1      -0.848  -2.498   1.344  1.00  0.00     0.047 C 
ATOM     31  C   UNL     1       1.366  -3.242  -1.657  1.00  0.00     0.004 A 
ATOM     32  C   UNL     1       1.992  -2.919   0.738  1.00  0.00     0.044 C 
ENDBRANCH  22  25
ENDBRANCH  17  18
ENDBRANCH  14  17
ENDBRANCH  12  13
ENDBRANCH   3   6
ENDBRANCH   1   2
BRANCH   1  33
ATOM     33  C   UNL     1      -3.362   3.897  -2.941  1.00  0.00     0.023 C 
BRANCH  33  34
ATOM     34  C   UNL     1      -4.860   3.808  -2.675  1.00  0.00     0.023 C 
BRANCH  34  35
ATOM     35  C   UNL     1      -5.350   4.546  -1.443  1.00  0.00     0.116 C 
BRANCH  35  36
ATOM     36  N   UNL     1      -5.201   5.986  -1.545  1.00  0.00    -0.352 N 
ATOM     37  C   UNL     1      -5.860   7.016  -0.916  1.00  0.00     0.251 C 
ATOM     38  H   UNL     1      -4.503   6.276  -2.176  1.00  0.00     0.163 HD
ATOM     39  O   UNL     1      -5.698   8.156  -1.347  1.00  0.00    -0.269 OA
BRANCH  37  40
ATOM     40  C   UNL     1      -6.585   6.817   0.364  1.00  0.00     0.039 A 
ATOM     41  C   UNL     1      -6.669   7.926   1.228  1.00  0.00     0.014 A 
ATOM     42  C   UNL     1      -6.925   5.558   0.837  1.00  0.00     0.014 A 
ATOM     43  C   UNL     1      -6.831   7.730   2.594  1.00  0.00     0.010 A 
ATOM     44  C   UNL     1      -6.963   5.343   2.185  1.00  0.00     0.010 A 
ATOM     45  C   UNL     1      -6.840   6.424   3.054  1.00  0.00    -0.014 A 
BRANCH  45  46
ATOM     46  C   UNL     1      -6.786   6.010   4.433  1.00  0.00     0.031 A 
ATOM     47  C   UNL     1      -8.063   5.709   5.091  1.00  0.00     0.074 A 
ATOM     48  C   UNL     1      -5.582   5.577   4.865  1.00  0.00     0.049 A 
ATOM     49  N   UNL     1      -8.180   5.391   6.327  1.00  0.00    -0.248 NA
ATOM     50  C   UNL     1      -9.349   5.777   4.392  1.00  0.00     0.031 C 
ATOM     51  C   UNL     1      -5.274   4.653   5.948  1.00  0.00     0.029 A 
ATOM     52  N   UNL     1      -4.323   6.054   4.456  1.00  0.00    -0.354 N 
ATOM     53  C   UNL     1      -9.448   4.884   6.494  1.00  0.00     0.074 A 
ATOM     54  C   UNL     1     -10.176   5.300   5.326  1.00  0.00     0.031 C 
ATOM     55  C   UNL     1      -4.005   4.863   6.346  1.00  0.00     0.029 A 
ATOM     56  C   UNL     1      -3.541   6.046   5.637  1.00  0.00     0.049 A 
ATOM     57  H   UNL     1      -4.048   6.331   3.553  1.00  0.00     0.167 HD
ATOM     58  C   UNL     1      -9.649   4.027   7.532  1.00  0.00     0.037 A 
ATOM     59  C   UNL     1      -3.223   7.232   6.244  1.00  0.00     0.037 A 
ATOM     60  C   UNL     1      -8.487   4.061   8.423  1.00  0.00     0.049 A 
ATOM     61  C   UNL     1      -3.825   7.344   7.627  1.00  0.00     0.074 A 
ATOM     62  C   UNL     1      -7.412   3.208   8.601  1.00  0.00     0.029 A 
ATOM     63  N   UNL     1      -8.136   5.273   9.015  1.00  0.00    -0.354 N 
ATOM     64  N   UNL     1      -4.933   6.756   7.992  1.00  0.00    -0.248 NA
ATOM     65  C   UNL     1      -3.191   8.080   8.715  1.00  0.00     0.031 C 
ATOM     66  C   UNL     1      -6.358   3.967   9.186  1.00  0.00     0.029 A 
ATOM     67  C   UNL     1      -6.812   5.259   9.406  1.00  0.00     0.049 A 
ATOM     68  H   UNL     1      -8.748   6.035   9.138  1.00  0.00     0.167 HD
ATOM     69  C   UNL     1      -5.144   6.976   9.327  1.00  0.00     0.074 A 
ATOM     70  C   UNL     1      -4.031   7.818   9.731  1.00  0.00     0.031 C 
ATOM     71  C   UNL     1      -6.199   6.436  10.008  1.00  0.00     0.037 A 
BRANCH  58  72
ATOM     72  C   UNL     1     -10.756   2.999   7.647  1.00  0.00     0.064 A 
ATOM     73  C   UNL     1     -10.799   2.149   8.776  1.00  0.00     0.173 A 
ATOM     74  C   UNL     1     -11.722   2.703   6.660  1.00  0.00     0.173 A 
ATOM     75  F   UNL     1      -9.945   2.309   9.797  1.00  0.00    -0.203 F 
ATOM     76  C   UNL     1     -11.707   1.089   8.891  1.00  0.00     0.198 A 
ATOM     77  C   UNL     1     -12.656   1.670   6.796  1.00  0.00     0.198 A 
ATOM     78  F   UNL     1     -11.785   3.354   5.497  1.00  0.00    -0.203 F 
ATOM     79  F   UNL     1     -11.659   0.286   9.963  1.00  0.00    -0.200 F 
ATOM     80  C   UNL     1     -12.641   0.854   7.904  1.00  0.00     0.200 A 
ATOM     81  F   UNL     1     -13.556   1.460   5.823  1.00  0.00    -0.200 F 
ATOM     82  F   UNL     1     -13.511  -0.159   8.012  1.00  0.00    -0.200 F 
ENDBRANCH  58  72
BRANCH  59  83
ATOM     83  C   UNL     1      -3.087   8.342   5.250  1.00  0.00     0.064 A 
ATOM     84  C   UNL     1      -2.115   8.179   4.239  1.00  0.00     0.173 A 
ATOM     85  C   UNL     1      -4.141   9.227   4.992  1.00  0.00     0.173 A 
ATOM     86  F   UNL     1      -1.066   7.365   4.445  1.00  0.00    -0.203 F 
ATOM     87  C   UNL     1      -2.301   8.708   2.964  1.00  0.00     0.198 A 
ATOM     88  C   UNL     1      -4.299   9.791   3.722  1.00  0.00     0.198 A 
ATOM     89  F   UNL     1      -5.086   9.449   5.916  1.00  0.00    -0.203 F 
ATOM     90  F   UNL     1      -1.452   8.386   1.976  1.00  0.00    -0.200 F 
ATOM     91  C   UNL     1      -3.416   9.483   2.696  1.00  0.00     0.200 A 
ATOM     92  F   UNL     1      -5.372  10.553   3.459  1.00  0.00    -0.200 F 
ATOM     93  F   UNL     1      -3.660   9.899   1.446  1.00  0.00    -0.200 F 
ENDBRANCH  59  83
BRANCH  71  94
ATOM     94  C   UNL     1      -6.689   6.902  11.361  1.00  0.00     0.064 A 
ATOM     95  C   UNL     1      -6.468   8.193  11.869  1.00  0.00     0.173 A 
ATOM     96  C   UNL     1      -7.552   6.087  12.136  1.00  0.00     0.173 A 
ATOM     97  F   UNL     1      -5.798   9.117  11.168  1.00  0.00    -0.203 F 
ATOM     98  C   UNL     1      -6.987   8.604  13.098  1.00  0.00     0.198 A 
ATOM     99  C   UNL     1      -8.129   6.528  13.325  1.00  0.00     0.198 A 
ATOM    100  F   UNL     1      -7.892   4.849  11.748  1.00  0.00    -0.203 F 
ATOM    101  F   UNL     1      -6.691   9.825  13.565  1.00  0.00    -0.200 F 
ATOM    102  C   UNL     1      -7.824   7.777  13.821  1.00  0.00     0.200 A 
ATOM    103  F   UNL     1      -8.996   5.740  13.976  1.00  0.00    -0.200 F 
ATOM    104  F   UNL     1      -8.356   8.193  14.977  1.00  0.00    -0.200 F 
ENDBRANCH  71  94
ENDBRANCH  45  46
ENDBRANCH  37  40
ENDBRANCH  35  36
ENDBRANCH  34  35
ENDBRANCH  33  34
ENDBRANCH   1  33
TORSDOF 15
