REMARK SMILES Cc1cc(C)c(C(=O)N[C@H](C(=O)NCCCCNC(=O)c2ccc(-c3c4nc(c(-c5c(F)c(F)c(F)c(F)c5F)c5ccc([nH]5)c(-c5c(F)c(F)c(F)c(F)c5F)c5nc(c(-c6c(F)c(F)c(F)c(F)c6F)c6ccc3[nH]6)C=C5)C=C4)cc2)C(C)C)c(=O)[nH]1
REMARK SMILES IDX 15 1 14 2 13 3 11 4 12 5 10 7 9 8 7 9 8 10 6 12 1 13 2 14
REMARK SMILES IDX 3 15 89 16 4 17 87 18 5 20 88 21 84 22 85 23 86 24 16 25
REMARK SMILES IDX 17 26 18 27 19 28 20 30 21 31 22 32 83 33 23 34 82 35 24 36
REMARK SMILES IDX 25 37 26 38 76 39 27 40 81 41 75 42 77 43 28 44 80 45 74 46
REMARK SMILES IDX 73 47 29 49 61 50 41 51 60 52 42 53 45 54 59 55 78 56 43 57
REMARK SMILES IDX 44 58 58 60 79 61 46 62 30 63 31 64 39 65 32 66 33 67 37 68
REMARK SMILES IDX 40 69 34 70 35 71 38 72 36 73 62 74 63 75 71 76 64 77 65 78
REMARK SMILES IDX 69 79 72 80 66 81 67 82 70 83 68 84 47 85 48 86 56 87 49 88
REMARK SMILES IDX 50 89 54 90 57 91 51 92 52 93 55 94 53 95
REMARK H PARENT 13 6 9 11 89 19 18 29 77 48 45 59
REMARK Flexibility Score: inf
ROOT
ATOM      1  C   UNL     1       2.263   6.921  -4.945  1.00  0.00     0.023 C 
ENDROOT
BRANCH   1   2
ATOM      2  C   UNL     1       1.851   7.060  -3.482  1.00  0.00     0.116 C 
BRANCH   2   3
ATOM      3  N   UNL     1       0.742   6.219  -3.084  1.00  0.00    -0.354 N 
ATOM      4  C   UNL     1       0.252   5.929  -1.833  1.00  0.00     0.242 C 
ATOM      5  O   UNL     1      -0.734   5.184  -1.815  1.00  0.00    -0.273 OA
ATOM      6  H   UNL     1       0.263   5.785  -3.827  1.00  0.00     0.163 HD
BRANCH   4   7
ATOM      7  C   UNL     1       1.024   6.311  -0.512  1.00  0.00     0.174 C 
BRANCH   7   8
ATOM      8  N   UNL     1       2.115   7.292  -0.618  1.00  0.00    -0.340 N 
ATOM      9  C   UNL     1       2.262   8.630  -0.733  1.00  0.00     0.257 C 
ATOM     10  O   UNL     1       3.451   8.970  -0.662  1.00  0.00    -0.269 OA
ATOM     11  H   UNL     1       2.992   6.844  -0.600  1.00  0.00     0.164 HD
BRANCH   9  12
ATOM     12  C   UNL     1       1.182   9.662  -0.907  1.00  0.00     0.107 A 
ATOM     13  C   UNL     1      -1.832  12.765  -0.491  1.00  0.00     0.064 C 
ATOM     14  C   UNL     1      -0.764  11.744  -0.714  1.00  0.00     0.015 A 
ATOM     15  C   UNL     1       0.525  12.031  -0.928  1.00  0.00     0.025 A 
ATOM     16  N   UNL     1      -1.145  10.434  -0.734  1.00  0.00    -0.326 N 
ATOM     17  C   UNL     1       1.526  10.973  -1.060  1.00  0.00    -0.031 A 
ATOM     18  C   UNL     1      -0.290   9.384  -0.943  1.00  0.00     0.261 A 
ATOM     19  H   UNL     1      -2.097  10.229  -0.588  1.00  0.00     0.169 HD
ATOM     20  C   UNL     1       2.907  11.518  -1.336  1.00  0.00     0.045 C 
ATOM     21  O   UNL     1      -0.775   8.292  -1.201  1.00  0.00    -0.269 OA
ENDBRANCH   9  12
ENDBRANCH   7   8
BRANCH   7  22
ATOM     22  C   UNL     1       0.241   6.515   0.826  1.00  0.00     0.015 C 
ATOM     23  C   UNL     1      -1.045   5.704   0.973  1.00  0.00     0.010 C 
ATOM     24  C   UNL     1       1.148   6.216   2.035  1.00  0.00     0.010 C 
ENDBRANCH   7  22
ENDBRANCH   4   7
ENDBRANCH   2   3
ENDBRANCH   1   2
BRANCH   1  25
ATOM     25  C   UNL     1       1.252   7.407  -5.983  1.00  0.00     0.023 C 
BRANCH  25  26
ATOM     26  C   UNL     1       0.758   8.844  -5.823  1.00  0.00     0.116 C 
BRANCH  26  27
ATOM     27  N   UNL     1       1.821   9.838  -5.890  1.00  0.00    -0.352 N 
ATOM     28  C   UNL     1       2.122  10.777  -6.849  1.00  0.00     0.251 C 
ATOM     29  H   UNL     1       2.429   9.839  -5.115  1.00  0.00     0.163 HD
ATOM     30  O   UNL     1       3.141  11.454  -6.741  1.00  0.00    -0.269 OA
BRANCH  28  31
ATOM     31  C   UNL     1       1.255  10.961  -8.034  1.00  0.00     0.039 A 
ATOM     32  C   UNL     1       1.852  11.058  -9.295  1.00  0.00     0.014 A 
ATOM     33  C   UNL     1      -0.132  11.061  -7.914  1.00  0.00     0.014 A 
ATOM     34  C   UNL     1       1.055  11.156 -10.440  1.00  0.00     0.010 A 
ATOM     35  C   UNL     1      -0.929  11.085  -9.058  1.00  0.00     0.010 A 
ATOM     36  C   UNL     1      -0.344  11.123 -10.334  1.00  0.00    -0.014 A 
BRANCH  36  37
ATOM     37  C   UNL     1      -1.213  11.109 -11.540  1.00  0.00     0.031 A 
ATOM     38  C   UNL     1      -2.156  12.248 -11.808  1.00  0.00     0.074 A 
ATOM     39  C   UNL     1      -1.210  10.034 -12.352  1.00  0.00     0.049 A 
ATOM     40  N   UNL     1      -3.063  12.369 -12.744  1.00  0.00    -0.248 NA
ATOM     41  C   UNL     1      -2.089  13.394 -10.886  1.00  0.00     0.031 C 
ATOM     42  C   UNL     1      -0.378   8.843 -12.176  1.00  0.00     0.029 A 
ATOM     43  N   UNL     1      -1.943   9.761 -13.482  1.00  0.00    -0.354 N 
ATOM     44  C   UNL     1      -3.687  13.587 -12.511  1.00  0.00     0.074 A 
ATOM     45  C   UNL     1      -3.084  14.153 -11.324  1.00  0.00     0.031 C 
ATOM     46  C   UNL     1      -0.633   7.976 -13.169  1.00  0.00     0.029 A 
ATOM     47  C   UNL     1      -1.671   8.532 -14.032  1.00  0.00     0.049 A 
ATOM     48  H   UNL     1      -2.600  10.387 -13.862  1.00  0.00     0.167 HD
ATOM     49  C   UNL     1      -4.659  14.189 -13.237  1.00  0.00     0.037 A 
ATOM     50  C   UNL     1      -2.205   7.917 -15.106  1.00  0.00     0.037 A 
ATOM     51  C   UNL     1      -5.226  13.649 -14.443  1.00  0.00     0.049 A 
ATOM     52  C   UNL     1      -3.273   8.616 -15.902  1.00  0.00     0.074 A 
ATOM     53  C   UNL     1      -6.162  14.223 -15.286  1.00  0.00     0.029 A 
ATOM     54  N   UNL     1      -4.907  12.412 -14.982  1.00  0.00    -0.354 N 
ATOM     55  N   UNL     1      -3.813   9.793 -15.704  1.00  0.00    -0.248 NA
ATOM     56  C   UNL     1      -3.805   7.902 -17.072  1.00  0.00     0.031 C 
ATOM     57  C   UNL     1      -6.434  13.319 -16.317  1.00  0.00     0.029 A 
ATOM     58  C   UNL     1      -5.640  12.198 -16.137  1.00  0.00     0.049 A 
ATOM     59  H   UNL     1      -4.255  11.780 -14.600  1.00  0.00     0.167 HD
ATOM     60  C   UNL     1      -4.733   9.969 -16.728  1.00  0.00     0.074 A 
ATOM     61  C   UNL     1      -4.667   8.785 -17.558  1.00  0.00     0.031 C 
ATOM     62  C   UNL     1      -5.561  11.017 -16.955  1.00  0.00     0.037 A 
BRANCH  49  63
ATOM     63  C   UNL     1      -5.165  15.518 -12.761  1.00  0.00     0.064 A 
ATOM     64  C   UNL     1      -4.394  16.682 -12.893  1.00  0.00     0.173 A 
ATOM     65  C   UNL     1      -6.460  15.641 -12.236  1.00  0.00     0.173 A 
ATOM     66  F   UNL     1      -3.146  16.614 -13.380  1.00  0.00    -0.203 F 
ATOM     67  C   UNL     1      -4.897  17.921 -12.504  1.00  0.00     0.198 A 
ATOM     68  C   UNL     1      -6.968  16.885 -11.871  1.00  0.00     0.198 A 
ATOM     69  F   UNL     1      -7.238  14.558 -12.096  1.00  0.00    -0.203 F 
ATOM     70  F   UNL     1      -4.132  19.016 -12.611  1.00  0.00    -0.200 F 
ATOM     71  C   UNL     1      -6.186  18.022 -12.002  1.00  0.00     0.200 A 
ATOM     72  F   UNL     1      -8.218  16.983 -11.397  1.00  0.00    -0.200 F 
ATOM     73  F   UNL     1      -6.673  19.218 -11.642  1.00  0.00    -0.200 F 
ENDBRANCH  49  63
BRANCH  50  74
ATOM     74  C   UNL     1      -1.720   6.570 -15.504  1.00  0.00     0.064 A 
ATOM     75  C   UNL     1      -0.941   6.401 -16.657  1.00  0.00     0.173 A 
ATOM     76  C   UNL     1      -2.021   5.431 -14.745  1.00  0.00     0.173 A 
ATOM     77  F   UNL     1      -0.648   7.459 -17.427  1.00  0.00    -0.203 F 
ATOM     78  C   UNL     1      -0.491   5.140 -17.043  1.00  0.00     0.198 A 
ATOM     79  C   UNL     1      -1.550   4.173 -15.119  1.00  0.00     0.198 A 
ATOM     80  F   UNL     1      -2.761   5.540 -13.632  1.00  0.00    -0.203 F 
ATOM     81  F   UNL     1       0.220   5.001 -18.170  1.00  0.00    -0.200 F 
ATOM     82  C   UNL     1      -0.791   4.028 -16.270  1.00  0.00     0.200 A 
ATOM     83  F   UNL     1      -1.832   3.103 -14.364  1.00  0.00    -0.200 F 
ATOM     84  F   UNL     1      -0.354   2.816 -16.639  1.00  0.00    -0.200 F 
ENDBRANCH  50  74
BRANCH  62  85
ATOM     85  C   UNL     1      -6.458  10.944 -18.154  1.00  0.00     0.064 A 
ATOM     86  C   UNL     1      -7.594  10.123 -18.165  1.00  0.00     0.173 A 
ATOM     87  C   UNL     1      -6.221  11.759 -19.271  1.00  0.00     0.173 A 
ATOM     88  F   UNL     1      -7.854   9.317 -17.125  1.00  0.00    -0.203 F 
ATOM     89  C   UNL     1      -8.458  10.114 -19.257  1.00  0.00     0.198 A 
ATOM     90  C   UNL     1      -7.100  11.766 -20.351  1.00  0.00     0.198 A 
ATOM     91  F   UNL     1      -5.151  12.567 -19.304  1.00  0.00    -0.203 F 
ATOM     92  F   UNL     1      -9.523   9.302 -19.259  1.00  0.00    -0.200 F 
ATOM     93  C   UNL     1      -8.215  10.942 -20.344  1.00  0.00     0.200 A 
ATOM     94  F   UNL     1      -6.872  12.575 -21.394  1.00  0.00    -0.200 F 
ATOM     95  F   UNL     1      -9.057  10.943 -21.387  1.00  0.00    -0.200 F 
ENDBRANCH  62  85
ENDBRANCH  36  37
ENDBRANCH  28  31
ENDBRANCH  26  27
ENDBRANCH  25  26
ENDBRANCH   1  25
TORSDOF 14
