REMARK SMILES NC(=O)c1ccc(Oc2cccc(C(=O)NCCCCNC(=O)c3ccc(-c4c5nc(c(-c6c(F)c(F)c(F)c(F)c6F)c6ccc([nH]6)c(-c6c(F)c(F)c(F)c(F)c6F)c6nc(c(-c7c(F)c(F)c(F)c(F)c7F)c7ccc4[nH]7)C=C6)C=C5)cc3)c2)nc1
REMARK SMILES IDX 18 1 17 2 16 3 14 4 15 5 13 7 9 8 10 9 87 10 11 11 12 12
REMARK SMILES IDX 8 13 7 14 4 15 5 16 89 17 6 18 88 19 2 20 1 21 3 24 19 25
REMARK SMILES IDX 20 26 21 27 22 28 23 30 24 31 25 32 86 33 26 34 85 35 27 36
REMARK SMILES IDX 28 37 29 38 79 39 30 40 84 41 78 42 80 43 31 44 83 45 77 46
REMARK SMILES IDX 76 47 32 49 64 50 44 51 63 52 45 53 48 54 62 55 81 56 46 57
REMARK SMILES IDX 47 58 61 60 82 61 49 62 33 63 34 64 42 65 35 66 36 67 40 68
REMARK SMILES IDX 43 69 37 70 38 71 41 72 39 73 65 74 66 75 74 76 67 77 68 78
REMARK SMILES IDX 72 79 75 80 69 81 70 82 73 83 71 84 50 85 51 86 59 87 52 88
REMARK SMILES IDX 53 89 57 90 60 91 54 92 55 93 58 94 56 95
REMARK H PARENT 16 6 1 22 1 23 21 29 80 48 48 59
REMARK Flexibility Score: inf
ROOT
ATOM      1  C   UNL     1       0.918   7.460   2.263  1.00  0.00     0.023 C 
ENDROOT
BRANCH   1   2
ATOM      2  C   UNL     1       2.107   6.863   1.508  1.00  0.00     0.116 C 
BRANCH   2   3
ATOM      3  N   UNL     1       3.268   7.721   1.639  1.00  0.00    -0.352 N 
ATOM      4  C   UNL     1       4.336   7.734   2.500  1.00  0.00     0.251 C 
ATOM      5  O   UNL     1       5.153   8.645   2.352  1.00  0.00    -0.269 OA
ATOM      6  H   UNL     1       3.295   8.444   0.972  1.00  0.00     0.163 HD
BRANCH   4   7
ATOM      7  C   UNL     1       4.600   6.685   3.528  1.00  0.00     0.043 A 
ATOM      8  C   UNL     1       4.054   4.695   4.794  1.00  0.00     0.130 A 
ATOM      9  C   UNL     1       5.359   4.602   5.267  1.00  0.00     0.047 A 
ATOM     10  C   UNL     1       3.653   5.789   4.019  1.00  0.00     0.061 A 
ATOM     11  C   UNL     1       6.291   5.563   4.889  1.00  0.00     0.005 A 
ATOM     12  C   UNL     1       5.920   6.577   4.000  1.00  0.00     0.014 A 
BRANCH   8  13
ATOM     13  O   UNL     1       3.173   3.690   5.118  1.00  0.00    -0.439 OA
BRANCH  13  14
ATOM     14  C   UNL     1       2.527   3.036   4.082  1.00  0.00     0.219 A 
ATOM     15  C   UNL     1       1.113   1.618   2.180  1.00  0.00     0.058 A 
ATOM     16  C   UNL     1       2.316   2.222   1.822  1.00  0.00     0.021 A 
ATOM     17  C   UNL     1       0.674   1.778   3.487  1.00  0.00     0.129 A 
ATOM     18  C   UNL     1       3.043   2.922   2.790  1.00  0.00     0.070 A 
ATOM     19  N   UNL     1       1.356   2.467   4.440  1.00  0.00    -0.221 NA
BRANCH  15  20
ATOM     20  C   UNL     1       0.284   0.830   1.242  1.00  0.00     0.250 C 
ATOM     21  N   UNL     1       0.917   0.235   0.185  1.00  0.00    -0.366 N 
ATOM     22  H   UNL     1       0.400  -0.298  -0.461  1.00  0.00     0.159 HD
ATOM     23  H   UNL     1       1.889   0.341   0.071  1.00  0.00     0.159 HD
ATOM     24  O   UNL     1      -0.915   0.687   1.421  1.00  0.00    -0.269 OA
ENDBRANCH  15  20
ENDBRANCH  13  14
ENDBRANCH   8  13
ENDBRANCH   4   7
ENDBRANCH   2   3
ENDBRANCH   1   2
BRANCH   1  25
ATOM     25  C   UNL     1       0.182   8.546   1.473  1.00  0.00     0.023 C 
BRANCH  25  26
ATOM     26  C   UNL     1      -0.418   8.078   0.151  1.00  0.00     0.116 C 
BRANCH  26  27
ATOM     27  N   UNL     1      -1.330   6.952   0.298  1.00  0.00    -0.352 N 
ATOM     28  C   UNL     1      -2.519   6.728  -0.355  1.00  0.00     0.251 C 
ATOM     29  H   UNL     1      -1.061   6.263   0.948  1.00  0.00     0.163 HD
ATOM     30  O   UNL     1      -3.243   5.790  -0.048  1.00  0.00    -0.269 OA
BRANCH  28  31
ATOM     31  C   UNL     1      -2.931   7.674  -1.408  1.00  0.00     0.039 A 
ATOM     32  C   UNL     1      -4.172   8.303  -1.298  1.00  0.00     0.014 A 
ATOM     33  C   UNL     1      -2.045   8.008  -2.436  1.00  0.00     0.014 A 
ATOM     34  C   UNL     1      -4.488   9.344  -2.170  1.00  0.00     0.010 A 
ATOM     35  C   UNL     1      -2.332   9.092  -3.255  1.00  0.00     0.010 A 
ATOM     36  C   UNL     1      -3.546   9.784  -3.115  1.00  0.00    -0.014 A 
BRANCH  36  37
ATOM     37  C   UNL     1      -3.783  10.999  -3.931  1.00  0.00     0.031 A 
ATOM     38  C   UNL     1      -3.873  10.899  -5.425  1.00  0.00     0.074 A 
ATOM     39  C   UNL     1      -3.823  12.203  -3.326  1.00  0.00     0.049 A 
ATOM     40  N   UNL     1      -3.968  11.855  -6.314  1.00  0.00    -0.248 NA
ATOM     41  C   UNL     1      -3.824   9.546  -5.999  1.00  0.00     0.031 C 
ATOM     42  C   UNL     1      -3.706  12.429  -1.884  1.00  0.00     0.029 A 
ATOM     43  N   UNL     1      -3.956  13.465  -3.848  1.00  0.00    -0.354 N 
ATOM     44  C   UNL     1      -3.977  11.221  -7.548  1.00  0.00     0.074 A 
ATOM     45  C   UNL     1      -3.829   9.804  -7.299  1.00  0.00     0.031 C 
ATOM     46  C   UNL     1      -3.792  13.746  -1.636  1.00  0.00     0.029 A 
ATOM     47  C   UNL     1      -3.917  14.460  -2.902  1.00  0.00     0.049 A 
ATOM     48  H   UNL     1      -4.068  13.641  -4.811  1.00  0.00     0.167 HD
ATOM     49  C   UNL     1      -4.114  11.775  -8.777  1.00  0.00     0.037 A 
ATOM     50  C   UNL     1      -3.957  15.799  -3.041  1.00  0.00     0.037 A 
ATOM     51  C   UNL     1      -4.277  13.185  -9.014  1.00  0.00     0.049 A 
ATOM     52  C   UNL     1      -4.068  16.387  -4.423  1.00  0.00     0.074 A 
ATOM     53  C   UNL     1      -4.493  13.837 -10.215  1.00  0.00     0.029 A 
ATOM     54  N   UNL     1      -4.228  14.164  -8.031  1.00  0.00    -0.354 N 
ATOM     55  N   UNL     1      -4.154  15.775  -5.579  1.00  0.00    -0.248 NA
ATOM     56  C   UNL     1      -4.084  17.853  -4.518  1.00  0.00     0.031 C 
ATOM     57  C   UNL     1      -4.508  15.213  -9.969  1.00  0.00     0.029 A 
ATOM     58  C   UNL     1      -4.367  15.418  -8.606  1.00  0.00     0.049 A 
ATOM     59  H   UNL     1      -4.111  13.993  -7.069  1.00  0.00     0.167 HD
ATOM     60  C   UNL     1      -4.260  16.777  -6.534  1.00  0.00     0.074 A 
ATOM     61  C   UNL     1      -4.249  18.037  -5.820  1.00  0.00     0.031 C 
ATOM     62  C   UNL     1      -4.354  16.664  -7.882  1.00  0.00     0.037 A 
BRANCH  49  63
ATOM     63  C   UNL     1      -4.086  10.855  -9.963  1.00  0.00     0.064 A 
ATOM     64  C   UNL     1      -5.125   9.949 -10.223  1.00  0.00     0.173 A 
ATOM     65  C   UNL     1      -3.026  10.915 -10.881  1.00  0.00     0.173 A 
ATOM     66  F   UNL     1      -6.157   9.844  -9.372  1.00  0.00    -0.203 F 
ATOM     67  C   UNL     1      -5.092   9.120 -11.341  1.00  0.00     0.198 A 
ATOM     68  C   UNL     1      -3.012  10.109 -12.016  1.00  0.00     0.198 A 
ATOM     69  F   UNL     1      -2.007  11.767 -10.684  1.00  0.00    -0.203 F 
ATOM     70  F   UNL     1      -6.072   8.229 -11.542  1.00  0.00    -0.200 F 
ATOM     71  C   UNL     1      -4.040   9.207 -12.241  1.00  0.00     0.200 A 
ATOM     72  F   UNL     1      -2.002  10.205 -12.892  1.00  0.00    -0.200 F 
ATOM     73  F   UNL     1      -4.016   8.417 -13.323  1.00  0.00    -0.200 F 
ENDBRANCH  49  63
BRANCH  50  74
ATOM     74  C   UNL     1      -3.892  16.679  -1.843  1.00  0.00     0.064 A 
ATOM     75  C   UNL     1      -4.992  17.462  -1.466  1.00  0.00     0.173 A 
ATOM     76  C   UNL     1      -2.729  16.772  -1.064  1.00  0.00     0.173 A 
ATOM     77  F   UNL     1      -6.120  17.426  -2.191  1.00  0.00    -0.203 F 
ATOM     78  C   UNL     1      -4.924  18.321  -0.371  1.00  0.00     0.198 A 
ATOM     79  C   UNL     1      -2.673  17.606   0.051  1.00  0.00     0.198 A 
ATOM     80  F   UNL     1      -1.648  16.043  -1.379  1.00  0.00    -0.203 F 
ATOM     81  F   UNL     1      -5.972  19.098  -0.066  1.00  0.00    -0.200 F 
ATOM     82  C   UNL     1      -3.767  18.388   0.390  1.00  0.00     0.200 A 
ATOM     83  F   UNL     1      -1.558  17.656   0.792  1.00  0.00    -0.200 F 
ATOM     84  F   UNL     1      -3.702  19.213   1.444  1.00  0.00    -0.200 F 
ENDBRANCH  50  74
BRANCH  62  85
ATOM     85  C   UNL     1      -4.475  17.935  -8.673  1.00  0.00     0.064 A 
ATOM     86  C   UNL     1      -3.397  18.824  -8.808  1.00  0.00     0.173 A 
ATOM     87  C   UNL     1      -5.670  18.247  -9.340  1.00  0.00     0.173 A 
ATOM     88  F   UNL     1      -2.238  18.580  -8.178  1.00  0.00    -0.203 F 
ATOM     89  C   UNL     1      -3.521  19.989  -9.559  1.00  0.00     0.198 A 
ATOM     90  C   UNL     1      -5.778  19.395 -10.119  1.00  0.00     0.198 A 
ATOM     91  F   UNL     1      -6.728  17.428  -9.251  1.00  0.00    -0.203 F 
ATOM     92  F   UNL     1      -2.495  20.849  -9.632  1.00  0.00    -0.200 F 
ATOM     93  C   UNL     1      -4.707  20.270 -10.222  1.00  0.00     0.200 A 
ATOM     94  F   UNL     1      -6.919  19.655 -10.773  1.00  0.00    -0.200 F 
ATOM     95  F   UNL     1      -4.819  21.386 -10.954  1.00  0.00    -0.200 F 
ENDBRANCH  62  85
ENDBRANCH  36  37
ENDBRANCH  28  31
ENDBRANCH  26  27
ENDBRANCH  25  26
ENDBRANCH   1  25
TORSDOF 14
