REMARK SMILES O=C(C[NH2+][C@H]1CCCC[C@H]1[N@@H+](Cc1ccccc1)C1CC1)NCCCCNC(=O)c1ccc(-c2c3nc(c(-c4c(F)c(F)c(F)c(F)c4F)c4ccc([nH]4)c(-c4c(F)c(F)c(F)c(F)c4F)c4nc(c(-c5c(F)c(F)c(F)c(F)c5F)c5ccc2[nH]5)C=C4)C=C3)cc1
REMARK SMILES IDX 23 1 22 2 1 3 2 4 3 6 4 7 5 10 6 11 10 12 7 13 9 14 8 15
REMARK SMILES IDX 11 16 12 18 13 19 14 20 18 21 15 22 17 23 16 24 19 25 20 26
REMARK SMILES IDX 21 27 24 28 25 29 26 30 27 31 28 32 29 34 30 35 31 36 92 37
REMARK SMILES IDX 32 38 91 39 33 40 34 41 35 42 85 43 36 44 90 45 84 46 86 47
REMARK SMILES IDX 37 48 89 49 83 50 82 51 38 53 70 54 50 55 69 56 51 57 54 58
REMARK SMILES IDX 68 59 87 60 52 61 53 62 67 64 88 65 55 66 39 67 40 68 48 69
REMARK SMILES IDX 41 70 42 71 46 72 49 73 43 74 44 75 47 76 45 77 71 78 72 79
REMARK SMILES IDX 80 80 73 81 74 82 78 83 81 84 75 85 76 86 79 87 77 88 56 89
REMARK SMILES IDX 57 90 65 91 58 92 59 93 63 94 66 95 60 96 61 97 64 98 62 99
REMARK H PARENT 22 5 4 8 4 9 11 17 27 33 86 52 54 63
REMARK Flexibility Score: inf
ROOT
ATOM      1  C   UNL     1       9.890  -1.110   0.907  1.00  0.00     0.116 C 
ENDROOT
BRANCH   1   2
ATOM      2  N   UNL     1       8.477  -1.367   1.091  1.00  0.00    -0.351 N 
ATOM      3  O   UNL     1       8.668  -2.372   3.155  1.00  0.00    -0.269 OA
ATOM      4  C   UNL     1       7.969  -1.935   2.244  1.00  0.00     0.275 C 
ATOM      5  H   UNL     1       7.855  -1.129   0.367  1.00  0.00     0.163 HD
BRANCH   4   6
ATOM      6  C   UNL     1       6.434  -1.890   2.337  1.00  0.00     0.362 C 
BRANCH   6   7
ATOM      7  N   UNL     1       6.071  -0.633   2.996  1.00  0.00    -0.331 N 
ATOM      8  H   UNL     1       6.605   0.117   2.555  1.00  0.00     0.347 HD
ATOM      9  H   UNL     1       6.282  -0.770   3.985  1.00  0.00     0.347 HD
BRANCH   7  10
ATOM     10  C   UNL     1       4.655  -0.265   2.942  1.00  0.00     0.241 C 
ATOM     11  C   UNL     1       3.872  -1.184   3.919  1.00  0.00     0.071 C 
ATOM     12  C   UNL     1       4.344   1.270   3.275  1.00  0.00     0.243 C 
ATOM     13  C   UNL     1       4.160  -0.873   5.387  1.00  0.00     0.007 C 
ATOM     14  C   UNL     1       4.467   1.547   4.792  1.00  0.00     0.071 C 
ATOM     15  C   UNL     1       3.747   0.550   5.692  1.00  0.00     0.007 C 
BRANCH  12  16
ATOM     16  N   UNL     1       4.854   2.378   2.392  1.00  0.00    -0.321 N 
ATOM     17  H   UNL     1       4.593   1.793   1.598  1.00  0.00     0.349 HD
BRANCH  16  18
ATOM     18  C   UNL     1       4.161   3.680   2.584  1.00  0.00     0.299 C 
BRANCH  18  19
ATOM     19  C   UNL     1       4.678   4.642   3.656  1.00  0.00     0.006 A 
ATOM     20  C   UNL     1       5.725   4.348   4.543  1.00  0.00     0.009 A 
ATOM     21  C   UNL     1       4.016   5.867   3.827  1.00  0.00     0.009 A 
ATOM     22  C   UNL     1       5.989   5.146   5.656  1.00  0.00     0.001 A 
ATOM     23  C   UNL     1       4.313   6.699   4.912  1.00  0.00     0.001 A 
ATOM     24  C   UNL     1       5.269   6.316   5.850  1.00  0.00     0.000 A 
ENDBRANCH  18  19
ENDBRANCH  16  18
BRANCH  16  25
ATOM     25  C   UNL     1       6.235   2.606   1.925  1.00  0.00     0.185 C 
ATOM     26  C   UNL     1       7.475   1.972   2.458  1.00  0.00     0.071 C 
ATOM     27  C   UNL     1       6.962   1.607   1.087  1.00  0.00     0.071 C 
ENDBRANCH  16  25
ENDBRANCH  12  16
ENDBRANCH   7  10
ENDBRANCH   6   7
ENDBRANCH   4   6
ENDBRANCH   1   2
BRANCH   1  28
ATOM     28  C   UNL     1      10.344  -1.336  -0.534  1.00  0.00     0.023 C 
BRANCH  28  29
ATOM     29  C   UNL     1       9.745  -0.376  -1.568  1.00  0.00     0.023 C 
BRANCH  29  30
ATOM     30  C   UNL     1      10.149   1.090  -1.414  1.00  0.00     0.116 C 
BRANCH  30  31
ATOM     31  N   UNL     1      11.564   1.316  -1.664  1.00  0.00    -0.352 N 
ATOM     32  C   UNL     1      12.188   2.136  -2.571  1.00  0.00     0.251 C 
ATOM     33  H   UNL     1      12.173   0.797  -1.090  1.00  0.00     0.163 HD
ATOM     34  O   UNL     1      13.409   2.062  -2.718  1.00  0.00    -0.269 OA
BRANCH  32  35
ATOM     35  C   UNL     1      11.417   3.091  -3.400  1.00  0.00     0.039 A 
ATOM     36  C   UNL     1      11.759   3.237  -4.749  1.00  0.00     0.014 A 
ATOM     37  C   UNL     1      10.386   3.863  -2.861  1.00  0.00     0.014 A 
ATOM     38  C   UNL     1      11.023   4.097  -5.569  1.00  0.00     0.010 A 
ATOM     39  C   UNL     1       9.604   4.663  -3.696  1.00  0.00     0.010 A 
ATOM     40  C   UNL     1       9.910   4.787  -5.060  1.00  0.00    -0.014 A 
BRANCH  40  41
ATOM     41  C   UNL     1       9.053   5.623  -5.943  1.00  0.00     0.031 A 
ATOM     42  C   UNL     1       8.929   7.104  -5.710  1.00  0.00     0.074 A 
ATOM     43  C   UNL     1       8.333   5.038  -6.921  1.00  0.00     0.049 A 
ATOM     44  N   UNL     1       8.183   7.983  -6.332  1.00  0.00    -0.248 NA
ATOM     45  C   UNL     1       9.734   7.671  -4.617  1.00  0.00     0.031 C 
ATOM     46  C   UNL     1       8.332   3.607  -7.228  1.00  0.00     0.029 A 
ATOM     47  N   UNL     1       7.456   5.573  -7.833  1.00  0.00    -0.354 N 
ATOM     48  C   UNL     1       8.417   9.197  -5.700  1.00  0.00     0.074 A 
ATOM     49  C   UNL     1       9.335   8.934  -4.612  1.00  0.00     0.031 C 
ATOM     50  C   UNL     1       7.515   3.381  -8.269  1.00  0.00     0.029 A 
ATOM     51  C   UNL     1       6.899   4.640  -8.675  1.00  0.00     0.049 A 
ATOM     52  H   UNL     1       7.245   6.534  -7.879  1.00  0.00     0.167 HD
ATOM     53  C   UNL     1       7.929  10.422  -6.011  1.00  0.00     0.037 A 
ATOM     54  C   UNL     1       5.986   4.780  -9.655  1.00  0.00     0.037 A 
ATOM     55  C   UNL     1       7.029  10.685  -7.105  1.00  0.00     0.049 A 
ATOM     56  C   UNL     1       5.439   6.149  -9.962  1.00  0.00     0.074 A 
ATOM     57  C   UNL     1       6.526  11.900  -7.536  1.00  0.00     0.029 A 
ATOM     58  N   UNL     1       6.489   9.714  -7.937  1.00  0.00    -0.354 N 
ATOM     59  N   UNL     1       5.723   7.300  -9.403  1.00  0.00    -0.248 NA
ATOM     60  C   UNL     1       4.445   6.238 -11.041  1.00  0.00     0.031 C 
ATOM     61  C   UNL     1       5.636  11.659  -8.587  1.00  0.00     0.029 A 
ATOM     62  C   UNL     1       5.634  10.301  -8.857  1.00  0.00     0.049 A 
ATOM     63  H   UNL     1       6.685   8.750  -7.881  1.00  0.00     0.167 HD
ATOM     64  C   UNL     1       4.973   8.251 -10.083  1.00  0.00     0.074 A 
ATOM     65  C   UNL     1       4.231   7.544 -11.106  1.00  0.00     0.031 C 
ATOM     66  C   UNL     1       4.906   9.589  -9.878  1.00  0.00     0.037 A 
BRANCH  53  67
ATOM     67  C   UNL     1       8.353  11.581  -5.152  1.00  0.00     0.064 A 
ATOM     68  C   UNL     1       9.671  12.062  -5.158  1.00  0.00     0.173 A 
ATOM     69  C   UNL     1       7.418  12.248  -4.345  1.00  0.00     0.173 A 
ATOM     70  F   UNL     1      10.608  11.458  -5.905  1.00  0.00    -0.203 F 
ATOM     71  C   UNL     1      10.044  13.144  -4.364  1.00  0.00     0.198 A 
ATOM     72  C   UNL     1       7.786  13.351  -3.580  1.00  0.00     0.198 A 
ATOM     73  F   UNL     1       6.141  11.837  -4.308  1.00  0.00    -0.203 F 
ATOM     74  F   UNL     1      11.321  13.552  -4.347  1.00  0.00    -0.200 F 
ATOM     75  C   UNL     1       9.100  13.793  -3.583  1.00  0.00     0.200 A 
ATOM     76  F   UNL     1       6.868  13.987  -2.839  1.00  0.00    -0.200 F 
ATOM     77  F   UNL     1       9.459  14.840  -2.827  1.00  0.00    -0.200 F 
ENDBRANCH  53  67
BRANCH  54  78
ATOM     78  C   UNL     1       5.539   3.594 -10.433  1.00  0.00     0.064 A 
ATOM     79  C   UNL     1       5.860   3.461 -11.792  1.00  0.00     0.173 A 
ATOM     80  C   UNL     1       4.772   2.578  -9.844  1.00  0.00     0.173 A 
ATOM     81  F   UNL     1       6.573   4.416 -12.408  1.00  0.00    -0.203 F 
ATOM     82  C   UNL     1       5.410   2.372 -12.536  1.00  0.00     0.198 A 
ATOM     83  C   UNL     1       4.351   1.473 -10.581  1.00  0.00     0.198 A 
ATOM     84  F   UNL     1       4.441   2.653  -8.546  1.00  0.00    -0.203 F 
ATOM     85  F   UNL     1       5.686   2.299 -13.845  1.00  0.00    -0.200 F 
ATOM     86  C   UNL     1       4.661   1.376 -11.928  1.00  0.00     0.200 A 
ATOM     87  F   UNL     1       3.641   0.505  -9.985  1.00  0.00    -0.200 F 
ATOM     88  F   UNL     1       4.231   0.328 -12.643  1.00  0.00    -0.200 F 
ENDBRANCH  54  78
BRANCH  66  89
ATOM     89  C   UNL     1       4.034  10.389 -10.805  1.00  0.00     0.064 A 
ATOM     90  C   UNL     1       2.635  10.299 -10.768  1.00  0.00     0.173 A 
ATOM     91  C   UNL     1       4.609  11.287 -11.718  1.00  0.00     0.173 A 
ATOM     92  F   UNL     1       2.035   9.445  -9.924  1.00  0.00    -0.203 F 
ATOM     93  C   UNL     1       1.845  11.055 -11.630  1.00  0.00     0.198 A 
ATOM     94  C   UNL     1       3.815  12.068 -12.554  1.00  0.00     0.198 A 
ATOM     95  F   UNL     1       5.942  11.419 -11.791  1.00  0.00    -0.203 F 
ATOM     96  F   UNL     1       0.512  10.912 -11.614  1.00  0.00    -0.200 F 
ATOM     97  C   UNL     1       2.435  11.945 -12.516  1.00  0.00     0.200 A 
ATOM     98  F   UNL     1       4.387  12.939 -13.397  1.00  0.00    -0.200 F 
ATOM     99  F   UNL     1       1.673  12.679 -13.338  1.00  0.00    -0.200 F 
ENDBRANCH  66  89
ENDBRANCH  40  41
ENDBRANCH  32  35
ENDBRANCH  30  31
ENDBRANCH  29  30
ENDBRANCH  28  29
ENDBRANCH   1  28
TORSDOF 17
