REMARK SMILES COc1ccccc1Nc1snc(C)c1C(=O)NCCCCNC(=O)c1ccc(-c2c3nc(c(-c4c(F)c(F)c(F)c(F)c4F)c4ccc([nH]4)c(-c4c(F)c(F)c(F)c(F)c4F)c4nc(c(-c5c(F)c(F)c(F)c(F)c5F)c5ccc2[nH]5)C=C4)C=C3)cc1
REMARK SMILES IDX 20 1 19 2 18 3 16 4 17 5 15 7 10 8 11 9 12 10 13 11 14 12
REMARK SMILES IDX 9 13 8 15 3 16 4 17 5 18 7 19 6 20 2 21 1 22 21 23 22 24
REMARK SMILES IDX 23 25 24 26 25 28 26 29 27 30 88 31 28 32 87 33 29 34 30 35
REMARK SMILES IDX 31 36 81 37 32 38 86 39 80 40 82 41 33 42 85 43 79 44 78 45
REMARK SMILES IDX 34 47 66 48 46 49 65 50 47 51 50 52 64 53 83 54 48 55 49 56
REMARK SMILES IDX 63 58 84 59 51 60 35 61 36 62 44 63 37 64 38 65 42 66 45 67
REMARK SMILES IDX 39 68 40 69 43 70 41 71 67 72 68 73 76 74 69 75 70 76 74 77
REMARK SMILES IDX 77 78 71 79 72 80 75 81 73 82 52 83 53 84 61 85 54 86 55 87
REMARK SMILES IDX 59 88 62 89 56 90 57 91 60 92 58 93
REMARK H PARENT 18 6 9 14 23 27 82 46 50 57
REMARK Flexibility Score: inf
ROOT
ATOM      1  C   UNL     1       1.155  -2.340   2.092  1.00  0.00     0.023 C 
ENDROOT
BRANCH   1   2
ATOM      2  C   UNL     1       1.958  -1.129   2.577  1.00  0.00     0.116 C 
BRANCH   2   3
ATOM      3  N   UNL     1       2.767  -1.271   3.766  1.00  0.00    -0.352 N 
ATOM      4  C   UNL     1       3.985  -0.685   4.082  1.00  0.00     0.256 C 
ATOM      5  O   UNL     1       4.281  -0.710   5.280  1.00  0.00    -0.269 OA
ATOM      6  H   UNL     1       2.400  -1.873   4.453  1.00  0.00     0.163 HD
BRANCH   4   7
ATOM      7  C   UNL     1       4.943  -0.160   3.090  1.00  0.00     0.097 A 
ATOM      8  C   UNL     1       4.734   0.640   1.959  1.00  0.00     0.127 A 
ATOM      9  S   UNL     1       6.223   0.776   1.099  1.00  0.00    -0.018 S 
ATOM     10  N   UNL     1       7.163   0.087   2.244  1.00  0.00    -0.195 NA
ATOM     11  C   UNL     1       6.393  -0.347   3.240  1.00  0.00     0.066 A 
ATOM     12  C   UNL     1       7.129  -0.978   4.377  1.00  0.00     0.069 C 
BRANCH   8  13
ATOM     13  N   UNL     1       3.667   1.285   1.425  1.00  0.00    -0.342 N 
ATOM     14  H   UNL     1       3.611   1.282   0.442  1.00  0.00     0.168 HD
BRANCH  13  15
ATOM     15  C   UNL     1       2.631   1.958   2.095  1.00  0.00     0.082 A 
ATOM     16  C   UNL     1       1.419   2.216   1.420  1.00  0.00     0.142 A 
ATOM     17  C   UNL     1       0.378   2.848   2.085  1.00  0.00     0.048 A 
ATOM     18  C   UNL     1       0.534   3.212   3.421  1.00  0.00     0.004 A 
ATOM     19  C   UNL     1       2.755   2.334   3.443  1.00  0.00     0.030 A 
ATOM     20  C   UNL     1       1.709   2.953   4.111  1.00  0.00     0.002 A 
BRANCH  16  21
ATOM     21  O   UNL     1       1.260   2.031   0.070  1.00  0.00    -0.495 OA
ATOM     22  C   UNL     1       1.148   0.673  -0.344  1.00  0.00     0.278 C 
ENDBRANCH  16  21
ENDBRANCH  13  15
ENDBRANCH   8  13
ENDBRANCH   4   7
ENDBRANCH   2   3
ENDBRANCH   1   2
BRANCH   1  23
ATOM     23  C   UNL     1      -0.140  -2.738   2.813  1.00  0.00     0.023 C 
BRANCH  23  24
ATOM     24  C   UNL     1      -1.170  -1.642   3.045  1.00  0.00     0.116 C 
BRANCH  24  25
ATOM     25  N   UNL     1      -1.797  -1.067   1.845  1.00  0.00    -0.352 N 
ATOM     26  C   UNL     1      -2.851  -0.146   1.798  1.00  0.00     0.251 C 
ATOM     27  H   UNL     1      -1.436  -1.363   0.979  1.00  0.00     0.163 HD
ATOM     28  O   UNL     1      -3.508   0.027   0.789  1.00  0.00    -0.269 OA
BRANCH  26  29
ATOM     29  C   UNL     1      -3.112   0.667   3.008  1.00  0.00     0.039 A 
ATOM     30  C   UNL     1      -4.377   1.026   3.485  1.00  0.00     0.014 A 
ATOM     31  C   UNL     1      -1.979   1.055   3.699  1.00  0.00     0.014 A 
ATOM     32  C   UNL     1      -4.465   1.709   4.706  1.00  0.00     0.010 A 
ATOM     33  C   UNL     1      -2.064   1.527   4.970  1.00  0.00     0.010 A 
ATOM     34  C   UNL     1      -3.294   1.946   5.442  1.00  0.00    -0.014 A 
BRANCH  34  35
ATOM     35  C   UNL     1      -3.264   2.483   6.793  1.00  0.00     0.031 A 
ATOM     36  C   UNL     1      -3.933   1.620   7.790  1.00  0.00     0.074 A 
ATOM     37  C   UNL     1      -2.403   3.466   7.144  1.00  0.00     0.049 A 
ATOM     38  N   UNL     1      -5.005   1.901   8.450  1.00  0.00    -0.248 NA
ATOM     39  C   UNL     1      -3.472   0.233   7.962  1.00  0.00     0.031 C 
ATOM     40  C   UNL     1      -1.478   4.207   6.288  1.00  0.00     0.029 A 
ATOM     41  N   UNL     1      -2.088   3.944   8.376  1.00  0.00    -0.354 N 
ATOM     42  C   UNL     1      -5.220   0.821   9.295  1.00  0.00     0.074 A 
ATOM     43  C   UNL     1      -4.404  -0.250   8.788  1.00  0.00     0.031 C 
ATOM     44  C   UNL     1      -0.535   4.830   7.031  1.00  0.00     0.029 A 
ATOM     45  C   UNL     1      -0.928   4.720   8.422  1.00  0.00     0.049 A 
ATOM     46  H   UNL     1      -2.635   3.759   9.173  1.00  0.00     0.167 HD
ATOM     47  C   UNL     1      -5.816   1.010  10.504  1.00  0.00     0.037 A 
ATOM     48  C   UNL     1      -0.365   5.270   9.528  1.00  0.00     0.037 A 
ATOM     49  C   UNL     1      -6.461   2.305  10.553  1.00  0.00     0.049 A 
ATOM     50  C   UNL     1      -1.434   5.324  10.558  1.00  0.00     0.074 A 
ATOM     51  C   UNL     1      -7.457   2.923   9.819  1.00  0.00     0.029 A 
ATOM     52  N   UNL     1      -5.801   3.320  11.203  1.00  0.00    -0.354 N 
ATOM     53  N   UNL     1      -2.497   6.075  10.445  1.00  0.00    -0.248 NA
ATOM     54  C   UNL     1      -1.568   4.173  11.437  1.00  0.00     0.031 C 
ATOM     55  C   UNL     1      -7.031   4.280   9.685  1.00  0.00     0.029 A 
ATOM     56  C   UNL     1      -5.849   4.438  10.410  1.00  0.00     0.049 A 
ATOM     57  H   UNL     1      -5.369   3.256  12.085  1.00  0.00     0.167 HD
ATOM     58  C   UNL     1      -3.544   5.270  10.872  1.00  0.00     0.074 A 
ATOM     59  C   UNL     1      -2.901   4.133  11.534  1.00  0.00     0.031 C 
ATOM     60  C   UNL     1      -4.807   5.440  10.378  1.00  0.00     0.037 A 
BRANCH  47  61
ATOM     61  C   UNL     1      -5.468   0.247  11.763  1.00  0.00     0.064 A 
ATOM     62  C   UNL     1      -6.211   0.513  12.932  1.00  0.00     0.173 A 
ATOM     63  C   UNL     1      -4.274  -0.481  11.961  1.00  0.00     0.173 A 
ATOM     64  F   UNL     1      -7.366   1.192  12.867  1.00  0.00    -0.203 F 
ATOM     65  C   UNL     1      -5.736   0.182  14.203  1.00  0.00     0.198 A 
ATOM     66  C   UNL     1      -3.829  -0.856  13.227  1.00  0.00     0.198 A 
ATOM     67  F   UNL     1      -3.428  -0.767  10.967  1.00  0.00    -0.203 F 
ATOM     68  F   UNL     1      -6.408   0.586  15.288  1.00  0.00    -0.200 F 
ATOM     69  C   UNL     1      -4.538  -0.491  14.350  1.00  0.00     0.200 A 
ATOM     70  F   UNL     1      -2.659  -1.500  13.348  1.00  0.00    -0.200 F 
ATOM     71  F   UNL     1      -4.043  -0.745  15.568  1.00  0.00    -0.200 F 
ENDBRANCH  47  61
BRANCH  48  72
ATOM     72  C   UNL     1       1.073   5.439   9.855  1.00  0.00     0.064 A 
ATOM     73  C   UNL     1       1.491   6.279  10.902  1.00  0.00     0.173 A 
ATOM     74  C   UNL     1       2.043   4.553   9.343  1.00  0.00     0.173 A 
ATOM     75  F   UNL     1       0.620   7.122  11.475  1.00  0.00    -0.203 F 
ATOM     76  C   UNL     1       2.788   6.216  11.425  1.00  0.00     0.198 A 
ATOM     77  C   UNL     1       3.337   4.490   9.867  1.00  0.00     0.198 A 
ATOM     78  F   UNL     1       1.722   3.666   8.390  1.00  0.00    -0.203 F 
ATOM     79  F   UNL     1       3.130   6.992  12.464  1.00  0.00    -0.200 F 
ATOM     80  C   UNL     1       3.706   5.312  10.917  1.00  0.00     0.200 A 
ATOM     81  F   UNL     1       4.203   3.583   9.394  1.00  0.00    -0.200 F 
ATOM     82  F   UNL     1       4.926   5.203  11.462  1.00  0.00    -0.200 F 
ENDBRANCH  48  72
BRANCH  60  83
ATOM     83  C   UNL     1      -5.076   6.673   9.552  1.00  0.00     0.064 A 
ATOM     84  C   UNL     1      -4.490   6.933   8.300  1.00  0.00     0.173 A 
ATOM     85  C   UNL     1      -6.078   7.552   9.978  1.00  0.00     0.173 A 
ATOM     86  F   UNL     1      -3.594   6.096   7.771  1.00  0.00    -0.203 F 
ATOM     87  C   UNL     1      -4.861   8.039   7.534  1.00  0.00     0.198 A 
ATOM     88  C   UNL     1      -6.472   8.637   9.198  1.00  0.00     0.198 A 
ATOM     89  F   UNL     1      -6.716   7.327  11.137  1.00  0.00    -0.203 F 
ATOM     90  F   UNL     1      -4.278   8.261   6.346  1.00  0.00    -0.200 F 
ATOM     91  C   UNL     1      -5.857   8.887   7.982  1.00  0.00     0.200 A 
ATOM     92  F   UNL     1      -7.471   9.427   9.615  1.00  0.00    -0.200 F 
ATOM     93  F   UNL     1      -6.244   9.928   7.231  1.00  0.00    -0.200 F 
ENDBRANCH  60  83
ENDBRANCH  34  35
ENDBRANCH  26  29
ENDBRANCH  24  25
ENDBRANCH  23  24
ENDBRANCH   1  23
TORSDOF 14
