REMARK SMILES C[C@@H]([C@H]1CC=CS1)n1nccc1NC(=O)CC1(CC(=O)NCCCCNC(=O)c2ccc(-c3c4nc(c(-c5c(F)c(F)c(F)c(F)c5F)c5ccc([nH]5)c(-c5c(F)c(F)c(F)c(F)c5F)c5nc(c(-c6c(F)c(F)c(F)c(F)c6F)c6ccc3[nH]6)C=C5)C=C4)cc2)CCCCC1
REMARK SMILES IDX 19 1 20 2 21 3 18 5 17 6 92 7 96 8 93 9 95 10 94 11 16 12
REMARK SMILES IDX 14 13 13 14 15 16 12 17 8 18 9 19 10 20 11 21 2 22 1 23 3 24
REMARK SMILES IDX 4 25 7 26 5 27 6 28 22 29 23 30 24 31 25 32 26 33 27 34
REMARK SMILES IDX 28 36 29 37 30 38 91 39 31 40 90 41 32 42 33 43 34 44 84 45
REMARK SMILES IDX 35 46 89 47 83 48 85 49 36 50 88 51 82 52 81 53 37 55 69 56
REMARK SMILES IDX 49 57 68 58 50 59 53 60 67 61 86 62 51 63 52 64 66 66 87 67
REMARK SMILES IDX 54 68 38 69 39 70 47 71 40 72 41 73 45 74 48 75 42 76 43 77
REMARK SMILES IDX 46 78 44 79 70 80 71 81 79 82 72 83 73 84 77 85 80 86 74 87
REMARK SMILES IDX 75 88 78 89 76 90 55 91 56 92 64 93 57 94 58 95 62 96 65 97
REMARK SMILES IDX 59 98 60 99 63 100 61 101
REMARK H PARENT 21 4 13 15 26 35 85 54 53 65
REMARK Flexibility Score: inf
ROOT
ATOM      1  C   UNL     1       2.591   7.120  -0.721  1.00  0.00     0.220 C 
ATOM      2  O   UNL     1       1.381   7.270  -0.902  1.00  0.00    -0.275 OA
ATOM      3  N   UNL     1       3.352   8.239  -0.616  1.00  0.00    -0.356 N 
ATOM      4  H   UNL     1       2.852   9.081  -0.717  1.00  0.00     0.163 HD
ENDROOT
BRANCH   1   5
ATOM      5  C   UNL     1       3.172   5.713  -0.634  1.00  0.00     0.107 C 
BRANCH   5   6
ATOM      6  C   UNL     1       3.748   5.064  -1.934  1.00  0.00    -0.012 C 
ATOM      7  C   UNL     1       3.740   3.516  -1.768  1.00  0.00     0.008 C 
ATOM      8  C   UNL     1       5.238   5.430  -2.177  1.00  0.00     0.008 C 
ATOM      9  C   UNL     1       4.701   2.975  -0.705  1.00  0.00     0.001 C 
ATOM     10  C   UNL     1       6.206   4.946  -1.101  1.00  0.00     0.001 C 
ATOM     11  C   UNL     1       6.133   3.435  -0.956  1.00  0.00     0.000 C 
BRANCH   6  12
ATOM     12  C   UNL     1       2.963   5.532  -3.206  1.00  0.00     0.108 C 
BRANCH  12  13
ATOM     13  C   UNL     1       1.569   4.990  -3.441  1.00  0.00     0.226 C 
ATOM     14  N   UNL     1       1.318   3.677  -3.951  1.00  0.00    -0.311 N 
ATOM     15  H   UNL     1       0.383   3.371  -3.914  1.00  0.00     0.171 HD
ATOM     16  O   UNL     1       0.547   5.608  -3.188  1.00  0.00    -0.275 OA
BRANCH  14  17
ATOM     17  C   UNL     1       2.226   2.787  -4.489  1.00  0.00     0.131 A 
ATOM     18  N   UNL     1       2.159   1.409  -4.436  1.00  0.00    -0.246 N 
ATOM     19  N   UNL     1       3.257   0.821  -4.957  1.00  0.00    -0.179 NA
ATOM     20  C   UNL     1       3.987   1.830  -5.423  1.00  0.00     0.137 A 
ATOM     21  C   UNL     1       3.357   3.069  -5.225  1.00  0.00     0.068 A 
BRANCH  18  22
ATOM     22  C   UNL     1       1.006   0.576  -4.090  1.00  0.00     0.120 C 
ATOM     23  C   UNL     1       0.598  -0.226  -5.331  1.00  0.00     0.034 C 
BRANCH  22  24
ATOM     24  C   UNL     1       1.122  -0.232  -2.766  1.00  0.00     0.079 C 
ATOM     25  C   UNL     1       0.133  -1.415  -2.637  1.00  0.00     0.045 C 
ATOM     26  S   UNL     1       2.745  -0.963  -2.296  1.00  0.00    -0.128 SA
ATOM     27  C   UNL     1       0.707  -2.404  -1.670  1.00  0.00    -0.019 C 
ATOM     28  C   UNL     1       2.015  -2.272  -1.433  1.00  0.00     0.037 C 
ENDBRANCH  22  24
ENDBRANCH  18  22
ENDBRANCH  14  17
ENDBRANCH  12  13
ENDBRANCH   6  12
ENDBRANCH   5   6
ENDBRANCH   1   5
BRANCH   3  29
ATOM     29  C   UNL     1       4.772   8.411  -0.380  1.00  0.00     0.116 C 
BRANCH  29  30
ATOM     30  C   UNL     1       5.515   8.839  -1.652  1.00  0.00     0.023 C 
BRANCH  30  31
ATOM     31  C   UNL     1       5.678  10.341  -1.889  1.00  0.00     0.023 C 
BRANCH  31  32
ATOM     32  C   UNL     1       6.628  11.052  -0.934  1.00  0.00     0.116 C 
BRANCH  32  33
ATOM     33  N   UNL     1       7.992  10.525  -0.958  1.00  0.00    -0.352 N 
ATOM     34  C   UNL     1       8.930  10.589   0.060  1.00  0.00     0.251 C 
ATOM     35  H   UNL     1       8.275  10.077  -1.788  1.00  0.00     0.163 HD
ATOM     36  O   UNL     1      10.118  10.433  -0.137  1.00  0.00    -0.269 OA
BRANCH  34  37
ATOM     37  C   UNL     1       8.412  10.848   1.414  1.00  0.00     0.039 A 
ATOM     38  C   UNL     1       8.755  12.013   2.098  1.00  0.00     0.014 A 
ATOM     39  C   UNL     1       7.411   9.999   1.875  1.00  0.00     0.014 A 
ATOM     40  C   UNL     1       7.997  12.382   3.209  1.00  0.00     0.010 A 
ATOM     41  C   UNL     1       6.591  10.434   2.896  1.00  0.00     0.010 A 
ATOM     42  C   UNL     1       6.881  11.615   3.586  1.00  0.00    -0.014 A 
BRANCH  42  43
ATOM     43  C   UNL     1       5.978  12.104   4.637  1.00  0.00     0.031 A 
ATOM     44  C   UNL     1       5.552  13.542   4.578  1.00  0.00     0.074 A 
ATOM     45  C   UNL     1       5.373  11.305   5.543  1.00  0.00     0.049 A 
ATOM     46  N   UNL     1       5.737  14.467   5.467  1.00  0.00    -0.248 NA
ATOM     47  C   UNL     1       4.849  14.016   3.376  1.00  0.00     0.031 C 
ATOM     48  C   UNL     1       5.383   9.841   5.645  1.00  0.00     0.029 A 
ATOM     49  N   UNL     1       4.520  11.670   6.542  1.00  0.00    -0.354 N 
ATOM     50  C   UNL     1       5.077  15.610   5.009  1.00  0.00     0.074 A 
ATOM     51  C   UNL     1       4.612  15.295   3.681  1.00  0.00     0.031 C 
ATOM     52  C   UNL     1       4.407   9.438   6.486  1.00  0.00     0.029 A 
ATOM     53  C   UNL     1       3.851  10.612   7.129  1.00  0.00     0.049 A 
ATOM     54  H   UNL     1       4.392  12.605   6.821  1.00  0.00     0.167 HD
ATOM     55  C   UNL     1       4.844  16.688   5.813  1.00  0.00     0.037 A 
ATOM     56  C   UNL     1       2.903  10.678   8.089  1.00  0.00     0.037 A 
ATOM     57  C   UNL     1       5.669  16.660   6.989  1.00  0.00     0.049 A 
ATOM     58  C   UNL     1       3.068  11.970   8.791  1.00  0.00     0.074 A 
ATOM     59  C   UNL     1       7.029  16.697   7.227  1.00  0.00     0.029 A 
ATOM     60  N   UNL     1       5.105  16.271   8.177  1.00  0.00    -0.354 N 
ATOM     61  N   UNL     1       4.099  12.270   9.531  1.00  0.00    -0.248 NA
ATOM     62  C   UNL     1       2.262  13.097   8.353  1.00  0.00     0.031 C 
ATOM     63  C   UNL     1       7.228  15.842   8.351  1.00  0.00     0.029 A 
ATOM     64  C   UNL     1       5.972  15.372   8.741  1.00  0.00     0.049 A 
ATOM     65  H   UNL     1       4.248  16.578   8.551  1.00  0.00     0.167 HD
ATOM     66  C   UNL     1       4.308  13.622   9.314  1.00  0.00     0.074 A 
ATOM     67  C   UNL     1       3.084  14.097   8.677  1.00  0.00     0.031 C 
ATOM     68  C   UNL     1       5.552  14.173   9.424  1.00  0.00     0.037 A 
BRANCH  55  69
ATOM     69  C   UNL     1       3.687  17.652   5.694  1.00  0.00     0.064 A 
ATOM     70  C   UNL     1       3.676  18.833   6.470  1.00  0.00     0.173 A 
ATOM     71  C   UNL     1       2.462  17.318   5.083  1.00  0.00     0.173 A 
ATOM     72  F   UNL     1       4.781  19.241   7.112  1.00  0.00    -0.203 F 
ATOM     73  C   UNL     1       2.509  19.575   6.678  1.00  0.00     0.198 A 
ATOM     74  C   UNL     1       1.310  18.090   5.252  1.00  0.00     0.198 A 
ATOM     75  F   UNL     1       2.307  16.182   4.393  1.00  0.00    -0.203 F 
ATOM     76  F   UNL     1       2.523  20.617   7.521  1.00  0.00    -0.200 F 
ATOM     77  C   UNL     1       1.325  19.199   6.074  1.00  0.00     0.200 A 
ATOM     78  F   UNL     1       0.166  17.702   4.671  1.00  0.00    -0.200 F 
ATOM     79  F   UNL     1       0.192  19.870   6.319  1.00  0.00    -0.200 F 
ENDBRANCH  55  69
BRANCH  56  80
ATOM     80  C   UNL     1       1.732   9.796   8.255  1.00  0.00     0.064 A 
ATOM     81  C   UNL     1       1.063   9.691   9.481  1.00  0.00     0.173 A 
ATOM     82  C   UNL     1       1.092   9.231   7.133  1.00  0.00     0.173 A 
ATOM     83  F   UNL     1       1.593  10.237  10.585  1.00  0.00    -0.203 F 
ATOM     84  C   UNL     1      -0.189   9.077   9.577  1.00  0.00     0.198 A 
ATOM     85  C   UNL     1      -0.153   8.614   7.230  1.00  0.00     0.198 A 
ATOM     86  F   UNL     1       1.625   9.348   5.907  1.00  0.00    -0.203 F 
ATOM     87  F   UNL     1      -0.827   9.043  10.755  1.00  0.00    -0.200 F 
ATOM     88  C   UNL     1      -0.800   8.549   8.450  1.00  0.00     0.200 A 
ATOM     89  F   UNL     1      -0.747   8.136   6.127  1.00  0.00    -0.200 F 
ATOM     90  F   UNL     1      -2.026   8.013   8.532  1.00  0.00    -0.200 F 
ENDBRANCH  56  80
BRANCH  68  91
ATOM     91  C   UNL     1       6.639  13.349  10.053  1.00  0.00     0.064 A 
ATOM     92  C   UNL     1       7.146  12.167   9.486  1.00  0.00     0.173 A 
ATOM     93  C   UNL     1       7.309  13.867  11.169  1.00  0.00     0.173 A 
ATOM     94  F   UNL     1       6.627  11.665   8.360  1.00  0.00    -0.203 F 
ATOM     95  C   UNL     1       8.250  11.518  10.034  1.00  0.00     0.198 A 
ATOM     96  C   UNL     1       8.432  13.235  11.695  1.00  0.00     0.198 A 
ATOM     97  F   UNL     1       6.906  15.026  11.715  1.00  0.00    -0.203 F 
ATOM     98  F   UNL     1       8.714  10.390   9.474  1.00  0.00    -0.200 F 
ATOM     99  C   UNL     1       8.898  12.057  11.133  1.00  0.00     0.200 A 
ATOM    100  F   UNL     1       9.086  13.787  12.726  1.00  0.00    -0.200 F 
ATOM    101  F   UNL     1       9.989  11.459  11.631  1.00  0.00    -0.200 F 
ENDBRANCH  68  91
ENDBRANCH  42  43
ENDBRANCH  34  37
ENDBRANCH  32  33
ENDBRANCH  31  32
ENDBRANCH  30  31
ENDBRANCH  29  30
ENDBRANCH   3  29
TORSDOF 17
