REMARK SMILES CCCCCCNC(=O)Oc1cccc(-c2ccc(CC(=O)NCCCCNC(=O)c3ccc(-c4c5nc(c(-c6c(F)c(F)c(F)c(F)c6F)c6ccc([nH]6)c(-c6c(F)c(F)c(F)c(F)c6F)c6nc(c(-c7c(F)c(F)c(F)c(F)c7F)c7ccc4[nH]7)C=C6)C=C5)cc3)cc2F)c1
REMARK SMILES IDX 20 1 19 2 16 3 17 4 95 5 18 6 94 7 96 8 15 9 11 10 12 11
REMARK SMILES IDX 97 12 13 13 14 14 10 15 8 16 7 17 9 19 6 20 5 21 4 22 3 23
REMARK SMILES IDX 2 24 1 25 21 26 22 27 23 28 24 30 25 31 26 32 27 33 28 34
REMARK SMILES IDX 29 35 30 37 31 38 32 39 93 40 33 41 92 42 34 43 35 44 36 45
REMARK SMILES IDX 86 46 37 47 91 48 85 49 87 50 38 51 90 52 84 53 83 54 39 56
REMARK SMILES IDX 71 57 51 58 70 59 52 60 55 61 69 62 88 63 53 64 54 65 68 67
REMARK SMILES IDX 89 68 56 69 40 70 41 71 49 72 42 73 43 74 47 75 50 76 44 77
REMARK SMILES IDX 45 78 48 79 46 80 72 81 73 82 81 83 74 84 75 85 79 86 82 87
REMARK SMILES IDX 76 88 77 89 80 90 78 91 57 92 58 93 66 94 59 95 60 96 64 97
REMARK SMILES IDX 67 98 61 99 62 100 65 101 63 102
REMARK H PARENT 7 18 23 29 28 36 87 55 55 66
REMARK Flexibility Score: inf
ROOT
ATOM      1  C   UNL     1      -4.354  -9.037  10.223  1.00  0.00     0.135 C 
ENDROOT
BRANCH   1   2
ATOM      2  C   UNL     1      -4.405  -8.707   8.751  1.00  0.00    -0.036 A 
ATOM      3  C   UNL     1      -4.700  -8.017   6.013  1.00  0.00     0.018 A 
ATOM      4  C   UNL     1      -4.895  -9.337   6.455  1.00  0.00     0.012 A 
ATOM      5  C   UNL     1      -4.305  -7.071   6.971  1.00  0.00     0.131 A 
ATOM      6  C   UNL     1      -4.749  -9.680   7.805  1.00  0.00     0.005 A 
ATOM      7  C   UNL     1      -4.142  -7.406   8.313  1.00  0.00     0.044 A 
ATOM      8  F   UNL     1      -4.114  -5.788   6.624  1.00  0.00    -0.206 F 
BRANCH   3   9
ATOM      9  C   UNL     1      -4.909  -7.641   4.605  1.00  0.00    -0.012 A 
ATOM     10  C   UNL     1      -4.171  -6.489   2.596  1.00  0.00     0.133 A 
ATOM     11  C   UNL     1      -5.334  -6.853   1.924  1.00  0.00     0.047 A 
ATOM     12  C   UNL     1      -3.962  -6.862   3.924  1.00  0.00     0.056 A 
ATOM     13  C   UNL     1      -6.284  -7.629   2.582  1.00  0.00     0.004 A 
ATOM     14  C   UNL     1      -6.072  -8.021   3.909  1.00  0.00     0.009 A 
BRANCH  10  15
ATOM     15  O   UNL     1      -3.283  -5.629   1.932  1.00  0.00    -0.410 OA
BRANCH  15  16
ATOM     16  C   UNL     1      -1.935  -5.954   1.943  1.00  0.00     0.412 C 
ATOM     17  N   UNL     1      -1.139  -4.979   1.412  1.00  0.00    -0.321 N 
ATOM     18  H   UNL     1      -0.173  -5.168   1.384  1.00  0.00     0.167 HD
ATOM     19  O   UNL     1      -1.445  -6.998   2.368  1.00  0.00    -0.224 OA
BRANCH  17  20
ATOM     20  C   UNL     1      -1.565  -3.698   0.886  1.00  0.00     0.119 C 
BRANCH  20  21
ATOM     21  C   UNL     1      -0.952  -2.529   1.657  1.00  0.00     0.021 C 
BRANCH  21  22
ATOM     22  C   UNL     1       0.579  -2.445   1.597  1.00  0.00     0.002 C 
BRANCH  22  23
ATOM     23  C   UNL     1       1.183  -2.359   0.192  1.00  0.00    -0.000 C 
BRANCH  23  24
ATOM     24  C   UNL     1       0.708  -1.178  -0.658  1.00  0.00    -0.003 C 
ATOM     25  C   UNL     1       1.081   0.174  -0.071  1.00  0.00     0.004 C 
ENDBRANCH  23  24
ENDBRANCH  22  23
ENDBRANCH  21  22
ENDBRANCH  20  21
ENDBRANCH  17  20
ENDBRANCH  15  16
ENDBRANCH  10  15
ENDBRANCH   3   9
ENDBRANCH   1   2
BRANCH   1  26
ATOM     26  C   UNL     1      -5.658  -9.596  10.772  1.00  0.00     0.224 C 
ATOM     27  O   UNL     1      -5.740 -10.760  11.169  1.00  0.00    -0.275 OA
ATOM     28  N   UNL     1      -6.765  -8.800  10.869  1.00  0.00    -0.356 N 
ATOM     29  H   UNL     1      -7.545  -9.212  11.307  1.00  0.00     0.163 HD
BRANCH  28  30
ATOM     30  C   UNL     1      -6.953  -7.435  10.417  1.00  0.00     0.116 C 
BRANCH  30  31
ATOM     31  C   UNL     1      -7.701  -7.369   9.084  1.00  0.00     0.023 C 
BRANCH  31  32
ATOM     32  C   UNL     1      -9.166  -7.811   9.146  1.00  0.00     0.023 C 
BRANCH  32  33
ATOM     33  C   UNL     1     -10.040  -7.032  10.122  1.00  0.00     0.116 C 
BRANCH  33  34
ATOM     34  N   UNL     1     -10.097  -5.608   9.836  1.00  0.00    -0.352 N 
ATOM     35  C   UNL     1     -11.156  -4.743   9.972  1.00  0.00     0.251 C 
ATOM     36  H   UNL     1      -9.262  -5.209   9.499  1.00  0.00     0.163 HD
ATOM     37  O   UNL     1     -11.061  -3.583   9.584  1.00  0.00    -0.269 OA
BRANCH  35  38
ATOM     38  C   UNL     1     -12.429  -5.224  10.550  1.00  0.00     0.039 A 
ATOM     39  C   UNL     1     -13.624  -4.901   9.902  1.00  0.00     0.014 A 
ATOM     40  C   UNL     1     -12.447  -5.995  11.715  1.00  0.00     0.014 A 
ATOM     41  C   UNL     1     -14.833  -5.404  10.386  1.00  0.00     0.010 A 
ATOM     42  C   UNL     1     -13.644  -6.552  12.157  1.00  0.00     0.010 A 
ATOM     43  C   UNL     1     -14.849  -6.261  11.498  1.00  0.00    -0.014 A 
BRANCH  43  44
ATOM     44  C   UNL     1     -16.114  -6.862  11.989  1.00  0.00     0.031 A 
ATOM     45  C   UNL     1     -16.640  -6.506  13.350  1.00  0.00     0.074 A 
ATOM     46  C   UNL     1     -16.750  -7.782  11.240  1.00  0.00     0.049 A 
ATOM     47  N   UNL     1     -17.681  -6.980  13.987  1.00  0.00    -0.248 NA
ATOM     48  C   UNL     1     -15.876  -5.504  14.109  1.00  0.00     0.031 C 
ATOM     49  C   UNL     1     -16.310  -8.252   9.926  1.00  0.00     0.029 A 
ATOM     50  N   UNL     1     -17.895  -8.498  11.485  1.00  0.00    -0.354 N 
ATOM     51  C   UNL     1     -17.688  -6.346  15.222  1.00  0.00     0.074 A 
ATOM     52  C   UNL     1     -16.517  -5.496  15.268  1.00  0.00     0.031 C 
ATOM     53  C   UNL     1     -17.181  -9.170   9.475  1.00  0.00     0.029 A 
ATOM     54  C   UNL     1     -18.221  -9.374  10.479  1.00  0.00     0.049 A 
ATOM     55  H   UNL     1     -18.431  -8.394  12.304  1.00  0.00     0.167 HD
ATOM     56  C   UNL     1     -18.601  -6.445  16.219  1.00  0.00     0.037 A 
ATOM     57  C   UNL     1     -19.241 -10.248  10.380  1.00  0.00     0.037 A 
ATOM     58  C   UNL     1     -19.774  -7.276  16.163  1.00  0.00     0.049 A 
ATOM     59  C   UNL     1     -20.249 -10.331  11.492  1.00  0.00     0.074 A 
ATOM     60  C   UNL     1     -20.786  -7.407  17.098  1.00  0.00     0.029 A 
ATOM     61  N   UNL     1     -20.092  -8.121  15.110  1.00  0.00    -0.354 N 
ATOM     62  N   UNL     1     -20.282  -9.680  12.629  1.00  0.00    -0.248 NA
ATOM     63  C   UNL     1     -21.370 -11.262  11.302  1.00  0.00     0.031 C 
ATOM     64  C   UNL     1     -21.697  -8.359  16.627  1.00  0.00     0.029 A 
ATOM     65  C   UNL     1     -21.277  -8.788  15.378  1.00  0.00     0.049 A 
ATOM     66  H   UNL     1     -19.555  -8.231  14.292  1.00  0.00     0.167 HD
ATOM     67  C   UNL     1     -21.433 -10.102  13.280  1.00  0.00     0.074 A 
ATOM     68  C   UNL     1     -22.080 -11.057  12.403  1.00  0.00     0.031 C 
ATOM     69  C   UNL     1     -21.910  -9.733  14.493  1.00  0.00     0.037 A 
BRANCH  56  70
ATOM     70  C   UNL     1     -18.360  -5.625  17.453  1.00  0.00     0.064 A 
ATOM     71  C   UNL     1     -18.471  -4.226  17.438  1.00  0.00     0.173 A 
ATOM     72  C   UNL     1     -18.027  -6.242  18.668  1.00  0.00     0.173 A 
ATOM     73  F   UNL     1     -18.775  -3.585  16.299  1.00  0.00    -0.203 F 
ATOM     74  C   UNL     1     -18.218  -3.473  18.582  1.00  0.00     0.198 A 
ATOM     75  C   UNL     1     -17.806  -5.489  19.818  1.00  0.00     0.198 A 
ATOM     76  F   UNL     1     -17.914  -7.577  18.740  1.00  0.00    -0.203 F 
ATOM     77  F   UNL     1     -18.271  -2.135  18.527  1.00  0.00    -0.200 F 
ATOM     78  C   UNL     1     -17.891  -4.105  19.772  1.00  0.00     0.200 A 
ATOM     79  F   UNL     1     -17.501  -6.101  20.970  1.00  0.00    -0.200 F 
ATOM     80  F   UNL     1     -17.648  -3.380  20.872  1.00  0.00    -0.200 F 
ENDBRANCH  56  70
BRANCH  57  81
ATOM     81  C   UNL     1     -19.369 -11.091   9.165  1.00  0.00     0.064 A 
ATOM     82  C   UNL     1     -20.377 -10.847   8.223  1.00  0.00     0.173 A 
ATOM     83  C   UNL     1     -18.477 -12.143   8.911  1.00  0.00     0.173 A 
ATOM     84  F   UNL     1     -21.264  -9.864   8.433  1.00  0.00    -0.203 F 
ATOM     85  C   UNL     1     -20.497 -11.631   7.078  1.00  0.00     0.198 A 
ATOM     86  C   UNL     1     -18.582 -12.911   7.753  1.00  0.00     0.198 A 
ATOM     87  F   UNL     1     -17.491 -12.413   9.780  1.00  0.00    -0.203 F 
ATOM     88  F   UNL     1     -21.490 -11.398   6.210  1.00  0.00    -0.200 F 
ATOM     89  C   UNL     1     -19.595 -12.658   6.840  1.00  0.00     0.200 A 
ATOM     90  F   UNL     1     -17.701 -13.893   7.520  1.00  0.00    -0.200 F 
ATOM     91  F   UNL     1     -19.705 -13.406   5.734  1.00  0.00    -0.200 F 
ENDBRANCH  57  81
BRANCH  69  92
ATOM     92  C   UNL     1     -23.210 -10.339  14.934  1.00  0.00     0.064 A 
ATOM     93  C   UNL     1     -23.297 -11.679  15.338  1.00  0.00     0.173 A 
ATOM     94  C   UNL     1     -24.374  -9.558  14.990  1.00  0.00     0.173 A 
ATOM     95  F   UNL     1     -22.215 -12.471  15.288  1.00  0.00    -0.203 F 
ATOM     96  C   UNL     1     -24.508 -12.221  15.762  1.00  0.00     0.198 A 
ATOM     97  C   UNL     1     -25.577 -10.095  15.440  1.00  0.00     0.198 A 
ATOM     98  F   UNL     1     -24.342  -8.269  14.620  1.00  0.00    -0.203 F 
ATOM     99  F   UNL     1     -24.578 -13.515  16.103  1.00  0.00    -0.200 F 
ATOM    100  C   UNL     1     -25.644 -11.428  15.819  1.00  0.00     0.200 A 
ATOM    101  F   UNL     1     -26.671  -9.325  15.506  1.00  0.00    -0.200 F 
ATOM    102  F   UNL     1     -26.807 -11.949  16.234  1.00  0.00    -0.200 F 
ENDBRANCH  69  92
ENDBRANCH  43  44
ENDBRANCH  35  38
ENDBRANCH  33  34
ENDBRANCH  32  33
ENDBRANCH  31  32
ENDBRANCH  30  31
ENDBRANCH  28  30
ENDBRANCH   1  26
TORSDOF 20
