REMARK SMILES Cc1cc(C(=O)N[C@H]2C=C[C@H](C(=O)NCCCCNC(=O)c3ccc(-c4c5nc(c(-c6c(F)c(F)c(F)c(F)c6F)c6ccc([nH]6)c(-c6c(F)c(F)c(F)c(F)c6F)c6nc(c(-c7c(F)c(F)c(F)c(F)c7F)c7ccc4[nH]7)C=C6)C=C5)cc3)C2)ccc1F
REMARK SMILES IDX 16 1 15 2 14 3 12 4 13 5 11 7 8 8 9 9 85 10 10 11 7 12 5 13
REMARK SMILES IDX 6 14 4 16 1 17 2 18 3 19 88 20 87 21 89 22 86 23 17 24 18 25
REMARK SMILES IDX 19 26 20 27 21 29 22 30 23 31 84 32 24 33 83 34 25 35 26 36
REMARK SMILES IDX 27 37 77 38 28 39 82 40 76 41 78 42 29 43 81 44 75 45 74 46
REMARK SMILES IDX 30 48 62 49 42 50 61 51 43 52 46 53 60 54 79 55 44 56 45 57
REMARK SMILES IDX 59 59 80 60 47 61 31 62 32 63 40 64 33 65 34 66 38 67 41 68
REMARK SMILES IDX 35 69 36 70 39 71 37 72 63 73 64 74 72 75 65 76 66 77 70 78
REMARK SMILES IDX 73 79 67 80 68 81 71 82 69 83 48 84 49 85 57 86 50 87 51 88
REMARK SMILES IDX 55 89 58 90 52 91 53 92 56 93 54 94
REMARK H PARENT 14 6 7 15 19 28 78 47 46 58
REMARK Flexibility Score: inf
ROOT
ATOM      1  C   UNL     1       0.490   8.086   2.298  1.00  0.00     0.023 C 
ENDROOT
BRANCH   1   2
ATOM      2  C   UNL     1      -0.040   7.272   1.122  1.00  0.00     0.116 C 
BRANCH   2   3
ATOM      3  N   UNL     1       0.469   5.921   1.146  1.00  0.00    -0.356 N 
ATOM      4  C   UNL     1      -0.087   4.752   1.545  1.00  0.00     0.227 C 
ATOM      5  O   UNL     1       0.675   3.777   1.530  1.00  0.00    -0.274 OA
ATOM      6  H   UNL     1       1.390   5.833   0.811  1.00  0.00     0.163 HD
BRANCH   4   7
ATOM      7  C   UNL     1      -1.547   4.610   2.045  1.00  0.00     0.103 C 
ATOM      8  C   UNL     1      -2.546   3.346   0.261  1.00  0.00     0.106 C 
ATOM      9  C   UNL     1      -3.214   4.677   0.371  1.00  0.00    -0.006 C 
ATOM     10  C   UNL     1      -2.025   3.185   1.692  1.00  0.00     0.047 C 
ATOM     11  C   UNL     1      -2.639   5.387   1.352  1.00  0.00    -0.016 C 
BRANCH   8  12
ATOM     12  N   UNL     1      -3.453   2.321  -0.171  1.00  0.00    -0.346 N 
ATOM     13  C   UNL     1      -3.209   1.003  -0.482  1.00  0.00     0.251 C 
ATOM     14  O   UNL     1      -4.166   0.301  -0.811  1.00  0.00    -0.269 OA
ATOM     15  H   UNL     1      -4.392   2.603  -0.257  1.00  0.00     0.164 HD
BRANCH  13  16
ATOM     16  C   UNL     1      -1.858   0.374  -0.366  1.00  0.00     0.040 A 
ATOM     17  C   UNL     1       1.861   1.209  -0.429  1.00  0.00     0.047 C 
ATOM     18  C   UNL     1       0.584   0.428  -0.338  1.00  0.00    -0.015 A 
ATOM     19  C   UNL     1      -0.650   1.040  -0.604  1.00  0.00     0.020 A 
ATOM     20  C   UNL     1       0.598  -0.911   0.043  1.00  0.00     0.126 A 
ATOM     21  C   UNL     1      -0.586  -1.625   0.190  1.00  0.00     0.040 A 
ATOM     22  F   UNL     1       1.765  -1.529   0.271  1.00  0.00    -0.207 F 
ATOM     23  C   UNL     1      -1.812  -0.980   0.002  1.00  0.00     0.017 A 
ENDBRANCH  13  16
ENDBRANCH   8  12
ENDBRANCH   4   7
ENDBRANCH   2   3
ENDBRANCH   1   2
BRANCH   1  24
ATOM     24  C   UNL     1       1.980   8.447   2.216  1.00  0.00     0.023 C 
BRANCH  24  25
ATOM     25  C   UNL     1       2.365   9.242   0.974  1.00  0.00     0.116 C 
BRANCH  25  26
ATOM     26  N   UNL     1       1.591  10.472   0.842  1.00  0.00    -0.352 N 
ATOM     27  C   UNL     1       1.733  11.480  -0.084  1.00  0.00     0.251 C 
ATOM     28  H   UNL     1       0.873  10.597   1.503  1.00  0.00     0.163 HD
ATOM     29  O   UNL     1       1.185  12.562   0.074  1.00  0.00    -0.269 OA
BRANCH  27  30
ATOM     30  C   UNL     1       2.548  11.233  -1.282  1.00  0.00     0.039 A 
ATOM     31  C   UNL     1       3.486  12.178  -1.722  1.00  0.00     0.014 A 
ATOM     32  C   UNL     1       2.342  10.046  -1.977  1.00  0.00     0.014 A 
ATOM     33  C   UNL     1       4.276  11.898  -2.838  1.00  0.00     0.010 A 
ATOM     34  C   UNL     1       3.167   9.736  -3.026  1.00  0.00     0.010 A 
ATOM     35  C   UNL     1       4.115  10.668  -3.475  1.00  0.00    -0.014 A 
BRANCH  35  36
ATOM     36  C   UNL     1       4.848  10.220  -4.646  1.00  0.00     0.031 A 
ATOM     37  C   UNL     1       6.225   9.705  -4.558  1.00  0.00     0.074 A 
ATOM     38  C   UNL     1       4.091  10.009  -5.745  1.00  0.00     0.049 A 
ATOM     39  N   UNL     1       6.943   9.432  -5.591  1.00  0.00    -0.248 NA
ATOM     40  C   UNL     1       6.918   9.451  -3.300  1.00  0.00     0.031 C 
ATOM     41  C   UNL     1       4.342   9.122  -6.871  1.00  0.00     0.029 A 
ATOM     42  N   UNL     1       2.912  10.685  -6.093  1.00  0.00    -0.354 N 
ATOM     43  C   UNL     1       8.033   8.705  -5.172  1.00  0.00     0.074 A 
ATOM     44  C   UNL     1       8.021   8.821  -3.731  1.00  0.00     0.031 C 
ATOM     45  C   UNL     1       3.546   9.486  -7.891  1.00  0.00     0.029 A 
ATOM     46  C   UNL     1       2.920  10.737  -7.500  1.00  0.00     0.049 A 
ATOM     47  H   UNL     1       2.227  11.046  -5.484  1.00  0.00     0.167 HD
ATOM     48  C   UNL     1       8.728   7.983  -6.098  1.00  0.00     0.037 A 
ATOM     49  C   UNL     1       3.112  11.932  -8.135  1.00  0.00     0.037 A 
ATOM     50  C   UNL     1       8.157   8.170  -7.430  1.00  0.00     0.049 A 
ATOM     51  C   UNL     1       4.319  11.940  -9.038  1.00  0.00     0.074 A 
ATOM     52  C   UNL     1       7.280   7.418  -8.196  1.00  0.00     0.029 A 
ATOM     53  N   UNL     1       8.214   9.425  -8.021  1.00  0.00    -0.354 N 
ATOM     54  N   UNL     1       5.360  11.169  -8.885  1.00  0.00    -0.248 NA
ATOM     55  C   UNL     1       4.423  12.795 -10.209  1.00  0.00     0.031 C 
ATOM     56  C   UNL     1       6.823   8.227  -9.268  1.00  0.00     0.029 A 
ATOM     57  C   UNL     1       7.431   9.466  -9.157  1.00  0.00     0.049 A 
ATOM     58  H   UNL     1       8.740  10.182  -7.677  1.00  0.00     0.167 HD
ATOM     59  C   UNL     1       6.244  11.370  -9.920  1.00  0.00     0.074 A 
ATOM     60  C   UNL     1       5.600  12.396 -10.720  1.00  0.00     0.031 C 
ATOM     61  C   UNL     1       7.414  10.657  -9.999  1.00  0.00     0.037 A 
BRANCH  48  62
ATOM     62  C   UNL     1       9.767   6.924  -5.798  1.00  0.00     0.064 A 
ATOM     63  C   UNL     1       9.974   5.838  -6.683  1.00  0.00     0.173 A 
ATOM     64  C   UNL     1      10.591   6.916  -4.659  1.00  0.00     0.173 A 
ATOM     65  F   UNL     1       9.316   5.742  -7.845  1.00  0.00    -0.203 F 
ATOM     66  C   UNL     1      10.866   4.798  -6.410  1.00  0.00     0.198 A 
ATOM     67  C   UNL     1      11.455   5.852  -4.364  1.00  0.00     0.198 A 
ATOM     68  F   UNL     1      10.628   7.959  -3.821  1.00  0.00    -0.203 F 
ATOM     69  F   UNL     1      11.012   3.798  -7.291  1.00  0.00    -0.200 F 
ATOM     70  C   UNL     1      11.588   4.790  -5.237  1.00  0.00     0.200 A 
ATOM     71  F   UNL     1      12.164   5.868  -3.226  1.00  0.00    -0.200 F 
ATOM     72  F   UNL     1      12.421   3.779  -4.959  1.00  0.00    -0.200 F 
ENDBRANCH  48  62
BRANCH  49  73
ATOM     73  C   UNL     1       2.622  13.084  -7.320  1.00  0.00     0.064 A 
ATOM     74  C   UNL     1       1.242  13.132  -7.032  1.00  0.00     0.173 A 
ATOM     75  C   UNL     1       3.486  13.772  -6.456  1.00  0.00     0.173 A 
ATOM     76  F   UNL     1       0.371  12.488  -7.827  1.00  0.00    -0.203 F 
ATOM     77  C   UNL     1       0.769  13.697  -5.849  1.00  0.00     0.198 A 
ATOM     78  C   UNL     1       3.005  14.351  -5.279  1.00  0.00     0.198 A 
ATOM     79  F   UNL     1       4.808  13.773  -6.679  1.00  0.00    -0.203 F 
ATOM     80  F   UNL     1      -0.530  13.595  -5.534  1.00  0.00    -0.200 F 
ATOM     81  C   UNL     1       1.656  14.274  -4.957  1.00  0.00     0.200 A 
ATOM     82  F   UNL     1       3.861  14.906  -4.409  1.00  0.00    -0.200 F 
ATOM     83  F   UNL     1       1.219  14.723  -3.771  1.00  0.00    -0.200 F 
ENDBRANCH  49  73
BRANCH  61  84
ATOM     84  C   UNL     1       8.646  10.914 -10.867  1.00  0.00     0.064 A 
ATOM     85  C   UNL     1       8.836  12.014 -11.716  1.00  0.00     0.173 A 
ATOM     86  C   UNL     1       9.786  10.062 -10.761  1.00  0.00     0.173 A 
ATOM     87  F   UNL     1       7.896  12.940 -11.902  1.00  0.00    -0.203 F 
ATOM     88  C   UNL     1      10.041  12.243 -12.395  1.00  0.00     0.198 A 
ATOM     89  C   UNL     1      11.002  10.325 -11.392  1.00  0.00     0.198 A 
ATOM     90  F   UNL     1       9.784   8.946 -10.019  1.00  0.00    -0.203 F 
ATOM     91  F   UNL     1      10.143  13.304 -13.209  1.00  0.00    -0.200 F 
ATOM     92  C   UNL     1      11.129  11.416 -12.215  1.00  0.00     0.200 A 
ATOM     93  F   UNL     1      12.053   9.521 -11.171  1.00  0.00    -0.200 F 
ATOM     94  F   UNL     1      12.294  11.678 -12.820  1.00  0.00    -0.200 F 
ENDBRANCH  61  84
ENDBRANCH  35  36
ENDBRANCH  27  30
ENDBRANCH  25  26
ENDBRANCH  24  25
ENDBRANCH   1  24
TORSDOF 13
