REMARK SMILES Cc1ccc(N)c(S(=O)(=O)N[C@@H](C)C(=O)NCCCCNC(=O)c2ccc(-c3c4nc(c(-c5c(F)c(F)c(F)c(F)c5F)c5ccc([nH]5)c(-c5c(F)c(F)c(F)c(F)c5F)c5nc(c(-c6c(F)c(F)c(F)c(F)c6F)c6ccc3[nH]6)C=C5)C=C4)cc2)c1
REMARK SMILES IDX 17 1 16 2 14 3 15 4 12 6 13 7 11 8 8 10 9 11 10 12 7 13 1 14
REMARK SMILES IDX 2 15 3 16 87 17 4 18 5 19 6 20 18 23 19 24 20 25 21 26 22 27
REMARK SMILES IDX 23 29 24 30 25 31 86 32 26 33 85 34 27 35 28 36 29 37 79 38
REMARK SMILES IDX 30 39 84 40 78 41 80 42 31 43 83 44 77 45 76 46 32 48 64 49
REMARK SMILES IDX 44 50 63 51 45 52 48 53 62 54 81 55 46 56 47 57 61 59 82 60
REMARK SMILES IDX 49 61 33 62 34 63 42 64 35 65 36 66 40 67 43 68 37 69 38 70
REMARK SMILES IDX 41 71 39 72 65 73 66 74 74 75 67 76 68 77 72 78 75 79 69 80
REMARK SMILES IDX 70 81 73 82 71 83 50 84 51 85 59 86 52 87 53 88 57 89 60 90
REMARK SMILES IDX 54 91 55 92 58 93 56 94
REMARK H PARENT 16 5 11 9 6 21 6 22 21 28 80 47 48 58
REMARK Flexibility Score: inf
ROOT
ATOM      1  C   UNL     1       0.666   6.763   1.141  1.00  0.00     0.116 C 
ENDROOT
BRANCH   1   2
ATOM      2  N   UNL     1      -0.719   6.357   1.302  1.00  0.00    -0.355 N 
ATOM      3  C   UNL     1      -1.251   5.114   1.497  1.00  0.00     0.237 C 
ATOM      4  O   UNL     1      -2.475   5.027   1.626  1.00  0.00    -0.273 OA
ATOM      5  H   UNL     1      -1.375   7.090   1.264  1.00  0.00     0.163 HD
BRANCH   3   6
ATOM      6  C   UNL     1      -0.365   3.855   1.512  1.00  0.00     0.155 C 
ATOM      7  C   UNL     1       0.504   3.801   2.756  1.00  0.00     0.036 C 
BRANCH   6   8
ATOM      8  N   UNL     1       0.357   3.821   0.231  1.00  0.00    -0.199 NA
ATOM      9  H   UNL     1      -0.366   3.785  -0.487  1.00  0.00     0.142 HD
BRANCH   8  10
ATOM     10  S   UNL     1       1.478   2.669  -0.211  1.00  0.00     0.243 S 
ATOM     11  O   UNL     1       2.521   2.679   0.793  1.00  0.00    -0.207 OA
ATOM     12  O   UNL     1       1.767   2.953  -1.599  1.00  0.00    -0.207 OA
BRANCH  10  13
ATOM     13  C   UNL     1       0.643   1.106  -0.149  1.00  0.00     0.105 A 
ATOM     14  C   UNL     1      -2.955  -0.150  -0.281  1.00  0.00     0.044 C 
ATOM     15  C   UNL     1      -1.458  -0.124  -0.195  1.00  0.00    -0.050 A 
ATOM     16  C   UNL     1      -0.742  -1.306  -0.006  1.00  0.00     0.005 A 
ATOM     17  C   UNL     1      -0.752   1.076  -0.313  1.00  0.00     0.027 A 
ATOM     18  C   UNL     1       0.652  -1.280   0.105  1.00  0.00     0.027 A 
ATOM     19  C   UNL     1       1.367  -0.074   0.086  1.00  0.00     0.052 A 
BRANCH  19  20
ATOM     20  N   UNL     1       2.754  -0.135   0.154  1.00  0.00    -0.398 N 
ATOM     21  H   UNL     1       3.202  -0.996   0.322  1.00  0.00     0.156 HD
ATOM     22  H   UNL     1       3.289   0.683   0.034  1.00  0.00     0.156 HD
ENDBRANCH  19  20
ENDBRANCH  10  13
ENDBRANCH   8  10
ENDBRANCH   6   8
ENDBRANCH   3   6
ENDBRANCH   1   2
BRANCH   1  23
ATOM     23  C   UNL     1       0.913   7.483  -0.182  1.00  0.00     0.023 C 
BRANCH  23  24
ATOM     24  C   UNL     1       0.163   8.805  -0.358  1.00  0.00     0.023 C 
BRANCH  24  25
ATOM     25  C   UNL     1       0.320   9.812   0.776  1.00  0.00     0.116 C 
BRANCH  25  26
ATOM     26  N   UNL     1       1.703  10.175   1.040  1.00  0.00    -0.352 N 
ATOM     27  C   UNL     1       2.241  11.412   1.298  1.00  0.00     0.251 C 
ATOM     28  H   UNL     1       2.344   9.428   1.034  1.00  0.00     0.163 HD
ATOM     29  O   UNL     1       3.456  11.548   1.406  1.00  0.00    -0.269 OA
BRANCH  27  30
ATOM     30  C   UNL     1       1.359  12.594   1.403  1.00  0.00     0.039 A 
ATOM     31  C   UNL     1       1.703  13.752   0.700  1.00  0.00     0.014 A 
ATOM     32  C   UNL     1       0.196  12.560   2.177  1.00  0.00     0.014 A 
ATOM     33  C   UNL     1       0.842  14.852   0.712  1.00  0.00     0.010 A 
ATOM     34  C   UNL     1      -0.692  13.633   2.137  1.00  0.00     0.010 A 
ATOM     35  C   UNL     1      -0.380  14.786   1.400  1.00  0.00    -0.014 A 
BRANCH  35  36
ATOM     36  C   UNL     1      -1.351  15.906   1.351  1.00  0.00     0.031 A 
ATOM     37  C   UNL     1      -1.684  16.674   2.598  1.00  0.00     0.074 A 
ATOM     38  C   UNL     1      -1.993  16.180   0.199  1.00  0.00     0.049 A 
ATOM     39  N   UNL     1      -2.566  17.625   2.775  1.00  0.00    -0.248 NA
ATOM     40  C   UNL     1      -0.946  16.304   3.815  1.00  0.00     0.031 C 
ATOM     41  C   UNL     1      -1.796  15.473  -1.067  1.00  0.00     0.029 A 
ATOM     42  N   UNL     1      -2.952  17.119  -0.089  1.00  0.00    -0.354 N 
ATOM     43  C   UNL     1      -2.504  17.950   4.123  1.00  0.00     0.074 A 
ATOM     44  C   UNL     1      -1.530  17.066   4.727  1.00  0.00     0.031 C 
ATOM     45  C   UNL     1      -2.597  16.012  -2.000  1.00  0.00     0.029 A 
ATOM     46  C   UNL     1      -3.386  17.079  -1.392  1.00  0.00     0.049 A 
ATOM     47  H   UNL     1      -3.297  17.759   0.574  1.00  0.00     0.167 HD
ATOM     48  C   UNL     1      -3.184  18.911   4.792  1.00  0.00     0.037 A 
ATOM     49  C   UNL     1      -4.319  17.817  -2.022  1.00  0.00     0.037 A 
ATOM     50  C   UNL     1      -4.128  19.811   4.183  1.00  0.00     0.049 A 
ATOM     51  C   UNL     1      -5.046  18.892  -1.262  1.00  0.00     0.074 A 
ATOM     52  C   UNL     1      -4.816  20.863   4.762  1.00  0.00     0.029 A 
ATOM     53  N   UNL     1      -4.518  19.762   2.853  1.00  0.00    -0.354 N 
ATOM     54  N   UNL     1      -4.932  19.234  -0.003  1.00  0.00    -0.248 NA
ATOM     55  C   UNL     1      -6.028  19.686  -2.014  1.00  0.00     0.031 C 
ATOM     56  C   UNL     1      -5.647  21.430   3.790  1.00  0.00     0.029 A 
ATOM     57  C   UNL     1      -5.449  20.756   2.596  1.00  0.00     0.049 A 
ATOM     58  H   UNL     1      -4.182  19.117   2.189  1.00  0.00     0.167 HD
ATOM     59  C   UNL     1      -5.806  20.296   0.184  1.00  0.00     0.074 A 
ATOM     60  C   UNL     1      -6.436  20.549  -1.095  1.00  0.00     0.031 C 
ATOM     61  C   UNL     1      -6.062  20.998   1.315  1.00  0.00     0.037 A 
BRANCH  48  62
ATOM     62  C   UNL     1      -2.926  19.040   6.265  1.00  0.00     0.064 A 
ATOM     63  C   UNL     1      -1.713  19.544   6.756  1.00  0.00     0.173 A 
ATOM     64  C   UNL     1      -3.911  18.675   7.194  1.00  0.00     0.173 A 
ATOM     65  F   UNL     1      -0.735  19.895   5.908  1.00  0.00    -0.203 F 
ATOM     66  C   UNL     1      -1.483  19.649   8.126  1.00  0.00     0.198 A 
ATOM     67  C   UNL     1      -3.688  18.807   8.563  1.00  0.00     0.198 A 
ATOM     68  F   UNL     1      -5.091  18.191   6.777  1.00  0.00    -0.203 F 
ATOM     69  F   UNL     1      -0.298  20.085   8.573  1.00  0.00    -0.200 F 
ATOM     70  C   UNL     1      -2.472  19.285   9.027  1.00  0.00     0.200 A 
ATOM     71  F   UNL     1      -4.649  18.465   9.433  1.00  0.00    -0.200 F 
ATOM     72  F   UNL     1      -2.250  19.387  10.345  1.00  0.00    -0.200 F 
ENDBRANCH  48  62
BRANCH  49  73
ATOM     73  C   UNL     1      -4.593  17.583  -3.462  1.00  0.00     0.064 A 
ATOM     74  C   UNL     1      -4.168  18.504  -4.430  1.00  0.00     0.173 A 
ATOM     75  C   UNL     1      -5.267  16.435  -3.901  1.00  0.00     0.173 A 
ATOM     76  F   UNL     1      -3.537  19.626  -4.055  1.00  0.00    -0.203 F 
ATOM     77  C   UNL     1      -4.420  18.291  -5.784  1.00  0.00     0.198 A 
ATOM     78  C   UNL     1      -5.498  16.212  -5.257  1.00  0.00     0.198 A 
ATOM     79  F   UNL     1      -5.688  15.523  -3.013  1.00  0.00    -0.203 F 
ATOM     80  F   UNL     1      -4.034  19.203  -6.686  1.00  0.00    -0.200 F 
ATOM     81  C   UNL     1      -5.079  17.142  -6.196  1.00  0.00     0.200 A 
ATOM     82  F   UNL     1      -6.124  15.096  -5.653  1.00  0.00    -0.200 F 
ATOM     83  F   UNL     1      -5.314  16.934  -7.499  1.00  0.00    -0.200 F 
ENDBRANCH  49  73
BRANCH  61  84
ATOM     84  C   UNL     1      -7.045  22.125   1.215  1.00  0.00     0.064 A 
ATOM     85  C   UNL     1      -8.423  21.889   1.107  1.00  0.00     0.173 A 
ATOM     86  C   UNL     1      -6.607  23.457   1.269  1.00  0.00     0.173 A 
ATOM     87  F   UNL     1      -8.889  20.633   1.034  1.00  0.00    -0.203 F 
ATOM     88  C   UNL     1      -9.326  22.947   1.037  1.00  0.00     0.198 A 
ATOM     89  C   UNL     1      -7.514  24.512   1.225  1.00  0.00     0.198 A 
ATOM     90  F   UNL     1      -5.298  23.734   1.377  1.00  0.00    -0.203 F 
ATOM     91  F   UNL     1     -10.635  22.700   0.895  1.00  0.00    -0.200 F 
ATOM     92  C   UNL     1      -8.871  24.256   1.103  1.00  0.00     0.200 A 
ATOM     93  F   UNL     1      -7.074  25.775   1.298  1.00  0.00    -0.200 F 
ATOM     94  F   UNL     1      -9.742  25.273   1.043  1.00  0.00    -0.200 F 
ENDBRANCH  61  84
ENDBRANCH  35  36
ENDBRANCH  27  30
ENDBRANCH  25  26
ENDBRANCH  24  25
ENDBRANCH  23  24
ENDBRANCH   1  23
TORSDOF 15
