REMARK SMILES O=C(CSc1ccc(Cl)cc1)Nc1ccc(C(=O)NCCCCNC(=O)c2ccc(-c3c4nc(c(-c5c(F)c(F)c(F)c(F)c5F)c5ccc([nH]5)c(-c5c(F)c(F)c(F)c(F)c5F)c5nc(c(-c6c(F)c(F)c(F)c(F)c6F)c6ccc3[nH]6)C=C5)C=C4)cc2)cc1
REMARK SMILES IDX 20 1 19 2 17 3 18 4 16 6 13 7 14 8 91 9 15 10 90 11 12 12
REMARK SMILES IDX 1 13 2 14 3 16 4 17 5 18 6 19 11 20 7 21 10 22 8 23 9 24
REMARK SMILES IDX 21 25 22 26 23 27 24 28 25 29 26 31 27 32 28 33 89 34 29 35
REMARK SMILES IDX 88 36 30 37 31 38 32 39 82 40 33 41 87 42 81 43 83 44 34 45
REMARK SMILES IDX 86 46 80 47 79 48 35 50 67 51 47 52 66 53 48 54 51 55 65 56
REMARK SMILES IDX 84 57 49 58 50 59 64 61 85 62 52 63 36 64 37 65 45 66 38 67
REMARK SMILES IDX 39 68 43 69 46 70 40 71 41 72 44 73 42 74 68 75 69 76 77 77
REMARK SMILES IDX 70 78 71 79 75 80 78 81 72 82 73 83 76 84 74 85 53 86 54 87
REMARK SMILES IDX 62 88 55 89 56 90 60 91 63 92 57 93 58 94 61 95 59 96
REMARK H PARENT 19 5 12 15 24 30 83 49 51 60
REMARK Flexibility Score: inf
ROOT
ATOM      1  C   UNL     1      -1.496   4.926   2.859  1.00  0.00     0.116 C 
ENDROOT
BRANCH   1   2
ATOM      2  N   UNL     1      -0.537   5.937   2.456  1.00  0.00    -0.352 N 
ATOM      3  C   UNL     1       0.711   5.848   1.891  1.00  0.00     0.251 C 
ATOM      4  O   UNL     1       1.298   6.901   1.641  1.00  0.00    -0.269 OA
ATOM      5  H   UNL     1      -0.837   6.860   2.618  1.00  0.00     0.163 HD
BRANCH   3   6
ATOM      6  C   UNL     1       1.351   4.555   1.511  1.00  0.00     0.039 A 
ATOM      7  C   UNL     1       2.490   2.170   0.523  1.00  0.00     0.041 A 
ATOM      8  C   UNL     1       2.868   3.401  -0.013  1.00  0.00     0.027 A 
ATOM      9  C   UNL     1       1.629   2.146   1.618  1.00  0.00     0.027 A 
ATOM     10  C   UNL     1       2.283   4.582   0.462  1.00  0.00     0.016 A 
ATOM     11  C   UNL     1       1.096   3.332   2.131  1.00  0.00     0.016 A 
BRANCH   7  12
ATOM     12  N   UNL     1       3.004   0.998  -0.059  1.00  0.00    -0.325 N 
ATOM     13  O   UNL     1       1.340  -0.513   0.522  1.00  0.00    -0.274 OA
ATOM     14  C   UNL     1       2.425  -0.258  -0.000  1.00  0.00     0.234 C 
ATOM     15  H   UNL     1       3.852   1.078  -0.552  1.00  0.00     0.169 HD
BRANCH  14  16
ATOM     16  C   UNL     1       3.262  -1.386  -0.585  1.00  0.00     0.175 C 
BRANCH  16  17
ATOM     17  S   UNL     1       4.390  -0.866  -1.921  1.00  0.00    -0.116 SA
BRANCH  17  18
ATOM     18  C   UNL     1       3.218  -0.508  -3.216  1.00  0.00     0.008 A 
ATOM     19  C   UNL     1       3.073   0.811  -3.657  1.00  0.00     0.016 A 
ATOM     20  C   UNL     1       2.490  -1.526  -3.840  1.00  0.00     0.016 A 
ATOM     21  C   UNL     1       2.195   1.115  -4.700  1.00  0.00     0.021 A 
ATOM     22  C   UNL     1       1.616  -1.224  -4.890  1.00  0.00     0.021 A 
ATOM     23  C   UNL     1       1.472   0.096  -5.314  1.00  0.00     0.041 A 
ATOM     24  Cl  UNL     1       0.409   0.467  -6.614  1.00  0.00    -0.084 Cl
ENDBRANCH  17  18
ENDBRANCH  16  17
ENDBRANCH  14  16
ENDBRANCH   7  12
ENDBRANCH   3   6
ENDBRANCH   1   2
BRANCH   1  25
ATOM     25  C   UNL     1      -1.370   4.636   4.357  1.00  0.00     0.023 C 
BRANCH  25  26
ATOM     26  C   UNL     1      -2.050   5.676   5.253  1.00  0.00     0.023 C 
BRANCH  26  27
ATOM     27  C   UNL     1      -3.566   5.751   5.108  1.00  0.00     0.116 C 
BRANCH  27  28
ATOM     28  N   UNL     1      -4.234   4.490   5.389  1.00  0.00    -0.352 N 
ATOM     29  C   UNL     1      -5.471   4.277   5.951  1.00  0.00     0.251 C 
ATOM     30  H   UNL     1      -3.733   3.679   5.144  1.00  0.00     0.163 HD
ATOM     31  O   UNL     1      -5.843   3.144   6.219  1.00  0.00    -0.269 OA
BRANCH  29  32
ATOM     32  C   UNL     1      -6.330   5.436   6.272  1.00  0.00     0.039 A 
ATOM     33  C   UNL     1      -6.910   5.504   7.541  1.00  0.00     0.014 A 
ATOM     34  C   UNL     1      -6.539   6.458   5.343  1.00  0.00     0.014 A 
ATOM     35  C   UNL     1      -7.642   6.635   7.903  1.00  0.00     0.010 A 
ATOM     36  C   UNL     1      -7.212   7.614   5.728  1.00  0.00     0.010 A 
ATOM     37  C   UNL     1      -7.764   7.715   7.014  1.00  0.00    -0.014 A 
BRANCH  37  38
ATOM     38  C   UNL     1      -8.444   8.968   7.428  1.00  0.00     0.031 A 
ATOM     39  C   UNL     1      -9.712   9.404   6.753  1.00  0.00     0.074 A 
ATOM     40  C   UNL     1      -7.879   9.742   8.374  1.00  0.00     0.049 A 
ATOM     41  N   UNL     1     -10.427  10.483   6.953  1.00  0.00    -0.248 NA
ATOM     42  C   UNL     1     -10.235   8.527   5.694  1.00  0.00     0.031 C 
ATOM     43  C   UNL     1      -6.617   9.455   9.059  1.00  0.00     0.029 A 
ATOM     44  N   UNL     1      -8.287  10.934   8.918  1.00  0.00    -0.354 N 
ATOM     45  C   UNL     1     -11.473  10.418   6.044  1.00  0.00     0.074 A 
ATOM     46  C   UNL     1     -11.273   9.222   5.253  1.00  0.00     0.031 C 
ATOM     47  C   UNL     1      -6.367  10.428   9.949  1.00  0.00     0.029 A 
ATOM     48  C   UNL     1      -7.432  11.424   9.874  1.00  0.00     0.049 A 
ATOM     49  H   UNL     1      -9.115  11.394   8.649  1.00  0.00     0.167 HD
ATOM     50  C   UNL     1     -12.520  11.265   5.899  1.00  0.00     0.037 A 
ATOM     51  C   UNL     1      -7.497  12.552  10.606  1.00  0.00     0.037 A 
ATOM     52  C   UNL     1     -12.726  12.442   6.702  1.00  0.00     0.049 A 
ATOM     53  C   UNL     1      -8.673  13.474  10.427  1.00  0.00     0.074 A 
ATOM     54  C   UNL     1     -13.789  13.329   6.678  1.00  0.00     0.029 A 
ATOM     55  N   UNL     1     -11.847  12.899   7.674  1.00  0.00    -0.354 N 
ATOM     56  N   UNL     1      -9.699  13.360   9.620  1.00  0.00    -0.248 NA
ATOM     57  C   UNL     1      -8.701  14.679  11.268  1.00  0.00     0.031 C 
ATOM     58  C   UNL     1     -13.530  14.348   7.601  1.00  0.00     0.029 A 
ATOM     59  C   UNL     1     -12.332  14.069   8.238  1.00  0.00     0.049 A 
ATOM     60  H   UNL     1     -11.004  12.458   7.925  1.00  0.00     0.167 HD
ATOM     61  C   UNL     1     -10.506  14.461   9.871  1.00  0.00     0.074 A 
ATOM     62  C   UNL     1      -9.860  15.220  10.921  1.00  0.00     0.031 C 
ATOM     63  C   UNL     1     -11.676  14.813   9.283  1.00  0.00     0.037 A 
BRANCH  50  64
ATOM     64  C   UNL     1     -13.529  10.947   4.834  1.00  0.00     0.064 A 
ATOM     65  C   UNL     1     -14.402   9.854   4.952  1.00  0.00     0.173 A 
ATOM     66  C   UNL     1     -13.654  11.767   3.702  1.00  0.00     0.173 A 
ATOM     67  F   UNL     1     -14.316   9.033   6.009  1.00  0.00    -0.203 F 
ATOM     68  C   UNL     1     -15.343   9.578   3.963  1.00  0.00     0.198 A 
ATOM     69  C   UNL     1     -14.616  11.505   2.730  1.00  0.00     0.198 A 
ATOM     70  F   UNL     1     -12.848  12.827   3.542  1.00  0.00    -0.203 F 
ATOM     71  F   UNL     1     -16.134   8.502   4.075  1.00  0.00    -0.200 F 
ATOM     72  C   UNL     1     -15.455  10.408   2.858  1.00  0.00     0.200 A 
ATOM     73  F   UNL     1     -14.732  12.315   1.669  1.00  0.00    -0.200 F 
ATOM     74  F   UNL     1     -16.367  10.146   1.912  1.00  0.00    -0.200 F 
ENDBRANCH  50  64
BRANCH  51  75
ATOM     75  C   UNL     1      -6.432  12.860  11.595  1.00  0.00     0.064 A 
ATOM     76  C   UNL     1      -6.694  12.817  12.972  1.00  0.00     0.173 A 
ATOM     77  C   UNL     1      -5.136  13.210  11.189  1.00  0.00     0.173 A 
ATOM     78  F   UNL     1      -7.924  12.507  13.409  1.00  0.00    -0.203 F 
ATOM     79  C   UNL     1      -5.708  13.134  13.903  1.00  0.00     0.198 A 
ATOM     80  C   UNL     1      -4.143  13.499  12.122  1.00  0.00     0.198 A 
ATOM     81  F   UNL     1      -4.833  13.260   9.883  1.00  0.00    -0.203 F 
ATOM     82  F   UNL     1      -5.999  13.132  15.211  1.00  0.00    -0.200 F 
ATOM     83  C   UNL     1      -4.432  13.470  13.478  1.00  0.00     0.200 A 
ATOM     84  F   UNL     1      -2.907  13.809  11.707  1.00  0.00    -0.200 F 
ATOM     85  F   UNL     1      -3.483  13.773  14.374  1.00  0.00    -0.200 F 
ENDBRANCH  51  75
BRANCH  63  86
ATOM     86  C   UNL     1     -12.342  16.063   9.780  1.00  0.00     0.064 A 
ATOM     87  C   UNL     1     -11.815  17.335   9.509  1.00  0.00     0.173 A 
ATOM     88  C   UNL     1     -13.534  15.989  10.516  1.00  0.00     0.173 A 
ATOM     89  F   UNL     1     -10.669  17.458   8.823  1.00  0.00    -0.203 F 
ATOM     90  C   UNL     1     -12.441  18.485   9.982  1.00  0.00     0.198 A 
ATOM     91  C   UNL     1     -14.175  17.142  10.960  1.00  0.00     0.198 A 
ATOM     92  F   UNL     1     -14.083  14.798  10.796  1.00  0.00    -0.203 F 
ATOM     93  F   UNL     1     -11.891  19.686   9.757  1.00  0.00    -0.200 F 
ATOM     94  C   UNL     1     -13.623  18.388  10.701  1.00  0.00     0.200 A 
ATOM     95  F   UNL     1     -15.324  17.048  11.644  1.00  0.00    -0.200 F 
ATOM     96  F   UNL     1     -14.226  19.496  11.154  1.00  0.00    -0.200 F 
ENDBRANCH  63  86
ENDBRANCH  37  38
ENDBRANCH  29  32
ENDBRANCH  27  28
ENDBRANCH  26  27
ENDBRANCH  25  26
ENDBRANCH   1  25
TORSDOF 15
