REMARK SMILES Cc1ccccc1C#CC(=O)NCCCCNC(=O)c1ccc(-c2c3nc(c(-c4c(F)c(F)c(F)c(F)c4F)c4ccc([nH]4)c(-c4c(F)c(F)c(F)c(F)c4F)c4nc(c(-c5c(F)c(F)c(F)c(F)c5F)c5ccc2[nH]5)C=C4)C=C3)cc1
REMARK SMILES IDX 15 1 14 2 13 3 12 4 10 5 11 6 9 8 8 9 7 10 1 11 2 12 3 13
REMARK SMILES IDX 4 14 6 15 5 16 16 17 17 18 18 19 19 21 20 22 21 23 82 24
REMARK SMILES IDX 22 25 81 26 23 27 24 28 25 29 75 30 26 31 80 32 74 33 76 34
REMARK SMILES IDX 27 35 79 36 73 37 72 38 28 40 60 41 40 42 59 43 41 44 44 45
REMARK SMILES IDX 58 46 77 47 42 48 43 49 57 51 78 52 45 53 29 54 30 55 38 56
REMARK SMILES IDX 31 57 32 58 36 59 39 60 33 61 34 62 37 63 35 64 61 65 62 66
REMARK SMILES IDX 70 67 63 68 64 69 68 70 71 71 65 72 66 73 69 74 67 75 46 76
REMARK SMILES IDX 47 77 55 78 48 79 49 80 53 81 56 82 50 83 51 84 54 85 52 86
REMARK H PARENT 12 7 17 20 76 39 44 50
REMARK Flexibility Score: inf
ROOT
ATOM      1  C   UNL     1      -7.126   1.537   0.513  1.00  0.00     0.023 C 
ENDROOT
BRANCH   1   2
ATOM      2  C   UNL     1      -5.987   0.520   0.457  1.00  0.00     0.023 C 
BRANCH   2   3
ATOM      3  C   UNL     1      -4.608   1.121   0.192  1.00  0.00     0.117 C 
BRANCH   3   4
ATOM      4  N   UNL     1      -4.197   2.027   1.249  1.00  0.00    -0.345 N 
ATOM      5  C   UNL     1      -3.109   1.901   2.070  1.00  0.00     0.296 C 
ATOM      6  O   UNL     1      -2.864   2.741   2.927  1.00  0.00    -0.260 OA
ATOM      7  H   UNL     1      -4.763   2.819   1.391  1.00  0.00     0.164 HD
BRANCH   5   8
ATOM      8  C   UNL     1      -2.235   0.770   1.903  1.00  0.00     0.000 C 
ATOM      9  C   UNL     1      -1.525  -0.179   1.699  1.00  0.00    -0.056 C 
BRANCH   9  10
ATOM     10  C   UNL     1      -0.708  -1.315   1.400  1.00  0.00     0.028 A 
ATOM     11  C   UNL     1       0.932   0.112   0.061  1.00  0.00     0.045 C 
ATOM     12  C   UNL     1       0.464  -1.199   0.632  1.00  0.00    -0.035 A 
ATOM     13  C   UNL     1       1.191  -2.362   0.332  1.00  0.00     0.005 A 
ATOM     14  C   UNL     1       0.774  -3.609   0.803  1.00  0.00     0.000 A 
ATOM     15  C   UNL     1      -1.120  -2.568   1.870  1.00  0.00     0.017 A 
ATOM     16  C   UNL     1      -0.380  -3.712   1.574  1.00  0.00     0.001 A 
ENDBRANCH   9  10
ENDBRANCH   5   8
ENDBRANCH   3   4
ENDBRANCH   2   3
ENDBRANCH   1   2
BRANCH   1  17
ATOM     17  C   UNL     1      -7.280   2.406  -0.727  1.00  0.00     0.116 C 
BRANCH  17  18
ATOM     18  N   UNL     1      -7.651   1.657  -1.921  1.00  0.00    -0.352 N 
ATOM     19  C   UNL     1      -8.705   1.856  -2.786  1.00  0.00     0.251 C 
ATOM     20  H   UNL     1      -7.064   0.899  -2.141  1.00  0.00     0.163 HD
ATOM     21  O   UNL     1      -8.933   1.048  -3.681  1.00  0.00    -0.269 OA
BRANCH  19  22
ATOM     22  C   UNL     1      -9.592   3.026  -2.602  1.00  0.00     0.039 A 
ATOM     23  C   UNL     1      -9.057   4.282  -2.319  1.00  0.00     0.014 A 
ATOM     24  C   UNL     1     -10.979   2.853  -2.654  1.00  0.00     0.014 A 
ATOM     25  C   UNL     1      -9.892   5.298  -1.873  1.00  0.00     0.010 A 
ATOM     26  C   UNL     1     -11.824   3.917  -2.318  1.00  0.00     0.010 A 
ATOM     27  C   UNL     1     -11.288   5.132  -1.864  1.00  0.00    -0.014 A 
BRANCH  27  28
ATOM     28  C   UNL     1     -12.148   6.244  -1.372  1.00  0.00     0.031 A 
ATOM     29  C   UNL     1     -13.030   6.069  -0.161  1.00  0.00     0.074 A 
ATOM     30  C   UNL     1     -12.067   7.449  -1.975  1.00  0.00     0.049 A 
ATOM     31  N   UNL     1     -13.806   6.947   0.426  1.00  0.00    -0.248 NA
ATOM     32  C   UNL     1     -13.047   4.743   0.479  1.00  0.00     0.031 C 
ATOM     33  C   UNL     1     -11.235   7.750  -3.142  1.00  0.00     0.029 A 
ATOM     34  N   UNL     1     -12.659   8.651  -1.675  1.00  0.00    -0.354 N 
ATOM     35  C   UNL     1     -14.396   6.285   1.496  1.00  0.00     0.074 A 
ATOM     36  C   UNL     1     -13.930   4.917   1.454  1.00  0.00     0.031 C 
ATOM     37  C   UNL     1     -11.315   9.060  -3.415  1.00  0.00     0.029 A 
ATOM     38  C   UNL     1     -12.264   9.679  -2.498  1.00  0.00     0.049 A 
ATOM     39  H   UNL     1     -13.304   8.765  -0.940  1.00  0.00     0.167 HD
ATOM     40  C   UNL     1     -15.229   6.781   2.441  1.00  0.00     0.037 A 
ATOM     41  C   UNL     1     -12.635  10.973  -2.524  1.00  0.00     0.037 A 
ATOM     42  C   UNL     1     -15.678   8.148   2.493  1.00  0.00     0.049 A 
ATOM     43  C   UNL     1     -13.636  11.466  -1.513  1.00  0.00     0.074 A 
ATOM     44  C   UNL     1     -16.529   8.738   3.412  1.00  0.00     0.029 A 
ATOM     45  N   UNL     1     -15.309   9.139   1.596  1.00  0.00    -0.354 N 
ATOM     46  N   UNL     1     -14.171  10.829  -0.502  1.00  0.00    -0.248 NA
ATOM     47  C   UNL     1     -14.088  12.858  -1.651  1.00  0.00     0.031 C 
ATOM     48  C   UNL     1     -16.716  10.071   3.044  1.00  0.00     0.029 A 
ATOM     49  C   UNL     1     -15.931  10.331   1.933  1.00  0.00     0.049 A 
ATOM     50  H   UNL     1     -14.698   9.015   0.835  1.00  0.00     0.167 HD
ATOM     51  C   UNL     1     -14.988  11.751   0.139  1.00  0.00     0.074 A 
ATOM     52  C   UNL     1     -14.868  12.995  -0.589  1.00  0.00     0.031 C 
ATOM     53  C   UNL     1     -15.771  11.576   1.229  1.00  0.00     0.037 A 
BRANCH  40  54
ATOM     54  C   UNL     1     -15.705   5.865   3.533  1.00  0.00     0.064 A 
ATOM     55  C   UNL     1     -14.848   5.460   4.566  1.00  0.00     0.173 A 
ATOM     56  C   UNL     1     -17.061   5.513   3.629  1.00  0.00     0.173 A 
ATOM     57  F   UNL     1     -13.542   5.765   4.518  1.00  0.00    -0.203 F 
ATOM     58  C   UNL     1     -15.330   4.744   5.658  1.00  0.00     0.198 A 
ATOM     59  C   UNL     1     -17.545   4.822   4.737  1.00  0.00     0.198 A 
ATOM     60  F   UNL     1     -17.927   5.886   2.674  1.00  0.00    -0.203 F 
ATOM     61  F   UNL     1     -14.490   4.360   6.629  1.00  0.00    -0.200 F 
ATOM     62  C   UNL     1     -16.680   4.439   5.751  1.00  0.00     0.200 A 
ATOM     63  F   UNL     1     -18.854   4.549   4.836  1.00  0.00    -0.200 F 
ATOM     64  F   UNL     1     -17.149   3.784   6.822  1.00  0.00    -0.200 F 
ENDBRANCH  40  54
BRANCH  41  65
ATOM     65  C   UNL     1     -12.063  11.900  -3.538  1.00  0.00     0.064 A 
ATOM     66  C   UNL     1     -11.285  13.001  -3.150  1.00  0.00     0.173 A 
ATOM     67  C   UNL     1     -12.304  11.728  -4.910  1.00  0.00     0.173 A 
ATOM     68  F   UNL     1     -11.038  13.221  -1.850  1.00  0.00    -0.203 F 
ATOM     69  C   UNL     1     -10.799  13.908  -4.090  1.00  0.00     0.198 A 
ATOM     70  C   UNL     1     -11.784  12.612  -5.851  1.00  0.00     0.198 A 
ATOM     71  F   UNL     1     -13.039  10.691  -5.339  1.00  0.00    -0.203 F 
ATOM     72  F   UNL     1     -10.115  14.986  -3.684  1.00  0.00    -0.200 F 
ATOM     73  C   UNL     1     -11.044  13.710  -5.440  1.00  0.00     0.200 A 
ATOM     74  F   UNL     1     -12.005  12.405  -7.156  1.00  0.00    -0.200 F 
ATOM     75  F   UNL     1     -10.577  14.583  -6.343  1.00  0.00    -0.200 F 
ENDBRANCH  41  65
BRANCH  53  76
ATOM     76  C   UNL     1     -16.525  12.763   1.755  1.00  0.00     0.064 A 
ATOM     77  C   UNL     1     -17.629  13.295   1.075  1.00  0.00     0.173 A 
ATOM     78  C   UNL     1     -16.198  13.308   3.007  1.00  0.00     0.173 A 
ATOM     79  F   UNL     1     -17.974  12.819  -0.130  1.00  0.00    -0.203 F 
ATOM     80  C   UNL     1     -18.375  14.334   1.627  1.00  0.00     0.198 A 
ATOM     81  C   UNL     1     -16.967  14.321   3.571  1.00  0.00     0.198 A 
ATOM     82  F   UNL     1     -15.155  12.828   3.702  1.00  0.00    -0.203 F 
ATOM     83  F   UNL     1     -19.409  14.847   0.946  1.00  0.00    -0.200 F 
ATOM     84  C   UNL     1     -18.052  14.835   2.879  1.00  0.00     0.200 A 
ATOM     85  F   UNL     1     -16.666  14.789   4.790  1.00  0.00    -0.200 F 
ATOM     86  F   UNL     1     -18.791  15.813   3.421  1.00  0.00    -0.200 F 
ENDBRANCH  53  76
ENDBRANCH  27  28
ENDBRANCH  19  22
ENDBRANCH  17  18
ENDBRANCH   1  17
TORSDOF 12
