REMARK SMILES C[C@@H]1CN(S(=O)(=O)c2ccc(Cl)c(C(=O)NCCCCNC(=O)c3ccc(-c4c5nc(c(-c6c(F)c(F)c(F)c(F)c6F)c6ccc([nH]6)c(-c6c(F)c(F)c(F)c(F)c6F)c6nc(c(-c7c(F)c(F)c(F)c(F)c7F)c7ccc4[nH]7)C=C6)C=C5)cc3)c2Cl)C[C@H]1C
REMARK SMILES IDX 18 1 17 2 16 3 14 4 15 5 13 7 8 8 9 9 87 10 10 11 88 12
REMARK SMILES IDX 11 13 12 14 5 15 6 16 7 17 4 18 1 19 2 20 3 21 90 22 89 23
REMARK SMILES IDX 91 24 19 25 20 26 21 27 22 28 23 30 24 31 25 32 86 33 26 34
REMARK SMILES IDX 85 35 27 36 28 37 29 38 79 39 30 40 84 41 78 42 80 43 31 44
REMARK SMILES IDX 83 45 77 46 76 47 32 49 64 50 44 51 63 52 45 53 48 54 62 55
REMARK SMILES IDX 81 56 46 57 47 58 61 60 82 61 49 62 33 63 34 64 42 65 35 66
REMARK SMILES IDX 36 67 40 68 43 69 37 70 38 71 41 72 39 73 65 74 66 75 74 76
REMARK SMILES IDX 67 77 68 78 72 79 75 80 69 81 70 82 73 83 71 84 50 85 51 86
REMARK SMILES IDX 59 87 52 88 53 89 57 90 60 91 54 92 55 93 58 94 56 95
REMARK H PARENT 16 6 21 29 80 48 48 59
REMARK Flexibility Score: inf
ROOT
ATOM      1  C   UNL     1       1.490   8.800   6.749  1.00  0.00     0.023 C 
ENDROOT
BRANCH   1   2
ATOM      2  C   UNL     1       2.558   7.708   6.586  1.00  0.00     0.116 C 
BRANCH   2   3
ATOM      3  N   UNL     1       2.186   6.559   7.384  1.00  0.00    -0.352 N 
ATOM      4  C   UNL     1       1.369   5.486   7.137  1.00  0.00     0.254 C 
ATOM      5  O   UNL     1       0.879   4.947   8.133  1.00  0.00    -0.269 OA
ATOM      6  H   UNL     1       2.601   6.545   8.277  1.00  0.00     0.163 HD
BRANCH   4   7
ATOM      7  C   UNL     1       1.053   4.878   5.808  1.00  0.00     0.078 A 
ATOM      8  C   UNL     1       0.458   2.749   4.729  1.00  0.00     0.102 A 
ATOM      9  C   UNL     1      -0.192   3.461   3.717  1.00  0.00     0.025 A 
ATOM     10  C   UNL     1       1.140   3.449   5.740  1.00  0.00     0.075 A 
ATOM     11  C   UNL     1      -0.144   4.838   3.686  1.00  0.00     0.023 A 
ATOM     12  Cl  UNL     1       2.203   2.605   6.830  1.00  0.00    -0.082 Cl
ATOM     13  C   UNL     1       0.406   5.549   4.753  1.00  0.00     0.055 A 
ATOM     14  Cl  UNL     1       0.047   7.219   4.631  1.00  0.00    -0.083 Cl
BRANCH   8  15
ATOM     15  S   UNL     1       0.077   1.006   4.779  1.00  0.00     0.244 S 
ATOM     16  O   UNL     1      -1.253   0.861   4.216  1.00  0.00    -0.207 OA
ATOM     17  O   UNL     1       0.354   0.465   6.090  1.00  0.00    -0.207 OA
BRANCH  15  18
ATOM     18  N   UNL     1       1.151   0.273   3.671  1.00  0.00    -0.197 NA
ATOM     19  C   UNL     1       1.018  -0.369  -0.018  1.00  0.00     0.009 C 
ATOM     20  C   UNL     1       0.610  -0.462   1.444  1.00  0.00     0.005 C 
ATOM     21  C   UNL     1       1.115   0.725   2.254  1.00  0.00     0.106 C 
ATOM     22  C   UNL     1       1.215  -1.641   2.198  1.00  0.00     0.005 C 
ATOM     23  C   UNL     1       1.018  -1.225   3.659  1.00  0.00     0.106 C 
ATOM     24  C   UNL     1       0.542  -2.966   1.868  1.00  0.00     0.009 C 
ENDBRANCH  15  18
ENDBRANCH   8  15
ENDBRANCH   4   7
ENDBRANCH   2   3
ENDBRANCH   1   2
BRANCH   1  25
ATOM     25  C   UNL     1       1.671   9.781   7.899  1.00  0.00     0.023 C 
BRANCH  25  26
ATOM     26  C   UNL     1       2.856  10.716   7.748  1.00  0.00     0.116 C 
BRANCH  26  27
ATOM     27  N   UNL     1       2.872  11.456   6.494  1.00  0.00    -0.352 N 
ATOM     28  C   UNL     1       3.421  12.686   6.233  1.00  0.00     0.251 C 
ATOM     29  H   UNL     1       2.430  11.015   5.732  1.00  0.00     0.163 HD
ATOM     30  O   UNL     1       3.297  13.204   5.129  1.00  0.00    -0.269 OA
BRANCH  28  31
ATOM     31  C   UNL     1       4.122  13.402   7.316  1.00  0.00     0.039 A 
ATOM     32  C   UNL     1       3.819  14.747   7.534  1.00  0.00     0.014 A 
ATOM     33  C   UNL     1       5.035  12.738   8.139  1.00  0.00     0.014 A 
ATOM     34  C   UNL     1       4.393  15.413   8.616  1.00  0.00     0.010 A 
ATOM     35  C   UNL     1       5.533  13.373   9.267  1.00  0.00     0.010 A 
ATOM     36  C   UNL     1       5.232  14.721   9.504  1.00  0.00    -0.014 A 
BRANCH  36  37
ATOM     37  C   UNL     1       5.845  15.406  10.665  1.00  0.00     0.031 A 
ATOM     38  C   UNL     1       7.338  15.570  10.724  1.00  0.00     0.074 A 
ATOM     39  C   UNL     1       5.068  15.826  11.679  1.00  0.00     0.049 A 
ATOM     40  N   UNL     1       8.075  16.106  11.663  1.00  0.00    -0.248 NA
ATOM     41  C   UNL     1       8.109  15.027   9.594  1.00  0.00     0.031 C 
ATOM     42  C   UNL     1       3.615  15.659  11.760  1.00  0.00     0.029 A 
ATOM     43  N   UNL     1       5.393  16.479  12.840  1.00  0.00    -0.354 N 
ATOM     44  C   UNL     1       9.389  15.947  11.244  1.00  0.00     0.074 A 
ATOM     45  C   UNL     1       9.355  15.210  10.001  1.00  0.00     0.031 C 
ATOM     46  C   UNL     1       3.172  16.224  12.895  1.00  0.00     0.029 A 
ATOM     47  C   UNL     1       4.309  16.770  13.630  1.00  0.00     0.049 A 
ATOM     48  H   UNL     1       6.317  16.716  13.085  1.00  0.00     0.167 HD
ATOM     49  C   UNL     1      10.521  16.403  11.828  1.00  0.00     0.037 A 
ATOM     50  C   UNL     1       4.245  17.417  14.808  1.00  0.00     0.037 A 
ATOM     51  C   UNL     1      10.544  17.169  13.044  1.00  0.00     0.049 A 
ATOM     52  C   UNL     1       5.513  17.959  15.411  1.00  0.00     0.074 A 
ATOM     53  C   UNL     1      11.630  17.725  13.697  1.00  0.00     0.029 A 
ATOM     54  N   UNL     1       9.419  17.495  13.788  1.00  0.00    -0.354 N 
ATOM     55  N   UNL     1       6.744  17.866  14.971  1.00  0.00    -0.248 NA
ATOM     56  C   UNL     1       5.378  18.713  16.664  1.00  0.00     0.031 C 
ATOM     57  C   UNL     1      11.164  18.365  14.851  1.00  0.00     0.029 A 
ATOM     58  C   UNL     1       9.784  18.243  14.894  1.00  0.00     0.049 A 
ATOM     59  H   UNL     1       8.497  17.233  13.562  1.00  0.00     0.167 HD
ATOM     60  C   UNL     1       7.526  18.576  15.871  1.00  0.00     0.074 A 
ATOM     61  C   UNL     1       6.626  19.105  16.876  1.00  0.00     0.031 C 
ATOM     62  C   UNL     1       8.867  18.775  15.868  1.00  0.00     0.037 A 
BRANCH  49  63
ATOM     63  C   UNL     1      11.822  16.095  11.146  1.00  0.00     0.064 A 
ATOM     64  C   UNL     1      12.170  16.694   9.925  1.00  0.00     0.173 A 
ATOM     65  C   UNL     1      12.735  15.200  11.721  1.00  0.00     0.173 A 
ATOM     66  F   UNL     1      11.323  17.543   9.324  1.00  0.00    -0.203 F 
ATOM     67  C   UNL     1      13.370  16.385   9.291  1.00  0.00     0.198 A 
ATOM     68  C   UNL     1      13.949  14.917  11.100  1.00  0.00     0.198 A 
ATOM     69  F   UNL     1      12.452  14.600  12.887  1.00  0.00    -0.203 F 
ATOM     70  F   UNL     1      13.655  16.927   8.099  1.00  0.00    -0.200 F 
ATOM     71  C   UNL     1      14.261  15.502   9.882  1.00  0.00     0.200 A 
ATOM     72  F   UNL     1      14.814  14.070  11.675  1.00  0.00    -0.200 F 
ATOM     73  F   UNL     1      15.418  15.208   9.272  1.00  0.00    -0.200 F 
ENDBRANCH  49  63
BRANCH  50  74
ATOM     74  C   UNL     1       2.931  17.643  15.461  1.00  0.00     0.064 A 
ATOM     75  C   UNL     1       2.365  18.925  15.510  1.00  0.00     0.173 A 
ATOM     76  C   UNL     1       2.216  16.591  16.051  1.00  0.00     0.173 A 
ATOM     77  F   UNL     1       3.020  19.965  14.974  1.00  0.00    -0.203 F 
ATOM     78  C   UNL     1       1.146  19.151  16.146  1.00  0.00     0.198 A 
ATOM     79  C   UNL     1       0.985  16.813  16.664  1.00  0.00     0.198 A 
ATOM     80  F   UNL     1       2.711  15.345  16.023  1.00  0.00    -0.203 F 
ATOM     81  F   UNL     1       0.651  20.394  16.218  1.00  0.00    -0.200 F 
ATOM     82  C   UNL     1       0.455  18.094  16.719  1.00  0.00     0.200 A 
ATOM     83  F   UNL     1       0.313  15.788  17.205  1.00  0.00    -0.200 F 
ATOM     84  F   UNL     1      -0.718  18.311  17.329  1.00  0.00    -0.200 F 
ENDBRANCH  50  74
BRANCH  62  85
ATOM     85  C   UNL     1       9.431  19.641  16.955  1.00  0.00     0.064 A 
ATOM     86  C   UNL     1       9.519  19.196  18.282  1.00  0.00     0.173 A 
ATOM     87  C   UNL     1       9.916  20.922  16.655  1.00  0.00     0.173 A 
ATOM     88  F   UNL     1       9.056  17.983  18.619  1.00  0.00    -0.203 F 
ATOM     89  C   UNL     1      10.045  20.016  19.276  1.00  0.00     0.198 A 
ATOM     90  C   UNL     1      10.468  21.729  17.646  1.00  0.00     0.198 A 
ATOM     91  F   UNL     1       9.862  21.390  15.399  1.00  0.00    -0.203 F 
ATOM     92  F   UNL     1      10.072  19.591  20.546  1.00  0.00    -0.200 F 
ATOM     93  C   UNL     1      10.523  21.279  18.956  1.00  0.00     0.200 A 
ATOM     94  F   UNL     1      10.941  22.943  17.334  1.00  0.00    -0.200 F 
ATOM     95  F   UNL     1      11.031  22.066  19.915  1.00  0.00    -0.200 F 
ENDBRANCH  62  85
ENDBRANCH  36  37
ENDBRANCH  28  31
ENDBRANCH  26  27
ENDBRANCH  25  26
ENDBRANCH   1  25
TORSDOF 13
