REMARK SMILES CC(C)c1noc(C[N@@H+]2[C@@H](C(=O)NCCCCNC(=O)c3ccc(-c4c5nc(c(-c6c(F)c(F)c(F)c(F)c6F)c6ccc([nH]6)c(-c6c(F)c(F)c(F)c(F)c6F)c6nc(c(-c7c(F)c(F)c(F)c(F)c7F)c7ccc4[nH]7)C=C6)C=C5)cc3)C[C@H]3CCCC[C@@H]32)n1
REMARK SMILES IDX 15 1 14 2 13 3 11 4 12 5 10 7 9 8 90 9 84 11 85 12 89 13
REMARK SMILES IDX 86 14 88 15 87 16 8 17 7 18 4 19 5 20 91 21 6 22 2 23 1 24
REMARK SMILES IDX 3 25 16 26 17 27 18 28 19 29 20 31 21 32 22 33 83 34 23 35
REMARK SMILES IDX 82 36 24 37 25 38 26 39 76 40 27 41 81 42 75 43 77 44 28 45
REMARK SMILES IDX 80 46 74 47 73 48 29 50 61 51 41 52 60 53 42 54 45 55 59 56
REMARK SMILES IDX 78 57 43 58 44 59 58 61 79 62 46 63 30 64 31 65 39 66 32 67
REMARK SMILES IDX 33 68 37 69 40 70 34 71 35 72 38 73 36 74 62 75 63 76 71 77
REMARK SMILES IDX 64 78 65 79 69 80 72 81 66 82 67 83 70 84 68 85 47 86 48 87
REMARK SMILES IDX 56 88 49 89 50 90 54 91 57 92 51 93 52 94 55 95 53 96
REMARK H PARENT 13 6 9 10 18 30 77 49 45 60
REMARK Flexibility Score: inf
ROOT
ATOM      1  C   UNL     1      -8.044   1.328  -0.331  1.00  0.00     0.023 C 
ENDROOT
BRANCH   1   2
ATOM      2  C   UNL     1      -7.193   1.048   0.903  1.00  0.00     0.116 C 
BRANCH   2   3
ATOM      3  N   UNL     1      -7.609  -0.174   1.568  1.00  0.00    -0.351 N 
ATOM      4  C   UNL     1      -6.891  -1.326   1.770  1.00  0.00     0.278 C 
ATOM      5  O   UNL     1      -7.453  -2.265   2.333  1.00  0.00    -0.268 OA
ATOM      6  H   UNL     1      -8.528  -0.176   1.921  1.00  0.00     0.163 HD
BRANCH   4   7
ATOM      7  C   UNL     1      -5.414  -1.330   1.327  1.00  0.00     0.275 C 
ATOM      8  N   UNL     1      -4.849  -2.709   1.301  1.00  0.00    -0.314 N 
ATOM      9  C   UNL     1      -4.062  -2.835   2.537  1.00  0.00     0.188 C 
ATOM     10  H   UNL     1      -5.565  -3.435   1.307  1.00  0.00     0.349 HD
ATOM     11  C   UNL     1      -4.597  -0.521   2.353  1.00  0.00     0.085 C 
ATOM     12  C   UNL     1      -3.462  -1.448   2.736  1.00  0.00     0.054 C 
ATOM     13  C   UNL     1      -2.999  -3.923   2.693  1.00  0.00     0.065 C 
ATOM     14  C   UNL     1      -2.886  -1.299   4.133  1.00  0.00     0.010 C 
ATOM     15  C   UNL     1      -2.245  -3.767   4.024  1.00  0.00     0.006 C 
ATOM     16  C   UNL     1      -1.773  -2.335   4.308  1.00  0.00     0.001 C 
BRANCH   8  17
ATOM     17  C   UNL     1      -4.181  -3.039   0.023  1.00  0.00     0.364 C 
BRANCH  17  18
ATOM     18  C   UNL     1      -2.932  -2.285  -0.309  1.00  0.00     0.281 A 
ATOM     19  C   UNL     1      -1.001  -1.471  -0.377  1.00  0.00     0.174 A 
ATOM     20  N   UNL     1      -1.781  -0.443  -0.743  1.00  0.00    -0.062 NA
ATOM     21  N   UNL     1      -1.677  -2.645  -0.158  1.00  0.00    -0.191 NA
ATOM     22  O   UNL     1      -3.068  -0.985  -0.708  1.00  0.00    -0.333 OA
BRANCH  19  23
ATOM     23  C   UNL     1       0.481  -1.380  -0.182  1.00  0.00     0.055 C 
ATOM     24  C   UNL     1       1.020   0.051  -0.236  1.00  0.00     0.016 C 
ATOM     25  C   UNL     1       0.911  -2.020   1.145  1.00  0.00     0.016 C 
ENDBRANCH  19  23
ENDBRANCH  17  18
ENDBRANCH   8  17
ENDBRANCH   4   7
ENDBRANCH   2   3
ENDBRANCH   1   2
BRANCH   1  26
ATOM     26  C   UNL     1      -9.503   1.667  -0.023  1.00  0.00     0.023 C 
BRANCH  26  27
ATOM     27  C   UNL     1      -9.703   2.851   0.918  1.00  0.00     0.116 C 
BRANCH  27  28
ATOM     28  N   UNL     1      -9.148   4.090   0.394  1.00  0.00    -0.352 N 
ATOM     29  C   UNL     1      -9.739   5.324   0.279  1.00  0.00     0.251 C 
ATOM     30  H   UNL     1      -8.217   4.035   0.077  1.00  0.00     0.163 HD
ATOM     31  O   UNL     1      -9.171   6.228  -0.328  1.00  0.00    -0.269 OA
BRANCH  29  32
ATOM     32  C   UNL     1     -11.079   5.553   0.859  1.00  0.00     0.039 A 
ATOM     33  C   UNL     1     -12.047   6.198   0.086  1.00  0.00     0.014 A 
ATOM     34  C   UNL     1     -11.387   5.114   2.149  1.00  0.00     0.014 A 
ATOM     35  C   UNL     1     -13.345   6.338   0.579  1.00  0.00     0.010 A 
ATOM     36  C   UNL     1     -12.699   5.182   2.607  1.00  0.00     0.010 A 
ATOM     37  C   UNL     1     -13.693   5.792   1.826  1.00  0.00    -0.014 A 
BRANCH  37  38
ATOM     38  C   UNL     1     -15.092   5.835   2.322  1.00  0.00     0.031 A 
ATOM     39  C   UNL     1     -15.427   6.582   3.582  1.00  0.00     0.074 A 
ATOM     40  C   UNL     1     -16.047   5.135   1.679  1.00  0.00     0.049 A 
ATOM     41  N   UNL     1     -16.570   6.669   4.215  1.00  0.00    -0.248 NA
ATOM     42  C   UNL     1     -14.325   7.305   4.234  1.00  0.00     0.031 C 
ATOM     43  C   UNL     1     -15.838   4.327   0.477  1.00  0.00     0.029 A 
ATOM     44  N   UNL     1     -17.383   4.976   1.957  1.00  0.00    -0.354 N 
ATOM     45  C   UNL     1     -16.320   7.437   5.344  1.00  0.00     0.074 A 
ATOM     46  C   UNL     1     -14.907   7.748   5.338  1.00  0.00     0.031 C 
ATOM     47  C   UNL     1     -17.003   3.770   0.114  1.00  0.00     0.029 A 
ATOM     48  C   UNL     1     -18.032   4.144   1.079  1.00  0.00     0.049 A 
ATOM     49  H   UNL     1     -17.832   5.417   2.714  1.00  0.00     0.167 HD
ATOM     50  C   UNL     1     -17.194   7.861   6.288  1.00  0.00     0.037 A 
ATOM     51  C   UNL     1     -19.309   3.714   1.063  1.00  0.00     0.037 A 
ATOM     52  C   UNL     1     -18.603   7.565   6.277  1.00  0.00     0.049 A 
ATOM     53  C   UNL     1     -20.259   4.191   2.128  1.00  0.00     0.074 A 
ATOM     54  C   UNL     1     -19.585   8.015   7.142  1.00  0.00     0.029 A 
ATOM     55  N   UNL     1     -19.229   6.732   5.361  1.00  0.00    -0.354 N 
ATOM     56  N   UNL     1     -20.030   4.991   3.142  1.00  0.00    -0.248 NA
ATOM     57  C   UNL     1     -21.645   3.711   2.044  1.00  0.00     0.031 C 
ATOM     58  C   UNL     1     -20.792   7.403   6.790  1.00  0.00     0.029 A 
ATOM     59  C   UNL     1     -20.577   6.623   5.665  1.00  0.00     0.049 A 
ATOM     60  H   UNL     1     -18.782   6.284   4.607  1.00  0.00     0.167 HD
ATOM     61  C   UNL     1     -21.244   5.126   3.803  1.00  0.00     0.074 A 
ATOM     62  C   UNL     1     -22.211   4.342   3.063  1.00  0.00     0.031 C 
ATOM     63  C   UNL     1     -21.530   5.835   4.923  1.00  0.00     0.037 A 
BRANCH  50  64
ATOM     64  C   UNL     1     -16.649   8.683   7.422  1.00  0.00     0.064 A 
ATOM     65  C   UNL     1     -16.157   9.983   7.227  1.00  0.00     0.173 A 
ATOM     66  C   UNL     1     -16.647   8.173   8.730  1.00  0.00     0.173 A 
ATOM     67  F   UNL     1     -16.128  10.516   5.996  1.00  0.00    -0.203 F 
ATOM     68  C   UNL     1     -15.652  10.726   8.290  1.00  0.00     0.198 A 
ATOM     69  C   UNL     1     -16.173   8.933   9.796  1.00  0.00     0.198 A 
ATOM     70  F   UNL     1     -17.111   6.939   8.976  1.00  0.00    -0.203 F 
ATOM     71  F   UNL     1     -15.135  11.943   8.068  1.00  0.00    -0.200 F 
ATOM     72  C   UNL     1     -15.666  10.204   9.574  1.00  0.00     0.200 A 
ATOM     73  F   UNL     1     -16.203   8.433  11.039  1.00  0.00    -0.200 F 
ATOM     74  F   UNL     1     -15.185  10.924  10.597  1.00  0.00    -0.200 F 
ENDBRANCH  50  64
BRANCH  51  75
ATOM     75  C   UNL     1     -19.761   2.781  -0.003  1.00  0.00     0.064 A 
ATOM     76  C   UNL     1     -20.665   3.195  -0.991  1.00  0.00     0.173 A 
ATOM     77  C   UNL     1     -19.293   1.460  -0.060  1.00  0.00     0.173 A 
ATOM     78  F   UNL     1     -21.157   4.442  -0.969  1.00  0.00    -0.203 F 
ATOM     79  C   UNL     1     -21.098   2.317  -1.984  1.00  0.00     0.198 A 
ATOM     80  C   UNL     1     -19.702   0.593  -1.071  1.00  0.00     0.198 A 
ATOM     81  F   UNL     1     -18.422   1.015   0.858  1.00  0.00    -0.203 F 
ATOM     82  F   UNL     1     -21.997   2.725  -2.890  1.00  0.00    -0.200 F 
ATOM     83  C   UNL     1     -20.610   1.020  -2.028  1.00  0.00     0.200 A 
ATOM     84  F   UNL     1     -19.214  -0.654  -1.119  1.00  0.00    -0.200 F 
ATOM     85  F   UNL     1     -21.020   0.180  -2.987  1.00  0.00    -0.200 F 
ENDBRANCH  51  75
BRANCH  63  86
ATOM     86  C   UNL     1     -22.951   5.814   5.410  1.00  0.00     0.064 A 
ATOM     87  C   UNL     1     -23.518   4.665   5.982  1.00  0.00     0.173 A 
ATOM     88  C   UNL     1     -23.741   6.972   5.345  1.00  0.00     0.173 A 
ATOM     89  F   UNL     1     -22.811   3.528   6.054  1.00  0.00    -0.203 F 
ATOM     90  C   UNL     1     -24.830   4.670   6.448  1.00  0.00     0.198 A 
ATOM     91  C   UNL     1     -25.041   6.983   5.843  1.00  0.00     0.198 A 
ATOM     92  F   UNL     1     -23.247   8.100   4.813  1.00  0.00    -0.203 F 
ATOM     93  F   UNL     1     -25.366   3.548   6.947  1.00  0.00    -0.200 F 
ATOM     94  C   UNL     1     -25.587   5.831   6.387  1.00  0.00     0.200 A 
ATOM     95  F   UNL     1     -25.765   8.110   5.798  1.00  0.00    -0.200 F 
ATOM     96  F   UNL     1     -26.846   5.837   6.847  1.00  0.00    -0.200 F 
ENDBRANCH  63  86
ENDBRANCH  37  38
ENDBRANCH  29  32
ENDBRANCH  27  28
ENDBRANCH  26  27
ENDBRANCH   1  26
TORSDOF 14
