REMARK SMILES COc1cc(/C=C2\SC(=S)N(CCC(=O)Nc3ccc(C(=O)NCCCCNC(=O)c4ccc(-c5c6nc(c(-c7c(F)c(F)c(F)c(F)c7F)c7ccc([nH]7)c(-c7c(F)c(F)c(F)c(F)c7F)c7nc(c(-c8c(F)c(F)c(F)c(F)c8F)c8ccc5[nH]8)C=C7)C=C6)cc4)cc3)C2=O)ccc1O
REMARK SMILES IDX 21 1 22 2 23 3 20 5 17 6 18 7 95 8 19 9 94 10 16 11 14 12
REMARK SMILES IDX 15 13 13 15 12 16 11 17 6 18 7 19 8 20 96 21 9 22 97 23
REMARK SMILES IDX 10 24 5 25 3 26 4 27 100 28 99 29 98 30 2 31 1 32 101 33
REMARK SMILES IDX 24 35 25 36 26 37 27 38 28 39 29 40 30 42 31 43 32 44 93 45
REMARK SMILES IDX 33 46 92 47 34 48 35 49 36 50 86 51 37 52 91 53 85 54 87 55
REMARK SMILES IDX 38 56 90 57 84 58 83 59 39 61 71 62 51 63 70 64 52 65 55 66
REMARK SMILES IDX 69 67 88 68 53 69 54 70 68 72 89 73 56 74 40 75 41 76 49 77
REMARK SMILES IDX 42 78 43 79 47 80 50 81 44 82 45 83 48 84 46 85 72 86 73 87
REMARK SMILES IDX 81 88 74 89 75 90 79 91 82 92 76 93 77 94 80 95 78 96 57 97
REMARK SMILES IDX 58 98 66 99 59 100 60 101 64 102 67 103 61 104 62 105 65 106
REMARK SMILES IDX 63 107
REMARK H PARENT 23 4 16 14 101 34 28 41 87 60 55 71
REMARK Flexibility Score: inf
ROOT
ATOM      1  C   UNL     1       2.237   1.234   5.680  1.00  0.00     0.251 C 
ATOM      2  O   UNL     1       2.841   0.939   4.651  1.00  0.00    -0.269 OA
ATOM      3  N   UNL     1       1.922   0.235   6.578  1.00  0.00    -0.352 N 
ATOM      4  H   UNL     1       2.242  -0.661   6.326  1.00  0.00     0.163 HD
ENDROOT
BRANCH   1   5
ATOM      5  C   UNL     1       1.813   2.647   5.888  1.00  0.00     0.039 A 
ATOM      6  C   UNL     1       0.624   5.190   6.218  1.00  0.00     0.041 A 
ATOM      7  C   UNL     1       0.840   4.661   4.939  1.00  0.00     0.027 A 
ATOM      8  C   UNL     1       1.180   4.515   7.301  1.00  0.00     0.027 A 
ATOM      9  C   UNL     1       1.428   3.399   4.775  1.00  0.00     0.016 A 
ATOM     10  C   UNL     1       1.786   3.262   7.136  1.00  0.00     0.016 A 
BRANCH   6  11
ATOM     11  N   UNL     1      -0.167   6.349   6.293  1.00  0.00    -0.326 N 
ATOM     12  C   UNL     1      -0.865   6.976   7.282  1.00  0.00     0.226 C 
ATOM     13  O   UNL     1      -1.469   8.012   6.981  1.00  0.00    -0.275 OA
ATOM     14  H   UNL     1      -0.232   6.818   5.430  1.00  0.00     0.169 HD
BRANCH  12  15
ATOM     15  C   UNL     1      -0.973   6.452   8.694  1.00  0.00     0.122 C 
BRANCH  15  16
ATOM     16  C   UNL     1      -2.106   5.452   8.947  1.00  0.00     0.137 C 
BRANCH  16  17
ATOM     17  N   UNL     1      -2.084   4.199   8.184  1.00  0.00    -0.292 N 
ATOM     18  C   UNL     1      -2.147   2.723   4.920  1.00  0.00     0.029 C 
ATOM     19  C   UNL     1      -2.300   2.862   6.247  1.00  0.00     0.081 C 
ATOM     20  S   UNL     1      -2.099   1.721   7.497  1.00  0.00    -0.054 SA
ATOM     21  C   UNL     1      -2.522   4.203   6.863  1.00  0.00     0.266 C 
ATOM     22  C   UNL     1      -1.789   2.959   8.708  1.00  0.00     0.148 C 
ATOM     23  O   UNL     1      -3.009   5.145   6.267  1.00  0.00    -0.268 OA
ATOM     24  S   UNL     1      -1.210   2.578  10.226  1.00  0.00    -0.052 S 
BRANCH  18  25
ATOM     25  C   UNL     1      -1.722   1.554   4.116  1.00  0.00    -0.020 A 
ATOM     26  C   UNL     1      -0.557   0.754   2.092  1.00  0.00     0.161 A 
ATOM     27  C   UNL     1      -1.002   1.793   2.928  1.00  0.00     0.058 A 
ATOM     28  C   UNL     1      -0.894  -0.553   2.432  1.00  0.00     0.157 A 
ATOM     29  C   UNL     1      -1.598  -0.817   3.606  1.00  0.00     0.051 A 
ATOM     30  C   UNL     1      -2.023   0.229   4.434  1.00  0.00     0.012 A 
BRANCH  26  31
ATOM     31  O   UNL     1       0.126   1.184   0.989  1.00  0.00    -0.493 OA
ATOM     32  C   UNL     1       1.082   0.317   0.388  1.00  0.00     0.278 C 
ENDBRANCH  26  31
BRANCH  28  33
ATOM     33  O   UNL     1      -0.650  -1.634   1.634  1.00  0.00    -0.504 OA
ATOM     34  H   UNL     1      -0.182  -1.526   0.830  1.00  0.00     0.293 HD
ENDBRANCH  28  33
ENDBRANCH  18  25
ENDBRANCH  16  17
ENDBRANCH  15  16
ENDBRANCH  12  15
ENDBRANCH   6  11
ENDBRANCH   1   5
BRANCH   3  35
ATOM     35  C   UNL     1       1.196   0.288   7.835  1.00  0.00     0.116 C 
BRANCH  35  36
ATOM     36  C   UNL     1       0.155  -0.817   8.006  1.00  0.00     0.023 C 
BRANCH  36  37
ATOM     37  C   UNL     1       0.692  -2.197   8.351  1.00  0.00     0.023 C 
BRANCH  37  38
ATOM     38  C   UNL     1       1.512  -2.277   9.632  1.00  0.00     0.116 C 
BRANCH  38  39
ATOM     39  N   UNL     1       0.780  -1.921  10.842  1.00  0.00    -0.352 N 
ATOM     40  C   UNL     1       0.751  -2.565  12.060  1.00  0.00     0.251 C 
ATOM     41  H   UNL     1       0.229  -1.108  10.779  1.00  0.00     0.163 HD
ATOM     42  O   UNL     1       0.019  -2.162  12.959  1.00  0.00    -0.269 OA
BRANCH  40  43
ATOM     43  C   UNL     1       1.568  -3.782  12.269  1.00  0.00     0.039 A 
ATOM     44  C   UNL     1       0.973  -4.899  12.861  1.00  0.00     0.014 A 
ATOM     45  C   UNL     1       2.892  -3.846  11.832  1.00  0.00     0.014 A 
ATOM     46  C   UNL     1       1.673  -6.107  12.917  1.00  0.00     0.010 A 
ATOM     47  C   UNL     1       3.549  -5.072  11.795  1.00  0.00     0.010 A 
ATOM     48  C   UNL     1       2.945  -6.219  12.330  1.00  0.00    -0.014 A 
BRANCH  48  49
ATOM     49  C   UNL     1       3.635  -7.532  12.236  1.00  0.00     0.031 A 
ATOM     50  C   UNL     1       4.968  -7.747  12.895  1.00  0.00     0.074 A 
ATOM     51  C   UNL     1       3.091  -8.515  11.491  1.00  0.00     0.049 A 
ATOM     52  N   UNL     1       5.731  -8.812  12.895  1.00  0.00    -0.248 NA
ATOM     53  C   UNL     1       5.538  -6.603  13.622  1.00  0.00     0.031 C 
ATOM     54  C   UNL     1       1.840  -8.410  10.738  1.00  0.00     0.029 A 
ATOM     55  N   UNL     1       3.523  -9.793  11.237  1.00  0.00    -0.354 N 
ATOM     56  C   UNL     1       6.869  -8.462  13.610  1.00  0.00     0.074 A 
ATOM     57  C   UNL     1       6.729  -7.067  13.968  1.00  0.00     0.031 C 
ATOM     58  C   UNL     1       1.589  -9.582  10.136  1.00  0.00     0.029 A 
ATOM     59  C   UNL     1       2.679 -10.509  10.424  1.00  0.00     0.049 A 
ATOM     60  H   UNL     1       4.360 -10.162  11.602  1.00  0.00     0.167 HD
ATOM     61  C   UNL     1       7.922  -9.239  13.961  1.00  0.00     0.037 A 
ATOM     62  C   UNL     1       2.771 -11.770   9.960  1.00  0.00     0.037 A 
ATOM     63  C   UNL     1       8.052 -10.630  13.610  1.00  0.00     0.049 A 
ATOM     64  C   UNL     1       3.947 -12.617  10.362  1.00  0.00     0.074 A 
ATOM     65  C   UNL     1       9.043 -11.524  13.977  1.00  0.00     0.029 A 
ATOM     66  N   UNL     1       7.168 -11.327  12.797  1.00  0.00    -0.354 N 
ATOM     67  N   UNL     1       4.971 -12.304  11.118  1.00  0.00    -0.248 NA
ATOM     68  C   UNL     1       3.975 -13.994   9.853  1.00  0.00     0.031 C 
ATOM     69  C   UNL     1       8.793 -12.742  13.336  1.00  0.00     0.029 A 
ATOM     70  C   UNL     1       7.611 -12.630  12.622  1.00  0.00     0.049 A 
ATOM     71  H   UNL     1       6.348 -10.951  12.403  1.00  0.00     0.167 HD
ATOM     72  C   UNL     1       5.755 -13.448  11.193  1.00  0.00     0.074 A 
ATOM     73  C   UNL     1       5.074 -14.469  10.423  1.00  0.00     0.031 C 
ATOM     74  C   UNL     1       6.932 -13.634  11.841  1.00  0.00     0.037 A 
BRANCH  61  75
ATOM     75  C   UNL     1       9.020  -8.593  14.760  1.00  0.00     0.064 A 
ATOM     76  C   UNL     1       8.812  -8.142  16.074  1.00  0.00     0.173 A 
ATOM     77  C   UNL     1      10.300  -8.427  14.209  1.00  0.00     0.173 A 
ATOM     78  F   UNL     1       7.606  -8.266  16.648  1.00  0.00    -0.203 F 
ATOM     79  C   UNL     1       9.827  -7.508  16.785  1.00  0.00     0.198 A 
ATOM     80  C   UNL     1      11.323  -7.827  14.938  1.00  0.00     0.198 A 
ATOM     81  F   UNL     1      10.559  -8.846  12.961  1.00  0.00    -0.203 F 
ATOM     82  F   UNL     1       9.582  -7.023  18.011  1.00  0.00    -0.200 F 
ATOM     83  C   UNL     1      11.083  -7.356  16.219  1.00  0.00     0.200 A 
ATOM     84  F   UNL     1      12.542  -7.695  14.395  1.00  0.00    -0.200 F 
ATOM     85  F   UNL     1      12.059  -6.745  16.905  1.00  0.00    -0.200 F 
ENDBRANCH  61  75
BRANCH  62  86
ATOM     86  C   UNL     1       1.696 -12.312   9.087  1.00  0.00     0.064 A 
ATOM     87  C   UNL     1       0.817 -13.300   9.553  1.00  0.00     0.173 A 
ATOM     88  C   UNL     1       1.507 -11.834   7.782  1.00  0.00     0.173 A 
ATOM     89  F   UNL     1       0.969 -13.803  10.787  1.00  0.00    -0.203 F 
ATOM     90  C   UNL     1      -0.202 -13.797   8.743  1.00  0.00     0.198 A 
ATOM     91  C   UNL     1       0.470 -12.311   6.983  1.00  0.00     0.198 A 
ATOM     92  F   UNL     1       2.317 -10.884   7.291  1.00  0.00    -0.203 F 
ATOM     93  F   UNL     1      -1.005 -14.768   9.200  1.00  0.00    -0.200 F 
ATOM     94  C   UNL     1      -0.380 -13.296   7.462  1.00  0.00     0.200 A 
ATOM     95  F   UNL     1       0.290 -11.811   5.753  1.00  0.00    -0.200 F 
ATOM     96  F   UNL     1      -1.369 -13.764   6.689  1.00  0.00    -0.200 F 
ENDBRANCH  62  86
BRANCH  74  97
ATOM     97  C   UNL     1       7.551 -15.001  11.759  1.00  0.00     0.064 A 
ATOM     98  C   UNL     1       8.096 -15.495  10.563  1.00  0.00     0.173 A 
ATOM     99  C   UNL     1       7.625 -15.819  12.898  1.00  0.00     0.173 A 
ATOM    100  F   UNL     1       8.039 -14.760   9.442  1.00  0.00    -0.203 F 
ATOM    101  C   UNL     1       8.660 -16.767  10.503  1.00  0.00     0.198 A 
ATOM    102  C   UNL     1       8.222 -17.076  12.842  1.00  0.00     0.198 A 
ATOM    103  F   UNL     1       7.127 -15.395  14.069  1.00  0.00    -0.203 F 
ATOM    104  F   UNL     1       9.120 -17.239   9.336  1.00  0.00    -0.200 F 
ATOM    105  C   UNL     1       8.729 -17.553  11.644  1.00  0.00     0.200 A 
ATOM    106  F   UNL     1       8.302 -17.826  13.949  1.00  0.00    -0.200 F 
ATOM    107  F   UNL     1       9.277 -18.774  11.585  1.00  0.00    -0.200 F 
ENDBRANCH  74  97
ENDBRANCH  48  49
ENDBRANCH  40  43
ENDBRANCH  38  39
ENDBRANCH  37  38
ENDBRANCH  36  37
ENDBRANCH  35  36
ENDBRANCH   3  35
TORSDOF 18
