REMARK SMILES CC(C)C[C@H](NC(=O)CNC(=O)[C@@H]([NH3+])C(C)C)C(=O)NCCCCNC(=O)c1ccc(-c2c3nc(c(-c4c(F)c(F)c(F)c(F)c4F)c4ccc([nH]4)c(-c4c(F)c(F)c(F)c(F)c4F)c4nc(c(-c5c(F)c(F)c(F)c(F)c5F)c5ccc2[nH]5)C=C4)C=C3)cc1
REMARK SMILES IDX 21 1 20 2 18 3 19 4 5 6 4 7 2 8 1 9 3 10 6 11 7 12 8 14 9 15
REMARK SMILES IDX 10 16 11 17 12 19 13 20 14 21 15 25 16 26 17 27 22 28 23 29
REMARK SMILES IDX 24 30 25 31 26 32 27 34 28 35 29 36 90 37 30 38 89 39 31 40
REMARK SMILES IDX 32 41 33 42 83 43 34 44 88 45 82 46 84 47 35 48 87 49 81 50
REMARK SMILES IDX 80 51 36 53 68 54 48 55 67 56 49 57 52 58 66 59 85 60 50 61
REMARK SMILES IDX 51 62 65 64 86 65 53 66 37 67 38 68 46 69 39 70 40 71 44 72
REMARK SMILES IDX 47 73 41 74 42 75 45 76 43 77 69 78 70 79 78 80 71 81 72 82
REMARK SMILES IDX 76 83 79 84 73 85 74 86 77 87 75 88 54 89 55 90 63 91 56 92
REMARK SMILES IDX 57 93 61 94 64 95 58 96 59 97 62 98 60 99
REMARK H PARENT 20 5 6 13 10 18 14 22 14 23 14 24 25 33 84 52 52 63
REMARK Flexibility Score: inf
ROOT
ATOM      1  C   UNL     1      -3.472   2.050  -2.873  1.00  0.00     0.116 C 
ENDROOT
BRANCH   1   2
ATOM      2  N   UNL     1      -4.184   1.613  -1.686  1.00  0.00    -0.354 N 
ATOM      3  C   UNL     1      -3.684   1.339  -0.446  1.00  0.00     0.242 C 
ATOM      4  O   UNL     1      -4.446   0.908   0.419  1.00  0.00    -0.273 OA
ATOM      5  H   UNL     1      -5.157   1.499  -1.789  1.00  0.00     0.163 HD
BRANCH   3   6
ATOM      6  C   UNL     1      -2.189   1.569  -0.161  1.00  0.00     0.171 C 
BRANCH   6   7
ATOM      7  C   UNL     1      -1.794   3.051  -0.169  1.00  0.00     0.038 C 
BRANCH   7   8
ATOM      8  C   UNL     1      -2.849   4.185  -0.161  1.00  0.00    -0.015 C 
ATOM      9  C   UNL     1      -3.751   4.213   1.069  1.00  0.00     0.007 C 
ATOM     10  C   UNL     1      -2.131   5.541  -0.271  1.00  0.00     0.007 C 
ENDBRANCH   7   8
ENDBRANCH   6   7
BRANCH   6  11
ATOM     11  N   UNL     1      -1.499   0.578  -1.042  1.00  0.00    -0.343 N 
ATOM     12  C   UNL     1      -0.438   0.352  -1.841  1.00  0.00     0.240 C 
ATOM     13  H   UNL     1      -2.039  -0.244  -1.035  1.00  0.00     0.164 HD
ATOM     14  O   UNL     1      -0.422  -0.791  -2.328  1.00  0.00    -0.273 OA
BRANCH  12  15
ATOM     15  C   UNL     1       0.763   1.258  -2.125  1.00  0.00     0.216 C 
BRANCH  15  16
ATOM     16  N   UNL     1       0.492   2.609  -2.564  1.00  0.00    -0.342 N 
ATOM     17  C   UNL     1       0.835   3.828  -2.075  1.00  0.00     0.278 C 
ATOM     18  H   UNL     1      -0.050   2.654  -3.385  1.00  0.00     0.164 HD
ATOM     19  O   UNL     1       0.473   4.785  -2.771  1.00  0.00    -0.268 OA
BRANCH  17  20
ATOM     20  C   UNL     1       1.533   4.074  -0.703  1.00  0.00     0.273 C 
BRANCH  20  21
ATOM     21  N   UNL     1       1.604   2.870   0.147  1.00  0.00    -0.347 N 
ATOM     22  H   UNL     1       2.190   2.168  -0.306  1.00  0.00     0.345 HD
ATOM     23  H   UNL     1       0.666   2.493   0.283  1.00  0.00     0.345 HD
ATOM     24  H   UNL     1       2.006   3.115   1.052  1.00  0.00     0.345 HD
ENDBRANCH  20  21
BRANCH  20  25
ATOM     25  C   UNL     1       2.930   4.717  -0.889  1.00  0.00     0.051 C 
ATOM     26  C   UNL     1       2.828   6.128  -1.488  1.00  0.00     0.014 C 
ATOM     27  C   UNL     1       3.701   4.825   0.436  1.00  0.00     0.014 C 
ENDBRANCH  20  25
ENDBRANCH  17  20
ENDBRANCH  15  16
ENDBRANCH  12  15
ENDBRANCH   6  11
ENDBRANCH   3   6
ENDBRANCH   1   2
BRANCH   1  28
ATOM     28  C   UNL     1      -3.608   1.038  -4.002  1.00  0.00     0.023 C 
BRANCH  28  29
ATOM     29  C   UNL     1      -5.037   0.899  -4.526  1.00  0.00     0.023 C 
BRANCH  29  30
ATOM     30  C   UNL     1      -5.702   2.215  -4.907  1.00  0.00     0.116 C 
BRANCH  30  31
ATOM     31  N   UNL     1      -4.967   2.948  -5.925  1.00  0.00    -0.352 N 
ATOM     32  C   UNL     1      -5.477   3.655  -6.990  1.00  0.00     0.251 C 
ATOM     33  H   UNL     1      -3.986   2.936  -5.844  1.00  0.00     0.163 HD
ATOM     34  O   UNL     1      -4.751   4.115  -7.852  1.00  0.00    -0.269 OA
BRANCH  32  35
ATOM     35  C   UNL     1      -6.943   3.810  -7.079  1.00  0.00     0.039 A 
ATOM     36  C   UNL     1      -7.594   3.392  -8.240  1.00  0.00     0.014 A 
ATOM     37  C   UNL     1      -7.665   4.287  -5.982  1.00  0.00     0.014 A 
ATOM     38  C   UNL     1      -8.988   3.395  -8.277  1.00  0.00     0.010 A 
ATOM     39  C   UNL     1      -9.052   4.219  -5.995  1.00  0.00     0.010 A 
ATOM     40  C   UNL     1      -9.726   3.773  -7.143  1.00  0.00    -0.014 A 
BRANCH  40  41
ATOM     41  C   UNL     1     -11.208   3.712  -7.138  1.00  0.00     0.031 A 
ATOM     42  C   UNL     1     -12.008   4.975  -6.996  1.00  0.00     0.074 A 
ATOM     43  C   UNL     1     -11.827   2.518  -7.196  1.00  0.00     0.049 A 
ATOM     44  N   UNL     1     -13.305   5.128  -6.904  1.00  0.00    -0.248 NA
ATOM     45  C   UNL     1     -11.248   6.233  -6.917  1.00  0.00     0.031 C 
ATOM     46  C   UNL     1     -11.156   1.220  -7.282  1.00  0.00     0.029 A 
ATOM     47  N   UNL     1     -13.162   2.201  -7.180  1.00  0.00    -0.354 N 
ATOM     48  C   UNL     1     -13.512   6.491  -6.743  1.00  0.00     0.074 A 
ATOM     49  C   UNL     1     -12.208   7.116  -6.690  1.00  0.00     0.031 C 
ATOM     50  C   UNL     1     -12.082   0.249  -7.334  1.00  0.00     0.029 A 
ATOM     51  C   UNL     1     -13.409   0.852  -7.250  1.00  0.00     0.049 A 
ATOM     52  H   UNL     1     -13.876   2.877  -7.125  1.00  0.00     0.167 HD
ATOM     53  C   UNL     1     -14.685   7.164  -6.674  1.00  0.00     0.037 A 
ATOM     54  C   UNL     1     -14.575   0.179  -7.241  1.00  0.00     0.037 A 
ATOM     55  C   UNL     1     -15.979   6.540  -6.753  1.00  0.00     0.049 A 
ATOM     56  C   UNL     1     -15.865   0.951  -7.163  1.00  0.00     0.074 A 
ATOM     57  C   UNL     1     -17.226   7.138  -6.753  1.00  0.00     0.029 A 
ATOM     58  N   UNL     1     -16.190   5.172  -6.846  1.00  0.00    -0.354 N 
ATOM     59  N   UNL     1     -16.052   2.246  -7.083  1.00  0.00    -0.248 NA
ATOM     60  C   UNL     1     -17.108   0.166  -7.180  1.00  0.00     0.031 C 
ATOM     61  C   UNL     1     -18.194   6.129  -6.800  1.00  0.00     0.029 A 
ATOM     62  C   UNL     1     -17.549   4.905  -6.883  1.00  0.00     0.049 A 
ATOM     63  H   UNL     1     -15.479   4.492  -6.881  1.00  0.00     0.167 HD
ATOM     64  C   UNL     1     -17.427   2.434  -7.071  1.00  0.00     0.074 A 
ATOM     65  C   UNL     1     -18.028   1.120  -7.165  1.00  0.00     0.031 C 
ATOM     66  C   UNL     1     -18.129   3.591  -6.987  1.00  0.00     0.037 A 
BRANCH  53  67
ATOM     67  C   UNL     1     -14.619   8.655  -6.511  1.00  0.00     0.064 A 
ATOM     68  C   UNL     1     -14.164   9.488  -7.544  1.00  0.00     0.173 A 
ATOM     69  C   UNL     1     -15.045   9.261  -5.319  1.00  0.00     0.173 A 
ATOM     70  F   UNL     1     -13.733   8.958  -8.699  1.00  0.00    -0.203 F 
ATOM     71  C   UNL     1     -14.109  10.870  -7.380  1.00  0.00     0.198 A 
ATOM     72  C   UNL     1     -15.018  10.645  -5.170  1.00  0.00     0.198 A 
ATOM     73  F   UNL     1     -15.493   8.511  -4.301  1.00  0.00    -0.203 F 
ATOM     74  F   UNL     1     -13.621  11.640  -8.361  1.00  0.00    -0.200 F 
ATOM     75  C   UNL     1     -14.543  11.447  -6.196  1.00  0.00     0.200 A 
ATOM     76  F   UNL     1     -15.450  11.203  -4.030  1.00  0.00    -0.200 F 
ATOM     77  F   UNL     1     -14.495  12.777  -6.042  1.00  0.00    -0.200 F 
ENDBRANCH  53  67
BRANCH  54  78
ATOM     78  C   UNL     1     -14.579  -1.304  -7.337  1.00  0.00     0.064 A 
ATOM     79  C   UNL     1     -15.051  -1.950  -8.489  1.00  0.00     0.173 A 
ATOM     80  C   UNL     1     -14.120  -2.106  -6.282  1.00  0.00     0.173 A 
ATOM     81  F   UNL     1     -15.519  -1.227  -9.516  1.00  0.00    -0.203 F 
ATOM     82  C   UNL     1     -15.083  -3.340  -8.573  1.00  0.00     0.198 A 
ATOM     83  C   UNL     1     -14.126  -3.496  -6.378  1.00  0.00     0.198 A 
ATOM     84  F   UNL     1     -13.653  -1.538  -5.160  1.00  0.00    -0.203 F 
ATOM     85  F   UNL     1     -15.583  -3.931  -9.667  1.00  0.00    -0.200 F 
ATOM     86  C   UNL     1     -14.616  -4.112  -7.520  1.00  0.00     0.200 A 
ATOM     87  F   UNL     1     -13.660  -4.238  -5.365  1.00  0.00    -0.200 F 
ATOM     88  F   UNL     1     -14.644  -5.449  -7.603  1.00  0.00    -0.200 F 
ENDBRANCH  54  78
BRANCH  66  89
ATOM     89  C   UNL     1     -19.626   3.491  -7.031  1.00  0.00     0.064 A 
ATOM     90  C   UNL     1     -20.363   2.980  -5.953  1.00  0.00     0.173 A 
ATOM     91  C   UNL     1     -20.334   3.954  -8.151  1.00  0.00     0.173 A 
ATOM     92  F   UNL     1     -19.731   2.512  -4.866  1.00  0.00    -0.203 F 
ATOM     93  C   UNL     1     -21.752   2.913  -6.005  1.00  0.00     0.198 A 
ATOM     94  C   UNL     1     -21.724   3.914  -8.186  1.00  0.00     0.198 A 
ATOM     95  F   UNL     1     -19.676   4.459  -9.206  1.00  0.00    -0.203 F 
ATOM     96  F   UNL     1     -22.433   2.377  -4.982  1.00  0.00    -0.200 F 
ATOM     97  C   UNL     1     -22.432   3.387  -7.117  1.00  0.00     0.200 A 
ATOM     98  F   UNL     1     -22.380   4.386  -9.256  1.00  0.00    -0.200 F 
ATOM     99  F   UNL     1     -23.770   3.329  -7.161  1.00  0.00    -0.200 F 
ENDBRANCH  66  89
ENDBRANCH  40  41
ENDBRANCH  32  35
ENDBRANCH  30  31
ENDBRANCH  29  30
ENDBRANCH  28  29
ENDBRANCH   1  28
TORSDOF 19
