REMARK SMILES O=C(NCCCCNC(=O)c1nnn(Cc2ccccc2Cl)c1-c1ccc(Cl)cc1)c1ccc(-c2c3nc(c(-c4c(F)c(F)c(F)c(F)c4F)c4ccc([nH]4)c(-c4c(F)c(F)c(F)c(F)c4F)c4nc(c(-c5c(F)c(F)c(F)c(F)c5F)c5ccc2[nH]5)C=C4)C=C3)cc1
REMARK SMILES IDX 5 1 4 2 3 3 1 4 2 5 31 7 32 8 93 9 33 10 92 11 34 12 35 13
REMARK SMILES IDX 36 14 86 15 37 16 91 17 85 18 87 19 38 20 90 21 84 22 83 23
REMARK SMILES IDX 39 25 71 26 51 27 70 28 52 29 55 30 69 31 88 32 53 33 54 34
REMARK SMILES IDX 68 36 89 37 56 38 40 39 41 40 49 41 42 42 43 43 47 44 50 45
REMARK SMILES IDX 44 46 45 47 48 48 46 49 72 50 73 51 81 52 74 53 75 54 79 55
REMARK SMILES IDX 82 56 76 57 77 58 80 59 78 60 57 61 58 62 66 63 59 64 60 65
REMARK SMILES IDX 64 66 67 67 61 68 62 69 65 70 63 71 6 72 7 73 8 74 9 75
REMARK SMILES IDX 10 77 11 78 12 79 23 80 13 81 14 82 24 83 25 84 30 85 26 86
REMARK SMILES IDX 29 87 27 88 28 89 15 90 16 91 17 92 21 93 18 94 20 95 22 96
REMARK SMILES IDX 19 97
REMARK H PARENT 3 6 87 24 55 35 8 76
REMARK Flexibility Score: inf
ROOT
ATOM      1  C   UNL     1       4.969   0.784   2.106  1.00  0.00     0.023 C 
ENDROOT
BRANCH   1   2
ATOM      2  C   UNL     1       4.592  -0.195   0.994  1.00  0.00     0.116 C 
BRANCH   2   3
ATOM      3  N   UNL     1       3.173  -0.452   0.851  1.00  0.00    -0.352 N 
ATOM      4  O   UNL     1       1.104  -0.529   0.096  1.00  0.00    -0.269 OA
ATOM      5  C   UNL     1       2.145   0.131   0.161  1.00  0.00     0.251 C 
ATOM      6  H   UNL     1       2.878  -1.231   1.375  1.00  0.00     0.163 HD
BRANCH   5   7
ATOM      7  C   UNL     1       2.155   1.497  -0.439  1.00  0.00     0.039 A 
ATOM      8  C   UNL     1       3.270   2.316  -0.606  1.00  0.00     0.014 A 
ATOM      9  C   UNL     1       0.896   1.999  -0.833  1.00  0.00     0.014 A 
ATOM     10  C   UNL     1       3.116   3.625  -1.072  1.00  0.00     0.010 A 
ATOM     11  C   UNL     1       0.736   3.302  -1.300  1.00  0.00     0.010 A 
ATOM     12  C   UNL     1       1.846   4.131  -1.391  1.00  0.00    -0.014 A 
BRANCH  12  13
ATOM     13  C   UNL     1       1.758   5.452  -2.018  1.00  0.00     0.031 A 
ATOM     14  C   UNL     1       2.393   5.509  -3.364  1.00  0.00     0.074 A 
ATOM     15  C   UNL     1       1.085   6.521  -1.537  1.00  0.00     0.049 A 
ATOM     16  N   UNL     1       3.459   6.157  -3.700  1.00  0.00    -0.248 NA
ATOM     17  C   UNL     1       1.856   4.648  -4.428  1.00  0.00     0.031 C 
ATOM     18  C   UNL     1       0.167   6.575  -0.400  1.00  0.00     0.029 A 
ATOM     19  N   UNL     1       1.034   7.799  -2.029  1.00  0.00    -0.354 N 
ATOM     20  C   UNL     1       3.639   5.928  -5.062  1.00  0.00     0.074 A 
ATOM     21  C   UNL     1       2.714   4.885  -5.423  1.00  0.00     0.031 C 
ATOM     22  C   UNL     1      -0.500   7.755  -0.414  1.00  0.00     0.029 A 
ATOM     23  C   UNL     1       0.035   8.596  -1.473  1.00  0.00     0.049 A 
ATOM     24  H   UNL     1       1.654   8.128  -2.719  1.00  0.00     0.167 HD
ATOM     25  C   UNL     1       4.386   6.777  -5.820  1.00  0.00     0.037 A 
ATOM     26  C   UNL     1      -0.341   9.840  -1.874  1.00  0.00     0.037 A 
ATOM     27  C   UNL     1       5.218   7.612  -4.992  1.00  0.00     0.049 A 
ATOM     28  C   UNL     1       0.776  10.418  -2.655  1.00  0.00     0.074 A 
ATOM     29  C   UNL     1       6.244   7.394  -4.095  1.00  0.00     0.029 A 
ATOM     30  N   UNL     1       4.790   8.895  -4.768  1.00  0.00    -0.354 N 
ATOM     31  N   UNL     1       1.911  10.790  -2.140  1.00  0.00    -0.248 NA
ATOM     32  C   UNL     1       0.776  10.215  -4.094  1.00  0.00     0.031 C 
ATOM     33  C   UNL     1       6.060   8.377  -3.077  1.00  0.00     0.029 A 
ATOM     34  C   UNL     1       4.977   9.177  -3.443  1.00  0.00     0.049 A 
ATOM     35  H   UNL     1       4.414   9.506  -5.442  1.00  0.00     0.167 HD
ATOM     36  C   UNL     1       2.853  10.410  -3.081  1.00  0.00     0.074 A 
ATOM     37  C   UNL     1       2.093  10.173  -4.305  1.00  0.00     0.031 C 
ATOM     38  C   UNL     1       4.110  10.051  -2.693  1.00  0.00     0.037 A 
BRANCH  25  39
ATOM     39  C   UNL     1       4.080   7.148  -7.254  1.00  0.00     0.064 A 
ATOM     40  C   UNL     1       4.978   7.988  -7.947  1.00  0.00     0.173 A 
ATOM     41  C   UNL     1       2.809   6.999  -7.849  1.00  0.00     0.173 A 
ATOM     42  F   UNL     1       6.211   8.216  -7.468  1.00  0.00    -0.203 F 
ATOM     43  C   UNL     1       4.596   8.700  -9.087  1.00  0.00     0.198 A 
ATOM     44  C   UNL     1       2.450   7.671  -9.017  1.00  0.00     0.198 A 
ATOM     45  F   UNL     1       1.828   6.300  -7.270  1.00  0.00    -0.203 F 
ATOM     46  F   UNL     1       5.436   9.595  -9.625  1.00  0.00    -0.200 F 
ATOM     47  C   UNL     1       3.329   8.549  -9.616  1.00  0.00     0.200 A 
ATOM     48  F   UNL     1       1.208   7.527  -9.502  1.00  0.00    -0.200 F 
ATOM     49  F   UNL     1       2.935   9.282 -10.665  1.00  0.00    -0.200 F 
ENDBRANCH  25  39
BRANCH  26  50
ATOM     50  C   UNL     1      -1.677  10.491  -1.869  1.00  0.00     0.064 A 
ATOM     51  C   UNL     1      -1.815  11.879  -2.068  1.00  0.00     0.173 A 
ATOM     52  C   UNL     1      -2.852   9.727  -1.991  1.00  0.00     0.173 A 
ATOM     53  F   UNL     1      -0.741  12.680  -2.015  1.00  0.00    -0.203 F 
ATOM     54  C   UNL     1      -3.043  12.458  -2.410  1.00  0.00     0.198 A 
ATOM     55  C   UNL     1      -4.078  10.307  -2.328  1.00  0.00     0.198 A 
ATOM     56  F   UNL     1      -2.812   8.392  -1.891  1.00  0.00    -0.203 F 
ATOM     57  F   UNL     1      -3.117  13.772  -2.666  1.00  0.00    -0.200 F 
ATOM     58  C   UNL     1      -4.170  11.668  -2.554  1.00  0.00     0.200 A 
ATOM     59  F   UNL     1      -5.154   9.527  -2.503  1.00  0.00    -0.200 F 
ATOM     60  F   UNL     1      -5.331  12.209  -2.952  1.00  0.00    -0.200 F 
ENDBRANCH  26  50
BRANCH  38  61
ATOM     61  C   UNL     1       4.543  10.416  -1.301  1.00  0.00     0.064 A 
ATOM     62  C   UNL     1       3.922   9.965  -0.123  1.00  0.00     0.173 A 
ATOM     63  C   UNL     1       5.716  11.173  -1.164  1.00  0.00     0.173 A 
ATOM     64  F   UNL     1       2.856   9.155  -0.167  1.00  0.00    -0.203 F 
ATOM     65  C   UNL     1       4.427  10.304   1.131  1.00  0.00     0.198 A 
ATOM     66  C   UNL     1       6.241  11.472   0.088  1.00  0.00     0.198 A 
ATOM     67  F   UNL     1       6.379  11.589  -2.254  1.00  0.00    -0.203 F 
ATOM     68  F   UNL     1       3.806   9.882   2.243  1.00  0.00    -0.200 F 
ATOM     69  C   UNL     1       5.590  11.050   1.235  1.00  0.00     0.200 A 
ATOM     70  F   UNL     1       7.393  12.151   0.181  1.00  0.00    -0.200 F 
ATOM     71  F   UNL     1       6.098  11.342   2.441  1.00  0.00    -0.200 F 
ENDBRANCH  38  61
ENDBRANCH  12  13
ENDBRANCH   5   7
ENDBRANCH   2   3
ENDBRANCH   1   2
BRANCH   1  72
ATOM     72  C   UNL     1       4.471   0.435   3.510  1.00  0.00     0.023 C 
BRANCH  72  73
ATOM     73  C   UNL     1       4.850  -0.942   4.045  1.00  0.00     0.116 C 
BRANCH  73  74
ATOM     74  N   UNL     1       6.275  -1.131   4.240  1.00  0.00    -0.351 N 
ATOM     75  C   UNL     1       6.935  -1.680   5.318  1.00  0.00     0.274 C 
ATOM     76  H   UNL     1       6.849  -0.824   3.501  1.00  0.00     0.163 HD
ATOM     77  O   UNL     1       8.169  -1.708   5.284  1.00  0.00    -0.267 OA
BRANCH  75  78
ATOM     78  C   UNL     1       6.182  -2.176   6.462  1.00  0.00     0.178 A 
ATOM     79  N   UNL     1       6.449  -1.728   7.730  1.00  0.00    -0.124 NA
ATOM     80  C   UNL     1       5.145  -3.108   6.514  1.00  0.00     0.102 A 
ATOM     81  N   UNL     1       5.576  -2.275   8.557  1.00  0.00    -0.066 NA
ATOM     82  N   UNL     1       4.793  -3.111   7.851  1.00  0.00    -0.239 N 
BRANCH  80  83
ATOM     83  C   UNL     1       4.528  -3.899   5.455  1.00  0.00     0.002 A 
ATOM     84  C   UNL     1       5.309  -4.774   4.689  1.00  0.00     0.012 A 
ATOM     85  C   UNL     1       3.175  -3.729   5.127  1.00  0.00     0.012 A 
ATOM     86  C   UNL     1       4.743  -5.476   3.621  1.00  0.00     0.021 A 
ATOM     87  C   UNL     1       2.609  -4.432   4.061  1.00  0.00     0.021 A 
ATOM     88  C   UNL     1       3.396  -5.303   3.313  1.00  0.00     0.041 A 
ATOM     89  Cl  UNL     1       2.701  -6.154   1.991  1.00  0.00    -0.084 Cl
ENDBRANCH  80  83
BRANCH  82  90
ATOM     90  C   UNL     1       3.638  -3.711   8.507  1.00  0.00     0.183 C 
BRANCH  90  91
ATOM     91  C   UNL     1       3.973  -4.880   9.398  1.00  0.00    -0.008 A 
ATOM     92  C   UNL     1       3.847  -6.187   8.886  1.00  0.00     0.007 A 
ATOM     93  C   UNL     1       4.357  -4.729  10.742  1.00  0.00     0.046 A 
ATOM     94  C   UNL     1       4.085  -7.301   9.694  1.00  0.00     0.000 A 
ATOM     95  C   UNL     1       4.616  -5.848  11.540  1.00  0.00     0.021 A 
ATOM     96  Cl  UNL     1       4.465  -3.183  11.505  1.00  0.00    -0.084 Cl
ATOM     97  C   UNL     1       4.474  -7.132  11.019  1.00  0.00     0.002 A 
ENDBRANCH  90  91
ENDBRANCH  82  90
ENDBRANCH  75  78
ENDBRANCH  73  74
ENDBRANCH  72  73
ENDBRANCH   1  72
TORSDOF 14
