REMARK SMILES Cc1ccc(-n2cnnn2)cc1OCC(=O)NCCCCNC(=O)c1ccc(-c2c3nc(c(-c4c(F)c(F)c(F)c(F)c4F)c4ccc([nH]4)c(-c4c(F)c(F)c(F)c(F)c4F)c4nc(c(-c5c(F)c(F)c(F)c(F)c5F)c5ccc2[nH]5)C=C4)C=C3)cc1
REMARK SMILES IDX 19 1 18 2 17 3 15 4 16 5 14 7 13 8 12 9 1 10 2 11 3 12 4 13
REMARK SMILES IDX 11 14 5 15 6 16 7 17 10 18 8 19 9 20 20 21 21 22 22 23 23 24
REMARK SMILES IDX 24 26 25 27 26 28 87 29 27 30 86 31 28 32 29 33 30 34 80 35
REMARK SMILES IDX 31 36 85 37 79 38 81 39 32 40 84 41 78 42 77 43 33 45 65 46
REMARK SMILES IDX 45 47 64 48 46 49 49 50 63 51 82 52 47 53 48 54 62 56 83 57
REMARK SMILES IDX 50 58 34 59 35 60 43 61 36 62 37 63 41 64 44 65 38 66 39 67
REMARK SMILES IDX 42 68 40 69 66 70 67 71 75 72 68 73 69 74 73 75 76 76 70 77
REMARK SMILES IDX 71 78 74 79 72 80 51 81 52 82 60 83 53 84 54 85 58 86 61 87
REMARK SMILES IDX 55 88 56 89 59 90 57 91
REMARK H PARENT 17 6 22 25 81 44 49 55
REMARK Flexibility Score: inf
ROOT
ATOM      1  C   UNL     1      -0.046   2.988   3.033  1.00  0.00     0.023 C 
ENDROOT
BRANCH   1   2
ATOM      2  C   UNL     1       1.263   3.604   2.530  1.00  0.00     0.116 C 
BRANCH   2   3
ATOM      3  N   UNL     1       2.345   2.647   2.406  1.00  0.00    -0.353 N 
ATOM      4  C   UNL     1       2.925   2.142   1.279  1.00  0.00     0.257 C 
ATOM      5  O   UNL     1       3.948   1.466   1.411  1.00  0.00    -0.271 OA
ATOM      6  H   UNL     1       2.714   2.313   3.256  1.00  0.00     0.163 HD
BRANCH   4   7
ATOM      7  C   UNL     1       2.361   2.482  -0.107  1.00  0.00     0.329 C 
BRANCH   7   8
ATOM      8  O   UNL     1       1.017   2.204  -0.435  1.00  0.00    -0.483 OA
BRANCH   8   9
ATOM      9  C   UNL     1       0.457   0.968  -0.300  1.00  0.00     0.125 A 
ATOM     10  C   UNL     1       2.508  -0.618  -0.375  1.00  0.00     0.048 C 
ATOM     11  C   UNL     1       1.052  -0.295  -0.201  1.00  0.00    -0.009 A 
ATOM     12  C   UNL     1       0.224  -1.407   0.074  1.00  0.00     0.009 A 
ATOM     13  C   UNL     1      -1.164  -1.297   0.148  1.00  0.00     0.029 A 
ATOM     14  C   UNL     1      -0.952   1.060  -0.296  1.00  0.00     0.075 A 
ATOM     15  C   UNL     1      -1.762  -0.062  -0.087  1.00  0.00     0.072 A 
BRANCH  15  16
ATOM     16  N   UNL     1      -3.171   0.038  -0.117  1.00  0.00    -0.200 N 
ATOM     17  C   UNL     1      -3.962   1.071  -0.555  1.00  0.00     0.252 A 
ATOM     18  N   UNL     1      -3.985  -0.962   0.291  1.00  0.00    -0.040 NA
ATOM     19  N   UNL     1      -5.225   0.751  -0.393  1.00  0.00    -0.117 NA
ATOM     20  N   UNL     1      -5.222  -0.511   0.141  1.00  0.00    -0.024 NA
ENDBRANCH  15  16
ENDBRANCH   8   9
ENDBRANCH   7   8
ENDBRANCH   4   7
ENDBRANCH   2   3
ENDBRANCH   1   2
BRANCH   1  21
ATOM     21  C   UNL     1       0.045   2.155   4.314  1.00  0.00     0.023 C 
BRANCH  21  22
ATOM     22  C   UNL     1       0.556   2.906   5.534  1.00  0.00     0.116 C 
BRANCH  22  23
ATOM     23  N   UNL     1      -0.435   3.702   6.237  1.00  0.00    -0.352 N 
ATOM     24  C   UNL     1      -0.298   4.556   7.323  1.00  0.00     0.251 C 
ATOM     25  H   UNL     1      -1.352   3.624   5.886  1.00  0.00     0.163 HD
ATOM     26  O   UNL     1      -1.298   5.013   7.846  1.00  0.00    -0.269 OA
BRANCH  24  27
ATOM     27  C   UNL     1       1.047   5.030   7.766  1.00  0.00     0.039 A 
ATOM     28  C   UNL     1       1.151   6.325   8.305  1.00  0.00     0.014 A 
ATOM     29  C   UNL     1       2.207   4.314   7.508  1.00  0.00     0.014 A 
ATOM     30  C   UNL     1       2.389   6.969   8.343  1.00  0.00     0.010 A 
ATOM     31  C   UNL     1       3.405   4.983   7.417  1.00  0.00     0.010 A 
ATOM     32  C   UNL     1       3.488   6.327   7.784  1.00  0.00    -0.014 A 
BRANCH  32  33
ATOM     33  C   UNL     1       4.746   6.967   7.431  1.00  0.00     0.031 A 
ATOM     34  C   UNL     1       5.992   6.617   8.148  1.00  0.00     0.074 A 
ATOM     35  C   UNL     1       4.797   7.657   6.269  1.00  0.00     0.049 A 
ATOM     36  N   UNL     1       7.092   7.279   8.043  1.00  0.00    -0.248 NA
ATOM     37  C   UNL     1       6.096   5.483   9.062  1.00  0.00     0.031 C 
ATOM     38  C   UNL     1       5.982   7.971   5.476  1.00  0.00     0.029 A 
ATOM     39  N   UNL     1       3.759   8.357   5.630  1.00  0.00    -0.354 N 
ATOM     40  C   UNL     1       8.092   6.535   8.625  1.00  0.00     0.074 A 
ATOM     41  C   UNL     1       7.414   5.447   9.289  1.00  0.00     0.031 C 
ATOM     42  C   UNL     1       5.700   8.995   4.656  1.00  0.00     0.029 A 
ATOM     43  C   UNL     1       4.380   9.474   5.020  1.00  0.00     0.049 A 
ATOM     44  H   UNL     1       2.803   8.121   5.611  1.00  0.00     0.167 HD
ATOM     45  C   UNL     1       9.392   6.864   8.373  1.00  0.00     0.037 A 
ATOM     46  C   UNL     1       4.106  10.749   5.424  1.00  0.00     0.037 A 
ATOM     47  C   UNL     1       9.474   8.040   7.514  1.00  0.00     0.049 A 
ATOM     48  C   UNL     1       5.314  11.508   5.915  1.00  0.00     0.074 A 
ATOM     49  C   UNL     1       9.639   8.191   6.147  1.00  0.00     0.029 A 
ATOM     50  N   UNL     1       9.050   9.269   8.000  1.00  0.00    -0.354 N 
ATOM     51  N   UNL     1       6.401  10.934   6.350  1.00  0.00    -0.248 NA
ATOM     52  C   UNL     1       5.396  12.964   5.963  1.00  0.00     0.031 C 
ATOM     53  C   UNL     1       9.288   9.519   5.806  1.00  0.00     0.029 A 
ATOM     54  C   UNL     1       8.925  10.176   6.968  1.00  0.00     0.049 A 
ATOM     55  H   UNL     1       8.864   9.465   8.947  1.00  0.00     0.167 HD
ATOM     56  C   UNL     1       7.309  11.892   6.726  1.00  0.00     0.074 A 
ATOM     57  C   UNL     1       6.634  13.147   6.456  1.00  0.00     0.031 C 
ATOM     58  C   UNL     1       8.534  11.552   7.228  1.00  0.00     0.037 A 
BRANCH  45  59
ATOM     59  C   UNL     1      10.581   5.986   8.685  1.00  0.00     0.064 A 
ATOM     60  C   UNL     1      11.739   6.019   7.875  1.00  0.00     0.173 A 
ATOM     61  C   UNL     1      10.637   5.076   9.755  1.00  0.00     0.173 A 
ATOM     62  F   UNL     1      11.869   6.894   6.869  1.00  0.00    -0.203 F 
ATOM     63  C   UNL     1      12.814   5.147   8.061  1.00  0.00     0.198 A 
ATOM     64  C   UNL     1      11.690   4.167   9.912  1.00  0.00     0.198 A 
ATOM     65  F   UNL     1       9.703   5.074  10.714  1.00  0.00    -0.203 F 
ATOM     66  F   UNL     1      13.883   5.228   7.256  1.00  0.00    -0.200 F 
ATOM     67  C   UNL     1      12.775   4.197   9.059  1.00  0.00     0.200 A 
ATOM     68  F   UNL     1      11.646   3.263  10.901  1.00  0.00    -0.200 F 
ATOM     69  F   UNL     1      13.788   3.334   9.215  1.00  0.00    -0.200 F 
ENDBRANCH  45  59
BRANCH  46  70
ATOM     70  C   UNL     1       2.721  10.897   5.943  1.00  0.00     0.064 A 
ATOM     71  C   UNL     1       1.659  10.712   5.035  1.00  0.00     0.173 A 
ATOM     72  C   UNL     1       2.439  10.762   7.308  1.00  0.00     0.173 A 
ATOM     73  F   UNL     1       1.880  10.828   3.716  1.00  0.00    -0.203 F 
ATOM     74  C   UNL     1       0.410  10.271   5.465  1.00  0.00     0.198 A 
ATOM     75  C   UNL     1       1.180  10.335   7.735  1.00  0.00     0.198 A 
ATOM     76  F   UNL     1       3.412  10.911   8.218  1.00  0.00    -0.203 F 
ATOM     77  F   UNL     1      -0.540   9.976   4.566  1.00  0.00    -0.200 F 
ATOM     78  C   UNL     1       0.182  10.051   6.813  1.00  0.00     0.200 A 
ATOM     79  F   UNL     1       0.963  10.097   9.037  1.00  0.00    -0.200 F 
ATOM     80  F   UNL     1      -0.981   9.522   7.219  1.00  0.00    -0.200 F 
ENDBRANCH  46  70
BRANCH  58  81
ATOM     81  C   UNL     1       9.530  12.456   7.924  1.00  0.00     0.064 A 
ATOM     82  C   UNL     1       9.197  13.665   8.555  1.00  0.00     0.173 A 
ATOM     83  C   UNL     1      10.872  12.029   8.115  1.00  0.00     0.173 A 
ATOM     84  F   UNL     1       7.943  14.132   8.556  1.00  0.00    -0.203 F 
ATOM     85  C   UNL     1      10.138  14.411   9.274  1.00  0.00     0.198 A 
ATOM     86  C   UNL     1      11.789  12.743   8.885  1.00  0.00     0.198 A 
ATOM     87  F   UNL     1      11.332  10.885   7.588  1.00  0.00    -0.203 F 
ATOM     88  F   UNL     1       9.775  15.578   9.824  1.00  0.00    -0.200 F 
ATOM     89  C   UNL     1      11.426  13.943   9.453  1.00  0.00     0.200 A 
ATOM     90  F   UNL     1      13.016  12.243   9.092  1.00  0.00    -0.200 F 
ATOM     91  F   UNL     1      12.306  14.635  10.188  1.00  0.00    -0.200 F 
ENDBRANCH  58  81
ENDBRANCH  32  33
ENDBRANCH  24  27
ENDBRANCH  22  23
ENDBRANCH  21  22
ENDBRANCH   1  21
TORSDOF 14
