REMARK SMILES O=C(NCCCCNC(=O)[C@@H]1CCC(=O)N(CCCOC2CCCCC2)[C@H]1c1ccco1)c1ccc(-c2c3nc(c(-c4c(F)c(F)c(F)c(F)c4F)c4ccc([nH]4)c(-c4c(F)c(F)c(F)c(F)c4F)c4nc(c(-c5c(F)c(F)c(F)c(F)c5F)c5ccc2[nH]5)C=C4)C=C3)cc1
REMARK SMILES IDX 7 1 6 2 5 3 4 4 3 5 1 6 2 7 33 9 34 10 95 11 35 12 94 13
REMARK SMILES IDX 36 14 37 15 38 16 88 17 39 18 93 19 87 20 89 21 40 22 92 23
REMARK SMILES IDX 86 24 85 25 41 27 73 28 53 29 72 30 54 31 57 32 71 33 90 34
REMARK SMILES IDX 55 35 56 36 70 38 91 39 58 40 42 41 43 42 51 43 44 44 45 45
REMARK SMILES IDX 49 46 52 47 46 48 47 49 50 50 48 51 74 52 75 53 83 54 76 55
REMARK SMILES IDX 77 56 81 57 84 58 78 59 79 60 82 61 80 62 59 63 60 64 68 65
REMARK SMILES IDX 61 66 62 67 66 68 69 69 63 70 64 71 67 72 65 73 8 74 9 75
REMARK SMILES IDX 10 77 11 78 12 79 27 80 13 81 16 82 14 83 15 84 28 85 29 86
REMARK SMILES IDX 32 87 30 88 31 89 17 90 18 91 19 92 20 93 21 94 22 95 26 96
REMARK SMILES IDX 23 97 25 98 24 99
REMARK H PARENT 3 8 89 26 57 37 8 76
REMARK Flexibility Score: inf
ROOT
ATOM      1  C   UNL     1       4.606  -3.627   1.999  1.00  0.00     0.116 C 
ENDROOT
BRANCH   1   2
ATOM      2  C   UNL     1       4.239  -2.372   2.783  1.00  0.00     0.023 C 
BRANCH   2   3
ATOM      3  C   UNL     1       4.863  -1.095   2.226  1.00  0.00     0.023 C 
BRANCH   3   4
ATOM      4  C   UNL     1       4.568  -0.844   0.753  1.00  0.00     0.116 C 
BRANCH   4   5
ATOM      5  N   UNL     1       3.146  -0.927   0.449  1.00  0.00    -0.352 N 
ATOM      6  O   UNL     1       1.120  -0.145  -0.163  1.00  0.00    -0.269 OA
ATOM      7  C   UNL     1       2.329   0.006  -0.141  1.00  0.00     0.251 C 
ATOM      8  H   UNL     1       2.709  -1.772   0.701  1.00  0.00     0.163 HD
BRANCH   7   9
ATOM      9  C   UNL     1       2.948   1.208  -0.729  1.00  0.00     0.039 A 
ATOM     10  C   UNL     1       4.066   1.082  -1.558  1.00  0.00     0.014 A 
ATOM     11  C   UNL     1       2.424   2.462  -0.417  1.00  0.00     0.014 A 
ATOM     12  C   UNL     1       4.750   2.219  -1.959  1.00  0.00     0.010 A 
ATOM     13  C   UNL     1       3.060   3.604  -0.898  1.00  0.00     0.010 A 
ATOM     14  C   UNL     1       4.243   3.489  -1.648  1.00  0.00    -0.014 A 
BRANCH  14  15
ATOM     15  C   UNL     1       4.927   4.697  -2.162  1.00  0.00     0.031 A 
ATOM     16  C   UNL     1       5.534   5.694  -1.222  1.00  0.00     0.074 A 
ATOM     17  C   UNL     1       4.974   4.890  -3.492  1.00  0.00     0.049 A 
ATOM     18  N   UNL     1       6.089   6.849  -1.489  1.00  0.00    -0.248 NA
ATOM     19  C   UNL     1       5.504   5.358   0.210  1.00  0.00     0.031 C 
ATOM     20  C   UNL     1       4.420   3.977  -4.495  1.00  0.00     0.029 A 
ATOM     21  N   UNL     1       5.503   5.915  -4.231  1.00  0.00    -0.354 N 
ATOM     22  C   UNL     1       6.450   7.389  -0.262  1.00  0.00     0.074 A 
ATOM     23  C   UNL     1       6.030   6.447   0.753  1.00  0.00     0.031 C 
ATOM     24  C   UNL     1       4.653   4.474  -5.717  1.00  0.00     0.029 A 
ATOM     25  C   UNL     1       5.304   5.770  -5.581  1.00  0.00     0.049 A 
ATOM     26  H   UNL     1       5.979   6.679  -3.833  1.00  0.00     0.167 HD
ATOM     27  C   UNL     1       7.076   8.565  -0.015  1.00  0.00     0.037 A 
ATOM     28  C   UNL     1       5.580   6.608  -6.596  1.00  0.00     0.037 A 
ATOM     29  C   UNL     1       7.491   9.487  -1.042  1.00  0.00     0.049 A 
ATOM     30  C   UNL     1       6.233   7.924  -6.292  1.00  0.00     0.074 A 
ATOM     31  C   UNL     1       8.161  10.690  -0.903  1.00  0.00     0.029 A 
ATOM     32  N   UNL     1       7.264   9.311  -2.401  1.00  0.00    -0.354 N 
ATOM     33  N   UNL     1       6.593   8.418  -5.132  1.00  0.00    -0.248 NA
ATOM     34  C   UNL     1       6.519   8.799  -7.435  1.00  0.00     0.031 C 
ATOM     35  C   UNL     1       8.287  11.269  -2.170  1.00  0.00     0.029 A 
ATOM     36  C   UNL     1       7.756  10.397  -3.108  1.00  0.00     0.049 A 
ATOM     37  H   UNL     1       6.818   8.531  -2.802  1.00  0.00     0.167 HD
ATOM     38  C   UNL     1       7.173   9.647  -5.405  1.00  0.00     0.074 A 
ATOM     39  C   UNL     1       7.122   9.820  -6.843  1.00  0.00     0.031 C 
ATOM     40  C   UNL     1       7.705  10.547  -4.542  1.00  0.00     0.037 A 
BRANCH  27  41
ATOM     41  C   UNL     1       7.316   8.936   1.422  1.00  0.00     0.064 A 
ATOM     42  C   UNL     1       8.230   8.240   2.228  1.00  0.00     0.173 A 
ATOM     43  C   UNL     1       6.632  10.019   1.997  1.00  0.00     0.173 A 
ATOM     44  F   UNL     1       8.904   7.190   1.733  1.00  0.00    -0.203 F 
ATOM     45  C   UNL     1       8.421   8.589   3.563  1.00  0.00     0.198 A 
ATOM     46  C   UNL     1       6.850  10.386   3.323  1.00  0.00     0.198 A 
ATOM     47  F   UNL     1       5.752  10.725   1.272  1.00  0.00    -0.203 F 
ATOM     48  F   UNL     1       9.255   7.871   4.329  1.00  0.00    -0.200 F 
ATOM     49  C   UNL     1       7.736   9.664   4.108  1.00  0.00     0.200 A 
ATOM     50  F   UNL     1       6.197  11.435   3.842  1.00  0.00    -0.200 F 
ATOM     51  F   UNL     1       7.921   9.999   5.392  1.00  0.00    -0.200 F 
ENDBRANCH  27  41
BRANCH  28  52
ATOM     52  C   UNL     1       5.223   6.213  -7.981  1.00  0.00     0.064 A 
ATOM     53  C   UNL     1       6.215   5.888  -8.915  1.00  0.00     0.173 A 
ATOM     54  C   UNL     1       3.883   6.103  -8.383  1.00  0.00     0.173 A 
ATOM     55  F   UNL     1       7.509   5.989  -8.579  1.00  0.00    -0.203 F 
ATOM     56  C   UNL     1       5.880   5.475 -10.203  1.00  0.00     0.198 A 
ATOM     57  C   UNL     1       3.549   5.661  -9.660  1.00  0.00     0.198 A 
ATOM     58  F   UNL     1       2.897   6.389  -7.520  1.00  0.00    -0.203 F 
ATOM     59  F   UNL     1       6.848   5.198 -11.087  1.00  0.00    -0.200 F 
ATOM     60  C   UNL     1       4.548   5.354 -10.571  1.00  0.00     0.200 A 
ATOM     61  F   UNL     1       2.262   5.523 -10.004  1.00  0.00    -0.200 F 
ATOM     62  F   UNL     1       4.228   4.939 -11.804  1.00  0.00    -0.200 F 
ENDBRANCH  28  52
BRANCH  40  63
ATOM     63  C   UNL     1       8.325  11.780  -5.132  1.00  0.00     0.064 A 
ATOM     64  C   UNL     1       7.549  12.806  -5.689  1.00  0.00     0.173 A 
ATOM     65  C   UNL     1       9.717  11.956  -5.090  1.00  0.00     0.173 A 
ATOM     66  F   UNL     1       6.216  12.678  -5.769  1.00  0.00    -0.203 F 
ATOM     67  C   UNL     1       8.146  13.956  -6.199  1.00  0.00     0.198 A 
ATOM     68  C   UNL     1      10.307  13.120  -5.572  1.00  0.00     0.198 A 
ATOM     69  F   UNL     1      10.503  11.005  -4.564  1.00  0.00    -0.203 F 
ATOM     70  F   UNL     1       7.389  14.906  -6.767  1.00  0.00    -0.200 F 
ATOM     71  C   UNL     1       9.522  14.117  -6.131  1.00  0.00     0.200 A 
ATOM     72  F   UNL     1      11.635  13.279  -5.491  1.00  0.00    -0.200 F 
ATOM     73  F   UNL     1      10.093  15.230  -6.610  1.00  0.00    -0.200 F 
ENDBRANCH  40  63
ENDBRANCH  14  15
ENDBRANCH   7   9
ENDBRANCH   4   5
ENDBRANCH   3   4
ENDBRANCH   2   3
ENDBRANCH   1   2
BRANCH   1  74
ATOM     74  N   UNL     1       5.982  -4.003   2.243  1.00  0.00    -0.356 N 
ATOM     75  C   UNL     1       6.481  -4.882   3.156  1.00  0.00     0.225 C 
ATOM     76  H   UNL     1       6.650  -3.562   1.670  1.00  0.00     0.163 HD
ATOM     77  O   UNL     1       7.704  -4.957   3.268  1.00  0.00    -0.275 OA
BRANCH  75  78
ATOM     78  C   UNL     1       5.527  -5.724   3.996  1.00  0.00     0.109 C 
ATOM     79  C   UNL     1       5.217  -5.095   5.339  1.00  0.00     0.026 C 
ATOM     80  C   UNL     1       6.106  -7.135   4.173  1.00  0.00     0.164 C 
ATOM     81  C   UNL     1       6.453  -5.050   6.202  1.00  0.00     0.101 C 
ATOM     82  N   UNL     1       6.996  -7.340   5.330  1.00  0.00    -0.332 N 
ATOM     83  C   UNL     1       7.205  -6.357   6.300  1.00  0.00     0.223 C 
ATOM     84  O   UNL     1       8.042  -6.475   7.201  1.00  0.00    -0.275 OA
BRANCH  80  85
ATOM     85  C   UNL     1       4.989  -8.139   4.126  1.00  0.00     0.127 A 
ATOM     86  C   UNL     1       4.253  -8.632   3.064  1.00  0.00     0.048 A 
ATOM     87  O   UNL     1       4.572  -8.714   5.288  1.00  0.00    -0.467 OA
ATOM     88  C   UNL     1       3.370  -9.594   3.603  1.00  0.00     0.042 A 
ATOM     89  C   UNL     1       3.612  -9.616   4.957  1.00  0.00     0.195 A 
ENDBRANCH  80  85
BRANCH  82  90
ATOM     90  C   UNL     1       7.975  -8.445   5.354  1.00  0.00     0.122 C 
BRANCH  90  91
ATOM     91  C   UNL     1       7.650  -9.846   4.822  1.00  0.00     0.050 C 
BRANCH  91  92
ATOM     92  C   UNL     1       7.680 -10.108   3.313  1.00  0.00     0.162 C 
BRANCH  92  93
ATOM     93  O   UNL     1       8.962 -10.371   2.742  1.00  0.00    -0.378 OA
BRANCH  93  94
ATOM     94  C   UNL     1       9.848  -9.297   2.400  1.00  0.00     0.118 C 
ATOM     95  C   UNL     1       9.164  -7.996   1.982  1.00  0.00     0.032 C 
ATOM     96  C   UNL     1      10.918  -9.155   3.491  1.00  0.00     0.032 C 
ATOM     97  C   UNL     1      10.110  -6.818   1.840  1.00  0.00     0.003 C 
ATOM     98  C   UNL     1      11.720  -7.856   3.447  1.00  0.00     0.003 C 
ATOM     99  C   UNL     1      10.877  -6.624   3.141  1.00  0.00     0.000 C 
ENDBRANCH  93  94
ENDBRANCH  92  93
ENDBRANCH  91  92
ENDBRANCH  90  91
ENDBRANCH  82  90
ENDBRANCH  75  78
ENDBRANCH   1  74
TORSDOF 17
