REMARK SMILES COc1ccc(-c2ccc(/C=C3\SC(=S)N([C@H](Cc4ccccc4)C(=O)NCCCCNC(=O)c4ccc(-c5c6nc(c(-c7c(F)c(F)c(F)c(F)c7F)c7ccc([nH]7)c(-c7c(F)c(F)c(F)c(F)c7F)c7nc(c(-c8c(F)c(F)c(F)c(F)c8F)c8ccc5[nH]8)C=C7)C=C6)cc4)C3=O)o2)cc1
REMARK SMILES IDX 28 1 27 2 25 3 26 4 17 6 16 7 11 8 12 9 13 10 98 11 14 12
REMARK SMILES IDX 99 13 15 14 10 15 7 16 8 17 100 18 9 19 6 20 3 21 4 22
REMARK SMILES IDX 102 23 5 24 101 25 2 26 1 27 18 28 19 29 20 30 24 31 21 32
REMARK SMILES IDX 23 33 22 34 29 35 30 36 31 37 32 38 33 39 34 41 35 42 36 43
REMARK SMILES IDX 97 44 37 45 96 46 38 47 39 48 40 49 90 50 41 51 95 52 89 53
REMARK SMILES IDX 91 54 42 55 94 56 88 57 87 58 43 60 75 61 55 62 74 63 56 64
REMARK SMILES IDX 59 65 73 66 92 67 57 68 58 69 72 71 93 72 60 73 44 74 45 75
REMARK SMILES IDX 53 76 46 77 47 78 51 79 54 80 48 81 49 82 52 83 50 84 76 85
REMARK SMILES IDX 77 86 85 87 78 88 79 89 83 90 86 91 80 92 81 93 84 94 82 95
REMARK SMILES IDX 61 96 62 97 70 98 63 99 64 100 68 101 71 102 65 103 66 104
REMARK SMILES IDX 69 105 67 106
REMARK H PARENT 27 5 32 40 91 59 59 70
REMARK Flexibility Score: inf
ROOT
ATOM      1  C   UNL     1       1.429 -12.611   5.726  1.00  0.00     0.116 C 
ENDROOT
BRANCH   1   2
ATOM      2  N   UNL     1       1.533 -12.986   7.108  1.00  0.00    -0.354 N 
ATOM      3  C   UNL     1       0.630 -12.738   8.096  1.00  0.00     0.243 C 
ATOM      4  O   UNL     1       0.748 -13.425   9.119  1.00  0.00    -0.273 OA
ATOM      5  H   UNL     1       2.346 -13.476   7.369  1.00  0.00     0.163 HD
BRANCH   3   6
ATOM      6  C   UNL     1      -0.534 -11.706   7.987  1.00  0.00     0.185 C 
BRANCH   6   7
ATOM      7  N   UNL     1      -1.821 -12.199   7.409  1.00  0.00    -0.280 N 
ATOM      8  C   UNL     1      -3.776 -12.542   4.423  1.00  0.00     0.068 C 
ATOM      9  C   UNL     1      -3.421 -12.584   5.711  1.00  0.00     0.084 C 
ATOM     10  S   UNL     1      -4.310 -12.911   7.122  1.00  0.00    -0.054 SA
ATOM     11  C   UNL     1      -2.007 -12.338   6.053  1.00  0.00     0.267 C 
ATOM     12  C   UNL     1      -2.911 -12.604   8.166  1.00  0.00     0.149 C 
ATOM     13  O   UNL     1      -1.166 -12.316   5.164  1.00  0.00    -0.268 OA
ATOM     14  S   UNL     1      -3.040 -12.786   9.820  1.00  0.00    -0.052 S 
BRANCH   8  15
ATOM     15  C   UNL     1      -5.061 -12.812   3.909  1.00  0.00     0.128 A 
ATOM     16  C   UNL     1      -6.538 -13.772   2.562  1.00  0.00     0.134 A 
ATOM     17  C   UNL     1      -7.234 -12.827   3.279  1.00  0.00     0.051 A 
ATOM     18  O   UNL     1      -5.231 -13.751   2.926  1.00  0.00    -0.457 OA
ATOM     19  C   UNL     1      -6.295 -12.228   4.157  1.00  0.00     0.051 A 
BRANCH  16  20
ATOM     20  C   UNL     1      -6.880 -14.747   1.545  1.00  0.00     0.017 A 
ATOM     21  C   UNL     1      -7.605 -16.681  -0.364  1.00  0.00     0.118 A 
ATOM     22  C   UNL     1      -6.765 -17.018   0.697  1.00  0.00     0.047 A 
ATOM     23  C   UNL     1      -8.073 -15.372  -0.478  1.00  0.00     0.047 A 
ATOM     24  C   UNL     1      -6.390 -16.056   1.636  1.00  0.00     0.016 A 
ATOM     25  C   UNL     1      -7.717 -14.411   0.477  1.00  0.00     0.016 A 
BRANCH  21  26
ATOM     26  O   UNL     1      -7.929 -17.722  -1.189  1.00  0.00    -0.497 OA
ATOM     27  C   UNL     1      -8.377 -17.380  -2.494  1.00  0.00     0.278 C 
ENDBRANCH  21  26
ENDBRANCH  16  20
ENDBRANCH   8  15
ENDBRANCH   6   7
BRANCH   6  28
ATOM     28  C   UNL     1      -0.153 -10.201   7.781  1.00  0.00     0.071 C 
BRANCH  28  29
ATOM     29  C   UNL     1      -0.050  -9.590   6.404  1.00  0.00    -0.045 A 
ATOM     30  C   UNL     1       1.205  -9.293   5.848  1.00  0.00     0.004 A 
ATOM     31  C   UNL     1      -1.193  -9.347   5.632  1.00  0.00     0.004 A 
ATOM     32  C   UNL     1       1.319  -8.928   4.504  1.00  0.00     0.000 A 
ATOM     33  C   UNL     1      -1.078  -8.998   4.285  1.00  0.00     0.000 A 
ATOM     34  C   UNL     1       0.179  -8.822   3.712  1.00  0.00     0.000 A 
ENDBRANCH  28  29
ENDBRANCH   6  28
ENDBRANCH   3   6
ENDBRANCH   1   2
BRANCH   1  35
ATOM     35  C   UNL     1       2.719 -12.172   5.062  1.00  0.00     0.023 C 
BRANCH  35  36
ATOM     36  C   UNL     1       3.466 -13.276   4.345  1.00  0.00     0.023 C 
BRANCH  36  37
ATOM     37  C   UNL     1       2.638 -14.039   3.317  1.00  0.00     0.116 C 
BRANCH  37  38
ATOM     38  N   UNL     1       2.051 -13.209   2.266  1.00  0.00    -0.352 N 
ATOM     39  C   UNL     1       2.242 -13.260   0.901  1.00  0.00     0.251 C 
ATOM     40  H   UNL     1       1.429 -12.512   2.578  1.00  0.00     0.163 HD
ATOM     41  O   UNL     1       1.741 -12.427   0.155  1.00  0.00    -0.269 OA
BRANCH  39  42
ATOM     42  C   UNL     1       3.118 -14.315   0.354  1.00  0.00     0.039 A 
ATOM     43  C   UNL     1       4.170 -13.964  -0.493  1.00  0.00     0.014 A 
ATOM     44  C   UNL     1       2.979 -15.626   0.806  1.00  0.00     0.014 A 
ATOM     45  C   UNL     1       5.158 -14.908  -0.779  1.00  0.00     0.010 A 
ATOM     46  C   UNL     1       4.038 -16.506   0.651  1.00  0.00     0.010 A 
ATOM     47  C   UNL     1       5.140 -16.163  -0.148  1.00  0.00    -0.014 A 
BRANCH  47  48
ATOM     48  C   UNL     1       6.250 -17.139  -0.303  1.00  0.00     0.031 A 
ATOM     49  C   UNL     1       5.957 -18.528  -0.803  1.00  0.00     0.074 A 
ATOM     50  C   UNL     1       7.496 -16.816   0.099  1.00  0.00     0.049 A 
ATOM     51  N   UNL     1       6.757 -19.557  -0.913  1.00  0.00    -0.248 NA
ATOM     52  C   UNL     1       4.563 -18.814  -1.181  1.00  0.00     0.031 C 
ATOM     53  C   UNL     1       7.896 -15.534   0.683  1.00  0.00     0.029 A 
ATOM     54  N   UNL     1       8.658 -17.548   0.089  1.00  0.00    -0.354 N 
ATOM     55  C   UNL     1       5.957 -20.610  -1.336  1.00  0.00     0.074 A 
ATOM     56  C   UNL     1       4.599 -20.121  -1.384  1.00  0.00     0.031 C 
ATOM     57  C   UNL     1       9.213 -15.557   0.942  1.00  0.00     0.029 A 
ATOM     58  C   UNL     1       9.745 -16.868   0.586  1.00  0.00     0.049 A 
ATOM     59  H   UNL     1       8.709 -18.473  -0.243  1.00  0.00     0.167 HD
ATOM     60  C   UNL     1       6.324 -21.865  -1.688  1.00  0.00     0.037 A 
ATOM     61  C   UNL     1      11.024 -17.261   0.743  1.00  0.00     0.037 A 
ATOM     62  C   UNL     1       7.684 -22.331  -1.682  1.00  0.00     0.049 A 
ATOM     63  C   UNL     1      11.419 -18.648   0.313  1.00  0.00     0.074 A 
ATOM     64  C   UNL     1       8.180 -23.548  -2.111  1.00  0.00     0.029 A 
ATOM     65  N   UNL     1       8.765 -21.597  -1.216  1.00  0.00    -0.354 N 
ATOM     66  N   UNL     1      10.671 -19.605  -0.180  1.00  0.00    -0.248 NA
ATOM     67  C   UNL     1      12.837 -19.007   0.453  1.00  0.00     0.031 C 
ATOM     68  C   UNL     1       9.553 -23.575  -1.845  1.00  0.00     0.029 A 
ATOM     69  C   UNL     1       9.924 -22.349  -1.315  1.00  0.00     0.049 A 
ATOM     70  H   UNL     1       8.716 -20.678  -0.866  1.00  0.00     0.167 HD
ATOM     71  C   UNL     1      11.526 -20.669  -0.432  1.00  0.00     0.074 A 
ATOM     72  C   UNL     1      12.854 -20.232  -0.053  1.00  0.00     0.031 C 
ATOM     73  C   UNL     1      11.239 -21.897  -0.932  1.00  0.00     0.037 A 
BRANCH  60  74
ATOM     74  C   UNL     1       5.236 -22.814  -2.107  1.00  0.00     0.064 A 
ATOM     75  C   UNL     1       4.482 -22.613  -3.275  1.00  0.00     0.173 A 
ATOM     76  C   UNL     1       4.942 -23.943  -1.328  1.00  0.00     0.173 A 
ATOM     77  F   UNL     1       4.712 -21.544  -4.052  1.00  0.00    -0.203 F 
ATOM     78  C   UNL     1       3.447 -23.478  -3.620  1.00  0.00     0.198 A 
ATOM     79  C   UNL     1       3.933 -24.828  -1.698  1.00  0.00     0.198 A 
ATOM     80  F   UNL     1       5.632 -24.189  -0.204  1.00  0.00    -0.203 F 
ATOM     81  F   UNL     1       2.695 -23.223  -4.700  1.00  0.00    -0.200 F 
ATOM     82  C   UNL     1       3.178 -24.588  -2.835  1.00  0.00     0.200 A 
ATOM     83  F   UNL     1       3.684 -25.910  -0.946  1.00  0.00    -0.200 F 
ATOM     84  F   UNL     1       2.183 -25.421  -3.170  1.00  0.00    -0.200 F 
ENDBRANCH  60  74
BRANCH  61  85
ATOM     85  C   UNL     1      12.024 -16.314   1.306  1.00  0.00     0.064 A 
ATOM     86  C   UNL     1      13.041 -15.774   0.505  1.00  0.00     0.173 A 
ATOM     87  C   UNL     1      11.973 -15.914   2.650  1.00  0.00     0.173 A 
ATOM     88  F   UNL     1      13.145 -16.140  -0.781  1.00  0.00    -0.203 F 
ATOM     89  C   UNL     1      13.976 -14.883   1.030  1.00  0.00     0.198 A 
ATOM     90  C   UNL     1      12.890 -14.999   3.165  1.00  0.00     0.198 A 
ATOM     91  F   UNL     1      11.017 -16.394   3.458  1.00  0.00    -0.203 F 
ATOM     92  F   UNL     1      14.960 -14.414   0.251  1.00  0.00    -0.200 F 
ATOM     93  C   UNL     1      13.895 -14.490   2.357  1.00  0.00     0.200 A 
ATOM     94  F   UNL     1      12.797 -14.608   4.444  1.00  0.00    -0.200 F 
ATOM     95  F   UNL     1      14.786 -13.623   2.857  1.00  0.00    -0.200 F 
ENDBRANCH  61  85
BRANCH  73  96
ATOM     96  C   UNL     1      12.384 -22.848  -1.129  1.00  0.00     0.064 A 
ATOM     97  C   UNL     1      13.052 -23.436  -0.044  1.00  0.00     0.173 A 
ATOM     98  C   UNL     1      12.784 -23.215  -2.423  1.00  0.00     0.173 A 
ATOM     99  F   UNL     1      12.716 -23.109   1.213  1.00  0.00    -0.203 F 
ATOM    100  C   UNL     1      14.095 -24.335  -0.249  1.00  0.00     0.198 A 
ATOM    101  C   UNL     1      13.803 -24.141  -2.623  1.00  0.00     0.198 A 
ATOM    102  F   UNL     1      12.173 -22.689  -3.495  1.00  0.00    -0.203 F 
ATOM    103  F   UNL     1      14.752 -24.845   0.802  1.00  0.00    -0.200 F 
ATOM    104  C   UNL     1      14.464 -24.694  -1.537  1.00  0.00     0.200 A 
ATOM    105  F   UNL     1      14.145 -24.500  -3.869  1.00  0.00    -0.200 F 
ATOM    106  F   UNL     1      15.460 -25.568  -1.731  1.00  0.00    -0.200 F 
ENDBRANCH  73  96
ENDBRANCH  47  48
ENDBRANCH  39  42
ENDBRANCH  37  38
ENDBRANCH  36  37
ENDBRANCH  35  36
ENDBRANCH   1  35
TORSDOF 17
