REMARK SMILES O=C(NCCCCNC(=O)[C@@H]1CCC[N@@H+](Cc2cccc3ccccc23)C1)c1ccc(-c2c3nc(c(-c4c(F)c(F)c(F)c(F)c4F)c4ccc([nH]4)c(-c4c(F)c(F)c(F)c(F)c4F)c4nc(c(-c5c(F)c(F)c(F)c(F)c5F)c5ccc2[nH]5)C=C4)C=C3)cc1
REMARK SMILES IDX 5 1 4 2 3 3 1 4 2 5 28 7 29 8 90 9 30 10 89 11 31 12 32 13
REMARK SMILES IDX 33 14 83 15 34 16 88 17 82 18 84 19 35 20 87 21 81 22 80 23
REMARK SMILES IDX 36 25 68 26 48 27 67 28 49 29 52 30 66 31 85 32 50 33 51 34
REMARK SMILES IDX 65 36 86 37 53 38 37 39 38 40 46 41 39 42 40 43 44 44 47 45
REMARK SMILES IDX 41 46 42 47 45 48 43 49 69 50 70 51 78 52 71 53 72 54 76 55
REMARK SMILES IDX 79 56 73 57 74 58 77 59 75 60 54 61 55 62 63 63 56 64 57 65
REMARK SMILES IDX 61 66 64 67 58 68 59 69 62 70 60 71 6 72 7 73 8 74 9 75
REMARK SMILES IDX 10 77 11 78 12 79 27 80 13 81 15 82 14 83 16 85 17 86 18 87
REMARK SMILES IDX 26 88 19 89 21 90 25 91 20 92 22 93 24 94 23 95
REMARK H PARENT 3 6 84 24 52 35 8 76 15 84
REMARK Flexibility Score: inf
ROOT
ATOM      1  C   UNL     1       4.819  -2.218  -0.670  1.00  0.00     0.023 C 
ENDROOT
BRANCH   1   2
ATOM      2  C   UNL     1       4.439  -0.757  -0.524  1.00  0.00     0.116 C 
BRANCH   2   3
ATOM      3  N   UNL     1       3.014  -0.499  -0.697  1.00  0.00    -0.352 N 
ATOM      4  O   UNL     1       1.004   0.404  -0.164  1.00  0.00    -0.269 OA
ATOM      5  C   UNL     1       2.207   0.343   0.035  1.00  0.00     0.251 C 
ATOM      6  H   UNL     1       2.574  -0.989  -1.429  1.00  0.00     0.163 HD
BRANCH   5   7
ATOM      7  C   UNL     1       2.837   1.137   1.107  1.00  0.00     0.039 A 
ATOM      8  C   UNL     1       4.000   1.856   0.832  1.00  0.00     0.014 A 
ATOM      9  C   UNL     1       2.338   1.047   2.407  1.00  0.00     0.014 A 
ATOM     10  C   UNL     1       4.773   2.313   1.887  1.00  0.00     0.010 A 
ATOM     11  C   UNL     1       3.064   1.610   3.458  1.00  0.00     0.010 A 
ATOM     12  C   UNL     1       4.314   2.200   3.211  1.00  0.00    -0.014 A 
BRANCH  12  13
ATOM     13  C   UNL     1       5.162   2.735   4.304  1.00  0.00     0.031 A 
ATOM     14  C   UNL     1       5.735   1.836   5.363  1.00  0.00     0.074 A 
ATOM     15  C   UNL     1       5.466   4.047   4.285  1.00  0.00     0.049 A 
ATOM     16  N   UNL     1       6.525   2.143   6.362  1.00  0.00    -0.248 NA
ATOM     17  C   UNL     1       5.372   0.412   5.306  1.00  0.00     0.031 C 
ATOM     18  C   UNL     1       4.961   5.011   3.305  1.00  0.00     0.029 A 
ATOM     19  N   UNL     1       6.303   4.787   5.077  1.00  0.00    -0.354 N 
ATOM     20  C   UNL     1       6.715   0.966   7.075  1.00  0.00     0.074 A 
ATOM     21  C   UNL     1       5.956  -0.064   6.398  1.00  0.00     0.031 C 
ATOM     22  C   UNL     1       5.561   6.192   3.499  1.00  0.00     0.029 A 
ATOM     23  C   UNL     1       6.433   6.090   4.663  1.00  0.00     0.049 A 
ATOM     24  H   UNL     1       6.765   4.422   5.866  1.00  0.00     0.167 HD
ATOM     25  C   UNL     1       7.454   0.770   8.194  1.00  0.00     0.037 A 
ATOM     26  C   UNL     1       7.168   7.095   5.168  1.00  0.00     0.037 A 
ATOM     27  C   UNL     1       8.245   1.792   8.832  1.00  0.00     0.049 A 
ATOM     28  C   UNL     1       8.001   6.839   6.387  1.00  0.00     0.074 A 
ATOM     29  C   UNL     1       9.060   1.685   9.946  1.00  0.00     0.029 A 
ATOM     30  N   UNL     1       8.328   3.109   8.402  1.00  0.00    -0.354 N 
ATOM     31  N   UNL     1       8.170   5.722   7.052  1.00  0.00    -0.248 NA
ATOM     32  C   UNL     1       8.735   7.986   6.934  1.00  0.00     0.031 C 
ATOM     33  C   UNL     1       9.609   2.945  10.210  1.00  0.00     0.029 A 
ATOM     34  C   UNL     1       9.168   3.828   9.238  1.00  0.00     0.049 A 
ATOM     35  H   UNL     1       7.858   3.478   7.620  1.00  0.00     0.167 HD
ATOM     36  C   UNL     1       9.031   6.028   8.094  1.00  0.00     0.074 A 
ATOM     37  C   UNL     1       9.372   7.430   7.956  1.00  0.00     0.031 C 
ATOM     38  C   UNL     1       9.490   5.222   9.082  1.00  0.00     0.037 A 
BRANCH  25  39
ATOM     39  C   UNL     1       7.426  -0.593   8.822  1.00  0.00     0.064 A 
ATOM     40  C   UNL     1       8.101  -1.685   8.258  1.00  0.00     0.173 A 
ATOM     41  C   UNL     1       6.753  -0.795  10.037  1.00  0.00     0.173 A 
ATOM     42  F   UNL     1       8.748  -1.549   7.091  1.00  0.00    -0.203 F 
ATOM     43  C   UNL     1       8.087  -2.933   8.877  1.00  0.00     0.198 A 
ATOM     44  C   UNL     1       6.761  -2.037  10.666  1.00  0.00     0.198 A 
ATOM     45  F   UNL     1       6.096   0.218  10.622  1.00  0.00    -0.203 F 
ATOM     46  F   UNL     1       8.709  -3.972   8.302  1.00  0.00    -0.200 F 
ATOM     47  C   UNL     1       7.424  -3.107  10.083  1.00  0.00     0.200 A 
ATOM     48  F   UNL     1       6.128  -2.200  11.836  1.00  0.00    -0.200 F 
ATOM     49  F   UNL     1       7.419  -4.306  10.682  1.00  0.00    -0.200 F 
ENDBRANCH  25  39
BRANCH  26  50
ATOM     50  C   UNL     1       7.144   8.423   4.507  1.00  0.00     0.064 A 
ATOM     51  C   UNL     1       8.264   8.899   3.813  1.00  0.00     0.173 A 
ATOM     52  C   UNL     1       5.992   9.222   4.519  1.00  0.00     0.173 A 
ATOM     53  F   UNL     1       9.393   8.177   3.788  1.00  0.00    -0.203 F 
ATOM     54  C   UNL     1       8.233  10.129   3.160  1.00  0.00     0.198 A 
ATOM     55  C   UNL     1       5.953  10.438   3.842  1.00  0.00     0.198 A 
ATOM     56  F   UNL     1       4.892   8.804   5.163  1.00  0.00    -0.203 F 
ATOM     57  F   UNL     1       9.326  10.576   2.526  1.00  0.00    -0.200 F 
ATOM     58  C   UNL     1       7.075  10.893   3.167  1.00  0.00     0.200 A 
ATOM     59  F   UNL     1       4.826  11.162   3.834  1.00  0.00    -0.200 F 
ATOM     60  F   UNL     1       7.041  12.068   2.524  1.00  0.00    -0.200 F 
ENDBRANCH  26  50
BRANCH  38  61
ATOM     61  C   UNL     1      10.424   5.844  10.075  1.00  0.00     0.064 A 
ATOM     62  C   UNL     1       9.958   6.727  11.060  1.00  0.00     0.173 A 
ATOM     63  C   UNL     1      11.793   5.548  10.045  1.00  0.00     0.173 A 
ATOM     64  F   UNL     1       8.658   7.054  11.114  1.00  0.00    -0.203 F 
ATOM     65  C   UNL     1      10.838   7.314  11.964  1.00  0.00     0.198 A 
ATOM     66  C   UNL     1      12.667   6.118  10.966  1.00  0.00     0.198 A 
ATOM     67  F   UNL     1      12.284   4.707   9.122  1.00  0.00    -0.203 F 
ATOM     68  F   UNL     1      10.381   8.194  12.866  1.00  0.00    -0.200 F 
ATOM     69  C   UNL     1      12.190   7.006  11.919  1.00  0.00     0.200 A 
ATOM     70  F   UNL     1      13.972   5.816  10.926  1.00  0.00    -0.200 F 
ATOM     71  F   UNL     1      13.037   7.576  12.788  1.00  0.00    -0.200 F 
ENDBRANCH  38  61
ENDBRANCH  12  13
ENDBRANCH   5   7
ENDBRANCH   2   3
ENDBRANCH   1   2
BRANCH   1  72
ATOM     72  C   UNL     1       4.349  -2.872  -1.962  1.00  0.00     0.023 C 
BRANCH  72  73
ATOM     73  C   UNL     1       4.823  -2.178  -3.239  1.00  0.00     0.116 C 
BRANCH  73  74
ATOM     74  N   UNL     1       6.209  -2.469  -3.527  1.00  0.00    -0.356 N 
ATOM     75  C   UNL     1       6.848  -3.295  -4.390  1.00  0.00     0.228 C 
ATOM     76  H   UNL     1       6.831  -1.948  -2.968  1.00  0.00     0.163 HD
ATOM     77  O   UNL     1       8.084  -3.246  -4.309  1.00  0.00    -0.275 OA
BRANCH  75  78
ATOM     78  C   UNL     1       6.185  -4.117  -5.511  1.00  0.00     0.133 C 
ATOM     79  C   UNL     1       4.722  -4.544  -5.460  1.00  0.00     0.025 C 
ATOM     80  C   UNL     1       7.017  -5.400  -5.765  1.00  0.00     0.276 C 
ATOM     81  C   UNL     1       4.495  -5.564  -4.359  1.00  0.00     0.062 C 
ATOM     82  N   UNL     1       6.776  -6.466  -4.774  1.00  0.00    -0.331 N 
ATOM     83  C   UNL     1       5.358  -6.795  -4.584  1.00  0.00     0.262 C 
ATOM     84  H   UNL     1       7.078  -6.072  -3.883  1.00  0.00     0.348 HD
BRANCH  82  85
ATOM     85  C   UNL     1       7.613  -7.666  -5.014  1.00  0.00     0.299 C 
BRANCH  85  86
ATOM     86  C   UNL     1       6.996  -8.719  -5.930  1.00  0.00     0.014 A 
ATOM     87  C   UNL     1       6.996  -8.458  -7.314  1.00  0.00     0.010 A 
ATOM     88  C   UNL     1       6.306  -9.868  -5.430  1.00  0.00    -0.010 A 
ATOM     89  C   UNL     1       6.263  -9.246  -8.191  1.00  0.00     0.001 A 
ATOM     90  C   UNL     1       5.567 -10.663  -6.345  1.00  0.00    -0.018 A 
ATOM     91  C   UNL     1       6.286 -10.267  -4.070  1.00  0.00     0.009 A 
ATOM     92  C   UNL     1       5.542 -10.330  -7.706  1.00  0.00     0.009 A 
ATOM     93  C   UNL     1       4.844 -11.779  -5.891  1.00  0.00     0.009 A 
ATOM     94  C   UNL     1       5.577 -11.391  -3.636  1.00  0.00     0.001 A 
ATOM     95  C   UNL     1       4.852 -12.145  -4.547  1.00  0.00     0.001 A 
ENDBRANCH  85  86
ENDBRANCH  82  85
ENDBRANCH  75  78
ENDBRANCH  73  74
ENDBRANCH  72  73
ENDBRANCH   1  72
TORSDOF 13
