REMARK SMILES COc1ccc(-c2cccc(/C=C\C(=O)NCCCCNC(=O)c3ccc(-c4c5nc(c(-c6c(F)c(F)c(F)c(F)c6F)c6ccc([nH]6)c(-c6c(F)c(F)c(F)c(F)c6F)c6nc(c(-c7c(F)c(F)c(F)c(F)c7F)c7ccc4[nH]7)C=C6)C=C5)cc3)c2)c(Cl)c1OC
REMARK SMILES IDX 18 1 17 2 16 3 14 4 15 5 13 7 12 8 11 9 7 10 8 11 87 12 9 13
REMARK SMILES IDX 10 14 6 15 3 16 4 17 90 18 5 19 88 20 89 21 2 22 1 23 91 24
REMARK SMILES IDX 92 25 19 26 20 27 21 28 22 29 23 31 24 32 25 33 86 34 26 35
REMARK SMILES IDX 85 36 27 37 28 38 29 39 79 40 30 41 84 42 78 43 80 44 31 45
REMARK SMILES IDX 83 46 77 47 76 48 32 50 64 51 44 52 63 53 45 54 48 55 62 56
REMARK SMILES IDX 81 57 46 58 47 59 61 61 82 62 49 63 33 64 34 65 42 66 35 67
REMARK SMILES IDX 36 68 40 69 43 70 37 71 38 72 41 73 39 74 65 75 66 76 74 77
REMARK SMILES IDX 67 78 68 79 72 80 75 81 69 82 70 83 73 84 71 85 50 86 51 87
REMARK SMILES IDX 59 88 52 89 53 90 57 91 60 92 54 93 55 94 58 95 56 96
REMARK H PARENT 16 6 21 30 80 49 48 60
REMARK Flexibility Score: inf
ROOT
ATOM      1  C   UNL     1       1.973   7.273   7.403  1.00  0.00     0.023 C 
ENDROOT
BRANCH   1   2
ATOM      2  C   UNL     1       2.090   5.844   7.910  1.00  0.00     0.116 C 
BRANCH   2   3
ATOM      3  N   UNL     1       2.499   5.701   9.290  1.00  0.00    -0.353 N 
ATOM      4  C   UNL     1       2.244   4.688  10.164  1.00  0.00     0.243 C 
ATOM      5  O   UNL     1       2.731   4.744  11.294  1.00  0.00    -0.270 OA
ATOM      6  H   UNL     1       3.039   6.441   9.649  1.00  0.00     0.163 HD
BRANCH   4   7
ATOM      7  C   UNL     1       1.315   3.561   9.857  1.00  0.00     0.072 C 
ATOM      8  C   UNL     1       1.192   2.732   8.804  1.00  0.00     0.014 C 
BRANCH   8   9
ATOM      9  C   UNL     1       1.968   2.738   7.560  1.00  0.00    -0.025 A 
ATOM     10  C   UNL     1       1.990   2.862   5.109  1.00  0.00    -0.016 A 
ATOM     11  C   UNL     1       3.362   3.187   5.207  1.00  0.00     0.009 A 
ATOM     12  C   UNL     1       1.302   2.657   6.318  1.00  0.00     0.017 A 
ATOM     13  C   UNL     1       4.051   3.133   6.418  1.00  0.00     0.001 A 
ATOM     14  C   UNL     1       3.358   2.872   7.592  1.00  0.00     0.008 A 
BRANCH  10  15
ATOM     15  C   UNL     1       1.401   2.607   3.760  1.00  0.00     0.004 A 
ATOM     16  C   UNL     1       0.546   1.852   1.164  1.00  0.00     0.162 A 
ATOM     17  C   UNL     1       1.827   1.536   1.593  1.00  0.00     0.051 A 
ATOM     18  C   UNL     1      -0.317   2.618   1.982  1.00  0.00     0.180 A 
ATOM     19  C   UNL     1       2.225   1.879   2.873  1.00  0.00     0.014 A 
ATOM     20  C   UNL     1       0.122   3.009   3.278  1.00  0.00     0.094 A 
ATOM     21  Cl  UNL     1      -0.828   4.090   4.256  1.00  0.00    -0.079 Cl
BRANCH  16  22
ATOM     22  O   UNL     1       0.098   1.461  -0.078  1.00  0.00    -0.493 OA
ATOM     23  C   UNL     1       0.526   0.153  -0.460  1.00  0.00     0.278 C 
ENDBRANCH  16  22
BRANCH  18  24
ATOM     24  O   UNL     1      -1.480   2.967   1.338  1.00  0.00    -0.491 OA
ATOM     25  C   UNL     1      -2.693   3.098   2.057  1.00  0.00     0.278 C 
ENDBRANCH  18  24
ENDBRANCH  10  15
ENDBRANCH   8   9
ENDBRANCH   4   7
ENDBRANCH   2   3
ENDBRANCH   1   2
BRANCH   1  26
ATOM     26  C   UNL     1       3.287   8.017   7.155  1.00  0.00     0.023 C 
BRANCH  26  27
ATOM     27  C   UNL     1       4.371   7.306   6.343  1.00  0.00     0.116 C 
BRANCH  27  28
ATOM     28  N   UNL     1       3.937   6.779   5.058  1.00  0.00    -0.352 N 
ATOM     29  C   UNL     1       4.544   6.850   3.820  1.00  0.00     0.251 C 
ATOM     30  H   UNL     1       3.078   6.299   5.073  1.00  0.00     0.163 HD
ATOM     31  O   UNL     1       4.036   6.318   2.849  1.00  0.00    -0.269 OA
BRANCH  29  32
ATOM     32  C   UNL     1       5.806   7.611   3.659  1.00  0.00     0.039 A 
ATOM     33  C   UNL     1       5.894   8.556   2.631  1.00  0.00     0.014 A 
ATOM     34  C   UNL     1       6.884   7.416   4.524  1.00  0.00     0.014 A 
ATOM     35  C   UNL     1       7.025   9.372   2.533  1.00  0.00     0.010 A 
ATOM     36  C   UNL     1       7.976   8.280   4.472  1.00  0.00     0.010 A 
ATOM     37  C   UNL     1       8.055   9.274   3.483  1.00  0.00    -0.014 A 
BRANCH  37  38
ATOM     38  C   UNL     1       9.211  10.209   3.472  1.00  0.00     0.031 A 
ATOM     39  C   UNL     1      10.604   9.687   3.254  1.00  0.00     0.074 A 
ATOM     40  C   UNL     1       9.015  11.515   3.743  1.00  0.00     0.049 A 
ATOM     41  N   UNL     1      11.746  10.326   3.292  1.00  0.00    -0.248 NA
ATOM     42  C   UNL     1      10.733   8.245   2.993  1.00  0.00     0.031 C 
ATOM     43  C   UNL     1       7.721  12.133   4.036  1.00  0.00     0.029 A 
ATOM     44  N   UNL     1       9.906  12.557   3.830  1.00  0.00    -0.354 N 
ATOM     45  C   UNL     1      12.726   9.364   3.083  1.00  0.00     0.074 A 
ATOM     46  C   UNL     1      12.049   8.090   2.974  1.00  0.00     0.031 C 
ATOM     47  C   UNL     1       7.897  13.448   4.247  1.00  0.00     0.029 A 
ATOM     48  C   UNL     1       9.318  13.761   4.135  1.00  0.00     0.049 A 
ATOM     49  H   UNL     1      10.874  12.451   3.687  1.00  0.00     0.167 HD
ATOM     50  C   UNL     1      14.065   9.530   2.966  1.00  0.00     0.037 A 
ATOM     51  C   UNL     1       9.865  14.980   4.303  1.00  0.00     0.037 A 
ATOM     52  C   UNL     1      14.731  10.805   3.044  1.00  0.00     0.049 A 
ATOM     53  C   UNL     1      11.352  15.145   4.132  1.00  0.00     0.074 A 
ATOM     54  C   UNL     1      16.076  11.090   2.886  1.00  0.00     0.029 A 
ATOM     55  N   UNL     1      14.094  12.011   3.300  1.00  0.00    -0.354 N 
ATOM     56  N   UNL     1      12.260  14.238   3.866  1.00  0.00    -0.248 NA
ATOM     57  C   UNL     1      11.887  16.507   4.270  1.00  0.00     0.031 C 
ATOM     58  C   UNL     1      16.258  12.463   3.080  1.00  0.00     0.029 A 
ATOM     59  C   UNL     1      15.020  13.042   3.310  1.00  0.00     0.049 A 
ATOM     60  H   UNL     1      13.127  12.118   3.451  1.00  0.00     0.167 HD
ATOM     61  C   UNL     1      13.465  14.920   3.770  1.00  0.00     0.074 A 
ATOM     62  C   UNL     1      13.170  16.320   3.993  1.00  0.00     0.031 C 
ATOM     63  C   UNL     1      14.704  14.432   3.519  1.00  0.00     0.037 A 
BRANCH  50  64
ATOM     64  C   UNL     1      14.898   8.301   2.734  1.00  0.00     0.064 A 
ATOM     65  C   UNL     1      14.834   7.588   1.526  1.00  0.00     0.173 A 
ATOM     66  C   UNL     1      15.784   7.840   3.719  1.00  0.00     0.173 A 
ATOM     67  F   UNL     1      13.995   7.978   0.555  1.00  0.00    -0.203 F 
ATOM     68  C   UNL     1      15.597   6.439   1.329  1.00  0.00     0.198 A 
ATOM     69  C   UNL     1      16.570   6.710   3.506  1.00  0.00     0.198 A 
ATOM     70  F   UNL     1      15.891   8.487   4.890  1.00  0.00    -0.203 F 
ATOM     71  F   UNL     1      15.474   5.742   0.191  1.00  0.00    -0.200 F 
ATOM     72  C   UNL     1      16.469   6.005   2.316  1.00  0.00     0.200 A 
ATOM     73  F   UNL     1      17.422   6.299   4.455  1.00  0.00    -0.200 F 
ATOM     74  F   UNL     1      17.204   4.902   2.124  1.00  0.00    -0.200 F 
ENDBRANCH  50  64
BRANCH  51  75
ATOM     75  C   UNL     1       8.999  16.151   4.604  1.00  0.00     0.064 A 
ATOM     76  C   UNL     1       8.792  17.155   3.646  1.00  0.00     0.173 A 
ATOM     77  C   UNL     1       8.363  16.294   5.845  1.00  0.00     0.173 A 
ATOM     78  F   UNL     1       9.394  17.073   2.450  1.00  0.00    -0.203 F 
ATOM     79  C   UNL     1       8.002  18.268   3.927  1.00  0.00     0.198 A 
ATOM     80  C   UNL     1       7.550  17.394   6.115  1.00  0.00     0.198 A 
ATOM     81  F   UNL     1       8.523  15.360   6.793  1.00  0.00    -0.203 F 
ATOM     82  F   UNL     1       7.860  19.234   3.010  1.00  0.00    -0.200 F 
ATOM     83  C   UNL     1       7.377  18.384   5.159  1.00  0.00     0.200 A 
ATOM     84  F   UNL     1       6.937  17.496   7.302  1.00  0.00    -0.200 F 
ATOM     85  F   UNL     1       6.614  19.453   5.427  1.00  0.00    -0.200 F 
ENDBRANCH  51  75
BRANCH  63  86
ATOM     86  C   UNL     1      15.826  15.425   3.422  1.00  0.00     0.064 A 
ATOM     87  C   UNL     1      16.325  16.089   4.552  1.00  0.00     0.173 A 
ATOM     88  C   UNL     1      16.427  15.693   2.182  1.00  0.00     0.173 A 
ATOM     89  F   UNL     1      15.775  15.877   5.757  1.00  0.00    -0.203 F 
ATOM     90  C   UNL     1      17.365  17.008   4.439  1.00  0.00     0.198 A 
ATOM     91  C   UNL     1      17.486  16.589   2.079  1.00  0.00     0.198 A 
ATOM     92  F   UNL     1      15.991  15.079   1.072  1.00  0.00    -0.203 F 
ATOM     93  F   UNL     1      17.792  17.670   5.524  1.00  0.00    -0.200 F 
ATOM     94  C   UNL     1      17.948  17.252   3.205  1.00  0.00     0.200 A 
ATOM     95  F   UNL     1      18.057  16.814   0.887  1.00  0.00    -0.200 F 
ATOM     96  F   UNL     1      18.952  18.135   3.100  1.00  0.00    -0.200 F 
ENDBRANCH  63  86
ENDBRANCH  37  38
ENDBRANCH  29  32
ENDBRANCH  27  28
ENDBRANCH  26  27
ENDBRANCH   1  26
TORSDOF 15
