REMARK SMILES O=C(NCCCCNC(=O)c1ccc(F)cc1NC(=O)[C@H]1CCS(=O)(=O)C1)c1ccc(-c2c3nc(c(-c4c(F)c(F)c(F)c(F)c4F)c4ccc([nH]4)c(-c4c(F)c(F)c(F)c(F)c4F)c4nc(c(-c5c(F)c(F)c(F)c(F)c5F)c5ccc2[nH]5)C=C4)C=C3)cc1
REMARK SMILES IDX 5 1 4 2 3 3 1 4 2 5 28 7 29 8 90 9 30 10 89 11 31 12 32 13
REMARK SMILES IDX 33 14 83 15 34 16 88 17 82 18 84 19 35 20 87 21 81 22 80 23
REMARK SMILES IDX 36 25 68 26 48 27 67 28 49 29 52 30 66 31 85 32 50 33 51 34
REMARK SMILES IDX 65 36 86 37 53 38 37 39 38 40 46 41 39 42 40 43 44 44 47 45
REMARK SMILES IDX 41 46 42 47 45 48 43 49 69 50 70 51 78 52 71 53 72 54 76 55
REMARK SMILES IDX 79 56 73 57 74 58 77 59 75 60 54 61 55 62 63 63 56 64 57 65
REMARK SMILES IDX 61 66 64 67 58 68 59 69 62 70 60 71 6 72 7 73 8 74 9 75
REMARK SMILES IDX 10 77 11 78 12 79 17 80 13 81 16 82 14 83 15 84 18 85 19 86
REMARK SMILES IDX 20 88 21 89 22 90 27 91 23 92 24 93 25 94 26 95
REMARK H PARENT 3 6 84 24 52 35 8 76 18 87
REMARK Flexibility Score: inf
ROOT
ATOM      1  C   UNL     1       6.808 -15.540  -0.369  1.00  0.00     0.023 C 
ENDROOT
BRANCH   1   2
ATOM      2  C   UNL     1       6.508 -16.999  -0.680  1.00  0.00     0.116 C 
BRANCH   2   3
ATOM      3  N   UNL     1       7.705 -17.822  -0.801  1.00  0.00    -0.352 N 
ATOM      4  O   UNL     1       9.204 -19.411  -0.214  1.00  0.00    -0.269 OA
ATOM      5  C   UNL     1       8.096 -18.911  -0.055  1.00  0.00     0.251 C 
ATOM      6  H   UNL     1       8.324 -17.562  -1.522  1.00  0.00     0.163 HD
BRANCH   5   7
ATOM      7  C   UNL     1       7.181 -19.445   0.974  1.00  0.00     0.039 A 
ATOM      8  C   UNL     1       5.829 -19.617   0.683  1.00  0.00     0.014 A 
ATOM      9  C   UNL     1       7.663 -19.702   2.260  1.00  0.00     0.014 A 
ATOM     10  C   UNL     1       4.930 -19.816   1.719  1.00  0.00     0.010 A 
ATOM     11  C   UNL     1       6.765 -20.034   3.280  1.00  0.00     0.010 A 
ATOM     12  C   UNL     1       5.384 -20.036   3.031  1.00  0.00    -0.014 A 
BRANCH  12  13
ATOM     13  C   UNL     1       4.387 -20.293   4.103  1.00  0.00     0.031 A 
ATOM     14  C   UNL     1       4.256 -19.379   5.291  1.00  0.00     0.074 A 
ATOM     15  C   UNL     1       3.548 -21.338   3.962  1.00  0.00     0.049 A 
ATOM     16  N   UNL     1       3.409 -19.443   6.289  1.00  0.00    -0.248 NA
ATOM     17  C   UNL     1       5.197 -18.252   5.381  1.00  0.00     0.031 C 
ATOM     18  C   UNL     1       3.581 -22.295   2.854  1.00  0.00     0.029 A 
ATOM     19  N   UNL     1       2.490 -21.755   4.728  1.00  0.00    -0.354 N 
ATOM     20  C   UNL     1       3.723 -18.381   7.128  1.00  0.00     0.074 A 
ATOM     21  C   UNL     1       4.864 -17.709   6.544  1.00  0.00     0.031 C 
ATOM     22  C   UNL     1       2.552 -23.143   2.973  1.00  0.00     0.029 A 
ATOM     23  C   UNL     1       1.836 -22.845   4.208  1.00  0.00     0.049 A 
ATOM     24  H   UNL     1       2.225 -21.316   5.568  1.00  0.00     0.167 HD
ATOM     25  C   UNL     1       3.106 -17.997   8.271  1.00  0.00     0.037 A 
ATOM     26  C   UNL     1       0.786 -23.544   4.676  1.00  0.00     0.037 A 
ATOM     27  C   UNL     1       1.962 -18.666   8.839  1.00  0.00     0.049 A 
ATOM     28  C   UNL     1       0.144 -23.119   5.963  1.00  0.00     0.074 A 
ATOM     29  C   UNL     1       1.256 -18.342   9.985  1.00  0.00     0.029 A 
ATOM     30  N   UNL     1       1.357 -19.797   8.306  1.00  0.00    -0.354 N 
ATOM     31  N   UNL     1       0.444 -22.105   6.739  1.00  0.00    -0.248 NA
ATOM     32  C   UNL     1      -0.980 -23.932   6.442  1.00  0.00     0.031 C 
ATOM     33  C   UNL     1       0.265 -19.308  10.178  1.00  0.00     0.029 A 
ATOM     34  C   UNL     1       0.302 -20.194   9.113  1.00  0.00     0.049 A 
ATOM     35  H   UNL     1       1.637 -20.249   7.478  1.00  0.00     0.167 HD
ATOM     36  C   UNL     1      -0.466 -22.144   7.785  1.00  0.00     0.074 A 
ATOM     37  C   UNL     1      -1.339 -23.273   7.535  1.00  0.00     0.031 C 
ATOM     38  C   UNL     1      -0.565 -21.317   8.854  1.00  0.00     0.037 A 
BRANCH  25  39
ATOM     39  C   UNL     1       3.653 -16.801   9.002  1.00  0.00     0.064 A 
ATOM     40  C   UNL     1       4.239 -16.948  10.270  1.00  0.00     0.173 A 
ATOM     41  C   UNL     1       3.533 -15.502   8.486  1.00  0.00     0.173 A 
ATOM     42  F   UNL     1       4.372 -18.165  10.817  1.00  0.00    -0.203 F 
ATOM     43  C   UNL     1       4.670 -15.840  10.996  1.00  0.00     0.198 A 
ATOM     44  C   UNL     1       3.996 -14.399   9.201  1.00  0.00     0.198 A 
ATOM     45  F   UNL     1       2.991 -15.303   7.275  1.00  0.00    -0.203 F 
ATOM     46  F   UNL     1       5.191 -16.004  12.220  1.00  0.00    -0.200 F 
ATOM     47  C   UNL     1       4.553 -14.568  10.459  1.00  0.00     0.200 A 
ATOM     48  F   UNL     1       3.907 -13.172   8.668  1.00  0.00    -0.200 F 
ATOM     49  F   UNL     1       4.982 -13.504  11.153  1.00  0.00    -0.200 F 
ENDBRANCH  25  39
BRANCH  26  50
ATOM     50  C   UNL     1       0.286 -24.707   3.900  1.00  0.00     0.064 A 
ATOM     51  C   UNL     1       1.067 -25.863   3.739  1.00  0.00     0.173 A 
ATOM     52  C   UNL     1      -0.954 -24.662   3.250  1.00  0.00     0.173 A 
ATOM     53  F   UNL     1       2.267 -25.951   4.332  1.00  0.00    -0.203 F 
ATOM     54  C   UNL     1       0.640 -26.914   2.932  1.00  0.00     0.198 A 
ATOM     55  C   UNL     1      -1.395 -25.729   2.469  1.00  0.00     0.198 A 
ATOM     56  F   UNL     1      -1.742 -23.585   3.384  1.00  0.00    -0.203 F 
ATOM     57  F   UNL     1       1.430 -27.981   2.752  1.00  0.00    -0.200 F 
ATOM     58  C   UNL     1      -0.593 -26.848   2.301  1.00  0.00     0.200 A 
ATOM     59  F   UNL     1      -2.596 -25.671   1.878  1.00  0.00    -0.200 F 
ATOM     60  F   UNL     1      -1.006 -27.862   1.529  1.00  0.00    -0.200 F 
ENDBRANCH  26  50
BRANCH  38  61
ATOM     61  C   UNL     1      -1.681 -21.572   9.828  1.00  0.00     0.064 A 
ATOM     62  C   UNL     1      -2.737 -20.655   9.949  1.00  0.00     0.173 A 
ATOM     63  C   UNL     1      -1.676 -22.683  10.684  1.00  0.00     0.173 A 
ATOM     64  F   UNL     1      -2.786 -19.571   9.159  1.00  0.00    -0.203 F 
ATOM     65  C   UNL     1      -3.736 -20.833  10.900  1.00  0.00     0.198 A 
ATOM     66  C   UNL     1      -2.697 -22.876  11.611  1.00  0.00     0.198 A 
ATOM     67  F   UNL     1      -0.697 -23.596  10.599  1.00  0.00    -0.203 F 
ATOM     68  F   UNL     1      -4.713 -19.923  11.022  1.00  0.00    -0.200 F 
ATOM     69  C   UNL     1      -3.719 -21.946  11.726  1.00  0.00     0.200 A 
ATOM     70  F   UNL     1      -2.695 -23.968  12.388  1.00  0.00    -0.200 F 
ATOM     71  F   UNL     1      -4.691 -22.125  12.631  1.00  0.00    -0.200 F 
ENDBRANCH  38  61
ENDBRANCH  12  13
ENDBRANCH   5   7
ENDBRANCH   2   3
ENDBRANCH   1   2
BRANCH   1  72
ATOM     72  C   UNL     1       7.598 -14.805  -1.444  1.00  0.00     0.023 C 
BRANCH  72  73
ATOM     73  C   UNL     1       7.018 -14.909  -2.847  1.00  0.00     0.116 C 
BRANCH  73  74
ATOM     74  N   UNL     1       5.699 -14.308  -2.964  1.00  0.00    -0.352 N 
ATOM     75  C   UNL     1       5.224 -13.512  -3.977  1.00  0.00     0.253 C 
ATOM     76  H   UNL     1       5.071 -14.495  -2.228  1.00  0.00     0.163 HD
ATOM     77  O   UNL     1       4.162 -12.910  -3.855  1.00  0.00    -0.269 OA
BRANCH  75  78
ATOM     78  C   UNL     1       6.025 -13.337  -5.213  1.00  0.00     0.063 A 
ATOM     79  C   UNL     1       6.532 -14.491  -5.836  1.00  0.00     0.019 A 
ATOM     80  C   UNL     1       6.308 -12.040  -5.714  1.00  0.00     0.056 A 
ATOM     81  C   UNL     1       7.412 -14.366  -6.900  1.00  0.00     0.040 A 
ATOM     82  C   UNL     1       7.058 -11.957  -6.882  1.00  0.00     0.066 A 
ATOM     83  C   UNL     1       7.658 -13.103  -7.417  1.00  0.00     0.125 A 
ATOM     84  F   UNL     1       8.505 -12.977  -8.446  1.00  0.00    -0.207 F 
BRANCH  80  85
ATOM     85  N   UNL     1       5.811 -10.926  -5.007  1.00  0.00    -0.325 N 
ATOM     86  C   UNL     1       6.081  -9.611  -4.851  1.00  0.00     0.228 C 
ATOM     87  H   UNL     1       5.033 -11.184  -4.462  1.00  0.00     0.169 HD
ATOM     88  O   UNL     1       5.259  -8.991  -4.155  1.00  0.00    -0.274 OA
BRANCH  86  89
ATOM     89  C   UNL     1       7.229  -8.786  -5.417  1.00  0.00     0.095 C 
ATOM     90  C   UNL     1       8.593  -9.387  -5.736  1.00  0.00     0.030 C 
ATOM     91  C   UNL     1       6.689  -7.961  -6.576  1.00  0.00     0.150 C 
ATOM     92  C   UNL     1       9.267  -8.604  -6.858  1.00  0.00     0.138 C 
ATOM     93  S   UNL     1       8.064  -7.525  -7.592  1.00  0.00     0.151 S 
ATOM     94  O   UNL     1       8.444  -6.159  -7.305  1.00  0.00    -0.229 OA
ATOM     95  O   UNL     1       7.789  -7.988  -8.938  1.00  0.00    -0.229 OA
ENDBRANCH  86  89
ENDBRANCH  80  85
ENDBRANCH  75  78
ENDBRANCH  73  74
ENDBRANCH  72  73
ENDBRANCH   1  72
TORSDOF 13
