REMARK SMILES C[C@@H](Oc1ccc(/C=C2\C(=O)[NH+]=C(NCCCCNC(=O)c3ccc(-c4c5nc(c(-c6c(F)c(F)c(F)c(F)c6F)c6ccc([nH]6)c(-c6c(F)c(F)c(F)c(F)c6F)c6nc(c(-c7c(F)c(F)c(F)c(F)c7F)c7ccc4[nH]7)C=C6)C=C5)cc3)N(c3ccc4c(c3)OCO4)C2=O)cc1)C(=O)[O-]
REMARK SMILES IDX 16 1 15 2 14 3 8 4 9 5 10 6 95 7 11 8 12 9 85 10 96 11 13 12
REMARK SMILES IDX 7 15 4 16 5 17 98 18 6 19 97 20 3 21 2 22 1 23 99 24 100 25
REMARK SMILES IDX 101 26 86 27 87 28 91 29 88 30 90 31 89 32 92 33 94 34 93 35
REMARK SMILES IDX 17 36 18 37 19 38 20 39 21 41 22 42 23 43 84 44 24 45 83 46
REMARK SMILES IDX 25 47 26 48 27 49 77 50 28 51 82 52 76 53 78 54 29 55 81 56
REMARK SMILES IDX 75 57 74 58 30 60 62 61 42 62 61 63 43 64 46 65 60 66 79 67
REMARK SMILES IDX 44 68 45 69 59 71 80 72 47 73 31 74 32 75 40 76 33 77 34 78
REMARK SMILES IDX 38 79 41 80 35 81 36 82 39 83 37 84 63 85 64 86 72 87 65 88
REMARK SMILES IDX 66 89 70 90 73 91 67 92 68 93 71 94 69 95 48 96 49 97 57 98
REMARK SMILES IDX 50 99 51 100 55 101 58 102 52 103 53 104 56 105 54 106
REMARK H PARENT 12 13 14 14 19 40 78 59 46 70
REMARK Flexibility Score: inf
ROOT
ATOM      1  C   UNL     1       7.981  10.184  -0.902  1.00  0.00     0.039 C 
ENDROOT
BRANCH   1   2
ATOM      2  C   UNL     1       7.593   9.353  -2.121  1.00  0.00     0.197 C 
BRANCH   2   3
ATOM      3  N   UNL     1       8.408   8.156  -2.201  1.00  0.00    -0.277 N 
ATOM      4  C   UNL     1       6.280   3.314  -1.643  1.00  0.00     0.031 C 
ATOM      5  C   UNL     1       6.945   4.450  -1.358  1.00  0.00     0.138 C 
ATOM      6  C   UNL     1       6.411   5.630  -0.661  1.00  0.00     0.321 C 
ATOM      7  C   UNL     1       8.352   4.523  -1.796  1.00  0.00     0.328 C 
ATOM      8  O   UNL     1       5.607   5.540   0.259  1.00  0.00    -0.250 OA
ATOM      9  N   UNL     1       6.867   6.825  -1.133  1.00  0.00    -0.210 N 
ATOM     10  N   UNL     1       8.823   5.821  -1.960  1.00  0.00    -0.162 N 
ATOM     11  O   UNL     1       9.006   3.501  -2.005  1.00  0.00    -0.249 OA
ATOM     12  C   UNL     1       8.012   6.926  -1.734  1.00  0.00     0.366 C 
ATOM     13  H   UNL     1       6.313   7.630  -1.014  1.00  0.00     0.270 HD
ATOM     14  H   UNL     1       9.298   8.228  -2.616  1.00  0.00     0.260 HD
BRANCH   4  15
ATOM     15  C   UNL     1       4.872   2.961  -1.417  1.00  0.00    -0.024 A 
ATOM     16  C   UNL     1       2.210   2.106  -1.143  1.00  0.00     0.120 A 
ATOM     17  C   UNL     1       2.490   3.447  -1.388  1.00  0.00     0.047 A 
ATOM     18  C   UNL     1       3.248   1.183  -1.082  1.00  0.00     0.047 A 
ATOM     19  C   UNL     1       3.815   3.871  -1.536  1.00  0.00     0.012 A 
ATOM     20  C   UNL     1       4.571   1.610  -1.205  1.00  0.00     0.012 A 
BRANCH  16  21
ATOM     21  O   UNL     1       0.900   1.722  -1.116  1.00  0.00    -0.485 OA
BRANCH  21  22
ATOM     22  C   UNL     1       0.470   1.183   0.142  1.00  0.00     0.216 C 
ATOM     23  C   UNL     1       0.663  -0.330   0.211  1.00  0.00     0.059 C 
BRANCH  22  24
ATOM     24  C   UNL     1      -1.021   1.462   0.296  1.00  0.00     0.082 C 
ATOM     25  O   UNL     1      -1.583   1.797   1.328  1.00  0.00    -0.546 OA
ATOM     26  O   UNL     1      -1.746   1.226  -0.819  1.00  0.00    -0.546 OA
ENDBRANCH  22  24
ENDBRANCH  21  22
ENDBRANCH  16  21
ENDBRANCH   4  15
BRANCH  10  27
ATOM     27  C   UNL     1      10.148   5.949  -2.453  1.00  0.00     0.115 A 
ATOM     28  C   UNL     1      11.183   6.352  -1.581  1.00  0.00     0.048 A 
ATOM     29  C   UNL     1      10.437   5.507  -3.751  1.00  0.00     0.094 A 
ATOM     30  C   UNL     1      12.520   6.258  -1.985  1.00  0.00     0.054 A 
ATOM     31  C   UNL     1      11.759   5.416  -4.110  1.00  0.00     0.169 A 
ATOM     32  C   UNL     1      12.774   5.763  -3.247  1.00  0.00     0.166 A 
ATOM     33  O   UNL     1      12.225   4.928  -5.291  1.00  0.00    -0.453 OA
ATOM     34  O   UNL     1      14.001   5.509  -3.777  1.00  0.00    -0.454 OA
ATOM     35  C   UNL     1      13.626   4.795  -4.976  1.00  0.00     0.468 C 
ENDBRANCH  10  27
ENDBRANCH   2   3
ENDBRANCH   1   2
BRANCH   1  36
ATOM     36  C   UNL     1       9.422  10.701  -0.919  1.00  0.00     0.024 C 
BRANCH  36  37
ATOM     37  C   UNL     1       9.814  11.498  -2.159  1.00  0.00     0.116 C 
BRANCH  37  38
ATOM     38  N   UNL     1       8.998  12.685  -2.356  1.00  0.00    -0.352 N 
ATOM     39  C   UNL     1       9.388  13.969  -2.652  1.00  0.00     0.251 C 
ATOM     40  H   UNL     1       8.027  12.550  -2.266  1.00  0.00     0.163 HD
ATOM     41  O   UNL     1       8.565  14.878  -2.656  1.00  0.00    -0.269 OA
BRANCH  39  42
ATOM     42  C   UNL     1      10.810  14.264  -2.930  1.00  0.00     0.039 A 
ATOM     43  C   UNL     1      11.400  15.370  -2.312  1.00  0.00     0.014 A 
ATOM     44  C   UNL     1      11.563  13.454  -3.784  1.00  0.00     0.014 A 
ATOM     45  C   UNL     1      12.762  15.622  -2.494  1.00  0.00     0.010 A 
ATOM     46  C   UNL     1      12.935  13.662  -3.905  1.00  0.00     0.010 A 
ATOM     47  C   UNL     1      13.550  14.746  -3.260  1.00  0.00    -0.014 A 
BRANCH  47  48
ATOM     48  C   UNL     1      15.017  14.943  -3.387  1.00  0.00     0.031 A 
ATOM     49  C   UNL     1      15.630  15.229  -4.730  1.00  0.00     0.074 A 
ATOM     50  C   UNL     1      15.805  14.803  -2.303  1.00  0.00     0.049 A 
ATOM     51  N   UNL     1      16.893  15.354  -5.055  1.00  0.00    -0.248 NA
ATOM     52  C   UNL     1      14.703  15.367  -5.864  1.00  0.00     0.031 C 
ATOM     53  C   UNL     1      15.338  14.484  -0.952  1.00  0.00     0.029 A 
ATOM     54  N   UNL     1      17.169  14.899  -2.166  1.00  0.00    -0.354 N 
ATOM     55  C   UNL     1      16.910  15.575  -6.425  1.00  0.00     0.074 A 
ATOM     56  C   UNL     1      15.539  15.511  -6.882  1.00  0.00     0.031 C 
ATOM     57  C   UNL     1      16.392  14.430  -0.123  1.00  0.00     0.029 A 
ATOM     58  C   UNL     1      17.613  14.668  -0.887  1.00  0.00     0.049 A 
ATOM     59  H   UNL     1      17.771  15.113  -2.915  1.00  0.00     0.167 HD
ATOM     60  C   UNL     1      17.972  15.833  -7.226  1.00  0.00     0.037 A 
ATOM     61  C   UNL     1      18.864  14.639  -0.388  1.00  0.00     0.037 A 
ATOM     62  C   UNL     1      19.334  15.917  -6.767  1.00  0.00     0.049 A 
ATOM     63  C   UNL     1      20.026  14.911  -1.306  1.00  0.00     0.074 A 
ATOM     64  C   UNL     1      20.472  16.222  -7.493  1.00  0.00     0.029 A 
ATOM     65  N   UNL     1      19.742  15.694  -5.460  1.00  0.00    -0.354 N 
ATOM     66  N   UNL     1      20.024  15.183  -2.588  1.00  0.00    -0.248 NA
ATOM     67  C   UNL     1      21.367  14.879  -0.704  1.00  0.00     0.031 C 
ATOM     68  C   UNL     1      21.574  16.136  -6.637  1.00  0.00     0.029 A 
ATOM     69  C   UNL     1      21.118  15.833  -5.364  1.00  0.00     0.049 A 
ATOM     70  H   UNL     1      19.143  15.470  -4.711  1.00  0.00     0.167 HD
ATOM     71  C   UNL     1      21.353  15.387  -2.938  1.00  0.00     0.074 A 
ATOM     72  C   UNL     1      22.132  15.223  -1.730  1.00  0.00     0.031 C 
ATOM     73  C   UNL     1      21.879  15.681  -4.152  1.00  0.00     0.037 A 
BRANCH  60  74
ATOM     74  C   UNL     1      17.706  16.052  -8.688  1.00  0.00     0.064 A 
ATOM     75  C   UNL     1      17.051  17.204  -9.150  1.00  0.00     0.173 A 
ATOM     76  C   UNL     1      18.159  15.129  -9.642  1.00  0.00     0.173 A 
ATOM     77  F   UNL     1      16.588  18.113  -8.279  1.00  0.00    -0.203 F 
ATOM     78  C   UNL     1      16.837  17.410 -10.511  1.00  0.00     0.198 A 
ATOM     79  C   UNL     1      17.972  15.354 -11.004  1.00  0.00     0.198 A 
ATOM     80  F   UNL     1      18.796  14.014  -9.255  1.00  0.00    -0.203 F 
ATOM     81  F   UNL     1      16.170  18.496 -10.925  1.00  0.00    -0.200 F 
ATOM     82  C   UNL     1      17.306  16.490 -11.436  1.00  0.00     0.200 A 
ATOM     83  F   UNL     1      18.438  14.471 -11.897  1.00  0.00    -0.200 F 
ATOM     84  F   UNL     1      17.111  16.697 -12.746  1.00  0.00    -0.200 F 
ENDBRANCH  60  74
BRANCH  61  85
ATOM     85  C   UNL     1      19.088  14.354   1.054  1.00  0.00     0.064 A 
ATOM     86  C   UNL     1      19.588  15.341   1.916  1.00  0.00     0.173 A 
ATOM     87  C   UNL     1      18.835  13.085   1.595  1.00  0.00     0.173 A 
ATOM     88  F   UNL     1      19.866  16.564   1.442  1.00  0.00    -0.203 F 
ATOM     89  C   UNL     1      19.854  15.062   3.255  1.00  0.00     0.198 A 
ATOM     90  C   UNL     1      19.071  12.816   2.942  1.00  0.00     0.198 A 
ATOM     91  F   UNL     1      18.353  12.105   0.816  1.00  0.00    -0.203 F 
ATOM     92  F   UNL     1      20.386  16.007   4.041  1.00  0.00    -0.200 F 
ATOM     93  C   UNL     1      19.591  13.801   3.768  1.00  0.00     0.200 A 
ATOM     94  F   UNL     1      18.801  11.600   3.437  1.00  0.00    -0.200 F 
ATOM     95  F   UNL     1      19.848  13.532   5.055  1.00  0.00    -0.200 F 
ENDBRANCH  61  85
BRANCH  73  96
ATOM     96  C   UNL     1      23.365  15.891  -4.227  1.00  0.00     0.064 A 
ATOM     97  C   UNL     1      24.269  14.827  -4.092  1.00  0.00     0.173 A 
ATOM     98  C   UNL     1      23.887  17.169  -4.478  1.00  0.00     0.173 A 
ATOM     99  F   UNL     1      23.821  13.588  -3.837  1.00  0.00    -0.203 F 
ATOM    100  C   UNL     1      25.642  15.040  -4.178  1.00  0.00     0.198 A 
ATOM    101  C   UNL     1      25.259  17.373  -4.596  1.00  0.00     0.198 A 
ATOM    102  F   UNL     1      23.066  18.220  -4.623  1.00  0.00    -0.203 F 
ATOM    103  F   UNL     1      26.489  14.018  -3.995  1.00  0.00    -0.200 F 
ATOM    104  C   UNL     1      26.136  16.310  -4.437  1.00  0.00     0.200 A 
ATOM    105  F   UNL     1      25.733  18.598  -4.862  1.00  0.00    -0.200 F 
ATOM    106  F   UNL     1      27.457  16.512  -4.527  1.00  0.00    -0.200 F 
ENDBRANCH  73  96
ENDBRANCH  47  48
ENDBRANCH  39  42
ENDBRANCH  37  38
ENDBRANCH  36  37
ENDBRANCH   1  36
TORSDOF 15
