REMARK SMILES C[C@@H]1[C@@H](C(=O)NCCCCNC(=O)c2ccc(-c3c4nc(c(-c5c(F)c(F)c(F)c(F)c5F)c5ccc([nH]5)c(-c5c(F)c(F)c(F)c(F)c5F)c5nc(c(-c6c(F)c(F)c(F)c(F)c6F)c6ccc3[nH]6)C=C5)C=C4)cc2)CCN1C(=O)CCCSc1ccccc1
REMARK SMILES IDX 4 1 5 2 6 3 3 5 1 6 2 7 79 8 77 9 78 10 80 11 81 12 82 13
REMARK SMILES IDX 83 14 84 15 85 16 86 17 87 18 91 19 88 20 90 21 89 22 7 23
REMARK SMILES IDX 8 24 9 25 10 26 11 27 12 28 13 30 14 31 15 32 76 33 16 34
REMARK SMILES IDX 75 35 17 36 18 37 19 38 69 39 20 40 74 41 68 42 70 43 21 44
REMARK SMILES IDX 73 45 67 46 66 47 22 49 54 50 34 51 53 52 35 53 38 54 52 55
REMARK SMILES IDX 71 56 36 57 37 58 51 60 72 61 39 62 23 63 24 64 32 65 25 66
REMARK SMILES IDX 26 67 30 68 33 69 27 70 28 71 31 72 29 73 55 74 56 75 64 76
REMARK SMILES IDX 57 77 58 78 62 79 65 80 59 81 60 82 63 83 61 84 40 85 41 86
REMARK SMILES IDX 49 87 42 88 43 89 47 90 50 91 44 92 45 93 48 94 46 95
REMARK H PARENT 6 4 11 29 70 48 38 59
REMARK Flexibility Score: inf
ROOT
ATOM      1  C   UNL     1      -1.092   1.448  -1.570  1.00  0.00     0.225 C 
ATOM      2  O   UNL     1      -0.569   0.910  -2.544  1.00  0.00    -0.275 OA
ATOM      3  N   UNL     1      -1.980   2.461  -1.788  1.00  0.00    -0.356 N 
ATOM      4  H   UNL     1      -2.156   2.692  -2.729  1.00  0.00     0.163 HD
ENDROOT
BRANCH   1   5
ATOM      5  C   UNL     1      -0.759   1.093  -0.127  1.00  0.00     0.102 C 
ATOM      6  C   UNL     1       1.046   0.039   1.250  1.00  0.00     0.032 C 
ATOM      7  C   UNL     1       0.260  -0.045  -0.055  1.00  0.00     0.094 C 
ATOM      8  N   UNL     1      -0.566  -1.249  -0.142  1.00  0.00    -0.339 N 
ATOM      9  C   UNL     1      -1.947   0.492   0.636  1.00  0.00     0.037 C 
ATOM     10  C   UNL     1      -1.941  -0.967   0.210  1.00  0.00     0.120 C 
BRANCH   8  11
ATOM     11  C   UNL     1      -0.240  -2.425  -0.792  1.00  0.00     0.222 C 
ATOM     12  O   UNL     1      -1.101  -3.214  -1.185  1.00  0.00    -0.275 OA
BRANCH  11  13
ATOM     13  C   UNL     1       1.232  -2.777  -0.891  1.00  0.00     0.101 C 
BRANCH  13  14
ATOM     14  C   UNL     1       1.938  -2.524  -2.220  1.00  0.00     0.021 C 
BRANCH  14  15
ATOM     15  C   UNL     1       2.967  -1.381  -2.246  1.00  0.00     0.075 C 
BRANCH  15  16
ATOM     16  S   UNL     1       4.610  -1.591  -1.421  1.00  0.00    -0.126 SA
BRANCH  16  17
ATOM     17  C   UNL     1       4.232  -1.933   0.286  1.00  0.00     0.007 A 
ATOM     18  C   UNL     1       4.278  -0.942   1.274  1.00  0.00     0.015 A 
ATOM     19  C   UNL     1       3.936  -3.247   0.664  1.00  0.00     0.015 A 
ATOM     20  C   UNL     1       3.950  -1.251   2.602  1.00  0.00     0.001 A 
ATOM     21  C   UNL     1       3.574  -3.548   1.978  1.00  0.00     0.001 A 
ATOM     22  C   UNL     1       3.571  -2.548   2.947  1.00  0.00     0.000 A 
ENDBRANCH  16  17
ENDBRANCH  15  16
ENDBRANCH  14  15
ENDBRANCH  13  14
ENDBRANCH  11  13
ENDBRANCH   8  11
ENDBRANCH   1   5
BRANCH   3  23
ATOM     23  C   UNL     1      -2.692   3.233  -0.793  1.00  0.00     0.116 C 
BRANCH  23  24
ATOM     24  C   UNL     1      -2.981   4.654  -1.242  1.00  0.00     0.023 C 
BRANCH  24  25
ATOM     25  C   UNL     1      -3.841   4.758  -2.498  1.00  0.00     0.023 C 
BRANCH  25  26
ATOM     26  C   UNL     1      -5.068   3.855  -2.518  1.00  0.00     0.116 C 
BRANCH  26  27
ATOM     27  N   UNL     1      -5.954   4.075  -1.383  1.00  0.00    -0.352 N 
ATOM     28  C   UNL     1      -7.272   4.459  -1.371  1.00  0.00     0.251 C 
ATOM     29  H   UNL     1      -5.550   3.928  -0.497  1.00  0.00     0.163 HD
ATOM     30  O   UNL     1      -7.832   4.738  -0.316  1.00  0.00    -0.269 OA
BRANCH  28  31
ATOM     31  C   UNL     1      -7.997   4.566  -2.650  1.00  0.00     0.039 A 
ATOM     32  C   UNL     1      -8.711   5.732  -2.928  1.00  0.00     0.014 A 
ATOM     33  C   UNL     1      -7.919   3.537  -3.591  1.00  0.00     0.014 A 
ATOM     34  C   UNL     1      -9.289   5.897  -4.186  1.00  0.00     0.010 A 
ATOM     35  C   UNL     1      -8.408   3.745  -4.873  1.00  0.00     0.010 A 
ATOM     36  C   UNL     1      -9.107   4.922  -5.182  1.00  0.00    -0.014 A 
BRANCH  36  37
ATOM     37  C   UNL     1      -9.661   5.099  -6.546  1.00  0.00     0.031 A 
ATOM     38  C   UNL     1     -10.686   4.128  -7.065  1.00  0.00     0.074 A 
ATOM     39  C   UNL     1      -9.198   6.085  -7.338  1.00  0.00     0.049 A 
ATOM     40  N   UNL     1     -11.238   4.059  -8.249  1.00  0.00    -0.248 NA
ATOM     41  C   UNL     1     -11.122   3.072  -6.137  1.00  0.00     0.031 C 
ATOM     42  C   UNL     1      -8.169   7.058  -6.967  1.00  0.00     0.029 A 
ATOM     43  N   UNL     1      -9.528   6.426  -8.626  1.00  0.00    -0.354 N 
ATOM     44  C   UNL     1     -12.068   2.946  -8.211  1.00  0.00     0.074 A 
ATOM     45  C   UNL     1     -11.896   2.331  -6.914  1.00  0.00     0.031 C 
ATOM     46  C   UNL     1      -7.974   7.903  -7.992  1.00  0.00     0.029 A 
ATOM     47  C   UNL     1      -8.832   7.509  -9.105  1.00  0.00     0.049 A 
ATOM     48  H   UNL     1     -10.201   5.941  -9.156  1.00  0.00     0.167 HD
ATOM     49  C   UNL     1     -12.920   2.494  -9.162  1.00  0.00     0.037 A 
ATOM     50  C   UNL     1      -8.880   8.111 -10.308  1.00  0.00     0.037 A 
ATOM     51  C   UNL     1     -13.106   3.126 -10.441  1.00  0.00     0.049 A 
ATOM     52  C   UNL     1      -9.832   7.587 -11.351  1.00  0.00     0.074 A 
ATOM     53  C   UNL     1     -13.982   2.781 -11.454  1.00  0.00     0.029 A 
ATOM     54  N   UNL     1     -12.398   4.235 -10.882  1.00  0.00    -0.354 N 
ATOM     55  N   UNL     1     -10.663   6.576 -11.280  1.00  0.00    -0.248 NA
ATOM     56  C   UNL     1      -9.859   8.297 -12.637  1.00  0.00     0.031 C 
ATOM     57  C   UNL     1     -13.770   3.651 -12.528  1.00  0.00     0.029 A 
ATOM     58  C   UNL     1     -12.805   4.576 -12.161  1.00  0.00     0.049 A 
ATOM     59  H   UNL     1     -11.710   4.709 -10.362  1.00  0.00     0.167 HD
ATOM     60  C   UNL     1     -11.337   6.549 -12.494  1.00  0.00     0.074 A 
ATOM     61  C   UNL     1     -10.824   7.654 -13.278  1.00  0.00     0.031 C 
ATOM     62  C   UNL     1     -12.295   5.690 -12.921  1.00  0.00     0.037 A 
BRANCH  49  63
ATOM     63  C   UNL     1     -13.716   1.260  -8.846  1.00  0.00     0.064 A 
ATOM     64  C   UNL     1     -14.718   1.260  -7.862  1.00  0.00     0.173 A 
ATOM     65  C   UNL     1     -13.487   0.066  -9.546  1.00  0.00     0.173 A 
ATOM     66  F   UNL     1     -14.969   2.371  -7.153  1.00  0.00    -0.203 F 
ATOM     67  C   UNL     1     -15.433   0.102  -7.566  1.00  0.00     0.198 A 
ATOM     68  C   UNL     1     -14.229  -1.080  -9.272  1.00  0.00     0.198 A 
ATOM     69  F   UNL     1     -12.545   0.010 -10.500  1.00  0.00    -0.203 F 
ATOM     70  F   UNL     1     -16.341   0.112  -6.580  1.00  0.00    -0.200 F 
ATOM     71  C   UNL     1     -15.193  -1.064  -8.276  1.00  0.00     0.200 A 
ATOM     72  F   UNL     1     -14.006  -2.203  -9.969  1.00  0.00    -0.200 F 
ATOM     73  F   UNL     1     -15.886  -2.176  -7.994  1.00  0.00    -0.200 F 
ENDBRANCH  49  63
BRANCH  50  74
ATOM     74  C   UNL     1      -8.027   9.298 -10.582  1.00  0.00     0.064 A 
ATOM     75  C   UNL     1      -8.595  10.570 -10.741  1.00  0.00     0.173 A 
ATOM     76  C   UNL     1      -6.634   9.188 -10.697  1.00  0.00     0.173 A 
ATOM     77  F   UNL     1      -9.925  10.723 -10.658  1.00  0.00    -0.203 F 
ATOM     78  C   UNL     1      -7.806  11.682 -11.027  1.00  0.00     0.198 A 
ATOM     79  C   UNL     1      -5.842  10.306 -10.954  1.00  0.00     0.198 A 
ATOM     80  F   UNL     1      -6.039   7.995 -10.547  1.00  0.00    -0.203 F 
ATOM     81  F   UNL     1      -8.381  12.876 -11.222  1.00  0.00    -0.200 F 
ATOM     82  C   UNL     1      -6.429  11.550 -11.128  1.00  0.00     0.200 A 
ATOM     83  F   UNL     1      -4.511  10.177 -11.034  1.00  0.00    -0.200 F 
ATOM     84  F   UNL     1      -5.670  12.620 -11.399  1.00  0.00    -0.200 F 
ENDBRANCH  50  74
BRANCH  62  85
ATOM     85  C   UNL     1     -12.893   5.940 -14.275  1.00  0.00     0.064 A 
ATOM     86  C   UNL     1     -12.170   5.723 -15.457  1.00  0.00     0.173 A 
ATOM     87  C   UNL     1     -14.226   6.366 -14.390  1.00  0.00     0.173 A 
ATOM     88  F   UNL     1     -10.889   5.329 -15.402  1.00  0.00    -0.203 F 
ATOM     89  C   UNL     1     -12.750   5.950 -16.702  1.00  0.00     0.198 A 
ATOM     90  C   UNL     1     -14.813   6.559 -15.636  1.00  0.00     0.198 A 
ATOM     91  F   UNL     1     -14.964   6.581 -13.290  1.00  0.00    -0.203 F 
ATOM     92  F   UNL     1     -12.024   5.787 -17.817  1.00  0.00    -0.200 F 
ATOM     93  C   UNL     1     -14.072   6.360 -16.791  1.00  0.00     0.200 A 
ATOM     94  F   UNL     1     -16.095   6.939 -15.720  1.00  0.00    -0.200 F 
ATOM     95  F   UNL     1     -14.631   6.571 -17.991  1.00  0.00    -0.200 F 
ENDBRANCH  62  85
ENDBRANCH  36  37
ENDBRANCH  28  31
ENDBRANCH  26  27
ENDBRANCH  25  26
ENDBRANCH  24  25
ENDBRANCH  23  24
ENDBRANCH   3  23
TORSDOF 17
