REMARK SMILES O=C(NCCCCNC(=O)c1cc(=O)[nH]c2c(Br)cccc12)c1ccc(-c2c3nc(c(-c4c(F)c(F)c(F)c(F)c4F)c4ccc([nH]4)c(-c4c(F)c(F)c(F)c(F)c4F)c4nc(c(-c5c(F)c(F)c(F)c(F)c5F)c5ccc2[nH]5)C=C4)C=C3)cc1
REMARK SMILES IDX 4 1 3 2 1 3 2 4 23 6 24 7 85 8 25 9 84 10 26 11 27 12 28 13
REMARK SMILES IDX 78 14 29 15 83 16 77 17 79 18 30 19 82 20 76 21 75 22 31 24
REMARK SMILES IDX 63 25 43 26 62 27 44 28 47 29 61 30 80 31 45 32 46 33 60 35
REMARK SMILES IDX 81 36 48 37 32 38 33 39 41 40 34 41 35 42 39 43 42 44 36 45
REMARK SMILES IDX 37 46 40 47 38 48 64 49 65 50 73 51 66 52 67 53 71 54 74 55
REMARK SMILES IDX 68 56 69 57 72 58 70 59 49 60 50 61 58 62 51 63 52 64 56 65
REMARK SMILES IDX 59 66 53 67 54 68 57 69 55 70 5 71 6 72 7 73 8 74 9 75 10 77
REMARK SMILES IDX 11 78 12 79 22 80 13 81 16 82 21 83 14 84 15 85 17 86 20 87
REMARK SMILES IDX 18 89 19 90
REMARK H PARENT 3 5 79 23 47 34 8 76 15 88
REMARK Flexibility Score: inf
ROOT
ATOM      1  C   UNL     1       4.533   1.108  -0.430  1.00  0.00     0.116 C 
ENDROOT
BRANCH   1   2
ATOM      2  N   UNL     1       3.096   1.044  -0.223  1.00  0.00    -0.352 N 
ATOM      3  O   UNL     1       1.083   0.090   0.086  1.00  0.00    -0.269 OA
ATOM      4  C   UNL     1       2.305  -0.027   0.108  1.00  0.00     0.251 C 
ATOM      5  H   UNL     1       2.619   1.897  -0.339  1.00  0.00     0.163 HD
BRANCH   4   6
ATOM      6  C   UNL     1       2.909  -1.327   0.473  1.00  0.00     0.039 A 
ATOM      7  C   UNL     1       2.308  -2.499   0.005  1.00  0.00     0.014 A 
ATOM      8  C   UNL     1       4.035  -1.405   1.298  1.00  0.00     0.014 A 
ATOM      9  C   UNL     1       2.853  -3.740   0.338  1.00  0.00     0.010 A 
ATOM     10  C   UNL     1       4.631  -2.639   1.552  1.00  0.00     0.010 A 
ATOM     11  C   UNL     1       4.031  -3.822   1.099  1.00  0.00    -0.014 A 
BRANCH  11  12
ATOM     12  C   UNL     1       4.603  -5.142   1.475  1.00  0.00     0.031 A 
ATOM     13  C   UNL     1       4.673  -5.544   2.925  1.00  0.00     0.074 A 
ATOM     14  C   UNL     1       5.059  -5.976   0.520  1.00  0.00     0.049 A 
ATOM     15  N   UNL     1       5.133  -6.650   3.454  1.00  0.00    -0.248 NA
ATOM     16  C   UNL     1       4.180  -4.572   3.916  1.00  0.00     0.031 C 
ATOM     17  C   UNL     1       5.075  -5.688  -0.914  1.00  0.00     0.029 A 
ATOM     18  N   UNL     1       5.586  -7.242   0.609  1.00  0.00    -0.354 N 
ATOM     19  C   UNL     1       4.987  -6.502   4.827  1.00  0.00     0.074 A 
ATOM     20  C   UNL     1       4.460  -5.177   5.060  1.00  0.00     0.031 C 
ATOM     21  C   UNL     1       5.544  -6.760  -1.573  1.00  0.00     0.029 A 
ATOM     22  C   UNL     1       5.899  -7.797  -0.608  1.00  0.00     0.049 A 
ATOM     23  H   UNL     1       5.726  -7.707   1.466  1.00  0.00     0.167 HD
ATOM     24  C   UNL     1       5.233  -7.405   5.805  1.00  0.00     0.037 A 
ATOM     25  C   UNL     1       6.412  -9.006  -0.912  1.00  0.00     0.037 A 
ATOM     26  C   UNL     1       5.721  -8.736   5.570  1.00  0.00     0.049 A 
ATOM     27  C   UNL     1       6.702  -9.981   0.199  1.00  0.00     0.074 A 
ATOM     28  C   UNL     1       5.960  -9.738   6.493  1.00  0.00     0.029 A 
ATOM     29  N   UNL     1       6.037  -9.253   4.323  1.00  0.00    -0.354 N 
ATOM     30  N   UNL     1       6.504  -9.847   1.488  1.00  0.00    -0.248 NA
ATOM     31  C   UNL     1       7.283 -11.276  -0.184  1.00  0.00     0.031 C 
ATOM     32  C   UNL     1       6.470 -10.845   5.812  1.00  0.00     0.029 A 
ATOM     33  C   UNL     1       6.492 -10.554   4.458  1.00  0.00     0.049 A 
ATOM     34  H   UNL     1       5.952  -8.769   3.470  1.00  0.00     0.167 HD
ATOM     35  C   UNL     1       6.903 -11.046   2.063  1.00  0.00     0.074 A 
ATOM     36  C   UNL     1       7.345 -11.902   0.983  1.00  0.00     0.031 C 
ATOM     37  C   UNL     1       6.904 -11.403   3.370  1.00  0.00     0.037 A 
BRANCH  24  38
ATOM     38  C   UNL     1       4.952  -7.007   7.224  1.00  0.00     0.064 A 
ATOM     39  C   UNL     1       3.639  -6.864   7.697  1.00  0.00     0.173 A 
ATOM     40  C   UNL     1       6.001  -6.869   8.147  1.00  0.00     0.173 A 
ATOM     41  F   UNL     1       2.602  -6.974   6.852  1.00  0.00    -0.203 F 
ATOM     42  C   UNL     1       3.386  -6.593   9.038  1.00  0.00     0.198 A 
ATOM     43  C   UNL     1       5.742  -6.629   9.494  1.00  0.00     0.198 A 
ATOM     44  F   UNL     1       7.275  -7.002   7.748  1.00  0.00    -0.203 F 
ATOM     45  F   UNL     1       2.124  -6.436   9.461  1.00  0.00    -0.200 F 
ATOM     46  C   UNL     1       4.436  -6.490   9.938  1.00  0.00     0.200 A 
ATOM     47  F   UNL     1       6.757  -6.547  10.365  1.00  0.00    -0.200 F 
ATOM     48  F   UNL     1       4.189  -6.258  11.235  1.00  0.00    -0.200 F 
ENDBRANCH  24  38
BRANCH  25  49
ATOM     49  C   UNL     1       6.650  -9.377  -2.333  1.00  0.00     0.064 A 
ATOM     50  C   UNL     1       5.895 -10.383  -2.953  1.00  0.00     0.173 A 
ATOM     51  C   UNL     1       7.632  -8.735  -3.103  1.00  0.00     0.173 A 
ATOM     52  F   UNL     1       4.958 -11.042  -2.255  1.00  0.00    -0.203 F 
ATOM     53  C   UNL     1       6.124 -10.745  -4.279  1.00  0.00     0.198 A 
ATOM     54  C   UNL     1       7.838  -9.075  -4.439  1.00  0.00     0.198 A 
ATOM     55  F   UNL     1       8.381  -7.763  -2.562  1.00  0.00    -0.203 F 
ATOM     56  F   UNL     1       5.418 -11.741  -4.831  1.00  0.00    -0.200 F 
ATOM     57  C   UNL     1       7.090 -10.085  -5.023  1.00  0.00     0.200 A 
ATOM     58  F   UNL     1       8.761  -8.423  -5.159  1.00  0.00    -0.200 F 
ATOM     59  F   UNL     1       7.304 -10.426  -6.301  1.00  0.00    -0.200 F 
ENDBRANCH  25  49
BRANCH  37  60
ATOM     60  C   UNL     1       7.360 -12.788   3.724  1.00  0.00     0.064 A 
ATOM     61  C   UNL     1       8.713 -13.150   3.673  1.00  0.00     0.173 A 
ATOM     62  C   UNL     1       6.446 -13.726   4.232  1.00  0.00     0.173 A 
ATOM     63  F   UNL     1       9.623 -12.293   3.186  1.00  0.00    -0.203 F 
ATOM     64  C   UNL     1       9.135 -14.402   4.113  1.00  0.00     0.198 A 
ATOM     65  C   UNL     1       6.876 -14.963   4.700  1.00  0.00     0.198 A 
ATOM     66  F   UNL     1       5.142 -13.423   4.313  1.00  0.00    -0.203 F 
ATOM     67  F   UNL     1      10.431 -14.735   4.034  1.00  0.00    -0.200 F 
ATOM     68  C   UNL     1       8.219 -15.301   4.639  1.00  0.00     0.200 A 
ATOM     69  F   UNL     1       5.992 -15.822   5.228  1.00  0.00    -0.200 F 
ATOM     70  F   UNL     1       8.632 -16.493   5.090  1.00  0.00    -0.200 F 
ENDBRANCH  37  60
ENDBRANCH  11  12
ENDBRANCH   4   6
ENDBRANCH   1   2
BRANCH   1  71
ATOM     71  C   UNL     1       4.911   1.701  -1.782  1.00  0.00     0.023 C 
BRANCH  71  72
ATOM     72  C   UNL     1       4.431   3.130  -2.026  1.00  0.00     0.023 C 
BRANCH  72  73
ATOM     73  C   UNL     1       4.784   4.131  -0.931  1.00  0.00     0.116 C 
BRANCH  73  74
ATOM     74  N   UNL     1       6.219   4.247  -0.721  1.00  0.00    -0.352 N 
ATOM     75  C   UNL     1       7.025   5.345  -0.815  1.00  0.00     0.252 C 
ATOM     76  H   UNL     1       6.676   3.411  -0.474  1.00  0.00     0.163 HD
ATOM     77  O   UNL     1       8.238   5.229  -0.669  1.00  0.00    -0.269 OA
BRANCH  75  78
ATOM     78  C   UNL     1       6.406   6.656  -1.128  1.00  0.00     0.054 A 
ATOM     79  C   UNL     1       5.532   7.132  -0.226  1.00  0.00     0.086 A 
ATOM     80  C   UNL     1       6.747   7.446  -2.323  1.00  0.00     0.012 A 
ATOM     81  C   UNL     1       4.785   8.377  -0.475  1.00  0.00     0.249 A 
ATOM     82  C   UNL     1       6.066   8.656  -2.540  1.00  0.00     0.063 A 
ATOM     83  C   UNL     1       7.715   7.039  -3.251  1.00  0.00     0.011 A 
ATOM     84  O   UNL     1       3.914   8.745   0.306  1.00  0.00    -0.270 OA
ATOM     85  N   UNL     1       5.094   9.064  -1.610  1.00  0.00    -0.321 N 
ATOM     86  C   UNL     1       6.354   9.439  -3.665  1.00  0.00     0.042 A 
ATOM     87  C   UNL     1       8.004   7.825  -4.370  1.00  0.00     0.002 A 
ATOM     88  H   UNL     1       4.605   9.899  -1.791  1.00  0.00     0.170 HD
ATOM     89  Br  UNL     1       5.456  11.080  -3.988  1.00  0.00    -0.049 Br
ATOM     90  C   UNL     1       7.325   9.024  -4.578  1.00  0.00     0.018 A 
ENDBRANCH  75  78
ENDBRANCH  73  74
ENDBRANCH  72  73
ENDBRANCH  71  72
ENDBRANCH   1  71
TORSDOF 11
