REMARK SMILES CC(=O)/C=C(/C)NCC(=O)NCCCCNC(=O)c1ccc(-c2c3nc(c(-c4c(F)c(F)c(F)c(F)c4F)c4ccc([nH]4)c(-c4c(F)c(F)c(F)c(F)c4F)c4nc(c(-c5c(F)c(F)c(F)c(F)c5F)c5ccc2[nH]5)C=C4)C=C3)cc1
REMARK SMILES IDX 13 1 12 2 11 3 9 4 10 5 8 7 7 8 5 10 4 11 6 12 2 13 1 14
REMARK SMILES IDX 3 15 14 16 15 17 16 18 17 19 18 21 19 22 20 23 81 24 21 25
REMARK SMILES IDX 80 26 22 27 23 28 24 29 74 30 25 31 79 32 73 33 75 34 26 35
REMARK SMILES IDX 78 36 72 37 71 38 27 40 59 41 39 42 58 43 40 44 43 45 57 46
REMARK SMILES IDX 76 47 41 48 42 49 56 51 77 52 44 53 28 54 29 55 37 56 30 57
REMARK SMILES IDX 31 58 35 59 38 60 32 61 33 62 36 63 34 64 60 65 61 66 69 67
REMARK SMILES IDX 62 68 63 69 67 70 70 71 64 72 65 73 68 74 66 75 45 76 46 77
REMARK SMILES IDX 54 78 47 79 48 80 52 81 55 82 49 83 50 84 53 85 51 86
REMARK H PARENT 11 6 7 9 16 20 75 39 43 50
REMARK Flexibility Score: inf
ROOT
ATOM      1  C   UNL     1       4.693  -0.274  -2.207  1.00  0.00     0.023 C 
ENDROOT
BRANCH   1   2
ATOM      2  C   UNL     1       3.772  -0.766  -1.093  1.00  0.00     0.116 C 
BRANCH   2   3
ATOM      3  N   UNL     1       4.039  -0.103   0.167  1.00  0.00    -0.355 N 
ATOM      4  C   UNL     1       3.450   0.990   0.731  1.00  0.00     0.239 C 
ATOM      5  O   UNL     1       3.891   1.351   1.828  1.00  0.00    -0.273 OA
ATOM      6  H   UNL     1       4.761  -0.505   0.701  1.00  0.00     0.163 HD
BRANCH   4   7
ATOM      7  C   UNL     1       2.243   1.714   0.112  1.00  0.00     0.213 C 
BRANCH   7   8
ATOM      8  N   UNL     1       2.270   1.842  -1.333  1.00  0.00    -0.380 N 
ATOM      9  H   UNL     1       3.063   2.321  -1.665  1.00  0.00     0.160 HD
BRANCH   8  10
ATOM     10  C   UNL     1       1.418   1.433  -2.344  1.00  0.00     0.011 C 
ATOM     11  C   UNL     1       0.487   0.461  -2.440  1.00  0.00     0.067 C 
ATOM     12  C   UNL     1       1.688   2.198  -3.643  1.00  0.00     0.064 C 
BRANCH  11  13
ATOM     13  C   UNL     1      -0.088  -0.642  -1.614  1.00  0.00     0.154 C 
ATOM     14  C   UNL     1       0.036  -0.701  -0.125  1.00  0.00     0.093 C 
ATOM     15  O   UNL     1      -0.702  -1.532  -2.212  1.00  0.00    -0.295 OA
ENDBRANCH  11  13
ENDBRANCH   8  10
ENDBRANCH   7   8
ENDBRANCH   4   7
ENDBRANCH   2   3
ENDBRANCH   1   2
BRANCH   1  16
ATOM     16  C   UNL     1       6.145  -0.733  -2.058  1.00  0.00     0.023 C 
BRANCH  16  17
ATOM     17  C   UNL     1       6.345  -2.245  -2.055  1.00  0.00     0.116 C 
BRANCH  17  18
ATOM     18  N   UNL     1       5.916  -2.882  -3.290  1.00  0.00    -0.352 N 
ATOM     19  C   UNL     1       6.527  -3.894  -3.993  1.00  0.00     0.251 C 
ATOM     20  H   UNL     1       5.075  -2.543  -3.675  1.00  0.00     0.163 HD
ATOM     21  O   UNL     1       6.105  -4.234  -5.090  1.00  0.00    -0.269 OA
BRANCH  19  22
ATOM     22  C   UNL     1       7.729  -4.545  -3.428  1.00  0.00     0.039 A 
ATOM     23  C   UNL     1       8.850  -4.712  -4.245  1.00  0.00     0.014 A 
ATOM     24  C   UNL     1       7.761  -4.962  -2.094  1.00  0.00     0.014 A 
ATOM     25  C   UNL     1      10.027  -5.230  -3.704  1.00  0.00     0.010 A 
ATOM     26  C   UNL     1       8.955  -5.410  -1.538  1.00  0.00     0.010 A 
ATOM     27  C   UNL     1      10.101  -5.546  -2.337  1.00  0.00    -0.014 A 
BRANCH  27  28
ATOM     28  C   UNL     1      11.374  -6.005  -1.725  1.00  0.00     0.031 A 
ATOM     29  C   UNL     1      11.481  -7.384  -1.138  1.00  0.00     0.074 A 
ATOM     30  C   UNL     1      12.415  -5.153  -1.639  1.00  0.00     0.049 A 
ATOM     31  N   UNL     1      12.489  -7.944  -0.518  1.00  0.00    -0.248 NA
ATOM     32  C   UNL     1      10.287  -8.238  -1.234  1.00  0.00     0.031 C 
ATOM     33  C   UNL     1      12.415  -3.770  -2.117  1.00  0.00     0.029 A 
ATOM     34  N   UNL     1      13.670  -5.322  -1.110  1.00  0.00    -0.354 N 
ATOM     35  C   UNL     1      12.047  -9.205  -0.140  1.00  0.00     0.074 A 
ATOM     36  C   UNL     1      10.664  -9.309  -0.552  1.00  0.00     0.031 C 
ATOM     37  C   UNL     1      13.618  -3.223  -1.878  1.00  0.00     0.029 A 
ATOM     38  C   UNL     1      14.461  -4.203  -1.201  1.00  0.00     0.049 A 
ATOM     39  H   UNL     1      13.974  -6.165  -0.703  1.00  0.00     0.167 HD
ATOM     40  C   UNL     1      12.740 -10.195   0.472  1.00  0.00     0.037 A 
ATOM     41  C   UNL     1      15.723  -3.990  -0.781  1.00  0.00     0.037 A 
ATOM     42  C   UNL     1      14.123 -10.097   0.857  1.00  0.00     0.049 A 
ATOM     43  C   UNL     1      16.473  -5.109  -0.112  1.00  0.00     0.074 A 
ATOM     44  C   UNL     1      14.934 -11.069   1.416  1.00  0.00     0.029 A 
ATOM     45  N   UNL     1      14.901  -8.956   0.726  1.00  0.00    -0.354 N 
ATOM     46  N   UNL     1      16.071  -6.326   0.165  1.00  0.00    -0.248 NA
ATOM     47  C   UNL     1      17.857  -4.828   0.295  1.00  0.00     0.031 C 
ATOM     48  C   UNL     1      16.188 -10.502   1.669  1.00  0.00     0.029 A 
ATOM     49  C   UNL     1      16.175  -9.192   1.217  1.00  0.00     0.049 A 
ATOM     50  H   UNL     1      14.593  -8.104   0.340  1.00  0.00     0.167 HD
ATOM     51  C   UNL     1      17.155  -6.962   0.754  1.00  0.00     0.074 A 
ATOM     52  C   UNL     1      18.239  -6.001   0.778  1.00  0.00     0.031 C 
ATOM     53  C   UNL     1      17.244  -8.227   1.233  1.00  0.00     0.037 A 
BRANCH  40  54
ATOM     54  C   UNL     1      12.010 -11.475   0.763  1.00  0.00     0.064 A 
ATOM     55  C   UNL     1      11.616 -12.347  -0.264  1.00  0.00     0.173 A 
ATOM     56  C   UNL     1      11.733 -11.852   2.085  1.00  0.00     0.173 A 
ATOM     57  F   UNL     1      11.847 -12.029  -1.546  1.00  0.00    -0.203 F 
ATOM     58  C   UNL     1      10.944 -13.533   0.021  1.00  0.00     0.198 A 
ATOM     59  C   UNL     1      11.090 -13.054   2.369  1.00  0.00     0.198 A 
ATOM     60  F   UNL     1      12.094 -11.059   3.105  1.00  0.00    -0.203 F 
ATOM     61  F   UNL     1      10.532 -14.325  -0.979  1.00  0.00    -0.200 F 
ATOM     62  C   UNL     1      10.688 -13.889   1.337  1.00  0.00     0.200 A 
ATOM     63  F   UNL     1      10.855 -13.404   3.641  1.00  0.00    -0.200 F 
ATOM     64  F   UNL     1      10.048 -15.035   1.610  1.00  0.00    -0.200 F 
ENDBRANCH  40  54
BRANCH  41  65
ATOM     65  C   UNL     1      16.365  -2.669  -1.006  1.00  0.00     0.064 A 
ATOM     66  C   UNL     1      17.412  -2.524  -1.926  1.00  0.00     0.173 A 
ATOM     67  C   UNL     1      15.948  -1.527  -0.306  1.00  0.00     0.173 A 
ATOM     68  F   UNL     1      17.859  -3.591  -2.604  1.00  0.00    -0.203 F 
ATOM     69  C   UNL     1      18.031  -1.291  -2.124  1.00  0.00     0.198 A 
ATOM     70  C   UNL     1      16.549  -0.289  -0.526  1.00  0.00     0.198 A 
ATOM     71  F   UNL     1      14.946  -1.611   0.582  1.00  0.00    -0.203 F 
ATOM     72  F   UNL     1      19.059  -1.190  -2.977  1.00  0.00    -0.200 F 
ATOM     73  C   UNL     1      17.595  -0.174  -1.429  1.00  0.00     0.200 A 
ATOM     74  F   UNL     1      16.115   0.791   0.137  1.00  0.00    -0.200 F 
ATOM     75  F   UNL     1      18.188   1.012  -1.623  1.00  0.00    -0.200 F 
ENDBRANCH  41  65
BRANCH  53  76
ATOM     76  C   UNL     1      18.567  -8.655   1.799  1.00  0.00     0.064 A 
ATOM     77  C   UNL     1      19.039  -8.161   3.024  1.00  0.00     0.173 A 
ATOM     78  C   UNL     1      19.357  -9.598   1.123  1.00  0.00     0.173 A 
ATOM     79  F   UNL     1      18.329  -7.246   3.701  1.00  0.00    -0.203 F 
ATOM     80  C   UNL     1      20.265  -8.574   3.538  1.00  0.00     0.198 A 
ATOM     81  C   UNL     1      20.567 -10.033   1.656  1.00  0.00     0.198 A 
ATOM     82  F   UNL     1      18.948 -10.107  -0.049  1.00  0.00    -0.203 F 
ATOM     83  F   UNL     1      20.719  -8.051   4.685  1.00  0.00    -0.200 F 
ATOM     84  C   UNL     1      21.024  -9.515   2.858  1.00  0.00     0.200 A 
ATOM     85  F   UNL     1      21.293 -10.952   1.004  1.00  0.00    -0.200 F 
ATOM     86  F   UNL     1      22.201  -9.916   3.357  1.00  0.00    -0.200 F 
ENDBRANCH  53  76
ENDBRANCH  27  28
ENDBRANCH  19  22
ENDBRANCH  17  18
ENDBRANCH  16  17
ENDBRANCH   1  16
TORSDOF 14
