REMARK SMILES CC(C)c1cc(C2CC[NH+](Cc3c[nH]nc3C(=O)NCCCCNC(=O)c3ccc(-c4c5nc(c(-c6c(F)c(F)c(F)c(F)c6F)c6ccc([nH]6)c(-c6c(F)c(F)c(F)c(F)c6F)c6nc(c(-c7c(F)c(F)c(F)c(F)c7F)c7ccc4[nH]7)C=C6)C=C5)cc3)CC2)n[nH]1
REMARK SMILES IDX 20 1 19 2 17 3 18 4 16 6 12 7 13 8 14 9 15 10 11 12 10 13
REMARK SMILES IDX 7 14 8 15 91 16 9 17 90 18 6 20 4 21 5 22 93 23 92 24 2 26
REMARK SMILES IDX 1 27 3 28 21 29 22 30 23 31 24 32 25 33 26 35 27 36 28 37
REMARK SMILES IDX 89 38 29 39 88 40 30 41 31 42 32 43 82 44 33 45 87 46 81 47
REMARK SMILES IDX 83 48 34 49 86 50 80 51 79 52 35 54 67 55 47 56 66 57 48 58
REMARK SMILES IDX 51 59 65 60 84 61 49 62 50 63 64 65 85 66 52 67 36 68 37 69
REMARK SMILES IDX 45 70 38 71 39 72 43 73 46 74 40 75 41 76 44 77 42 78 68 79
REMARK SMILES IDX 69 80 77 81 70 82 71 83 75 84 78 85 72 86 73 87 76 88 74 89
REMARK SMILES IDX 53 90 54 91 62 92 55 93 56 94 60 95 63 96 57 97 58 98 61 99
REMARK SMILES IDX 59 100
REMARK H PARENT 19 5 14 11 10 19 93 25 24 34 83 53 51 64
REMARK Flexibility Score: inf
ROOT
ATOM      1  C   UNL     1      -0.588  -6.304   0.993  1.00  0.00     0.116 C 
ENDROOT
BRANCH   1   2
ATOM      2  N   UNL     1       0.739  -5.807   1.093  1.00  0.00    -0.351 N 
ATOM      3  C   UNL     1       1.276  -4.886   1.957  1.00  0.00     0.272 C 
ATOM      4  O   UNL     1       2.470  -4.656   1.714  1.00  0.00    -0.267 OA
ATOM      5  H   UNL     1       1.373  -6.183   0.440  1.00  0.00     0.163 HD
BRANCH   3   6
ATOM      6  C   UNL     1       0.570  -4.200   3.096  1.00  0.00     0.158 A 
ATOM      7  C   UNL     1      -0.732  -4.232   3.778  1.00  0.00     0.057 A 
ATOM      8  C   UNL     1      -0.550  -3.379   4.863  1.00  0.00     0.115 A 
ATOM      9  N   UNL     1       0.670  -2.820   4.746  1.00  0.00    -0.284 N 
ATOM     10  N   UNL     1       1.352  -3.275   3.710  1.00  0.00    -0.170 NA
ATOM     11  H   UNL     1       1.018  -2.142   5.369  1.00  0.00     0.189 HD
BRANCH   7  12
ATOM     12  C   UNL     1      -2.045  -4.976   3.620  1.00  0.00     0.303 C 
BRANCH  12  13
ATOM     13  N   UNL     1      -3.143  -4.215   2.964  1.00  0.00    -0.331 N 
ATOM     14  C   UNL     1      -4.219  -1.824   1.558  1.00  0.00     0.051 C 
ATOM     15  C   UNL     1      -4.617  -2.154   2.997  1.00  0.00     0.071 C 
ATOM     16  C   UNL     1      -4.044  -3.154   0.827  1.00  0.00     0.071 C 
ATOM     17  C   UNL     1      -3.599  -3.044   3.715  1.00  0.00     0.263 C 
ATOM     18  C   UNL     1      -3.023  -4.058   1.517  1.00  0.00     0.263 C 
ATOM     19  H   UNL     1      -3.946  -4.841   3.022  1.00  0.00     0.348 HD
BRANCH  14  20
ATOM     20  C   UNL     1      -3.011  -0.927   1.401  1.00  0.00     0.066 A 
ATOM     21  C   UNL     1      -0.909  -0.202   1.211  1.00  0.00     0.038 A 
ATOM     22  C   UNL     1      -1.685  -1.149   1.831  1.00  0.00     0.049 A 
ATOM     23  N   UNL     1      -1.805   0.627   0.595  1.00  0.00    -0.282 N 
ATOM     24  N   UNL     1      -3.080   0.195   0.671  1.00  0.00    -0.180 NA
ATOM     25  H   UNL     1      -1.544   1.460   0.140  1.00  0.00     0.190 HD
BRANCH  21  26
ATOM     26  C   UNL     1       0.585  -0.114   1.147  1.00  0.00     0.031 C 
ATOM     27  C   UNL     1       1.091   0.545  -0.133  1.00  0.00     0.014 C 
ATOM     28  C   UNL     1       1.157   0.562   2.389  1.00  0.00     0.014 C 
ENDBRANCH  21  26
ENDBRANCH  14  20
ENDBRANCH  12  13
ENDBRANCH   7  12
ENDBRANCH   3   6
ENDBRANCH   1   2
BRANCH   1  29
ATOM     29  C   UNL     1      -1.099  -6.473  -0.429  1.00  0.00     0.023 C 
BRANCH  29  30
ATOM     30  C   UNL     1      -0.646  -7.746  -1.122  1.00  0.00     0.023 C 
BRANCH  30  31
ATOM     31  C   UNL     1      -0.837  -9.018  -0.305  1.00  0.00     0.116 C 
BRANCH  31  32
ATOM     32  N   UNL     1      -2.193  -9.200   0.211  1.00  0.00    -0.352 N 
ATOM     33  C   UNL     1      -3.119 -10.186  -0.048  1.00  0.00     0.251 C 
ATOM     34  H   UNL     1      -2.492  -8.508   0.844  1.00  0.00     0.163 HD
ATOM     35  O   UNL     1      -4.245 -10.132   0.427  1.00  0.00    -0.269 OA
BRANCH  33  36
ATOM     36  C   UNL     1      -2.750 -11.280  -0.966  1.00  0.00     0.039 A 
ATOM     37  C   UNL     1      -3.556 -11.527  -2.078  1.00  0.00     0.014 A 
ATOM     38  C   UNL     1      -1.540 -11.950  -0.797  1.00  0.00     0.014 A 
ATOM     39  C   UNL     1      -3.070 -12.337  -3.104  1.00  0.00     0.010 A 
ATOM     40  C   UNL     1      -1.011 -12.659  -1.865  1.00  0.00     0.010 A 
ATOM     41  C   UNL     1      -1.758 -12.833  -3.041  1.00  0.00    -0.014 A 
BRANCH  41  42
ATOM     42  C   UNL     1      -1.108 -13.481  -4.208  1.00  0.00     0.031 A 
ATOM     43  C   UNL     1      -0.560 -14.873  -4.082  1.00  0.00     0.074 A 
ATOM     44  C   UNL     1      -0.893 -12.768  -5.332  1.00  0.00     0.049 A 
ATOM     45  N   UNL     1       0.186 -15.548  -4.918  1.00  0.00    -0.248 NA
ATOM     46  C   UNL     1      -0.849 -15.582  -2.826  1.00  0.00     0.031 C 
ATOM     47  C   UNL     1      -1.316 -11.383  -5.556  1.00  0.00     0.029 A 
ATOM     48  N   UNL     1      -0.245 -13.104  -6.495  1.00  0.00    -0.354 N 
ATOM     49  C   UNL     1       0.489 -16.738  -4.272  1.00  0.00     0.074 A 
ATOM     50  C   UNL     1      -0.114 -16.675  -2.958  1.00  0.00     0.031 C 
ATOM     51  C   UNL     1      -0.953 -11.004  -6.791  1.00  0.00     0.029 A 
ATOM     52  C   UNL     1      -0.225 -12.096  -7.428  1.00  0.00     0.049 A 
ATOM     53  H   UNL     1       0.166 -13.986  -6.647  1.00  0.00     0.167 HD
ATOM     54  C   UNL     1       1.188 -17.797  -4.742  1.00  0.00     0.037 A 
ATOM     55  C   UNL     1       0.328 -12.053  -8.655  1.00  0.00     0.037 A 
ATOM     56  C   UNL     1       1.727 -17.881  -6.072  1.00  0.00     0.049 A 
ATOM     57  C   UNL     1       1.086 -13.249  -9.159  1.00  0.00     0.074 A 
ATOM     58  C   UNL     1       2.339 -18.958  -6.688  1.00  0.00     0.029 A 
ATOM     59  N   UNL     1       1.716 -16.844  -6.993  1.00  0.00    -0.354 N 
ATOM     60  N   UNL     1       1.298 -14.400  -8.570  1.00  0.00    -0.248 NA
ATOM     61  C   UNL     1       1.692 -13.134 -10.493  1.00  0.00     0.031 C 
ATOM     62  C   UNL     1       2.733 -18.560  -7.970  1.00  0.00     0.029 A 
ATOM     63  C   UNL     1       2.336 -17.247  -8.164  1.00  0.00     0.049 A 
ATOM     64  H   UNL     1       1.324 -15.954  -6.837  1.00  0.00     0.167 HD
ATOM     65  C   UNL     1       2.041 -15.155  -9.466  1.00  0.00     0.074 A 
ATOM     66  C   UNL     1       2.236 -14.334 -10.644  1.00  0.00     0.031 C 
ATOM     67  C   UNL     1       2.519 -16.415  -9.325  1.00  0.00     0.037 A 
BRANCH  54  68
ATOM     68  C   UNL     1       1.400 -18.952  -3.810  1.00  0.00     0.064 A 
ATOM     69  C   UNL     1       0.346 -19.796  -3.429  1.00  0.00     0.173 A 
ATOM     70  C   UNL     1       2.678 -19.226  -3.300  1.00  0.00     0.173 A 
ATOM     71  F   UNL     1      -0.897 -19.568  -3.878  1.00  0.00    -0.203 F 
ATOM     72  C   UNL     1       0.557 -20.850  -2.544  1.00  0.00     0.198 A 
ATOM     73  C   UNL     1       2.891 -20.298  -2.438  1.00  0.00     0.198 A 
ATOM     74  F   UNL     1       3.721 -18.451  -3.636  1.00  0.00    -0.203 F 
ATOM     75  F   UNL     1      -0.476 -21.607  -2.150  1.00  0.00    -0.200 F 
ATOM     76  C   UNL     1       1.829 -21.103  -2.053  1.00  0.00     0.200 A 
ATOM     77  F   UNL     1       4.122 -20.547  -1.971  1.00  0.00    -0.200 F 
ATOM     78  F   UNL     1       2.030 -22.117  -1.201  1.00  0.00    -0.200 F 
ENDBRANCH  54  68
BRANCH  55  79
ATOM     79  C   UNL     1       0.158 -10.847  -9.505  1.00  0.00     0.064 A 
ATOM     80  C   UNL     1      -0.689 -10.880 -10.621  1.00  0.00     0.173 A 
ATOM     81  C   UNL     1       0.822  -9.645  -9.223  1.00  0.00     0.173 A 
ATOM     82  F   UNL     1      -1.328 -12.015 -10.941  1.00  0.00    -0.203 F 
ATOM     83  C   UNL     1      -0.858  -9.759 -11.430  1.00  0.00     0.198 A 
ATOM     84  C   UNL     1       0.635  -8.518 -10.021  1.00  0.00     0.198 A 
ATOM     85  F   UNL     1       1.641  -9.562  -8.164  1.00  0.00    -0.203 F 
ATOM     86  F   UNL     1      -1.649  -9.828 -12.510  1.00  0.00    -0.200 F 
ATOM     87  C   UNL     1      -0.201  -8.577 -11.126  1.00  0.00     0.200 A 
ATOM     88  F   UNL     1       1.264  -7.373  -9.718  1.00  0.00    -0.200 F 
ATOM     89  F   UNL     1      -0.367  -7.497 -11.902  1.00  0.00    -0.200 F 
ENDBRANCH  55  79
BRANCH  67  90
ATOM     90  C   UNL     1       3.283 -16.991 -10.479  1.00  0.00     0.064 A 
ATOM     91  C   UNL     1       4.599 -16.592 -10.753  1.00  0.00     0.173 A 
ATOM     92  C   UNL     1       2.712 -17.987 -11.283  1.00  0.00     0.173 A 
ATOM     93  F   UNL     1       5.179 -15.629 -10.022  1.00  0.00    -0.203 F 
ATOM     94  C   UNL     1       5.313 -17.164 -11.803  1.00  0.00     0.198 A 
ATOM     95  C   UNL     1       3.437 -18.574 -12.316  1.00  0.00     0.198 A 
ATOM     96  F   UNL     1       1.457 -18.403 -11.056  1.00  0.00    -0.203 F 
ATOM     97  F   UNL     1       6.557 -16.746 -12.070  1.00  0.00    -0.200 F 
ATOM     98  C   UNL     1       4.735 -18.160 -12.577  1.00  0.00     0.200 A 
ATOM     99  F   UNL     1       2.881 -19.542 -13.057  1.00  0.00    -0.200 F 
ATOM    100  F   UNL     1       5.427 -18.716 -13.580  1.00  0.00    -0.200 F 
ENDBRANCH  67  90
ENDBRANCH  41  42
ENDBRANCH  33  36
ENDBRANCH  31  32
ENDBRANCH  30  31
ENDBRANCH  29  30
ENDBRANCH   1  29
TORSDOF 15
