REMARK SMILES CCC[C@H](Nc1cc(C)c(N)c(C(=O)NCCCCNC(=O)c2ccc(-c3c4nc(c(-c5c(F)c(F)c(F)c(F)c5F)c5ccc([nH]5)c(-c5c(F)c(F)c(F)c(F)c5F)c5nc(c(-c6c(F)c(F)c(F)c(F)c6F)c6ccc3[nH]6)C=C5)C=C4)cc2)c1)c1cccs1
REMARK SMILES IDX 16 1 15 2 13 3 14 4 12 6 6 7 7 8 86 9 8 10 9 11 10 12 5 13
REMARK SMILES IDX 4 15 3 16 2 17 1 18 87 19 88 20 91 21 89 22 90 23 11 24
REMARK SMILES IDX 17 27 18 28 19 29 20 30 21 31 22 33 23 34 24 35 85 36 25 37
REMARK SMILES IDX 84 38 26 39 27 40 28 41 78 42 29 43 83 44 77 45 79 46 30 47
REMARK SMILES IDX 82 48 76 49 75 50 31 52 63 53 43 54 62 55 44 56 47 57 61 58
REMARK SMILES IDX 80 59 45 60 46 61 60 63 81 64 48 65 32 66 33 67 41 68 34 69
REMARK SMILES IDX 35 70 39 71 42 72 36 73 37 74 40 75 38 76 64 77 65 78 73 79
REMARK SMILES IDX 66 80 67 81 71 82 74 83 68 84 69 85 72 86 70 87 49 88 50 89
REMARK SMILES IDX 58 90 51 91 52 92 56 93 59 94 53 95 54 96 57 97 55 98
REMARK H PARENT 15 5 5 14 11 25 11 26 20 32 79 51 47 62
REMARK Flexibility Score: inf
ROOT
ATOM      1  C   UNL     1       4.642   3.136  -3.113  1.00  0.00     0.116 C 
ENDROOT
BRANCH   1   2
ATOM      2  N   UNL     1       4.429   3.576  -4.477  1.00  0.00    -0.352 N 
ATOM      3  C   UNL     1       3.406   3.448  -5.386  1.00  0.00     0.253 C 
ATOM      4  O   UNL     1       3.614   4.012  -6.466  1.00  0.00    -0.269 OA
ATOM      5  H   UNL     1       5.194   4.083  -4.835  1.00  0.00     0.163 HD
BRANCH   3   6
ATOM      6  C   UNL     1       2.105   2.719  -5.149  1.00  0.00     0.065 A 
ATOM      7  C   UNL     1       0.732   1.143  -3.840  1.00  0.00     0.036 A 
ATOM      8  C   UNL     1      -0.301   1.309  -4.755  1.00  0.00     0.031 A 
ATOM      9  C   UNL     1       1.924   1.844  -4.069  1.00  0.00     0.041 A 
ATOM     10  C   UNL     1      -0.164   2.148  -5.873  1.00  0.00    -0.025 A 
ATOM     11  C   UNL     1      -1.293   2.203  -6.870  1.00  0.00     0.046 C 
ATOM     12  C   UNL     1       1.037   2.865  -6.077  1.00  0.00     0.047 A 
BRANCH   7  13
ATOM     13  N   UNL     1       0.722   0.200  -2.829  1.00  0.00    -0.377 N 
ATOM     14  H   UNL     1       1.060   0.481  -1.948  1.00  0.00     0.161 HD
BRANCH  13  15
ATOM     15  C   UNL     1       0.250  -1.187  -2.957  1.00  0.00     0.119 C 
BRANCH  15  16
ATOM     16  C   UNL     1      -1.276  -1.254  -2.704  1.00  0.00     0.030 C 
BRANCH  16  17
ATOM     17  C   UNL     1      -1.640  -1.911  -1.362  1.00  0.00    -0.001 C 
ATOM     18  C   UNL     1      -1.209  -1.089  -0.154  1.00  0.00     0.004 C 
ENDBRANCH  16  17
ENDBRANCH  15  16
BRANCH  15  19
ATOM     19  C   UNL     1       0.716  -1.982  -4.178  1.00  0.00     0.027 A 
ATOM     20  C   UNL     1       1.465  -1.588  -5.277  1.00  0.00     0.017 A 
ATOM     21  S   UNL     1       0.404  -3.679  -4.259  1.00  0.00    -0.147 S 
ATOM     22  C   UNL     1       1.720  -2.642  -6.198  1.00  0.00     0.012 A 
ATOM     23  C   UNL     1       1.191  -3.833  -5.767  1.00  0.00     0.065 A 
ENDBRANCH  15  19
ENDBRANCH  13  15
ENDBRANCH   7  13
BRANCH  12  24
ATOM     24  N   UNL     1       1.190   3.597  -7.255  1.00  0.00    -0.398 N 
ATOM     25  H   UNL     1       0.436   3.684  -7.882  1.00  0.00     0.156 HD
ATOM     26  H   UNL     1       2.052   4.027  -7.459  1.00  0.00     0.156 HD
ENDBRANCH  12  24
ENDBRANCH   3   6
ENDBRANCH   1   2
BRANCH   1  27
ATOM     27  C   UNL     1       5.405   1.808  -3.081  1.00  0.00     0.023 C 
BRANCH  27  28
ATOM     28  C   UNL     1       6.923   1.952  -3.245  1.00  0.00     0.023 C 
BRANCH  28  29
ATOM     29  C   UNL     1       7.615   2.777  -2.163  1.00  0.00     0.116 C 
BRANCH  29  30
ATOM     30  N   UNL     1       7.372   2.287  -0.815  1.00  0.00    -0.352 N 
ATOM     31  C   UNL     1       8.165   2.430   0.301  1.00  0.00     0.251 C 
ATOM     32  H   UNL     1       6.533   1.790  -0.683  1.00  0.00     0.163 HD
ATOM     33  O   UNL     1       7.871   1.884   1.352  1.00  0.00    -0.269 OA
BRANCH  31  34
ATOM     34  C   UNL     1       9.412   3.215   0.191  1.00  0.00     0.039 A 
ATOM     35  C   UNL     1      10.612   2.622   0.587  1.00  0.00     0.014 A 
ATOM     36  C   UNL     1       9.398   4.502  -0.352  1.00  0.00     0.014 A 
ATOM     37  C   UNL     1      11.816   3.291   0.361  1.00  0.00     0.010 A 
ATOM     38  C   UNL     1      10.601   5.140  -0.633  1.00  0.00     0.010 A 
ATOM     39  C   UNL     1      11.820   4.534  -0.292  1.00  0.00    -0.014 A 
BRANCH  39  40
ATOM     40  C   UNL     1      13.093   5.200  -0.663  1.00  0.00     0.031 A 
ATOM     41  C   UNL     1      13.472   6.511  -0.041  1.00  0.00     0.074 A 
ATOM     42  C   UNL     1      13.863   4.657  -1.626  1.00  0.00     0.049 A 
ATOM     43  N   UNL     1      14.501   7.279  -0.293  1.00  0.00    -0.248 NA
ATOM     44  C   UNL     1      12.558   7.045   0.981  1.00  0.00     0.031 C 
ATOM     45  C   UNL     1      13.568   3.416  -2.344  1.00  0.00     0.029 A 
ATOM     46  N   UNL     1      15.043   5.088  -2.179  1.00  0.00    -0.354 N 
ATOM     47  C   UNL     1      14.352   8.390   0.526  1.00  0.00     0.074 A 
ATOM     48  C   UNL     1      13.109   8.220   1.247  1.00  0.00     0.031 C 
ATOM     49  C   UNL     1      14.549   3.177  -3.230  1.00  0.00     0.029 A 
ATOM     50  C   UNL     1      15.521   4.264  -3.167  1.00  0.00     0.049 A 
ATOM     51  H   UNL     1      15.502   5.911  -1.893  1.00  0.00     0.167 HD
ATOM     52  C   UNL     1      15.188   9.444   0.676  1.00  0.00     0.037 A 
ATOM     53  C   UNL     1      16.616   4.377  -3.942  1.00  0.00     0.037 A 
ATOM     54  C   UNL     1      16.436   9.594  -0.026  1.00  0.00     0.049 A 
ATOM     55  C   UNL     1      17.527   5.559  -3.756  1.00  0.00     0.074 A 
ATOM     56  C   UNL     1      17.392  10.584   0.116  1.00  0.00     0.029 A 
ATOM     57  N   UNL     1      16.896   8.731  -1.010  1.00  0.00    -0.354 N 
ATOM     58  N   UNL     1      17.419   6.562  -2.920  1.00  0.00    -0.248 NA
ATOM     59  C   UNL     1      18.714   5.622  -4.620  1.00  0.00     0.031 C 
ATOM     60  C   UNL     1      18.410  10.345  -0.814  1.00  0.00     0.029 A 
ATOM     61  C   UNL     1      18.110   9.182  -1.504  1.00  0.00     0.049 A 
ATOM     62  H   UNL     1      16.429   7.919  -1.312  1.00  0.00     0.167 HD
ATOM     63  C   UNL     1      18.528   7.365  -3.142  1.00  0.00     0.074 A 
ATOM     64  C   UNL     1      19.308   6.723  -4.181  1.00  0.00     0.031 C 
ATOM     65  C   UNL     1      18.869   8.532  -2.542  1.00  0.00     0.037 A 
BRANCH  52  66
ATOM     66  C   UNL     1      14.782  10.517   1.643  1.00  0.00     0.064 A 
ATOM     67  C   UNL     1      14.781  10.297   3.029  1.00  0.00     0.173 A 
ATOM     68  C   UNL     1      14.419  11.791   1.181  1.00  0.00     0.173 A 
ATOM     69  F   UNL     1      15.110   9.092   3.521  1.00  0.00    -0.203 F 
ATOM     70  C   UNL     1      14.402  11.302   3.914  1.00  0.00     0.198 A 
ATOM     71  C   UNL     1      14.068  12.803   2.071  1.00  0.00     0.198 A 
ATOM     72  F   UNL     1      14.408  12.057  -0.134  1.00  0.00    -0.203 F 
ATOM     73  F   UNL     1      14.362  11.053   5.230  1.00  0.00    -0.200 F 
ATOM     74  C   UNL     1      14.053  12.556   3.436  1.00  0.00     0.200 A 
ATOM     75  F   UNL     1      13.742  14.018   1.608  1.00  0.00    -0.200 F 
ATOM     76  F   UNL     1      13.693  13.524   4.290  1.00  0.00    -0.200 F 
ENDBRANCH  52  66
BRANCH  53  77
ATOM     77  C   UNL     1      16.920   3.329  -4.950  1.00  0.00     0.064 A 
ATOM     78  C   UNL     1      17.995   2.449  -4.768  1.00  0.00     0.173 A 
ATOM     79  C   UNL     1      16.140   3.179  -6.106  1.00  0.00     0.173 A 
ATOM     80  F   UNL     1      18.781   2.567  -3.688  1.00  0.00    -0.203 F 
ATOM     81  C   UNL     1      18.289   1.468  -5.712  1.00  0.00     0.198 A 
ATOM     82  C   UNL     1      16.420   2.181  -7.037  1.00  0.00     0.198 A 
ATOM     83  F   UNL     1      15.097   3.993  -6.323  1.00  0.00    -0.203 F 
ATOM     84  F   UNL     1      19.346   0.664  -5.532  1.00  0.00    -0.200 F 
ATOM     85  C   UNL     1      17.498   1.330  -6.843  1.00  0.00     0.200 A 
ATOM     86  F   UNL     1      15.645   2.042  -8.121  1.00  0.00    -0.200 F 
ATOM     87  F   UNL     1      17.777   0.382  -7.747  1.00  0.00    -0.200 F 
ENDBRANCH  53  77
BRANCH  65  88
ATOM     88  C   UNL     1      20.147   9.182  -2.984  1.00  0.00     0.064 A 
ATOM     89  C   UNL     1      20.250   9.823  -4.227  1.00  0.00     0.173 A 
ATOM     90  C   UNL     1      21.266   9.202  -2.137  1.00  0.00     0.173 A 
ATOM     91  F   UNL     1      19.213   9.816  -5.078  1.00  0.00    -0.203 F 
ATOM     92  C   UNL     1      21.434  10.444  -4.615  1.00  0.00     0.198 A 
ATOM     93  C   UNL     1      22.439   9.848  -2.517  1.00  0.00     0.198 A 
ATOM     94  F   UNL     1      21.216   8.607  -0.936  1.00  0.00    -0.203 F 
ATOM     95  F   UNL     1      21.524  11.015  -5.824  1.00  0.00    -0.200 F 
ATOM     96  C   UNL     1      22.524  10.463  -3.757  1.00  0.00     0.200 A 
ATOM     97  F   UNL     1      23.487   9.875  -1.683  1.00  0.00    -0.200 F 
ATOM     98  F   UNL     1      23.660  11.069  -4.129  1.00  0.00    -0.200 F 
ENDBRANCH  65  88
ENDBRANCH  39  40
ENDBRANCH  31  34
ENDBRANCH  29  30
ENDBRANCH  28  29
ENDBRANCH  27  28
ENDBRANCH   1  27
TORSDOF 17
