REMARK SMILES O=C1[NH+]=C(S)N(c2cccc(Br)c2)C(=O)/C1=C/c1ccc(-c2ccc(C(=O)NCCCCNC(=O)c3ccc(-c4c5nc(c(-c6c(F)c(F)c(F)c(F)c6F)c6ccc([nH]6)c(-c6c(F)c(F)c(F)c(F)c6F)c6nc(c(-c7c(F)c(F)c(F)c(F)c7F)c7ccc4[nH]7)C=C6)C=C5)cc3)cc2)o1
REMARK SMILES IDX 30 1 29 2 28 3 26 4 27 5 25 7 22 8 23 9 100 10 24 11 99 12
REMARK SMILES IDX 21 13 18 14 19 15 101 16 20 17 17 18 1 19 2 20 3 21 16 22
REMARK SMILES IDX 4 23 14 25 6 26 15 27 5 28 7 30 8 31 13 32 9 33 11 34 10 35
REMARK SMILES IDX 12 36 31 37 32 38 33 39 34 40 35 42 36 43 37 44 98 45 38 46
REMARK SMILES IDX 97 47 39 48 40 49 41 50 91 51 42 52 96 53 90 54 92 55 43 56
REMARK SMILES IDX 95 57 89 58 88 59 44 61 76 62 56 63 75 64 57 65 60 66 74 67
REMARK SMILES IDX 93 68 58 69 59 70 73 72 94 73 61 74 45 75 46 76 54 77 47 78
REMARK SMILES IDX 48 79 52 80 55 81 49 82 50 83 53 84 51 85 77 86 78 87 86 88
REMARK SMILES IDX 79 89 80 90 84 91 87 92 81 93 82 94 85 95 83 96 62 97 63 98
REMARK SMILES IDX 71 99 64 100 65 101 69 102 72 103 66 104 67 105 70 106
REMARK SMILES IDX 68 107
REMARK H PARENT 28 6 3 24 5 29 33 41 92 60 60 71
REMARK Flexibility Score: inf
ROOT
ATOM      1  C   UNL     1      -6.532  -7.185   1.450  1.00  0.00     0.023 C 
ENDROOT
BRANCH   1   2
ATOM      2  C   UNL     1      -6.845  -5.705   1.691  1.00  0.00     0.116 C 
BRANCH   2   3
ATOM      3  N   UNL     1      -6.539  -5.343   3.062  1.00  0.00    -0.352 N 
ATOM      4  C   UNL     1      -5.435  -4.757   3.630  1.00  0.00     0.251 C 
ATOM      5  O   UNL     1      -5.457  -4.550   4.843  1.00  0.00    -0.269 OA
ATOM      6  H   UNL     1      -7.255  -5.557   3.703  1.00  0.00     0.163 HD
BRANCH   4   7
ATOM      7  C   UNL     1      -4.257  -4.308   2.834  1.00  0.00     0.039 A 
ATOM      8  C   UNL     1      -2.151  -3.211   1.329  1.00  0.00     0.017 A 
ATOM      9  C   UNL     1      -2.455  -2.685   2.585  1.00  0.00     0.013 A 
ATOM     10  C   UNL     1      -2.842  -4.332   0.868  1.00  0.00     0.013 A 
ATOM     11  C   UNL     1      -3.512  -3.225   3.329  1.00  0.00     0.014 A 
ATOM     12  C   UNL     1      -3.857  -4.898   1.634  1.00  0.00     0.014 A 
BRANCH   8  13
ATOM     13  C   UNL     1      -1.165  -2.612   0.461  1.00  0.00     0.134 A 
ATOM     14  C   UNL     1       0.912  -2.172  -0.135  1.00  0.00     0.128 A 
ATOM     15  C   UNL     1       0.079  -1.760  -1.169  1.00  0.00     0.051 A 
ATOM     16  O   UNL     1       0.129  -2.713   0.855  1.00  0.00    -0.457 OA
ATOM     17  C   UNL     1      -1.249  -2.025  -0.779  1.00  0.00     0.051 A 
BRANCH  14  18
ATOM     18  C   UNL     1       2.324  -2.125  -0.060  1.00  0.00     0.071 C 
ATOM     19  O   UNL     1       1.253   0.563   0.312  1.00  0.00    -0.241 OA
ATOM     20  C   UNL     1       2.443   0.370   0.130  1.00  0.00     0.347 C 
ATOM     21  N   UNL     1       3.306   1.418   0.033  1.00  0.00    -0.200 N 
ATOM     22  C   UNL     1       3.037  -0.983   0.003  1.00  0.00     0.158 C 
ATOM     23  C   UNL     1       4.577   1.256  -0.016  1.00  0.00     0.323 C 
ATOM     24  H   UNL     1       2.942   2.332  -0.002  1.00  0.00     0.316 HD
ATOM     25  C   UNL     1       4.511  -1.141  -0.035  1.00  0.00     0.354 C 
ATOM     26  N   UNL     1       5.237   0.042  -0.010  1.00  0.00    -0.151 N 
ATOM     27  O   UNL     1       5.015  -2.264  -0.080  1.00  0.00    -0.240 OA
BRANCH  23  28
ATOM     28  S   UNL     1       5.470   2.755  -0.199  1.00  0.00    -0.055 SA
ATOM     29  H   UNL     1       4.604   3.804  -0.174  1.00  0.00     0.116 HD
ENDBRANCH  23  28
BRANCH  26  30
ATOM     30  C   UNL     1       6.664  -0.062  -0.007  1.00  0.00     0.138 A 
ATOM     31  C   UNL     1       7.323  -0.761  -1.030  1.00  0.00     0.052 A 
ATOM     32  C   UNL     1       7.417   0.510   1.027  1.00  0.00     0.068 A 
ATOM     33  C   UNL     1       8.716  -0.848  -1.043  1.00  0.00     0.006 A 
ATOM     34  C   UNL     1       8.807   0.409   1.011  1.00  0.00     0.022 A 
ATOM     35  C   UNL     1       9.460  -0.259  -0.023  1.00  0.00     0.016 A 
ATOM     36  Br  UNL     1       9.814   1.183   2.411  1.00  0.00    -0.051 Br
ENDBRANCH  26  30
ENDBRANCH  14  18
ENDBRANCH   8  13
ENDBRANCH   4   7
ENDBRANCH   2   3
ENDBRANCH   1   2
BRANCH   1  37
ATOM     37  C   UNL     1      -7.599  -8.137   1.990  1.00  0.00     0.023 C 
BRANCH  37  38
ATOM     38  C   UNL     1      -8.969  -7.975   1.347  1.00  0.00     0.116 C 
BRANCH  38  39
ATOM     39  N   UNL     1      -8.951  -8.169  -0.095  1.00  0.00    -0.352 N 
ATOM     40  C   UNL     1      -9.913  -8.748  -0.886  1.00  0.00     0.251 C 
ATOM     41  H   UNL     1      -8.148  -7.845  -0.563  1.00  0.00     0.163 HD
ATOM     42  O   UNL     1      -9.704  -8.959  -2.075  1.00  0.00    -0.269 OA
BRANCH  40  43
ATOM     43  C   UNL     1     -11.193  -9.149  -0.271  1.00  0.00     0.039 A 
ATOM     44  C   UNL     1     -11.677 -10.438  -0.499  1.00  0.00     0.014 A 
ATOM     45  C   UNL     1     -11.882  -8.270   0.570  1.00  0.00     0.014 A 
ATOM     46  C   UNL     1     -12.824 -10.867   0.167  1.00  0.00     0.010 A 
ATOM     47  C   UNL     1     -12.973  -8.728   1.298  1.00  0.00     0.010 A 
ATOM     48  C   UNL     1     -13.460 -10.029   1.099  1.00  0.00    -0.014 A 
BRANCH  48  49
ATOM     49  C   UNL     1     -14.645 -10.491   1.864  1.00  0.00     0.031 A 
ATOM     50  C   UNL     1     -15.968  -9.798   1.689  1.00  0.00     0.074 A 
ATOM     51  C   UNL     1     -14.519 -11.503   2.745  1.00  0.00     0.049 A 
ATOM     52  N   UNL     1     -17.105 -10.018   2.300  1.00  0.00    -0.248 NA
ATOM     53  C   UNL     1     -16.015  -8.695   0.716  1.00  0.00     0.031 C 
ATOM     54  C   UNL     1     -13.280 -12.228   3.032  1.00  0.00     0.029 A 
ATOM     55  N   UNL     1     -15.446 -12.096   3.565  1.00  0.00    -0.354 N 
ATOM     56  C   UNL     1     -17.995  -9.085   1.784  1.00  0.00     0.074 A 
ATOM     57  C   UNL     1     -17.252  -8.249   0.869  1.00  0.00     0.031 C 
ATOM     58  C   UNL     1     -13.531 -13.189   3.935  1.00  0.00     0.029 A 
ATOM     59  C   UNL     1     -14.935 -13.119   4.326  1.00  0.00     0.049 A 
ATOM     60  H   UNL     1     -16.389 -11.814   3.605  1.00  0.00     0.167 HD
ATOM     61  C   UNL     1     -19.322  -8.960   2.024  1.00  0.00     0.037 A 
ATOM     62  C   UNL     1     -15.534 -13.906   5.241  1.00  0.00     0.037 A 
ATOM     63  C   UNL     1     -20.061  -9.798   2.931  1.00  0.00     0.049 A 
ATOM     64  C   UNL     1     -17.000 -13.708   5.526  1.00  0.00     0.074 A 
ATOM     65  C   UNL     1     -21.411  -9.767   3.230  1.00  0.00     0.029 A 
ATOM     66  N   UNL     1     -19.507 -10.822   3.687  1.00  0.00    -0.354 N 
ATOM     67  N   UNL     1     -17.845 -12.863   4.987  1.00  0.00    -0.248 NA
ATOM     68  C   UNL     1     -17.598 -14.582   6.545  1.00  0.00     0.031 C 
ATOM     69  C   UNL     1     -21.666 -10.736   4.204  1.00  0.00     0.029 A 
ATOM     70  C   UNL     1     -20.488 -11.416   4.465  1.00  0.00     0.049 A 
ATOM     71  H   UNL     1     -18.559 -11.086   3.673  1.00  0.00     0.167 HD
ATOM     72  C   UNL     1     -19.078 -13.133   5.567  1.00  0.00     0.074 A 
ATOM     73  C   UNL     1     -18.873 -14.231   6.488  1.00  0.00     0.031 C 
ATOM     74  C   UNL     1     -20.272 -12.526   5.358  1.00  0.00     0.037 A 
BRANCH  61  75
ATOM     75  C   UNL     1     -20.064  -7.883   1.284  1.00  0.00     0.064 A 
ATOM     76  C   UNL     1     -20.269  -7.958  -0.103  1.00  0.00     0.173 A 
ATOM     77  C   UNL     1     -20.613  -6.789   1.968  1.00  0.00     0.173 A 
ATOM     78  F   UNL     1     -19.755  -8.977  -0.809  1.00  0.00    -0.203 F 
ATOM     79  C   UNL     1     -20.972  -6.965  -0.779  1.00  0.00     0.198 A 
ATOM     80  C   UNL     1     -21.345  -5.815   1.294  1.00  0.00     0.198 A 
ATOM     81  F   UNL     1     -20.451  -6.670   3.295  1.00  0.00    -0.203 F 
ATOM     82  F   UNL     1     -21.111  -7.032  -2.111  1.00  0.00    -0.200 F 
ATOM     83  C   UNL     1     -21.517  -5.899  -0.079  1.00  0.00     0.200 A 
ATOM     84  F   UNL     1     -21.885  -4.795   1.974  1.00  0.00    -0.200 F 
ATOM     85  F   UNL     1     -22.205  -4.950  -0.730  1.00  0.00    -0.200 F 
ENDBRANCH  61  75
BRANCH  62  86
ATOM     86  C   UNL     1     -14.765 -14.968   5.945  1.00  0.00     0.064 A 
ATOM     87  C   UNL     1     -15.072 -16.324   5.758  1.00  0.00     0.173 A 
ATOM     88  C   UNL     1     -13.744 -14.654   6.854  1.00  0.00     0.173 A 
ATOM     89  F   UNL     1     -16.052 -16.678   4.913  1.00  0.00    -0.203 F 
ATOM     90  C   UNL     1     -14.419 -17.320   6.482  1.00  0.00     0.198 A 
ATOM     91  C   UNL     1     -13.066 -15.653   7.551  1.00  0.00     0.198 A 
ATOM     92  F   UNL     1     -13.404 -13.374   7.068  1.00  0.00    -0.203 F 
ATOM     93  F   UNL     1     -14.784 -18.600   6.335  1.00  0.00    -0.200 F 
ATOM     94  C   UNL     1     -13.415 -16.983   7.376  1.00  0.00     0.200 A 
ATOM     95  F   UNL     1     -12.085 -15.324   8.402  1.00  0.00    -0.200 F 
ATOM     96  F   UNL     1     -12.792 -17.939   8.079  1.00  0.00    -0.200 F 
ENDBRANCH  62  86
BRANCH  74  97
ATOM     97  C   UNL     1     -21.464 -13.077   6.089  1.00  0.00     0.064 A 
ATOM     98  C   UNL     1     -21.612 -12.943   7.478  1.00  0.00     0.173 A 
ATOM     99  C   UNL     1     -22.491 -13.720   5.380  1.00  0.00     0.173 A 
ATOM    100  F   UNL     1     -20.654 -12.348   8.205  1.00  0.00    -0.203 F 
ATOM    101  C   UNL     1     -22.724 -13.465   8.133  1.00  0.00     0.198 A 
ATOM    102  C   UNL     1     -23.619 -14.206   6.033  1.00  0.00     0.198 A 
ATOM    103  F   UNL     1     -22.405 -13.867   4.049  1.00  0.00    -0.203 F 
ATOM    104  F   UNL     1     -22.814 -13.379   9.467  1.00  0.00    -0.200 F 
ATOM    105  C   UNL     1     -23.730 -14.088   7.410  1.00  0.00     0.200 A 
ATOM    106  F   UNL     1     -24.599 -14.791   5.330  1.00  0.00    -0.200 F 
ATOM    107  F   UNL     1     -24.804 -14.582   8.041  1.00  0.00    -0.200 F 
ENDBRANCH  74  97
ENDBRANCH  48  49
ENDBRANCH  40  43
ENDBRANCH  38  39
ENDBRANCH  37  38
ENDBRANCH   1  37
TORSDOF 15
