REMARK SMILES O=C(NCCCCNC(=O)[C@H]1CCCN(C(=O)C2CCN(S(=O)(=O)c3ccccc3)CC2)C1)c1ccc(-c2c3nc(c(-c4c(F)c(F)c(F)c(F)c4F)c4ccc([nH]4)c(-c4c(F)c(F)c(F)c(F)c4F)c4nc(c(-c5c(F)c(F)c(F)c(F)c5F)c5ccc2[nH]5)C=C4)C=C3)cc1
REMARK SMILES IDX 6 1 5 2 4 3 3 4 1 5 2 6 34 8 35 9 96 10 36 11 95 12 37 13
REMARK SMILES IDX 38 14 39 15 89 16 40 17 94 18 88 19 90 20 41 21 93 22 87 23
REMARK SMILES IDX 86 24 42 26 74 27 54 28 73 29 55 30 58 31 72 32 91 33 56 34
REMARK SMILES IDX 57 35 71 37 92 38 59 39 43 40 44 41 52 42 45 43 46 44 50 45
REMARK SMILES IDX 53 46 47 47 48 48 51 49 49 50 75 51 76 52 84 53 77 54 78 55
REMARK SMILES IDX 82 56 85 57 79 58 80 59 83 60 81 61 60 62 61 63 69 64 62 65
REMARK SMILES IDX 63 66 67 67 70 68 64 69 65 70 68 71 66 72 7 73 8 74 9 75
REMARK SMILES IDX 10 77 11 78 12 79 33 80 13 81 15 82 14 83 16 84 17 85 18 86
REMARK SMILES IDX 19 87 32 88 20 89 31 90 21 91 22 92 23 93 24 94 25 95 26 96
REMARK SMILES IDX 30 97 27 98 29 99 28 100
REMARK H PARENT 3 7 90 25 58 36 8 76
REMARK Flexibility Score: inf
ROOT
ATOM      1  C   UNL     1       4.799  -3.568   9.806  1.00  0.00     0.023 C 
ENDROOT
BRANCH   1   2
ATOM      2  C   UNL     1       3.746  -2.869  10.659  1.00  0.00     0.023 C 
BRANCH   2   3
ATOM      3  C   UNL     1       2.316  -3.319  10.401  1.00  0.00     0.116 C 
BRANCH   3   4
ATOM      4  N   UNL     1       2.132  -4.754  10.560  1.00  0.00    -0.352 N 
ATOM      5  O   UNL     1       1.156  -6.631  11.361  1.00  0.00    -0.269 OA
ATOM      6  C   UNL     1       1.120  -5.416  11.210  1.00  0.00     0.251 C 
ATOM      7  H   UNL     1       2.822  -5.323  10.148  1.00  0.00     0.163 HD
BRANCH   6   8
ATOM      8  C   UNL     1       0.001  -4.629  11.758  1.00  0.00     0.039 A 
ATOM      9  C   UNL     1      -0.658  -3.692  10.957  1.00  0.00     0.014 A 
ATOM     10  C   UNL     1      -0.350  -4.798  13.098  1.00  0.00     0.014 A 
ATOM     11  C   UNL     1      -1.583  -2.831  11.531  1.00  0.00     0.010 A 
ATOM     12  C   UNL     1      -1.335  -3.983  13.654  1.00  0.00     0.010 A 
ATOM     13  C   UNL     1      -1.937  -2.977  12.881  1.00  0.00    -0.014 A 
BRANCH  13  14
ATOM     14  C   UNL     1      -2.991  -2.114  13.459  1.00  0.00     0.031 A 
ATOM     15  C   UNL     1      -2.674  -1.126  14.541  1.00  0.00     0.074 A 
ATOM     16  C   UNL     1      -4.250  -2.252  13.004  1.00  0.00     0.049 A 
ATOM     17  N   UNL     1      -3.485  -0.341  15.204  1.00  0.00    -0.248 NA
ATOM     18  C   UNL     1      -1.264  -1.009  14.941  1.00  0.00     0.031 C 
ATOM     19  C   UNL     1      -4.666  -3.194  11.964  1.00  0.00     0.029 A 
ATOM     20  N   UNL     1      -5.407  -1.613  13.361  1.00  0.00    -0.354 N 
ATOM     21  C   UNL     1      -2.692   0.342  16.115  1.00  0.00     0.074 A 
ATOM     22  C   UNL     1      -1.336  -0.132  15.933  1.00  0.00     0.031 C 
ATOM     23  C   UNL     1      -5.984  -3.065  11.758  1.00  0.00     0.029 A 
ATOM     24  C   UNL     1      -6.511  -2.077  12.692  1.00  0.00     0.049 A 
ATOM     25  H   UNL     1      -5.443  -0.892  14.031  1.00  0.00     0.167 HD
ATOM     26  C   UNL     1      -3.069   1.279  17.018  1.00  0.00     0.037 A 
ATOM     27  C   UNL     1      -7.812  -1.769  12.839  1.00  0.00     0.037 A 
ATOM     28  C   UNL     1      -4.420   1.753  17.174  1.00  0.00     0.049 A 
ATOM     29  C   UNL     1      -8.205  -0.738  13.854  1.00  0.00     0.074 A 
ATOM     30  C   UNL     1      -4.896   2.745  18.014  1.00  0.00     0.029 A 
ATOM     31  N   UNL     1      -5.515   1.260  16.477  1.00  0.00    -0.354 N 
ATOM     32  N   UNL     1      -7.442  -0.066  14.681  1.00  0.00    -0.248 NA
ATOM     33  C   UNL     1      -9.635  -0.424  13.959  1.00  0.00     0.031 C 
ATOM     34  C   UNL     1      -6.285   2.818  17.860  1.00  0.00     0.029 A 
ATOM     35  C   UNL     1      -6.670   1.906  16.890  1.00  0.00     0.049 A 
ATOM     36  H   UNL     1      -5.477   0.555  15.791  1.00  0.00     0.167 HD
ATOM     37  C   UNL     1      -8.294   0.759  15.400  1.00  0.00     0.074 A 
ATOM     38  C   UNL     1      -9.632   0.512  14.899  1.00  0.00     0.031 C 
ATOM     39  C   UNL     1      -7.993   1.640  16.384  1.00  0.00     0.037 A 
BRANCH  26  40
ATOM     40  C   UNL     1      -2.011   1.835  17.926  1.00  0.00     0.064 A 
ATOM     41  C   UNL     1      -1.014   2.704  17.459  1.00  0.00     0.173 A 
ATOM     42  C   UNL     1      -2.013   1.515  19.293  1.00  0.00     0.173 A 
ATOM     43  F   UNL     1      -0.960   3.033  16.159  1.00  0.00    -0.203 F 
ATOM     44  C   UNL     1      -0.042   3.209  18.319  1.00  0.00     0.198 A 
ATOM     45  C   UNL     1      -1.055   2.042  20.155  1.00  0.00     0.198 A 
ATOM     46  F   UNL     1      -2.947   0.694  19.794  1.00  0.00    -0.203 F 
ATOM     47  F   UNL     1       0.929   4.000  17.841  1.00  0.00    -0.200 F 
ATOM     48  C   UNL     1      -0.066   2.882  19.667  1.00  0.00     0.200 A 
ATOM     49  F   UNL     1      -1.087   1.734  21.459  1.00  0.00    -0.200 F 
ATOM     50  F   UNL     1       0.870   3.370  20.494  1.00  0.00    -0.200 F 
ENDBRANCH  26  40
BRANCH  27  51
ATOM     51  C   UNL     1      -8.815  -2.471  12.003  1.00  0.00     0.064 A 
ATOM     52  C   UNL     1      -9.459  -1.819  10.945  1.00  0.00     0.173 A 
ATOM     53  C   UNL     1      -9.091  -3.833  12.201  1.00  0.00     0.173 A 
ATOM     54  F   UNL     1      -9.234  -0.515  10.727  1.00  0.00    -0.203 F 
ATOM     55  C   UNL     1     -10.342  -2.503  10.114  1.00  0.00     0.198 A 
ATOM     56  C   UNL     1      -9.955  -4.522  11.354  1.00  0.00     0.198 A 
ATOM     57  F   UNL     1      -8.489  -4.503  13.195  1.00  0.00    -0.203 F 
ATOM     58  F   UNL     1     -10.960  -1.854   9.118  1.00  0.00    -0.200 F 
ATOM     59  C   UNL     1     -10.582  -3.856  10.312  1.00  0.00     0.200 A 
ATOM     60  F   UNL     1     -10.166  -5.832  11.537  1.00  0.00    -0.200 F 
ATOM     61  F   UNL     1     -11.414  -4.517   9.497  1.00  0.00    -0.200 F 
ENDBRANCH  27  51
BRANCH  39  62
ATOM     62  C   UNL     1      -9.131   2.415  16.976  1.00  0.00     0.064 A 
ATOM     63  C   UNL     1     -10.035   1.820  17.868  1.00  0.00     0.173 A 
ATOM     64  C   UNL     1      -9.288   3.779  16.688  1.00  0.00     0.173 A 
ATOM     65  F   UNL     1      -9.934   0.514  18.160  1.00  0.00    -0.203 F 
ATOM     66  C   UNL     1     -11.064   2.561  18.441  1.00  0.00     0.198 A 
ATOM     67  C   UNL     1     -10.304   4.522  17.281  1.00  0.00     0.198 A 
ATOM     68  F   UNL     1      -8.446   4.392  15.842  1.00  0.00    -0.203 F 
ATOM     69  F   UNL     1     -11.938   1.966  19.265  1.00  0.00    -0.200 F 
ATOM     70  C   UNL     1     -11.193   3.912  18.154  1.00  0.00     0.200 A 
ATOM     71  F   UNL     1     -10.421   5.829  17.010  1.00  0.00    -0.200 F 
ATOM     72  F   UNL     1     -12.178   4.627  18.715  1.00  0.00    -0.200 F 
ENDBRANCH  39  62
ENDBRANCH  13  14
ENDBRANCH   6   8
ENDBRANCH   3   4
ENDBRANCH   2   3
ENDBRANCH   1   2
BRANCH   1  73
ATOM     73  C   UNL     1       4.504  -3.567   8.309  1.00  0.00     0.116 C 
BRANCH  73  74
ATOM     74  N   UNL     1       4.566  -2.238   7.728  1.00  0.00    -0.356 N 
ATOM     75  C   UNL     1       5.368  -1.744   6.740  1.00  0.00     0.224 C 
ATOM     76  H   UNL     1       3.929  -1.590   8.106  1.00  0.00     0.163 HD
ATOM     77  O   UNL     1       5.200  -0.575   6.390  1.00  0.00    -0.275 OA
BRANCH  75  78
ATOM     78  C   UNL     1       6.446  -2.604   6.096  1.00  0.00     0.098 C 
ATOM     79  C   UNL     1       7.511  -2.995   7.130  1.00  0.00     0.017 C 
ATOM     80  C   UNL     1       5.805  -3.736   5.273  1.00  0.00     0.133 C 
ATOM     81  C   UNL     1       8.314  -4.216   6.727  1.00  0.00     0.022 C 
ATOM     82  N   UNL     1       6.680  -4.890   5.040  1.00  0.00    -0.342 N 
ATOM     83  C   UNL     1       7.412  -5.324   6.212  1.00  0.00     0.119 C 
BRANCH  82  84
ATOM     84  C   UNL     1       6.444  -5.657   3.910  1.00  0.00     0.225 C 
ATOM     85  O   UNL     1       5.408  -5.470   3.256  1.00  0.00    -0.275 OA
BRANCH  84  86
ATOM     86  C   UNL     1       7.443  -6.702   3.364  1.00  0.00     0.081 C 
ATOM     87  C   UNL     1       7.414  -8.107   3.940  1.00  0.00     0.030 C 
ATOM     88  C   UNL     1       8.856  -6.227   3.084  1.00  0.00     0.030 C 
ATOM     89  C   UNL     1       8.460  -8.446   4.989  1.00  0.00     0.103 C 
ATOM     90  C   UNL     1       9.841  -6.451   4.210  1.00  0.00     0.103 C 
ATOM     91  N   UNL     1       9.806  -7.802   4.823  1.00  0.00    -0.198 NA
BRANCH  91  92
ATOM     92  S   UNL     1      10.667  -7.908   6.341  1.00  0.00     0.243 S 
ATOM     93  O   UNL     1       9.970  -7.056   7.285  1.00  0.00    -0.207 OA
ATOM     94  O   UNL     1      10.849  -9.316   6.628  1.00  0.00    -0.207 OA
BRANCH  92  95
ATOM     95  C   UNL     1      12.261  -7.174   6.067  1.00  0.00     0.082 A 
ATOM     96  C   UNL     1      13.389  -7.985   5.943  1.00  0.00     0.022 A 
ATOM     97  C   UNL     1      12.395  -5.780   6.139  1.00  0.00     0.022 A 
ATOM     98  C   UNL     1      14.651  -7.393   5.848  1.00  0.00     0.001 A 
ATOM     99  C   UNL     1      13.654  -5.195   6.016  1.00  0.00     0.001 A 
ATOM    100  C   UNL     1      14.780  -6.002   5.873  1.00  0.00     0.000 A 
ENDBRANCH  92  95
ENDBRANCH  91  92
ENDBRANCH  84  86
ENDBRANCH  82  84
ENDBRANCH  75  78
ENDBRANCH  73  74
ENDBRANCH   1  73
TORSDOF 15
