REMARK SMILES [NH3+][C@@H](CC(=O)NCCCCNC(=O)c1ccc(-c2c3nc(c(-c4c(F)c(F)c(F)c(F)c4F)c4ccc([nH]4)c(-c4c(F)c(F)c(F)c(F)c4F)c4nc(c(-c5c(F)c(F)c(F)c(F)c5F)c5ccc2[nH]5)C=C4)C=C3)cc1)Cc1ccc(F)cc1
REMARK SMILES IDX 8 1 7 2 6 3 4 4 5 5 3 7 2 8 1 9 77 13 78 14 79 15 84 16
REMARK SMILES IDX 80 17 83 18 81 19 82 20 9 21 10 22 11 23 12 24 13 26 14 27
REMARK SMILES IDX 15 28 76 29 16 30 75 31 17 32 18 33 19 34 69 35 20 36 74 37
REMARK SMILES IDX 68 38 70 39 21 40 73 41 67 42 66 43 22 45 54 46 34 47 53 48
REMARK SMILES IDX 35 49 38 50 52 51 71 52 36 53 37 54 51 56 72 57 39 58 23 59
REMARK SMILES IDX 24 60 32 61 25 62 26 63 30 64 33 65 27 66 28 67 31 68 29 69
REMARK SMILES IDX 55 70 56 71 64 72 57 73 58 74 62 75 65 76 59 77 60 78 63 79
REMARK SMILES IDX 61 80 40 81 41 82 49 83 42 84 43 85 47 86 50 87 44 88 45 89
REMARK SMILES IDX 48 90 46 91
REMARK H PARENT 6 6 1 10 1 11 1 12 11 25 70 44 38 55
REMARK Flexibility Score: inf
ROOT
ATOM      1  C   UNL     1       1.111  -0.457   2.209  1.00  0.00     0.023 C 
ENDROOT
BRANCH   1   2
ATOM      2  C   UNL     1       1.855  -1.635   1.576  1.00  0.00     0.116 C 
BRANCH   2   3
ATOM      3  N   UNL     1       0.926  -2.626   1.075  1.00  0.00    -0.356 N 
ATOM      4  C   UNL     1       0.506  -2.852  -0.200  1.00  0.00     0.225 C 
ATOM      5  O   UNL     1      -0.375  -3.695  -0.377  1.00  0.00    -0.275 OA
ATOM      6  H   UNL     1       0.542  -3.224   1.756  1.00  0.00     0.163 HD
BRANCH   4   7
ATOM      7  C   UNL     1       1.113  -2.103  -1.374  1.00  0.00     0.165 C 
BRANCH   7   8
ATOM      8  C   UNL     1       0.590  -0.676  -1.654  1.00  0.00     0.194 C 
BRANCH   8   9
ATOM      9  N   UNL     1       1.452   0.354  -1.059  1.00  0.00    -0.354 N 
ATOM     10  H   UNL     1       2.424   0.167  -1.305  1.00  0.00     0.344 HD
ATOM     11  H   UNL     1       1.349   0.339  -0.045  1.00  0.00     0.344 HD
ATOM     12  H   UNL     1       1.182   1.271  -1.415  1.00  0.00     0.344 HD
ENDBRANCH   8   9
BRANCH   8  13
ATOM     13  C   UNL     1      -0.930  -0.511  -1.356  1.00  0.00     0.101 C 
BRANCH  13  14
ATOM     14  C   UNL     1      -1.520   0.884  -1.242  1.00  0.00    -0.042 A 
ATOM     15  C   UNL     1      -0.948   2.018  -1.837  1.00  0.00     0.007 A 
ATOM     16  C   UNL     1      -2.705   1.045  -0.499  1.00  0.00     0.007 A 
ATOM     17  C   UNL     1      -1.489   3.287  -1.618  1.00  0.00     0.039 A 
ATOM     18  C   UNL     1      -3.257   2.310  -0.296  1.00  0.00     0.039 A 
ATOM     19  C   UNL     1      -2.632   3.422  -0.843  1.00  0.00     0.123 A 
ATOM     20  F   UNL     1      -3.140   4.641  -0.619  1.00  0.00    -0.207 F 
ENDBRANCH  13  14
ENDBRANCH   8  13
ENDBRANCH   7   8
ENDBRANCH   4   7
ENDBRANCH   2   3
ENDBRANCH   1   2
BRANCH   1  21
ATOM     21  C   UNL     1       0.533  -0.733   3.597  1.00  0.00     0.023 C 
BRANCH  21  22
ATOM     22  C   UNL     1       1.559  -1.092   4.662  1.00  0.00     0.116 C 
BRANCH  22  23
ATOM     23  N   UNL     1       2.575  -0.070   4.857  1.00  0.00    -0.352 N 
ATOM     24  C   UNL     1       3.216   0.292   6.016  1.00  0.00     0.251 C 
ATOM     25  H   UNL     1       2.838   0.429   4.050  1.00  0.00     0.163 HD
ATOM     26  O   UNL     1       3.981   1.252   6.023  1.00  0.00    -0.269 OA
BRANCH  24  27
ATOM     27  C   UNL     1       2.957  -0.455   7.265  1.00  0.00     0.039 A 
ATOM     28  C   UNL     1       2.755   0.263   8.446  1.00  0.00     0.014 A 
ATOM     29  C   UNL     1       2.905  -1.851   7.275  1.00  0.00     0.014 A 
ATOM     30  C   UNL     1       2.459  -0.419   9.627  1.00  0.00     0.010 A 
ATOM     31  C   UNL     1       2.524  -2.524   8.431  1.00  0.00     0.010 A 
ATOM     32  C   UNL     1       2.318  -1.817   9.624  1.00  0.00    -0.014 A 
BRANCH  32  33
ATOM     33  C   UNL     1       2.001  -2.554  10.872  1.00  0.00     0.031 A 
ATOM     34  C   UNL     1       2.997  -3.524  11.446  1.00  0.00     0.074 A 
ATOM     35  C   UNL     1       0.804  -2.380  11.465  1.00  0.00     0.049 A 
ATOM     36  N   UNL     1       2.905  -4.269  12.519  1.00  0.00    -0.248 NA
ATOM     37  C   UNL     1       4.251  -3.706  10.698  1.00  0.00     0.031 C 
ATOM     38  C   UNL     1      -0.270  -1.520  10.967  1.00  0.00     0.029 A 
ATOM     39  N   UNL     1       0.291  -2.920  12.617  1.00  0.00    -0.354 N 
ATOM     40  C   UNL     1       4.077  -5.013  12.562  1.00  0.00     0.074 A 
ATOM     41  C   UNL     1       4.834  -4.683  11.376  1.00  0.00     0.031 C 
ATOM     42  C   UNL     1      -1.301  -1.563  11.827  1.00  0.00     0.029 A 
ATOM     43  C   UNL     1      -0.971  -2.471  12.920  1.00  0.00     0.049 A 
ATOM     44  H   UNL     1       0.781  -3.568  13.173  1.00  0.00     0.167 HD
ATOM     45  C   UNL     1       4.501  -5.869  13.522  1.00  0.00     0.037 A 
ATOM     46  C   UNL     1      -1.764  -2.755  13.970  1.00  0.00     0.037 A 
ATOM     47  C   UNL     1       3.761  -6.168  14.719  1.00  0.00     0.049 A 
ATOM     48  C   UNL     1      -1.257  -3.684  15.040  1.00  0.00     0.074 A 
ATOM     49  C   UNL     1       4.126  -6.972  15.784  1.00  0.00     0.029 A 
ATOM     50  N   UNL     1       2.499  -5.668  15.009  1.00  0.00    -0.354 N 
ATOM     51  N   UNL     1      -0.112  -4.320  15.111  1.00  0.00    -0.248 NA
ATOM     52  C   UNL     1      -2.147  -3.922  16.184  1.00  0.00     0.031 C 
ATOM     53  C   UNL     1       3.069  -6.990  16.701  1.00  0.00     0.029 A 
ATOM     54  C   UNL     1       2.065  -6.158  16.230  1.00  0.00     0.049 A 
ATOM     55  H   UNL     1       1.988  -5.056  14.432  1.00  0.00     0.167 HD
ATOM     56  C   UNL     1      -0.133  -5.009  16.317  1.00  0.00     0.074 A 
ATOM     57  C   UNL     1      -1.395  -4.695  16.953  1.00  0.00     0.031 C 
ATOM     58  C   UNL     1       0.806  -5.830  16.849  1.00  0.00     0.037 A 
BRANCH  45  59
ATOM     59  C   UNL     1       5.833  -6.532  13.319  1.00  0.00     0.064 A 
ATOM     60  C   UNL     1       7.033  -5.806  13.375  1.00  0.00     0.173 A 
ATOM     61  C   UNL     1       5.915  -7.913  13.083  1.00  0.00     0.173 A 
ATOM     62  F   UNL     1       7.011  -4.480  13.582  1.00  0.00    -0.203 F 
ATOM     63  C   UNL     1       8.261  -6.429  13.168  1.00  0.00     0.198 A 
ATOM     64  C   UNL     1       7.147  -8.539  12.909  1.00  0.00     0.198 A 
ATOM     65  F   UNL     1       4.800  -8.657  13.023  1.00  0.00    -0.203 F 
ATOM     66  F   UNL     1       9.387  -5.704  13.168  1.00  0.00    -0.200 F 
ATOM     67  C   UNL     1       8.317  -7.796  12.943  1.00  0.00     0.200 A 
ATOM     68  F   UNL     1       7.201  -9.862  12.703  1.00  0.00    -0.200 F 
ATOM     69  F   UNL     1       9.500  -8.396  12.748  1.00  0.00    -0.200 F 
ENDBRANCH  45  59
BRANCH  46  70
ATOM     70  C   UNL     1      -3.100  -2.114  14.088  1.00  0.00     0.064 A 
ATOM     71  C   UNL     1      -3.350  -1.149  15.075  1.00  0.00     0.173 A 
ATOM     72  C   UNL     1      -4.153  -2.455  13.228  1.00  0.00     0.173 A 
ATOM     73  F   UNL     1      -2.379  -0.803  15.933  1.00  0.00    -0.203 F 
ATOM     74  C   UNL     1      -4.609  -0.569  15.213  1.00  0.00     0.198 A 
ATOM     75  C   UNL     1      -5.404  -1.853  13.349  1.00  0.00     0.198 A 
ATOM     76  F   UNL     1      -3.964  -3.367  12.263  1.00  0.00    -0.203 F 
ATOM     77  F   UNL     1      -4.833   0.314  16.195  1.00  0.00    -0.200 F 
ATOM     78  C   UNL     1      -5.634  -0.918  14.346  1.00  0.00     0.200 A 
ATOM     79  F   UNL     1      -6.388  -2.183  12.501  1.00  0.00    -0.200 F 
ATOM     80  F   UNL     1      -6.845  -0.359  14.478  1.00  0.00    -0.200 F 
ENDBRANCH  46  70
BRANCH  58  81
ATOM     81  C   UNL     1       0.514  -6.417  18.199  1.00  0.00     0.064 A 
ATOM     82  C   UNL     1      -0.467  -7.404  18.376  1.00  0.00     0.173 A 
ATOM     83  C   UNL     1       1.239  -6.001  19.326  1.00  0.00     0.173 A 
ATOM     84  F   UNL     1      -1.196  -7.826  17.332  1.00  0.00    -0.203 F 
ATOM     85  C   UNL     1      -0.736  -7.926  19.638  1.00  0.00     0.198 A 
ATOM     86  C   UNL     1       0.990  -6.548  20.581  1.00  0.00     0.198 A 
ATOM     87  F   UNL     1       2.194  -5.066  19.209  1.00  0.00    -0.203 F 
ATOM     88  F   UNL     1      -1.718  -8.825  19.793  1.00  0.00    -0.200 F 
ATOM     89  C   UNL     1      -0.005  -7.502  20.738  1.00  0.00     0.200 A 
ATOM     90  F   UNL     1       1.707  -6.148  21.639  1.00  0.00    -0.200 F 
ATOM     91  F   UNL     1      -0.265  -8.006  21.952  1.00  0.00    -0.200 F 
ENDBRANCH  58  81
ENDBRANCH  32  33
ENDBRANCH  24  27
ENDBRANCH  22  23
ENDBRANCH  21  22
ENDBRANCH   1  21
TORSDOF 15
