REMARK SMILES O=C(NCCCCNC(=O)c1cc(-c2ccc(Cl)cc2)nc2c3c(C4CC4)cc(C(F)(F)F)nc3nn12)c1ccc(-c2c3nc(c(-c4c(F)c(F)c(F)c(F)c4F)c4ccc([nH]4)c(-c4c(F)c(F)c(F)c(F)c4F)c4nc(c(-c5c(F)c(F)c(F)c(F)c5F)c5ccc2[nH]5)C=C4)C=C3)cc1
REMARK SMILES IDX 5 1 4 2 3 3 1 4 2 5 38 7 39 8 100 9 40 10 99 11 41 12 42 13
REMARK SMILES IDX 43 14 93 15 44 16 98 17 92 18 94 19 45 20 97 21 91 22 90 23
REMARK SMILES IDX 46 25 78 26 58 27 77 28 59 29 62 30 76 31 95 32 60 33 61 34
REMARK SMILES IDX 75 36 96 37 63 38 47 39 48 40 56 41 49 42 50 43 54 44 57 45
REMARK SMILES IDX 51 46 52 47 55 48 53 49 79 50 80 51 88 52 81 53 82 54 86 55
REMARK SMILES IDX 89 56 83 57 84 58 87 59 85 60 64 61 65 62 73 63 66 64 67 65
REMARK SMILES IDX 71 66 74 67 68 68 69 69 72 70 70 71 6 72 7 73 8 74 9 75
REMARK SMILES IDX 10 77 11 78 12 79 37 80 13 81 22 82 36 83 21 84 23 85 35 86
REMARK SMILES IDX 24 87 34 88 28 89 29 90 14 91 15 92 20 93 16 94 19 95 17 96
REMARK SMILES IDX 18 97 25 98 26 99 27 100 30 101 31 102 32 103 33 104
REMARK H PARENT 3 6 94 24 62 35 8 76
REMARK Flexibility Score: inf
ROOT
ATOM      1  C   UNL     1       4.779   1.157   2.220  1.00  0.00     0.023 C 
ENDROOT
BRANCH   1   2
ATOM      2  C   UNL     1       4.540  -0.191   1.544  1.00  0.00     0.116 C 
BRANCH   2   3
ATOM      3  N   UNL     1       3.166  -0.351   1.092  1.00  0.00    -0.352 N 
ATOM      4  O   UNL     1       1.471  -0.172  -0.418  1.00  0.00    -0.269 OA
ATOM      5  C   UNL     1       2.660  -0.084  -0.161  1.00  0.00     0.251 C 
ATOM      6  H   UNL     1       2.525  -0.689   1.758  1.00  0.00     0.163 HD
BRANCH   5   7
ATOM      7  C   UNL     1       3.621   0.356  -1.185  1.00  0.00     0.039 A 
ATOM      8  C   UNL     1       4.583  -0.546  -1.651  1.00  0.00     0.014 A 
ATOM      9  C   UNL     1       3.666   1.710  -1.517  1.00  0.00     0.014 A 
ATOM     10  C   UNL     1       5.674  -0.062  -2.362  1.00  0.00     0.010 A 
ATOM     11  C   UNL     1       4.747   2.186  -2.250  1.00  0.00     0.010 A 
ATOM     12  C   UNL     1       5.770   1.307  -2.640  1.00  0.00    -0.014 A 
BRANCH  12  13
ATOM     13  C   UNL     1       6.962   1.796  -3.345  1.00  0.00     0.031 A 
ATOM     14  C   UNL     1       6.710   2.514  -4.620  1.00  0.00     0.074 A 
ATOM     15  C   UNL     1       8.124   2.039  -2.704  1.00  0.00     0.049 A 
ATOM     16  N   UNL     1       6.395   3.775  -4.657  1.00  0.00    -0.248 NA
ATOM     17  C   UNL     1       6.592   1.827  -5.902  1.00  0.00     0.031 C 
ATOM     18  C   UNL     1       8.261   2.226  -1.256  1.00  0.00     0.029 A 
ATOM     19  N   UNL     1       9.357   2.373  -3.208  1.00  0.00    -0.354 N 
ATOM     20  C   UNL     1       5.957   4.040  -5.935  1.00  0.00     0.074 A 
ATOM     21  C   UNL     1       6.135   2.815  -6.686  1.00  0.00     0.031 C 
ATOM     22  C   UNL     1       9.448   2.818  -1.009  1.00  0.00     0.029 A 
ATOM     23  C   UNL     1      10.212   2.902  -2.249  1.00  0.00     0.049 A 
ATOM     24  H   UNL     1       9.609   2.251  -4.152  1.00  0.00     0.167 HD
ATOM     25  C   UNL     1       5.436   5.238  -6.300  1.00  0.00     0.037 A 
ATOM     26  C   UNL     1      11.195   3.814  -2.470  1.00  0.00     0.037 A 
ATOM     27  C   UNL     1       5.341   6.228  -5.271  1.00  0.00     0.049 A 
ATOM     28  C   UNL     1      10.431   4.975  -3.054  1.00  0.00     0.074 A 
ATOM     29  C   UNL     1       4.398   6.611  -4.341  1.00  0.00     0.029 A 
ATOM     30  N   UNL     1       6.450   6.987  -4.982  1.00  0.00    -0.354 N 
ATOM     31  N   UNL     1       9.768   5.873  -2.374  1.00  0.00    -0.248 NA
ATOM     32  C   UNL     1      10.144   4.962  -4.490  1.00  0.00     0.031 C 
ATOM     33  C   UNL     1       5.131   7.236  -3.284  1.00  0.00     0.029 A 
ATOM     34  C   UNL     1       6.481   7.132  -3.617  1.00  0.00     0.049 A 
ATOM     35  H   UNL     1       7.096   7.354  -5.628  1.00  0.00     0.167 HD
ATOM     36  C   UNL     1       8.797   6.357  -3.253  1.00  0.00     0.074 A 
ATOM     37  C   UNL     1       9.104   5.782  -4.545  1.00  0.00     0.031 C 
ATOM     38  C   UNL     1       7.696   7.048  -2.843  1.00  0.00     0.037 A 
BRANCH  25  39
ATOM     39  C   UNL     1       5.054   5.574  -7.677  1.00  0.00     0.064 A 
ATOM     40  C   UNL     1       5.948   6.317  -8.458  1.00  0.00     0.173 A 
ATOM     41  C   UNL     1       3.772   5.331  -8.174  1.00  0.00     0.173 A 
ATOM     42  F   UNL     1       7.183   6.578  -7.996  1.00  0.00    -0.203 F 
ATOM     43  C   UNL     1       5.561   6.830  -9.689  1.00  0.00     0.198 A 
ATOM     44  C   UNL     1       3.386   5.844  -9.409  1.00  0.00     0.198 A 
ATOM     45  F   UNL     1       2.887   4.632  -7.448  1.00  0.00    -0.203 F 
ATOM     46  F   UNL     1       6.423   7.567 -10.403  1.00  0.00    -0.200 F 
ATOM     47  C   UNL     1       4.277   6.601 -10.160  1.00  0.00     0.200 A 
ATOM     48  F   UNL     1       2.145   5.629  -9.865  1.00  0.00    -0.200 F 
ATOM     49  F   UNL     1       3.894   7.122 -11.334  1.00  0.00    -0.200 F 
ENDBRANCH  25  39
BRANCH  26  50
ATOM     50  C   UNL     1      12.443   3.264  -3.096  1.00  0.00     0.064 A 
ATOM     51  C   UNL     1      13.001   2.070  -2.589  1.00  0.00     0.173 A 
ATOM     52  C   UNL     1      13.136   3.857  -4.162  1.00  0.00     0.173 A 
ATOM     53  F   UNL     1      12.480   1.489  -1.496  1.00  0.00    -0.203 F 
ATOM     54  C   UNL     1      14.098   1.450  -3.189  1.00  0.00     0.198 A 
ATOM     55  C   UNL     1      14.218   3.225  -4.780  1.00  0.00     0.198 A 
ATOM     56  F   UNL     1      12.775   5.056  -4.639  1.00  0.00    -0.203 F 
ATOM     57  F   UNL     1      14.571   0.299  -2.692  1.00  0.00    -0.200 F 
ATOM     58  C   UNL     1      14.688   2.014  -4.304  1.00  0.00     0.200 A 
ATOM     59  F   UNL     1      14.791   3.788  -5.853  1.00  0.00    -0.200 F 
ATOM     60  F   UNL     1      15.712   1.400  -4.913  1.00  0.00    -0.200 F 
ENDBRANCH  26  50
BRANCH  38  61
ATOM     61  C   UNL     1       7.702   7.468  -1.416  1.00  0.00     0.064 A 
ATOM     62  C   UNL     1       8.488   8.554  -1.009  1.00  0.00     0.173 A 
ATOM     63  C   UNL     1       6.912   6.824  -0.452  1.00  0.00     0.173 A 
ATOM     64  F   UNL     1       9.254   9.206  -1.898  1.00  0.00    -0.203 F 
ATOM     65  C   UNL     1       8.466   8.994   0.311  1.00  0.00     0.198 A 
ATOM     66  C   UNL     1       6.879   7.279   0.862  1.00  0.00     0.198 A 
ATOM     67  F   UNL     1       6.150   5.769  -0.783  1.00  0.00    -0.203 F 
ATOM     68  F   UNL     1       9.216  10.042   0.679  1.00  0.00    -0.200 F 
ATOM     69  C   UNL     1       7.654   8.364   1.242  1.00  0.00     0.200 A 
ATOM     70  F   UNL     1       6.081   6.680   1.758  1.00  0.00    -0.200 F 
ATOM     71  F   UNL     1       7.608   8.810   2.506  1.00  0.00    -0.200 F 
ENDBRANCH  38  61
ENDBRANCH  12  13
ENDBRANCH   5   7
ENDBRANCH   2   3
ENDBRANCH   1   2
BRANCH   1  72
ATOM     72  C   UNL     1       4.269   1.235   3.658  1.00  0.00     0.023 C 
BRANCH  72  73
ATOM     73  C   UNL     1       4.738   0.102   4.567  1.00  0.00     0.116 C 
BRANCH  73  74
ATOM     74  N   UNL     1       6.184  -0.073   4.569  1.00  0.00    -0.351 N 
ATOM     75  C   UNL     1       6.982  -0.525   5.581  1.00  0.00     0.270 C 
ATOM     76  H   UNL     1       6.646   0.164   3.733  1.00  0.00     0.163 HD
ATOM     77  O   UNL     1       8.196  -0.617   5.425  1.00  0.00    -0.268 OA
BRANCH  75  78
ATOM     78  C   UNL     1       6.362  -0.762   6.893  1.00  0.00     0.134 A 
ATOM     79  C   UNL     1       6.750   0.068   7.868  1.00  0.00     0.063 A 
ATOM     80  N   UNL     1       5.373  -1.714   7.110  1.00  0.00    -0.207 N 
ATOM     81  C   UNL     1       6.045  -0.113   9.167  1.00  0.00     0.075 A 
ATOM     82  C   UNL     1       4.695  -1.759   8.344  1.00  0.00     0.166 A 
ATOM     83  N   UNL     1       4.897  -2.619   6.222  1.00  0.00    -0.145 NA
ATOM     84  N   UNL     1       5.088  -0.965   9.398  1.00  0.00    -0.228 NA
ATOM     85  C   UNL     1       3.646  -2.637   8.137  1.00  0.00     0.069 A 
ATOM     86  C   UNL     1       3.834  -3.139   6.816  1.00  0.00     0.184 A 
ATOM     87  C   UNL     1       2.589  -2.955   9.003  1.00  0.00    -0.028 A 
ATOM     88  N   UNL     1       2.986  -4.018   6.236  1.00  0.00    -0.222 NA
ATOM     89  C   UNL     1       1.720  -3.866   8.359  1.00  0.00     0.038 A 
ATOM     90  C   UNL     1       1.934  -4.364   7.040  1.00  0.00     0.147 A 
BRANCH  81  91
ATOM     91  C   UNL     1       6.552   0.778  10.232  1.00  0.00     0.000 A 
ATOM     92  C   UNL     1       7.217   0.216  11.324  1.00  0.00     0.012 A 
ATOM     93  C   UNL     1       6.471   2.168  10.080  1.00  0.00     0.012 A 
ATOM     94  C   UNL     1       7.837   1.054  12.254  1.00  0.00     0.021 A 
ATOM     95  C   UNL     1       7.085   3.001  11.018  1.00  0.00     0.021 A 
ATOM     96  C   UNL     1       7.774   2.440  12.094  1.00  0.00     0.041 A 
ATOM     97  Cl  UNL     1       8.570   3.467  13.221  1.00  0.00    -0.084 Cl
ENDBRANCH  81  91
BRANCH  87  98
ATOM     98  C   UNL     1       2.438  -2.369  10.369  1.00  0.00     0.020 C 
ATOM     99  C   UNL     1       1.280  -2.715  11.278  1.00  0.00     0.009 C 
ATOM    100  C   UNL     1       2.645  -3.262  11.570  1.00  0.00     0.009 C 
ENDBRANCH  87  98
BRANCH  90 101
ATOM    101  C   UNL     1       0.909  -5.330   6.449  1.00  0.00     0.433 C 
ATOM    102  F   UNL     1       0.215  -4.788   5.407  1.00  0.00    -0.165 F 
ATOM    103  F   UNL     1       1.466  -6.481   5.976  1.00  0.00    -0.165 F 
ATOM    104  F   UNL     1      -0.040  -5.730   7.347  1.00  0.00    -0.165 F 
ENDBRANCH  90 101
ENDBRANCH  75  78
ENDBRANCH  73  74
ENDBRANCH  72  73
ENDBRANCH   1  72
TORSDOF 14
