REMARK SMILES CCn1cccc1C(=O)N(C)c1snc(C)c1C(=O)NCCCCNC(=O)c1ccc(-c2c3nc(c(-c4c(F)c(F)c(F)c(F)c4F)c4ccc([nH]4)c(-c4c(F)c(F)c(F)c(F)c4F)c4nc(c(-c5c(F)c(F)c(F)c(F)c5F)c5ccc2[nH]5)C=C4)C=C3)cc1
REMARK SMILES IDX 21 1 20 2 18 3 19 4 17 6 12 7 13 8 14 9 15 10 16 11 10 12
REMARK SMILES IDX 11 13 8 14 9 15 7 16 3 17 4 18 5 19 6 20 2 21 1 22 22 23
REMARK SMILES IDX 23 24 24 25 25 26 26 27 27 29 28 30 29 31 90 32 30 33 89 34
REMARK SMILES IDX 31 35 32 36 33 37 83 38 34 39 88 40 82 41 84 42 35 43 87 44
REMARK SMILES IDX 81 45 80 46 36 48 68 49 48 50 67 51 49 52 52 53 66 54 85 55
REMARK SMILES IDX 50 56 51 57 65 59 86 60 53 61 37 62 38 63 46 64 39 65 40 66
REMARK SMILES IDX 44 67 47 68 41 69 42 70 45 71 43 72 69 73 70 74 78 75 71 76
REMARK SMILES IDX 72 77 76 78 79 79 73 80 74 81 77 82 75 83 54 84 55 85 63 86
REMARK SMILES IDX 56 87 57 88 61 89 64 90 58 91 59 92 62 93 60 94
REMARK H PARENT 20 5 25 28 84 47 52 58
REMARK Flexibility Score: inf
ROOT
ATOM      1  C   UNL     1       3.262  -0.934  -1.337  1.00  0.00     0.116 C 
ENDROOT
BRANCH   1   2
ATOM      2  N   UNL     1       3.722  -2.219  -1.780  1.00  0.00    -0.352 N 
ATOM      3  C   UNL     1       3.005  -3.393  -1.935  1.00  0.00     0.256 C 
ATOM      4  O   UNL     1       3.536  -4.226  -2.676  1.00  0.00    -0.269 OA
ATOM      5  H   UNL     1       4.679  -2.273  -2.005  1.00  0.00     0.163 HD
BRANCH   3   6
ATOM      6  C   UNL     1       1.807  -3.751  -1.144  1.00  0.00     0.097 A 
ATOM      7  C   UNL     1       0.635  -3.046  -0.803  1.00  0.00     0.131 A 
ATOM      8  S   UNL     1      -0.302  -4.057   0.240  1.00  0.00    -0.017 S 
ATOM      9  N   UNL     1       0.628  -5.385   0.151  1.00  0.00    -0.195 NA
ATOM     10  C   UNL     1       1.700  -5.118  -0.588  1.00  0.00     0.066 A 
ATOM     11  C   UNL     1       2.665  -6.255  -0.723  1.00  0.00     0.069 C 
BRANCH   7  12
ATOM     12  N   UNL     1       0.035  -1.781  -1.103  1.00  0.00    -0.300 N 
ATOM     13  C   UNL     1      -1.140  -1.286  -0.383  1.00  0.00     0.154 C 
BRANCH  12  14
ATOM     14  C   UNL     1       0.421  -1.157  -2.294  1.00  0.00     0.275 C 
ATOM     15  O   UNL     1       0.919  -1.835  -3.199  1.00  0.00    -0.267 OA
BRANCH  14  16
ATOM     16  C   UNL     1       0.257   0.296  -2.524  1.00  0.00     0.107 A 
ATOM     17  N   UNL     1       0.246   1.443  -1.721  1.00  0.00    -0.344 N 
ATOM     18  C   UNL     1       0.235   2.561  -2.545  1.00  0.00     0.086 A 
ATOM     19  C   UNL     1       0.176   2.170  -3.852  1.00  0.00     0.020 A 
ATOM     20  C   UNL     1       0.224   0.771  -3.841  1.00  0.00     0.033 A 
BRANCH  17  21
ATOM     21  C   UNL     1       0.084   1.666  -0.290  1.00  0.00     0.119 C 
ATOM     22  C   UNL     1       1.018   1.013   0.706  1.00  0.00     0.027 C 
ENDBRANCH  17  21
ENDBRANCH  14  16
ENDBRANCH  12  14
ENDBRANCH   7  12
ENDBRANCH   3   6
ENDBRANCH   1   2
BRANCH   1  23
ATOM     23  C   UNL     1       4.262  -0.018  -0.642  1.00  0.00     0.023 C 
BRANCH  23  24
ATOM     24  C   UNL     1       5.340   0.644  -1.503  1.00  0.00     0.023 C 
BRANCH  24  25
ATOM     25  C   UNL     1       4.836   1.467  -2.690  1.00  0.00     0.116 C 
BRANCH  25  26
ATOM     26  N   UNL     1       4.039   2.624  -2.309  1.00  0.00    -0.352 N 
ATOM     27  C   UNL     1       3.550   3.638  -3.111  1.00  0.00     0.251 C 
ATOM     28  H   UNL     1       3.819   2.694  -1.352  1.00  0.00     0.163 HD
ATOM     29  O   UNL     1       3.182   4.687  -2.605  1.00  0.00    -0.269 OA
BRANCH  27  30
ATOM     30  C   UNL     1       3.470   3.470  -4.583  1.00  0.00     0.039 A 
ATOM     31  C   UNL     1       3.699   4.574  -5.413  1.00  0.00     0.014 A 
ATOM     32  C   UNL     1       3.079   2.250  -5.143  1.00  0.00     0.014 A 
ATOM     33  C   UNL     1       3.610   4.423  -6.795  1.00  0.00     0.010 A 
ATOM     34  C   UNL     1       2.979   2.091  -6.513  1.00  0.00     0.010 A 
ATOM     35  C   UNL     1       3.279   3.172  -7.336  1.00  0.00    -0.014 A 
BRANCH  35  36
ATOM     36  C   UNL     1       3.483   2.932  -8.775  1.00  0.00     0.031 A 
ATOM     37  C   UNL     1       4.995   2.756  -9.057  1.00  0.00     0.074 A 
ATOM     38  C   UNL     1       2.364   2.942  -9.565  1.00  0.00     0.049 A 
ATOM     39  N   UNL     1       5.714   3.190 -10.043  1.00  0.00    -0.248 NA
ATOM     40  C   UNL     1       5.859   2.093  -8.036  1.00  0.00     0.031 C 
ATOM     41  C   UNL     1       0.973   3.035  -9.062  1.00  0.00     0.029 A 
ATOM     42  N   UNL     1       2.143   2.879 -10.927  1.00  0.00    -0.354 N 
ATOM     43  C   UNL     1       7.040   2.722  -9.864  1.00  0.00     0.074 A 
ATOM     44  C   UNL     1       7.092   2.172  -8.546  1.00  0.00     0.031 C 
ATOM     45  C   UNL     1       0.089   3.127 -10.081  1.00  0.00     0.029 A 
ATOM     46  C   UNL     1       0.799   3.110 -11.343  1.00  0.00     0.049 A 
ATOM     47  H   UNL     1       2.865   2.687 -11.568  1.00  0.00     0.167 HD
ATOM     48  C   UNL     1       7.952   2.686 -10.886  1.00  0.00     0.037 A 
ATOM     49  C   UNL     1       0.319   3.351 -12.608  1.00  0.00     0.037 A 
ATOM     50  C   UNL     1       7.321   3.147 -12.077  1.00  0.00     0.049 A 
ATOM     51  C   UNL     1       1.492   3.201 -13.479  1.00  0.00     0.074 A 
ATOM     52  C   UNL     1       6.911   4.391 -12.473  1.00  0.00     0.029 A 
ATOM     53  N   UNL     1       6.668   2.190 -12.817  1.00  0.00    -0.354 N 
ATOM     54  N   UNL     1       2.061   2.071 -13.776  1.00  0.00    -0.248 NA
ATOM     55  C   UNL     1       2.171   4.421 -13.934  1.00  0.00     0.031 C 
ATOM     56  C   UNL     1       5.650   4.127 -13.042  1.00  0.00     0.029 A 
ATOM     57  C   UNL     1       5.496   2.750 -13.251  1.00  0.00     0.049 A 
ATOM     58  H   UNL     1       6.982   1.276 -13.000  1.00  0.00     0.167 HD
ATOM     59  C   UNL     1       3.318   2.478 -14.153  1.00  0.00     0.074 A 
ATOM     60  C   UNL     1       3.217   3.869 -14.540  1.00  0.00     0.031 C 
ATOM     61  C   UNL     1       4.406   1.878 -13.608  1.00  0.00     0.037 A 
BRANCH  48  62
ATOM     62  C   UNL     1       9.294   2.028 -11.079  1.00  0.00     0.064 A 
ATOM     63  C   UNL     1      10.073   2.439 -12.195  1.00  0.00     0.173 A 
ATOM     64  C   UNL     1       9.655   0.810 -10.495  1.00  0.00     0.173 A 
ATOM     65  F   UNL     1       9.853   3.624 -12.789  1.00  0.00    -0.203 F 
ATOM     66  C   UNL     1      11.018   1.606 -12.789  1.00  0.00     0.198 A 
ATOM     67  C   UNL     1      10.647   0.001 -11.062  1.00  0.00     0.198 A 
ATOM     68  F   UNL     1       8.996   0.329  -9.434  1.00  0.00    -0.203 F 
ATOM     69  F   UNL     1      11.604   1.970 -13.939  1.00  0.00    -0.200 F 
ATOM     70  C   UNL     1      11.290   0.374 -12.233  1.00  0.00     0.200 A 
ATOM     71  F   UNL     1      10.922  -1.190 -10.512  1.00  0.00    -0.200 F 
ATOM     72  F   UNL     1      12.140  -0.466 -12.838  1.00  0.00    -0.200 F 
ENDBRANCH  48  62
BRANCH  49  73
ATOM     73  C   UNL     1      -0.951   3.863 -13.267  1.00  0.00     0.064 A 
ATOM     74  C   UNL     1      -2.214   3.960 -12.674  1.00  0.00     0.173 A 
ATOM     75  C   UNL     1      -0.903   4.381 -14.598  1.00  0.00     0.173 A 
ATOM     76  F   UNL     1      -2.466   3.379 -11.496  1.00  0.00    -0.203 F 
ATOM     77  C   UNL     1      -3.282   4.644 -13.295  1.00  0.00     0.198 A 
ATOM     78  C   UNL     1      -1.935   5.111 -15.187  1.00  0.00     0.198 A 
ATOM     79  F   UNL     1       0.161   4.196 -15.390  1.00  0.00    -0.203 F 
ATOM     80  F   UNL     1      -4.472   4.716 -12.682  1.00  0.00    -0.200 F 
ATOM     81  C   UNL     1      -3.125   5.263 -14.524  1.00  0.00     0.200 A 
ATOM     82  F   UNL     1      -1.747   5.675 -16.390  1.00  0.00    -0.200 F 
ATOM     83  F   UNL     1      -4.115   5.979 -15.074  1.00  0.00    -0.200 F 
ENDBRANCH  49  73
BRANCH  61  84
ATOM     84  C   UNL     1       4.175   0.459 -13.125  1.00  0.00     0.064 A 
ATOM     85  C   UNL     1       3.783  -0.527 -14.043  1.00  0.00     0.173 A 
ATOM     86  C   UNL     1       4.229   0.054 -11.781  1.00  0.00     0.173 A 
ATOM     87  F   UNL     1       3.725  -0.234 -15.351  1.00  0.00    -0.203 F 
ATOM     88  C   UNL     1       3.454  -1.825 -13.640  1.00  0.00     0.198 A 
ATOM     89  C   UNL     1       3.905  -1.244 -11.372  1.00  0.00     0.198 A 
ATOM     90  F   UNL     1       4.601   0.907 -10.830  1.00  0.00    -0.203 F 
ATOM     91  F   UNL     1       3.089  -2.734 -14.555  1.00  0.00    -0.200 F 
ATOM     92  C   UNL     1       3.513  -2.184 -12.304  1.00  0.00     0.200 A 
ATOM     93  F   UNL     1       3.983  -1.579 -10.074  1.00  0.00    -0.200 F 
ATOM     94  F   UNL     1       3.215  -3.433 -11.921  1.00  0.00    -0.200 F 
ENDBRANCH  61  84
ENDBRANCH  35  36
ENDBRANCH  27  30
ENDBRANCH  25  26
ENDBRANCH  24  25
ENDBRANCH  23  24
ENDBRANCH   1  23
TORSDOF 15
