REMARK SMILES O=C(NCCCCNC(=O)[C@@H]1CC2(CCN(C(=O)C3(c4ccccc4F)CC3)CC2)C[NH2+]1)c1ccc(-c2c3nc(c(-c4c(F)c(F)c(F)c(F)c4F)c4ccc([nH]4)c(-c4c(F)c(F)c(F)c(F)c4F)c4nc(c(-c5c(F)c(F)c(F)c(F)c5F)c5ccc2[nH]5)C=C4)C=C3)cc1
REMARK SMILES IDX 5 1 4 2 3 3 1 4 2 5 33 7 34 8 95 9 35 10 94 11 36 12 37 13
REMARK SMILES IDX 38 14 88 15 39 16 93 17 87 18 89 19 40 20 92 21 86 22 85 23
REMARK SMILES IDX 41 25 73 26 53 27 72 28 54 29 57 30 71 31 90 32 55 33 56 34
REMARK SMILES IDX 70 36 91 37 58 38 42 39 43 40 51 41 44 42 45 43 49 44 52 45
REMARK SMILES IDX 46 46 47 47 50 48 48 49 74 50 75 51 83 52 76 53 77 54 81 55
REMARK SMILES IDX 84 56 78 57 79 58 82 59 80 60 59 61 60 62 68 63 61 64 62 65
REMARK SMILES IDX 66 66 69 67 63 68 64 69 67 70 65 71 6 72 7 73 8 74 9 75
REMARK SMILES IDX 10 77 11 78 12 79 32 80 13 81 31 82 14 85 30 86 15 87 29 88
REMARK SMILES IDX 16 89 17 90 18 91 19 92 27 93 28 94 20 95 21 96 25 97 22 98
REMARK SMILES IDX 24 99 26 100 23 101
REMARK H PARENT 3 6 89 24 57 35 8 76 32 83 32 84
REMARK Flexibility Score: inf
ROOT
ATOM      1  C   UNL     1       4.925  -0.191   2.567  1.00  0.00     0.023 C 
ENDROOT
BRANCH   1   2
ATOM      2  C   UNL     1       4.576  -0.570   1.132  1.00  0.00     0.116 C 
BRANCH   2   3
ATOM      3  N   UNL     1       3.143  -0.666   0.913  1.00  0.00    -0.352 N 
ATOM      4  O   UNL     1       1.131  -0.084   0.082  1.00  0.00    -0.269 OA
ATOM      5  C   UNL     1       2.351   0.007   0.016  1.00  0.00     0.251 C 
ATOM      6  H   UNL     1       2.671  -1.308   1.492  1.00  0.00     0.163 HD
BRANCH   5   7
ATOM      7  C   UNL     1       2.971   0.865  -1.016  1.00  0.00     0.039 A 
ATOM      8  C   UNL     1       4.061   0.416  -1.768  1.00  0.00     0.014 A 
ATOM      9  C   UNL     1       2.434   2.135  -1.244  1.00  0.00     0.014 A 
ATOM     10  C   UNL     1       4.690   1.279  -2.660  1.00  0.00     0.010 A 
ATOM     11  C   UNL     1       3.021   2.972  -2.194  1.00  0.00     0.010 A 
ATOM     12  C   UNL     1       4.168   2.560  -2.892  1.00  0.00    -0.014 A 
BRANCH  12  13
ATOM     13  C   UNL     1       4.779   3.449  -3.909  1.00  0.00     0.031 A 
ATOM     14  C   UNL     1       5.409   4.751  -3.512  1.00  0.00     0.074 A 
ATOM     15  C   UNL     1       4.721   3.094  -5.206  1.00  0.00     0.049 A 
ATOM     16  N   UNL     1       5.894   5.700  -4.272  1.00  0.00    -0.248 NA
ATOM     17  C   UNL     1       5.498   5.031  -2.071  1.00  0.00     0.031 C 
ATOM     18  C   UNL     1       4.139   1.849  -5.707  1.00  0.00     0.029 A 
ATOM     19  N   UNL     1       5.141   3.747  -6.337  1.00  0.00    -0.354 N 
ATOM     20  C   UNL     1       6.320   6.699  -3.408  1.00  0.00     0.074 A 
ATOM     21  C   UNL     1       6.018   6.251  -2.065  1.00  0.00     0.031 C 
ATOM     22  C   UNL     1       4.248   1.821  -7.043  1.00  0.00     0.029 A 
ATOM     23  C   UNL     1       4.843   3.075  -7.496  1.00  0.00     0.049 A 
ATOM     24  H   UNL     1       5.610   4.612  -6.318  1.00  0.00     0.167 HD
ATOM     25  C   UNL     1       6.910   7.878  -3.715  1.00  0.00     0.037 A 
ATOM     26  C   UNL     1       4.994   3.439  -8.784  1.00  0.00     0.037 A 
ATOM     27  C   UNL     1       7.216   8.302  -5.058  1.00  0.00     0.049 A 
ATOM     28  C   UNL     1       5.601   4.773  -9.104  1.00  0.00     0.074 A 
ATOM     29  C   UNL     1       7.869   9.450  -5.468  1.00  0.00     0.029 A 
ATOM     30  N   UNL     1       6.877   7.602  -6.208  1.00  0.00    -0.354 N 
ATOM     31  N   UNL     1       6.035   5.696  -8.281  1.00  0.00    -0.248 NA
ATOM     32  C   UNL     1       5.735   5.123 -10.525  1.00  0.00     0.031 C 
ATOM     33  C   UNL     1       7.859   9.483  -6.864  1.00  0.00     0.029 A 
ATOM     34  C   UNL     1       7.269   8.317  -7.328  1.00  0.00     0.049 A 
ATOM     35  H   UNL     1       6.426   6.727  -6.225  1.00  0.00     0.167 HD
ATOM     36  C   UNL     1       6.514   6.725  -9.078  1.00  0.00     0.074 A 
ATOM     37  C   UNL     1       6.317   6.315 -10.453  1.00  0.00     0.031 C 
ATOM     38  C   UNL     1       7.073   7.899  -8.695  1.00  0.00     0.037 A 
BRANCH  25  39
ATOM     39  C   UNL     1       7.238   8.818  -2.589  1.00  0.00     0.064 A 
ATOM     40  C   UNL     1       6.567  10.047  -2.478  1.00  0.00     0.173 A 
ATOM     41  C   UNL     1       8.247   8.537  -1.656  1.00  0.00     0.173 A 
ATOM     42  F   UNL     1       5.601  10.372  -3.349  1.00  0.00    -0.203 F 
ATOM     43  C   UNL     1       6.899  10.959  -1.480  1.00  0.00     0.198 A 
ATOM     44  C   UNL     1       8.553   9.438  -0.638  1.00  0.00     0.198 A 
ATOM     45  F   UNL     1       8.916   7.376  -1.713  1.00  0.00    -0.203 F 
ATOM     46  F   UNL     1       6.265  12.138  -1.415  1.00  0.00    -0.200 F 
ATOM     47  C   UNL     1       7.885  10.651  -0.556  1.00  0.00     0.200 A 
ATOM     48  F   UNL     1       9.488   9.128   0.270  1.00  0.00    -0.200 F 
ATOM     49  F   UNL     1       8.189  11.521   0.417  1.00  0.00    -0.200 F 
ENDBRANCH  25  39
BRANCH  26  50
ATOM     50  C   UNL     1       4.553   2.497  -9.842  1.00  0.00     0.064 A 
ATOM     51  C   UNL     1       3.192   2.214 -10.042  1.00  0.00     0.173 A 
ATOM     52  C   UNL     1       5.488   1.776 -10.595  1.00  0.00     0.173 A 
ATOM     53  F   UNL     1       2.260   2.870  -9.335  1.00  0.00    -0.203 F 
ATOM     54  C   UNL     1       2.787   1.216 -10.924  1.00  0.00     0.198 A 
ATOM     55  C   UNL     1       5.080   0.796 -11.497  1.00  0.00     0.198 A 
ATOM     56  F   UNL     1       6.798   2.022 -10.448  1.00  0.00    -0.203 F 
ATOM     57  F   UNL     1       1.486   0.922 -11.049  1.00  0.00    -0.200 F 
ATOM     58  C   UNL     1       3.732   0.506 -11.649  1.00  0.00     0.200 A 
ATOM     59  F   UNL     1       5.994   0.120 -12.207  1.00  0.00    -0.200 F 
ATOM     60  F   UNL     1       3.344  -0.464 -12.488  1.00  0.00    -0.200 F 
ENDBRANCH  26  50
BRANCH  38  61
ATOM     61  C   UNL     1       7.549   8.839  -9.763  1.00  0.00     0.064 A 
ATOM     62  C   UNL     1       8.924   9.068  -9.937  1.00  0.00     0.173 A 
ATOM     63  C   UNL     1       6.653   9.619 -10.506  1.00  0.00     0.173 A 
ATOM     64  F   UNL     1       9.821   8.351  -9.243  1.00  0.00    -0.203 F 
ATOM     65  C   UNL     1       9.381  10.072 -10.784  1.00  0.00     0.198 A 
ATOM     66  C   UNL     1       7.116  10.604 -11.375  1.00  0.00     0.198 A 
ATOM     67  F   UNL     1       5.331   9.428 -10.386  1.00  0.00    -0.203 F 
ATOM     68  F   UNL     1      10.696  10.313 -10.887  1.00  0.00    -0.200 F 
ATOM     69  C   UNL     1       8.477  10.842 -11.499  1.00  0.00     0.200 A 
ATOM     70  F   UNL     1       6.243  11.337 -12.080  1.00  0.00    -0.200 F 
ATOM     71  F   UNL     1       8.918  11.819 -12.304  1.00  0.00    -0.200 F 
ENDBRANCH  38  61
ENDBRANCH  12  13
ENDBRANCH   5   7
ENDBRANCH   2   3
ENDBRANCH   1   2
BRANCH   1  72
ATOM     72  C   UNL     1       4.471  -1.191   3.632  1.00  0.00     0.023 C 
BRANCH  72  73
ATOM     73  C   UNL     1       4.907  -2.635   3.390  1.00  0.00     0.116 C 
BRANCH  73  74
ATOM     74  N   UNL     1       6.350  -2.770   3.321  1.00  0.00    -0.351 N 
ATOM     75  C   UNL     1       7.166  -3.608   4.027  1.00  0.00     0.278 C 
ATOM     76  H   UNL     1       6.803  -2.176   2.679  1.00  0.00     0.163 HD
ATOM     77  O   UNL     1       8.355  -3.663   3.705  1.00  0.00    -0.268 OA
BRANCH  75  78
ATOM     78  C   UNL     1       6.568  -4.456   5.167  1.00  0.00     0.273 C 
ATOM     79  C   UNL     1       6.150  -3.627   6.370  1.00  0.00     0.088 C 
ATOM     80  N   UNL     1       7.557  -5.385   5.745  1.00  0.00    -0.336 N 
ATOM     81  C   UNL     1       7.424  -3.492   7.230  1.00  0.00     0.029 C 
ATOM     82  C   UNL     1       8.343  -4.614   6.714  1.00  0.00     0.268 C 
ATOM     83  H   UNL     1       8.165  -5.751   5.012  1.00  0.00     0.346 HD
ATOM     84  H   UNL     1       7.098  -6.178   6.192  1.00  0.00     0.346 HD
ATOM     85  C   UNL     1       7.105  -3.674   8.725  1.00  0.00     0.034 C 
ATOM     86  C   UNL     1       8.103  -2.118   7.043  1.00  0.00     0.034 C 
ATOM     87  C   UNL     1       6.316  -2.502   9.311  1.00  0.00     0.120 C 
ATOM     88  C   UNL     1       7.281  -0.982   7.643  1.00  0.00     0.120 C 
ATOM     89  N   UNL     1       6.984  -1.231   9.057  1.00  0.00    -0.342 N 
ATOM     90  C   UNL     1       7.389  -0.242   9.961  1.00  0.00     0.233 C 
ATOM     91  O   UNL     1       8.090   0.684   9.542  1.00  0.00    -0.274 OA
BRANCH  90  92
ATOM     92  C   UNL     1       7.024  -0.187  11.449  1.00  0.00     0.077 C 
ATOM     93  C   UNL     1       6.043  -1.067  12.217  1.00  0.00     0.023 C 
ATOM     94  C   UNL     1       7.508  -1.355  12.306  1.00  0.00     0.023 C 
BRANCH  92  95
ATOM     95  C   UNL     1       7.115   1.248  12.018  1.00  0.00     0.003 A 
ATOM     96  C   UNL     1       5.966   2.049  12.158  1.00  0.00     0.008 A 
ATOM     97  C   UNL     1       8.351   1.850  12.301  1.00  0.00     0.127 A 
ATOM     98  C   UNL     1       6.056   3.392  12.536  1.00  0.00     0.001 A 
ATOM     99  C   UNL     1       8.454   3.193  12.657  1.00  0.00     0.039 A 
ATOM    100  F   UNL     1       9.479   1.130  12.196  1.00  0.00    -0.207 F 
ATOM    101  C   UNL     1       7.302   3.968  12.769  1.00  0.00     0.003 A 
ENDBRANCH  92  95
ENDBRANCH  90  92
ENDBRANCH  75  78
ENDBRANCH  73  74
ENDBRANCH  72  73
ENDBRANCH   1  72
TORSDOF 13
