REMARK SMILES COc1ccc(Br)cc1S(=O)(=O)N(C)CC(=O)NCCCCNC(=O)c1ccc(-c2c3nc(c(-c4c(F)c(F)c(F)c(F)c4F)c4ccc([nH]4)c(-c4c(F)c(F)c(F)c(F)c4F)c4nc(c(-c5c(F)c(F)c(F)c(F)c5F)c5ccc2[nH]5)C=C4)C=C3)cc1
REMARK SMILES IDX 19 1 18 2 16 3 17 4 15 6 13 7 14 8 10 9 11 10 12 11 9 12
REMARK SMILES IDX 3 13 4 14 5 15 8 16 6 17 7 18 2 19 1 20 20 21 21 22 22 23
REMARK SMILES IDX 23 24 24 25 25 27 26 28 27 29 88 30 28 31 87 32 29 33 30 34
REMARK SMILES IDX 31 35 81 36 32 37 86 38 80 39 82 40 33 41 85 42 79 43 78 44
REMARK SMILES IDX 34 46 66 47 46 48 65 49 47 50 50 51 64 52 83 53 48 54 49 55
REMARK SMILES IDX 63 57 84 58 51 59 35 60 36 61 44 62 37 63 38 64 42 65 45 66
REMARK SMILES IDX 39 67 40 68 43 69 41 70 67 71 68 72 76 73 69 74 70 75 74 76
REMARK SMILES IDX 77 77 71 78 72 79 75 80 73 81 52 82 53 83 61 84 54 85 55 86
REMARK SMILES IDX 59 87 62 88 56 89 57 90 60 91 58 92
REMARK H PARENT 18 5 23 26 82 45 50 56
REMARK Flexibility Score: inf
ROOT
ATOM      1  C   UNL     1      -3.906   0.485   0.925  1.00  0.00     0.116 C 
ENDROOT
BRANCH   1   2
ATOM      2  N   UNL     1      -4.422   1.310  -0.147  1.00  0.00    -0.355 N 
ATOM      3  C   UNL     1      -4.219   1.250  -1.498  1.00  0.00     0.235 C 
ATOM      4  O   UNL     1      -4.866   2.036  -2.195  1.00  0.00    -0.274 OA
ATOM      5  H   UNL     1      -5.019   2.037   0.145  1.00  0.00     0.163 HD
BRANCH   3   6
ATOM      6  C   UNL     1      -3.274   0.225  -2.131  1.00  0.00     0.202 C 
BRANCH   6   7
ATOM      7  N   UNL     1      -1.790   0.476  -2.065  1.00  0.00    -0.191 NA
ATOM      8  C   UNL     1      -1.146  -0.305  -1.010  1.00  0.00     0.125 C 
BRANCH   7   9
ATOM      9  S   UNL     1      -1.388   2.107  -2.325  1.00  0.00     0.247 S 
ATOM     10  O   UNL     1      -1.798   2.841  -1.143  1.00  0.00    -0.207 OA
ATOM     11  O   UNL     1      -1.956   2.438  -3.617  1.00  0.00    -0.207 OA
BRANCH   9  12
ATOM     12  C   UNL     1       0.346   2.482  -2.481  1.00  0.00     0.125 A 
ATOM     13  C   UNL     1       1.448   1.677  -2.192  1.00  0.00     0.138 A 
ATOM     14  C   UNL     1       2.740   2.234  -2.284  1.00  0.00     0.049 A 
ATOM     15  C   UNL     1       2.938   3.575  -2.618  1.00  0.00     0.019 A 
ATOM     16  C   UNL     1       0.561   3.836  -2.842  1.00  0.00     0.041 A 
ATOM     17  C   UNL     1       1.842   4.373  -2.900  1.00  0.00     0.019 A 
ATOM     18  Br  UNL     1       2.087   6.191  -3.346  1.00  0.00    -0.051 Br
BRANCH  13  19
ATOM     19  O   UNL     1       1.313   0.357  -1.884  1.00  0.00    -0.495 OA
ATOM     20  C   UNL     1       2.161  -0.107  -0.827  1.00  0.00     0.278 C 
ENDBRANCH  13  19
ENDBRANCH   9  12
ENDBRANCH   7   9
ENDBRANCH   6   7
ENDBRANCH   3   6
ENDBRANCH   1   2
BRANCH   1  21
ATOM     21  C   UNL     1      -2.614   1.037   1.527  1.00  0.00     0.023 C 
BRANCH  21  22
ATOM     22  C   UNL     1      -2.786   2.126   2.582  1.00  0.00     0.023 C 
BRANCH  22  23
ATOM     23  C   UNL     1      -3.317   1.625   3.917  1.00  0.00     0.116 C 
BRANCH  23  24
ATOM     24  N   UNL     1      -2.459   0.627   4.544  1.00  0.00    -0.352 N 
ATOM     25  C   UNL     1      -2.267   0.362   5.877  1.00  0.00     0.251 C 
ATOM     26  H   UNL     1      -1.945   0.063   3.922  1.00  0.00     0.163 HD
ATOM     27  O   UNL     1      -1.437  -0.474   6.222  1.00  0.00    -0.269 OA
BRANCH  25  28
ATOM     28  C   UNL     1      -3.018   1.125   6.896  1.00  0.00     0.039 A 
ATOM     29  C   UNL     1      -2.324   1.616   8.005  1.00  0.00     0.014 A 
ATOM     30  C   UNL     1      -4.383   1.384   6.750  1.00  0.00     0.014 A 
ATOM     31  C   UNL     1      -2.982   2.432   8.926  1.00  0.00     0.010 A 
ATOM     32  C   UNL     1      -5.019   2.257   7.626  1.00  0.00     0.010 A 
ATOM     33  C   UNL     1      -4.323   2.791   8.719  1.00  0.00    -0.014 A 
BRANCH  33  34
ATOM     34  C   UNL     1      -5.005   3.741   9.629  1.00  0.00     0.031 A 
ATOM     35  C   UNL     1      -6.160   3.288  10.474  1.00  0.00     0.074 A 
ATOM     36  C   UNL     1      -4.627   5.034   9.633  1.00  0.00     0.049 A 
ATOM     37  N   UNL     1      -6.897   3.980  11.305  1.00  0.00    -0.248 NA
ATOM     38  C   UNL     1      -6.563   1.880  10.342  1.00  0.00     0.031 C 
ATOM     39  C   UNL     1      -3.580   5.612   8.790  1.00  0.00     0.029 A 
ATOM     40  N   UNL     1      -5.089   6.096  10.367  1.00  0.00    -0.354 N 
ATOM     41  C   UNL     1      -7.864   3.101  11.772  1.00  0.00     0.074 A 
ATOM     42  C   UNL     1      -7.647   1.837  11.103  1.00  0.00     0.031 C 
ATOM     43  C   UNL     1      -3.461   6.920   9.072  1.00  0.00     0.029 A 
ATOM     44  C   UNL     1      -4.431   7.272  10.103  1.00  0.00     0.049 A 
ATOM     45  H   UNL     1      -5.822   6.023  11.020  1.00  0.00     0.167 HD
ATOM     46  C   UNL     1      -8.832   3.324  12.693  1.00  0.00     0.037 A 
ATOM     47  C   UNL     1      -4.587   8.494  10.645  1.00  0.00     0.037 A 
ATOM     48  C   UNL     1      -9.015   4.567  13.392  1.00  0.00     0.049 A 
ATOM     49  C   UNL     1      -5.604   8.690  11.733  1.00  0.00     0.074 A 
ATOM     50  C   UNL     1      -9.909   4.868  14.404  1.00  0.00     0.029 A 
ATOM     51  N   UNL     1      -8.280   5.719  13.152  1.00  0.00    -0.354 N 
ATOM     52  N   UNL     1      -6.455   7.828  12.232  1.00  0.00    -0.248 NA
ATOM     53  C   UNL     1      -5.669  10.024  12.344  1.00  0.00     0.031 C 
ATOM     54  C   UNL     1      -9.729   6.210  14.762  1.00  0.00     0.029 A 
ATOM     55  C   UNL     1      -8.704   6.735  13.993  1.00  0.00     0.049 A 
ATOM     56  H   UNL     1      -7.562   5.802  12.483  1.00  0.00     0.167 HD
ATOM     57  C   UNL     1      -7.147   8.507  13.224  1.00  0.00     0.074 A 
ATOM     58  C   UNL     1      -6.601   9.849  13.270  1.00  0.00     0.031 C 
ATOM     59  C   UNL     1      -8.147   8.062  14.023  1.00  0.00     0.037 A 
BRANCH  46  60
ATOM     60  C   UNL     1      -9.759   2.187  13.003  1.00  0.00     0.064 A 
ATOM     61  C   UNL     1      -9.330   1.074  13.741  1.00  0.00     0.173 A 
ATOM     62  C   UNL     1     -11.093   2.219  12.572  1.00  0.00     0.173 A 
ATOM     63  F   UNL     1      -8.059   0.991  14.160  1.00  0.00    -0.203 F 
ATOM     64  C   UNL     1     -10.197   0.018  14.012  1.00  0.00     0.198 A 
ATOM     65  C   UNL     1     -11.964   1.172  12.866  1.00  0.00     0.198 A 
ATOM     66  F   UNL     1     -11.551   3.262  11.865  1.00  0.00    -0.203 F 
ATOM     67  F   UNL     1      -9.753  -1.057  14.676  1.00  0.00    -0.200 F 
ATOM     68  C   UNL     1     -11.513   0.071  13.579  1.00  0.00     0.200 A 
ATOM     69  F   UNL     1     -13.237   1.226  12.453  1.00  0.00    -0.200 F 
ATOM     70  F   UNL     1     -12.346  -0.946  13.840  1.00  0.00    -0.200 F 
ENDBRANCH  46  60
BRANCH  47  71
ATOM     71  C   UNL     1      -3.713   9.609  10.207  1.00  0.00     0.064 A 
ATOM     72  C   UNL     1      -2.664  10.056  11.021  1.00  0.00     0.173 A 
ATOM     73  C   UNL     1      -3.897  10.236   8.967  1.00  0.00     0.173 A 
ATOM     74  F   UNL     1      -2.463   9.494  12.222  1.00  0.00    -0.203 F 
ATOM     75  C   UNL     1      -1.838  11.103  10.617  1.00  0.00     0.198 A 
ATOM     76  C   UNL     1      -3.058  11.271   8.557  1.00  0.00     0.198 A 
ATOM     77  F   UNL     1      -4.884   9.837   8.152  1.00  0.00    -0.203 F 
ATOM     78  F   UNL     1      -0.862  11.533  11.428  1.00  0.00    -0.200 F 
ATOM     79  C   UNL     1      -2.033  11.706   9.384  1.00  0.00     0.200 A 
ATOM     80  F   UNL     1      -3.242  11.845   7.360  1.00  0.00    -0.200 F 
ATOM     81  F   UNL     1      -1.236  12.710   8.995  1.00  0.00    -0.200 F 
ENDBRANCH  47  71
BRANCH  59  82
ATOM     82  C   UNL     1      -8.701   9.032  15.020  1.00  0.00     0.064 A 
ATOM     83  C   UNL     1      -9.553  10.074  14.628  1.00  0.00     0.173 A 
ATOM     84  C   UNL     1      -8.394   8.905  16.382  1.00  0.00     0.173 A 
ATOM     85  F   UNL     1      -9.861  10.242  13.333  1.00  0.00    -0.203 F 
ATOM     86  C   UNL     1     -10.061  10.970  15.563  1.00  0.00     0.198 A 
ATOM     87  C   UNL     1      -8.920   9.791  17.317  1.00  0.00     0.198 A 
ATOM     88  F   UNL     1      -7.585   7.922  16.805  1.00  0.00    -0.203 F 
ATOM     89  F   UNL     1     -10.840  11.985  15.162  1.00  0.00    -0.200 F 
ATOM     90  C   UNL     1      -9.747  10.826  16.907  1.00  0.00     0.200 A 
ATOM     91  F   UNL     1      -8.622   9.648  18.616  1.00  0.00    -0.200 F 
ATOM     92  F   UNL     1     -10.236  11.692  17.806  1.00  0.00    -0.200 F 
ENDBRANCH  59  82
ENDBRANCH  33  34
ENDBRANCH  25  28
ENDBRANCH  23  24
ENDBRANCH  22  23
ENDBRANCH  21  22
ENDBRANCH   1  21
TORSDOF 15
