REMARK SMILES Cc1cccc(CS[C@@H]2CC[C@]([NH3+])(C(=O)NCCCCNC(=O)c3ccc(-c4c5nc(c(-c6c(F)c(F)c(F)c(F)c6F)c6ccc([nH]6)c(-c6c(F)c(F)c(F)c(F)c6F)c6nc(c(-c7c(F)c(F)c(F)c(F)c7F)c7ccc4[nH]7)C=C6)C=C5)cc3)C2)c1
REMARK SMILES IDX 18 1 17 2 16 3 14 4 15 5 12 7 9 8 10 9 87 10 11 11 8 12 7 13
REMARK SMILES IDX 6 14 1 15 2 16 3 17 88 18 4 19 5 20 13 21 19 25 20 26 21 27
REMARK SMILES IDX 22 28 23 30 24 31 25 32 86 33 26 34 85 35 27 36 28 37 29 38
REMARK SMILES IDX 79 39 30 40 84 41 78 42 80 43 31 44 83 45 77 46 76 47 32 49
REMARK SMILES IDX 64 50 44 51 63 52 45 53 48 54 62 55 81 56 46 57 47 58 61 60
REMARK SMILES IDX 82 61 49 62 33 63 34 64 42 65 35 66 36 67 40 68 43 69 37 70
REMARK SMILES IDX 38 71 41 72 39 73 65 74 66 75 74 76 67 77 68 78 72 79 75 80
REMARK SMILES IDX 69 81 70 82 73 83 71 84 50 85 51 86 59 87 52 88 53 89 57 90
REMARK SMILES IDX 60 91 54 92 55 93 58 94 56 95
REMARK H PARENT 16 6 13 22 13 23 13 24 21 29 80 48 48 59
REMARK Flexibility Score: inf
ROOT
ATOM      1  C   UNL     1       2.771   1.600  -6.783  1.00  0.00     0.023 C 
ENDROOT
BRANCH   1   2
ATOM      2  C   UNL     1       2.270   1.337  -5.362  1.00  0.00     0.116 C 
BRANCH   2   3
ATOM      3  N   UNL     1       2.421   2.461  -4.453  1.00  0.00    -0.351 N 
ATOM      4  C   UNL     1       1.482   3.122  -3.705  1.00  0.00     0.281 C 
ATOM      5  O   UNL     1       1.891   4.016  -2.957  1.00  0.00    -0.268 OA
ATOM      6  H   UNL     1       3.340   2.800  -4.360  1.00  0.00     0.163 HD
BRANCH   4   7
ATOM      7  C   UNL     1      -0.038   2.804  -3.840  1.00  0.00     0.175 C 
ATOM      8  C   UNL     1      -2.201   2.838  -2.716  1.00  0.00     0.054 C 
ATOM      9  C   UNL     1      -1.880   1.385  -3.073  1.00  0.00     0.022 C 
ATOM     10  C   UNL     1      -0.879   3.605  -2.811  1.00  0.00     0.093 C 
ATOM     11  C   UNL     1      -0.400   1.365  -3.447  1.00  0.00     0.080 C 
BRANCH   8  12
ATOM     12  S   UNL     1      -3.252   3.045  -1.232  1.00  0.00    -0.154 SA
BRANCH  12  13
ATOM     13  C   UNL     1      -2.100   2.891   0.170  1.00  0.00     0.105 C 
BRANCH  13  14
ATOM     14  C   UNL     1      -1.341   1.595   0.259  1.00  0.00    -0.038 A 
ATOM     15  C   UNL     1       2.290   0.467   0.153  1.00  0.00     0.044 C 
ATOM     16  C   UNL     1       0.796   0.423   0.253  1.00  0.00    -0.051 A 
ATOM     17  C   UNL     1       0.120  -0.796   0.357  1.00  0.00     0.003 A 
ATOM     18  C   UNL     1       0.059   1.611   0.213  1.00  0.00     0.008 A 
ATOM     19  C   UNL     1      -1.272  -0.825   0.444  1.00  0.00     0.001 A 
ATOM     20  C   UNL     1      -1.999   0.365   0.406  1.00  0.00     0.004 A 
ENDBRANCH  13  14
ENDBRANCH  12  13
ENDBRANCH   8  12
BRANCH   7  21
ATOM     21  N   UNL     1      -0.464   3.121  -5.223  1.00  0.00    -0.345 N 
ATOM     22  H   UNL     1      -1.458   2.918  -5.327  1.00  0.00     0.345 HD
ATOM     23  H   UNL     1       0.070   2.554  -5.882  1.00  0.00     0.345 HD
ATOM     24  H   UNL     1      -0.298   4.109  -5.412  1.00  0.00     0.345 HD
ENDBRANCH   7  21
ENDBRANCH   4   7
ENDBRANCH   2   3
ENDBRANCH   1   2
BRANCH   1  25
ATOM     25  C   UNL     1       4.253   1.932  -6.927  1.00  0.00     0.023 C 
BRANCH  25  26
ATOM     26  C   UNL     1       5.215   0.849  -6.457  1.00  0.00     0.116 C 
BRANCH  26  27
ATOM     27  N   UNL     1       5.432  -0.246  -7.393  1.00  0.00    -0.352 N 
ATOM     28  C   UNL     1       6.195  -1.399  -7.245  1.00  0.00     0.251 C 
ATOM     29  H   UNL     1       4.971  -0.156  -8.258  1.00  0.00     0.163 HD
ATOM     30  O   UNL     1       6.310  -2.181  -8.167  1.00  0.00    -0.269 OA
BRANCH  28  31
ATOM     31  C   UNL     1       6.755  -1.742  -5.908  1.00  0.00     0.039 A 
ATOM     32  C   UNL     1       6.628  -3.064  -5.459  1.00  0.00     0.014 A 
ATOM     33  C   UNL     1       7.208  -0.758  -5.037  1.00  0.00     0.014 A 
ATOM     34  C   UNL     1       6.688  -3.332  -4.093  1.00  0.00     0.010 A 
ATOM     35  C   UNL     1       7.152  -0.994  -3.680  1.00  0.00     0.010 A 
ATOM     36  C   UNL     1       6.815  -2.265  -3.208  1.00  0.00    -0.014 A 
BRANCH  36  37
ATOM     37  C   UNL     1       6.499  -2.338  -1.789  1.00  0.00     0.031 A 
ATOM     38  C   UNL     1       7.568  -2.227  -0.777  1.00  0.00     0.074 A 
ATOM     39  C   UNL     1       5.202  -2.342  -1.407  1.00  0.00     0.049 A 
ATOM     40  N   UNL     1       7.385  -2.427   0.483  1.00  0.00    -0.248 NA
ATOM     41  C   UNL     1       8.959  -1.942  -1.110  1.00  0.00     0.031 C 
ATOM     42  C   UNL     1       4.671  -2.077  -0.074  1.00  0.00     0.029 A 
ATOM     43  N   UNL     1       4.093  -2.824  -2.128  1.00  0.00    -0.354 N 
ATOM     44  C   UNL     1       8.513  -2.020   1.147  1.00  0.00     0.074 A 
ATOM     45  C   UNL     1       9.501  -1.861   0.110  1.00  0.00     0.031 C 
ATOM     46  C   UNL     1       3.483  -2.687   0.045  1.00  0.00     0.029 A 
ATOM     47  C   UNL     1       3.284  -3.469  -1.157  1.00  0.00     0.049 A 
ATOM     48  H   UNL     1       3.918  -2.734  -3.092  1.00  0.00     0.167 HD
ATOM     49  C   UNL     1       8.411  -1.759   2.482  1.00  0.00     0.037 A 
ATOM     50  C   UNL     1       3.107  -4.822  -1.183  1.00  0.00     0.037 A 
ATOM     51  C   UNL     1       7.177  -2.342   3.031  1.00  0.00     0.049 A 
ATOM     52  C   UNL     1       3.635  -5.538   0.044  1.00  0.00     0.074 A 
ATOM     53  C   UNL     1       5.981  -1.857   3.531  1.00  0.00     0.029 A 
ATOM     54  N   UNL     1       6.992  -3.711   2.884  1.00  0.00    -0.354 N 
ATOM     55  N   UNL     1       4.286  -4.943   1.006  1.00  0.00    -0.248 NA
ATOM     56  C   UNL     1       3.535  -6.981   0.261  1.00  0.00     0.031 C 
ATOM     57  C   UNL     1       5.067  -2.953   3.640  1.00  0.00     0.029 A 
ATOM     58  C   UNL     1       5.715  -4.102   3.225  1.00  0.00     0.049 A 
ATOM     59  H   UNL     1       7.692  -4.329   2.572  1.00  0.00     0.167 HD
ATOM     60  C   UNL     1       4.669  -5.856   1.943  1.00  0.00     0.074 A 
ATOM     61  C   UNL     1       4.195  -7.127   1.424  1.00  0.00     0.031 C 
ATOM     62  C   UNL     1       5.352  -5.503   3.069  1.00  0.00     0.037 A 
BRANCH  49  63
ATOM     63  C   UNL     1       9.349  -0.871   3.286  1.00  0.00     0.064 A 
ATOM     64  C   UNL     1       9.072  -0.592   4.645  1.00  0.00     0.173 A 
ATOM     65  C   UNL     1      10.465  -0.172   2.774  1.00  0.00     0.173 A 
ATOM     66  F   UNL     1       8.044  -1.170   5.281  1.00  0.00    -0.203 F 
ATOM     67  C   UNL     1       9.827   0.314   5.403  1.00  0.00     0.198 A 
ATOM     68  C   UNL     1      11.242   0.700   3.543  1.00  0.00     0.198 A 
ATOM     69  F   UNL     1      10.841  -0.250   1.497  1.00  0.00    -0.203 F 
ATOM     70  F   UNL     1       9.477   0.574   6.670  1.00  0.00    -0.200 F 
ATOM     71  C   UNL     1      10.917   0.955   4.854  1.00  0.00     0.200 A 
ATOM     72  F   UNL     1      12.297   1.312   2.982  1.00  0.00    -0.200 F 
ATOM     73  F   UNL     1      11.638   1.823   5.574  1.00  0.00    -0.200 F 
ENDBRANCH  49  63
BRANCH  50  74
ATOM     74  C   UNL     1       3.049  -5.350  -2.571  1.00  0.00     0.064 A 
ATOM     75  C   UNL     1       2.027  -4.860  -3.412  1.00  0.00     0.173 A 
ATOM     76  C   UNL     1       4.158  -5.942  -3.180  1.00  0.00     0.173 A 
ATOM     77  F   UNL     1       0.939  -4.282  -2.877  1.00  0.00    -0.203 F 
ATOM     78  C   UNL     1       2.180  -4.828  -4.796  1.00  0.00     0.198 A 
ATOM     79  C   UNL     1       4.295  -5.932  -4.571  1.00  0.00     0.198 A 
ATOM     80  F   UNL     1       5.171  -6.410  -2.436  1.00  0.00    -0.203 F 
ATOM     81  F   UNL     1       1.256  -4.225  -5.557  1.00  0.00    -0.200 F 
ATOM     82  C   UNL     1       3.330  -5.338  -5.372  1.00  0.00     0.200 A 
ATOM     83  F   UNL     1       5.419  -6.404  -5.130  1.00  0.00    -0.200 F 
ATOM     84  F   UNL     1       3.530  -5.215  -6.691  1.00  0.00    -0.200 F 
ENDBRANCH  50  74
BRANCH  62  85
ATOM     85  C   UNL     1       5.741  -6.486   4.130  1.00  0.00     0.064 A 
ATOM     86  C   UNL     1       4.837  -7.424   4.650  1.00  0.00     0.173 A 
ATOM     87  C   UNL     1       7.011  -6.433   4.740  1.00  0.00     0.173 A 
ATOM     88  F   UNL     1       3.585  -7.505   4.174  1.00  0.00    -0.203 F 
ATOM     89  C   UNL     1       5.197  -8.288   5.684  1.00  0.00     0.198 A 
ATOM     90  C   UNL     1       7.351  -7.262   5.805  1.00  0.00     0.198 A 
ATOM     91  F   UNL     1       7.960  -5.592   4.301  1.00  0.00    -0.203 F 
ATOM     92  F   UNL     1       4.323  -9.207   6.117  1.00  0.00    -0.200 F 
ATOM     93  C   UNL     1       6.449  -8.200   6.268  1.00  0.00     0.200 A 
ATOM     94  F   UNL     1       8.560  -7.152   6.374  1.00  0.00    -0.200 F 
ATOM     95  F   UNL     1       6.787  -9.020   7.272  1.00  0.00    -0.200 F 
ENDBRANCH  62  85
ENDBRANCH  36  37
ENDBRANCH  28  31
ENDBRANCH  26  27
ENDBRANCH  25  26
ENDBRANCH   1  25
TORSDOF 15
