REMARK SMILES C/C=C(\C)[C@@H]1C(C)=C[C@@H]2[C@H]([C@@H]1/C=C/C=C/C(=O)NCCCCNC(=O)c1ccc(-c3c4nc(c(-c5c(F)c(F)c(F)c(F)c5F)c5ccc([nH]5)c(-c5c(F)c(F)c(F)c(F)c5F)c5nc(c(-c6c(F)c(F)c(F)c(F)c6F)c6ccc3[nH]6)C=C5)C=C4)cc1)[C@@H](C)CC[C@@H]2O
REMARK SMILES IDX 20 1 19 2 18 3 16 4 17 5 15 7 14 8 13 9 12 10 11 11 5 12
REMARK SMILES IDX 6 13 7 14 8 15 10 16 9 17 89 18 93 19 90 20 91 21 92 22 3 23
REMARK SMILES IDX 1 24 2 25 4 26 94 27 21 29 22 30 23 31 24 32 25 34 26 35
REMARK SMILES IDX 27 36 88 37 28 38 87 39 29 40 30 41 31 42 81 43 32 44 86 45
REMARK SMILES IDX 80 46 82 47 33 48 85 49 79 50 78 51 34 53 66 54 46 55 65 56
REMARK SMILES IDX 47 57 50 58 64 59 83 60 48 61 49 62 63 64 84 65 51 66 35 67
REMARK SMILES IDX 36 68 44 69 37 70 38 71 42 72 45 73 39 74 40 75 43 76 41 77
REMARK SMILES IDX 67 78 68 79 76 80 69 81 70 82 74 83 77 84 71 85 72 86 75 87
REMARK SMILES IDX 73 88 52 89 53 90 61 91 54 92 55 93 59 94 62 95 56 96 57 97
REMARK SMILES IDX 60 98 58 99
REMARK H PARENT 18 6 94 28 23 33 82 52 50 63
REMARK Flexibility Score: inf
ROOT
ATOM      1  C   UNL     1      -4.207   7.405  -5.314  1.00  0.00     0.023 C 
ENDROOT
BRANCH   1   2
ATOM      2  C   UNL     1      -4.455   5.931  -5.638  1.00  0.00     0.116 C 
BRANCH   2   3
ATOM      3  N   UNL     1      -4.096   5.609  -7.009  1.00  0.00    -0.353 N 
ATOM      4  C   UNL     1      -3.093   4.820  -7.494  1.00  0.00     0.243 C 
ATOM      5  O   UNL     1      -3.039   4.559  -8.693  1.00  0.00    -0.270 OA
ATOM      6  H   UNL     1      -4.666   6.024  -7.696  1.00  0.00     0.163 HD
BRANCH   4   7
ATOM      7  C   UNL     1      -2.141   4.184  -6.557  1.00  0.00     0.071 C 
ATOM      8  C   UNL     1      -1.455   4.887  -5.645  1.00  0.00     0.005 C 
BRANCH   8   9
ATOM      9  C   UNL     1      -0.712   4.253  -4.580  1.00  0.00    -0.004 C 
ATOM     10  C   UNL     1      -0.708   4.807  -3.355  1.00  0.00    -0.022 C 
BRANCH  10  11
ATOM     11  C   UNL     1      -0.153   4.177  -2.094  1.00  0.00     0.027 C 
ATOM     12  C   UNL     1      -1.195   3.425  -1.105  1.00  0.00     0.047 C 
ATOM     13  C   UNL     1      -0.788   3.676   0.357  1.00  0.00    -0.069 C 
ATOM     14  C   UNL     1      -0.835   2.542   1.345  1.00  0.00     0.040 C 
ATOM     15  C   UNL     1      -0.336   4.880   0.750  1.00  0.00    -0.021 C 
ATOM     16  C   UNL     1       0.736   5.289  -1.427  1.00  0.00     0.009 C 
ATOM     17  C   UNL     1      -0.034   5.958  -0.262  1.00  0.00     0.044 C 
ATOM     18  C   UNL     1       2.156   4.809  -0.969  1.00  0.00    -0.010 C 
ATOM     19  C   UNL     1       0.799   7.134   0.290  1.00  0.00     0.121 C 
ATOM     20  C   UNL     1       2.998   4.244  -2.122  1.00  0.00     0.008 C 
ATOM     21  C   UNL     1       2.944   5.973  -0.327  1.00  0.00     0.006 C 
ATOM     22  C   UNL     1       2.177   6.695   0.775  1.00  0.00     0.033 C 
BRANCH  12  23
ATOM     23  C   UNL     1      -2.762   3.508  -1.276  1.00  0.00    -0.070 C 
ATOM     24  C   UNL     1      -5.126   3.130  -0.318  1.00  0.00     0.035 C 
ATOM     25  C   UNL     1      -3.626   3.124  -0.304  1.00  0.00    -0.031 C 
ATOM     26  C   UNL     1      -3.337   3.903  -2.606  1.00  0.00     0.040 C 
ENDBRANCH  12  23
BRANCH  19  27
ATOM     27  O   UNL     1       0.107   7.831   1.323  1.00  0.00    -0.393 OA
ATOM     28  H   UNL     1      -0.034   7.237   2.076  1.00  0.00     0.210 HD
ENDBRANCH  19  27
ENDBRANCH  10  11
ENDBRANCH   8   9
ENDBRANCH   4   7
ENDBRANCH   2   3
ENDBRANCH   1   2
BRANCH   1  29
ATOM     29  C   UNL     1      -5.212   8.366  -5.956  1.00  0.00     0.023 C 
BRANCH  29  30
ATOM     30  C   UNL     1      -6.657   8.201  -5.493  1.00  0.00     0.116 C 
BRANCH  30  31
ATOM     31  N   UNL     1      -6.841   8.459  -4.071  1.00  0.00    -0.352 N 
ATOM     32  C   UNL     1      -7.844   9.156  -3.441  1.00  0.00     0.251 C 
ATOM     33  H   UNL     1      -6.151   8.082  -3.479  1.00  0.00     0.163 HD
ATOM     34  O   UNL     1      -7.793   9.368  -2.237  1.00  0.00    -0.269 OA
BRANCH  32  35
ATOM     35  C   UNL     1      -8.973   9.690  -4.236  1.00  0.00     0.039 A 
ATOM     36  C   UNL     1      -9.329  11.033  -4.080  1.00  0.00     0.014 A 
ATOM     37  C   UNL     1      -9.650   8.883  -5.152  1.00  0.00     0.014 A 
ATOM     38  C   UNL     1     -10.305  11.590  -4.909  1.00  0.00     0.010 A 
ATOM     39  C   UNL     1     -10.579   9.454  -6.018  1.00  0.00     0.010 A 
ATOM     40  C   UNL     1     -10.902  10.816  -5.917  1.00  0.00    -0.014 A 
BRANCH  40  41
ATOM     41  C   UNL     1     -11.832  11.419  -6.906  1.00  0.00     0.031 A 
ATOM     42  C   UNL     1     -13.267  10.983  -6.962  1.00  0.00     0.074 A 
ATOM     43  C   UNL     1     -11.354  12.289  -7.817  1.00  0.00     0.049 A 
ATOM     44  N   UNL     1     -14.197  11.308  -7.824  1.00  0.00    -0.248 NA
ATOM     45  C   UNL     1     -13.710  10.037  -5.927  1.00  0.00     0.031 C 
ATOM     46  C   UNL     1      -9.968  12.753  -7.897  1.00  0.00     0.029 A 
ATOM     47  N   UNL     1     -11.977  12.922  -8.864  1.00  0.00    -0.354 N 
ATOM     48  C   UNL     1     -15.327  10.594  -7.448  1.00  0.00     0.074 A 
ATOM     49  C   UNL     1     -14.956   9.788  -6.305  1.00  0.00     0.031 C 
ATOM     50  C   UNL     1      -9.847  13.602  -8.931  1.00  0.00     0.029 A 
ATOM     51  C   UNL     1     -11.134  13.711  -9.610  1.00  0.00     0.049 A 
ATOM     52  H   UNL     1     -12.936  12.821  -9.062  1.00  0.00     0.167 HD
ATOM     53  C   UNL     1     -16.564  10.623  -7.998  1.00  0.00     0.037 A 
ATOM     54  C   UNL     1     -11.368  14.428 -10.726  1.00  0.00     0.037 A 
ATOM     55  C   UNL     1     -16.937  11.449  -9.116  1.00  0.00     0.049 A 
ATOM     56  C   UNL     1     -12.751  14.437 -11.319  1.00  0.00     0.074 A 
ATOM     57  C   UNL     1     -18.186  11.610  -9.691  1.00  0.00     0.029 A 
ATOM     58  N   UNL     1     -16.061  12.251  -9.833  1.00  0.00    -0.354 N 
ATOM     59  N   UNL     1     -13.830  13.816 -10.909  1.00  0.00    -0.248 NA
ATOM     60  C   UNL     1     -12.948  15.246 -12.530  1.00  0.00     0.031 C 
ATOM     61  C   UNL     1     -18.057  12.473 -10.784  1.00  0.00     0.029 A 
ATOM     62  C   UNL     1     -16.737  12.886 -10.863  1.00  0.00     0.049 A 
ATOM     63  H   UNL     1     -15.101  12.354  -9.639  1.00  0.00     0.167 HD
ATOM     64  C   UNL     1     -14.836  14.175 -11.796  1.00  0.00     0.074 A 
ATOM     65  C   UNL     1     -14.243  15.080 -12.758  1.00  0.00     0.031 C 
ATOM     66  C   UNL     1     -16.134  13.787 -11.811  1.00  0.00     0.037 A 
BRANCH  53  67
ATOM     67  C   UNL     1     -17.614   9.736  -7.396  1.00  0.00     0.064 A 
ATOM     68  C   UNL     1     -18.171  10.007  -6.138  1.00  0.00     0.173 A 
ATOM     69  C   UNL     1     -18.103   8.631  -8.108  1.00  0.00     0.173 A 
ATOM     70  F   UNL     1     -17.730  11.046  -5.414  1.00  0.00    -0.203 F 
ATOM     71  C   UNL     1     -19.163   9.189  -5.603  1.00  0.00     0.198 A 
ATOM     72  C   UNL     1     -19.114   7.831  -7.582  1.00  0.00     0.198 A 
ATOM     73  F   UNL     1     -17.608   8.332  -9.319  1.00  0.00    -0.203 F 
ATOM     74  F   UNL     1     -19.651   9.443  -4.381  1.00  0.00    -0.200 F 
ATOM     75  C   UNL     1     -19.639   8.107  -6.329  1.00  0.00     0.200 A 
ATOM     76  F   UNL     1     -19.582   6.793  -8.289  1.00  0.00    -0.200 F 
ATOM     77  F   UNL     1     -20.600   7.326  -5.816  1.00  0.00    -0.200 F 
ENDBRANCH  53  67
BRANCH  54  78
ATOM     78  C   UNL     1     -10.268  15.204 -11.353  1.00  0.00     0.064 A 
ATOM     79  C   UNL     1     -10.262  16.605 -11.312  1.00  0.00     0.173 A 
ATOM     80  C   UNL     1      -9.204  14.565 -12.006  1.00  0.00     0.173 A 
ATOM     81  F   UNL     1     -11.270  17.261 -10.718  1.00  0.00    -0.203 F 
ATOM     82  C   UNL     1      -9.244  17.338 -11.918  1.00  0.00     0.198 A 
ATOM     83  C   UNL     1      -8.172  15.299 -12.587  1.00  0.00     0.198 A 
ATOM     84  F   UNL     1      -9.161  13.226 -12.069  1.00  0.00    -0.203 F 
ATOM     85  F   UNL     1      -9.286  18.678 -11.902  1.00  0.00    -0.200 F 
ATOM     86  C   UNL     1      -8.197  16.685 -12.549  1.00  0.00     0.200 A 
ATOM     87  F   UNL     1      -7.155  14.664 -13.186  1.00  0.00    -0.200 F 
ATOM     88  F   UNL     1      -7.216  17.391 -13.128  1.00  0.00    -0.200 F 
ENDBRANCH  54  78
BRANCH  66  89
ATOM     89  C   UNL     1     -17.010  14.354 -12.889  1.00  0.00     0.064 A 
ATOM     90  C   UNL     1     -16.906  13.924 -14.219  1.00  0.00     0.173 A 
ATOM     91  C   UNL     1     -17.997  15.301 -12.578  1.00  0.00     0.173 A 
ATOM     92  F   UNL     1     -15.966  13.033 -14.569  1.00  0.00    -0.203 F 
ATOM     93  C   UNL     1     -17.749  14.434 -15.203  1.00  0.00     0.198 A 
ATOM     94  C   UNL     1     -18.855  15.789 -13.559  1.00  0.00     0.198 A 
ATOM     95  F   UNL     1     -18.139  15.741 -11.318  1.00  0.00    -0.203 F 
ATOM     96  F   UNL     1     -17.607  14.037 -16.475  1.00  0.00    -0.200 F 
ATOM     97  C   UNL     1     -18.728  15.359 -14.871  1.00  0.00     0.200 A 
ATOM     98  F   UNL     1     -19.808  16.673 -13.234  1.00  0.00    -0.200 F 
ATOM     99  F   UNL     1     -19.545  15.840 -15.817  1.00  0.00    -0.200 F 
ENDBRANCH  66  89
ENDBRANCH  40  41
ENDBRANCH  32  35
ENDBRANCH  30  31
ENDBRANCH  29  30
ENDBRANCH   1  29
TORSDOF 15
