REMARK SMILES CSc1ccc(CNc2ccc(N3CCOCC3)c(C(=O)NCCCCNC(=O)c3ccc(-c4c5nc(c(-c6c(F)c(F)c(F)c(F)c6F)c6ccc([nH]6)c(-c6c(F)c(F)c(F)c(F)c6F)c6nc(c(-c7c(F)c(F)c(F)c(F)c7F)c7ccc4[nH]7)C=C6)C=C5)cc3)c2)cc1
REMARK SMILES IDX 23 1 22 2 20 3 21 4 19 6 9 7 10 8 93 9 11 10 12 11 8 12 7 14
REMARK SMILES IDX 6 15 3 16 4 17 95 18 5 19 94 20 2 21 1 22 13 23 14 24 18 25
REMARK SMILES IDX 15 26 17 27 16 28 24 29 25 30 26 31 27 32 28 33 29 35 30 36
REMARK SMILES IDX 31 37 92 38 32 39 91 40 33 41 34 42 35 43 85 44 36 45 90 46
REMARK SMILES IDX 84 47 86 48 37 49 89 50 83 51 82 52 38 54 70 55 50 56 69 57
REMARK SMILES IDX 51 58 54 59 68 60 87 61 52 62 53 63 67 65 88 66 55 67 39 68
REMARK SMILES IDX 40 69 48 70 41 71 42 72 46 73 49 74 43 75 44 76 47 77 45 78
REMARK SMILES IDX 71 79 72 80 80 81 73 82 74 83 78 84 81 85 75 86 76 87 79 88
REMARK SMILES IDX 77 89 56 90 57 91 65 92 58 93 59 94 63 95 66 96 60 97 61 98
REMARK SMILES IDX 64 99 62 100
REMARK H PARENT 22 5 8 13 27 34 86 53 54 64
REMARK Flexibility Score: inf
ROOT
ATOM      1  C   UNL     1       4.218  10.249   0.089  1.00  0.00     0.116 C 
ENDROOT
BRANCH   1   2
ATOM      2  N   UNL     1       5.425  10.328   0.900  1.00  0.00    -0.352 N 
ATOM      3  C   UNL     1       5.824   9.627   2.030  1.00  0.00     0.253 C 
ATOM      4  O   UNL     1       6.979   9.807   2.412  1.00  0.00    -0.269 OA
ATOM      5  H   UNL     1       6.076  10.998   0.590  1.00  0.00     0.163 HD
BRANCH   3   6
ATOM      6  C   UNL     1       4.880   8.722   2.761  1.00  0.00     0.065 A 
ATOM      7  C   UNL     1       2.900   7.291   2.542  1.00  0.00     0.035 A 
ATOM      8  C   UNL     1       2.806   7.273   3.930  1.00  0.00     0.028 A 
ATOM      9  C   UNL     1       3.999   7.945   1.995  1.00  0.00     0.041 A 
ATOM     10  C   UNL     1       3.792   7.868   4.724  1.00  0.00     0.029 A 
ATOM     11  C   UNL     1       4.861   8.588   4.162  1.00  0.00     0.050 A 
BRANCH   7  12
ATOM     12  N   UNL     1       1.937   6.670   1.781  1.00  0.00    -0.381 N 
ATOM     13  H   UNL     1       1.225   6.195   2.266  1.00  0.00     0.160 HD
BRANCH  12  14
ATOM     14  C   UNL     1       1.870   6.649   0.330  1.00  0.00     0.148 C 
BRANCH  14  15
ATOM     15  C   UNL     1       1.526   5.258  -0.135  1.00  0.00    -0.029 A 
ATOM     16  C   UNL     1       0.922   2.641  -0.996  1.00  0.00     0.007 A 
ATOM     17  C   UNL     1       1.888   2.856  -0.011  1.00  0.00     0.015 A 
ATOM     18  C   UNL     1       0.295   3.750  -1.579  1.00  0.00     0.015 A 
ATOM     19  C   UNL     1       2.190   4.150   0.411  1.00  0.00     0.007 A 
ATOM     20  C   UNL     1       0.594   5.049  -1.155  1.00  0.00     0.007 A 
BRANCH  16  21
ATOM     21  S   UNL     1       0.455   1.018  -1.581  1.00  0.00    -0.130 SA
ATOM     22  C   UNL     1       0.887  -0.035  -0.169  1.00  0.00     0.091 C 
ENDBRANCH  16  21
ENDBRANCH  14  15
ENDBRANCH  12  14
ENDBRANCH   7  12
BRANCH  11  23
ATOM     23  N   UNL     1       5.877   9.007   4.991  1.00  0.00    -0.366 N 
ATOM     24  C   UNL     1       6.104  10.403   5.358  1.00  0.00     0.145 C 
ATOM     25  C   UNL     1       6.652   8.006   5.730  1.00  0.00     0.145 C 
ATOM     26  C   UNL     1       7.616  10.691   5.472  1.00  0.00     0.181 C 
ATOM     27  C   UNL     1       8.132   8.407   5.714  1.00  0.00     0.181 C 
ATOM     28  O   UNL     1       8.306   9.717   6.280  1.00  0.00    -0.378 OA
ENDBRANCH  11  23
ENDBRANCH   3   6
ENDBRANCH   1   2
BRANCH   1  29
ATOM     29  C   UNL     1       3.672  11.578  -0.415  1.00  0.00     0.023 C 
BRANCH  29  30
ATOM     30  C   UNL     1       4.627  12.455  -1.211  1.00  0.00     0.023 C 
BRANCH  30  31
ATOM     31  C   UNL     1       5.389  11.770  -2.337  1.00  0.00     0.116 C 
BRANCH  31  32
ATOM     32  N   UNL     1       4.536  11.169  -3.351  1.00  0.00    -0.352 N 
ATOM     33  C   UNL     1       4.553  11.334  -4.719  1.00  0.00     0.251 C 
ATOM     34  H   UNL     1       3.847  10.555  -3.010  1.00  0.00     0.163 HD
ATOM     35  O   UNL     1       3.707  10.794  -5.418  1.00  0.00    -0.269 OA
BRANCH  33  36
ATOM     36  C   UNL     1       5.573  12.210  -5.336  1.00  0.00     0.039 A 
ATOM     37  C   UNL     1       5.160  13.190  -6.243  1.00  0.00     0.014 A 
ATOM     38  C   UNL     1       6.920  12.098  -4.987  1.00  0.00     0.014 A 
ATOM     39  C   UNL     1       6.085  14.119  -6.725  1.00  0.00     0.010 A 
ATOM     40  C   UNL     1       7.822  13.072  -5.402  1.00  0.00     0.010 A 
ATOM     41  C   UNL     1       7.412  14.097  -6.270  1.00  0.00    -0.014 A 
BRANCH  41  42
ATOM     42  C   UNL     1       8.398  15.126  -6.690  1.00  0.00     0.031 A 
ATOM     43  C   UNL     1       9.612  14.718  -7.476  1.00  0.00     0.074 A 
ATOM     44  C   UNL     1       8.241  16.407  -6.302  1.00  0.00     0.049 A 
ATOM     45  N   UNL     1      10.649  15.433  -7.832  1.00  0.00    -0.248 NA
ATOM     46  C   UNL     1       9.684  13.308  -7.891  1.00  0.00     0.031 C 
ATOM     47  C   UNL     1       7.125  16.924  -5.508  1.00  0.00     0.029 A 
ATOM     48  N   UNL     1       9.034  17.509  -6.513  1.00  0.00    -0.354 N 
ATOM     49  C   UNL     1      11.498  14.559  -8.498  1.00  0.00     0.074 A 
ATOM     50  C   UNL     1      10.885  13.250  -8.446  1.00  0.00     0.031 C 
ATOM     51  C   UNL     1       7.293  18.243  -5.318  1.00  0.00     0.029 A 
ATOM     52  C   UNL     1       8.547  18.658  -5.939  1.00  0.00     0.049 A 
ATOM     53  H   UNL     1       9.873  17.478  -7.027  1.00  0.00     0.167 HD
ATOM     54  C   UNL     1      12.669  14.828  -9.121  1.00  0.00     0.037 A 
ATOM     55  C   UNL     1       9.061  19.903  -5.910  1.00  0.00     0.037 A 
ATOM     56  C   UNL     1      13.266  16.135  -9.194  1.00  0.00     0.049 A 
ATOM     57  C   UNL     1      10.376  20.170  -6.595  1.00  0.00     0.074 A 
ATOM     58  C   UNL     1      14.438  16.516  -9.823  1.00  0.00     0.029 A 
ATOM     59  N   UNL     1      12.727  17.279  -8.623  1.00  0.00    -0.354 N 
ATOM     60  N   UNL     1      11.148  19.343  -7.257  1.00  0.00    -0.248 NA
ATOM     61  C   UNL     1      10.888  21.546  -6.532  1.00  0.00     0.031 C 
ATOM     62  C   UNL     1      14.623  17.886  -9.608  1.00  0.00     0.029 A 
ATOM     63  C   UNL     1      13.546  18.365  -8.882  1.00  0.00     0.049 A 
ATOM     64  H   UNL     1      11.887  17.313  -8.110  1.00  0.00     0.167 HD
ATOM     65  C   UNL     1      12.212  20.104  -7.722  1.00  0.00     0.074 A 
ATOM     66  C   UNL     1      11.983  21.461  -7.273  1.00  0.00     0.031 C 
ATOM     67  C   UNL     1      13.283  19.715  -8.454  1.00  0.00     0.037 A 
BRANCH  54  68
ATOM     68  C   UNL     1      13.374  13.685  -9.790  1.00  0.00     0.064 A 
ATOM     69  C   UNL     1      12.865  13.097 -10.958  1.00  0.00     0.173 A 
ATOM     70  C   UNL     1      14.586  13.195  -9.283  1.00  0.00     0.173 A 
ATOM     71  F   UNL     1      11.701  13.521 -11.475  1.00  0.00    -0.203 F 
ATOM     72  C   UNL     1      13.528  12.042 -11.578  1.00  0.00     0.198 A 
ATOM     73  C   UNL     1      15.263  12.159  -9.923  1.00  0.00     0.198 A 
ATOM     74  F   UNL     1      15.120  13.725  -8.172  1.00  0.00    -0.203 F 
ATOM     75  F   UNL     1      12.997  11.464 -12.664  1.00  0.00    -0.200 F 
ATOM     76  C   UNL     1      14.730  11.579 -11.064  1.00  0.00     0.200 A 
ATOM     77  F   UNL     1      16.431  11.720  -9.433  1.00  0.00    -0.200 F 
ATOM     78  F   UNL     1      15.372  10.568 -11.666  1.00  0.00    -0.200 F 
ENDBRANCH  54  68
BRANCH  55  79
ATOM     79  C   UNL     1       8.327  21.005  -5.234  1.00  0.00     0.064 A 
ATOM     80  C   UNL     1       7.768  22.054  -5.978  1.00  0.00     0.173 A 
ATOM     81  C   UNL     1       8.197  21.054  -3.839  1.00  0.00     0.173 A 
ATOM     82  F   UNL     1       7.885  22.064  -7.314  1.00  0.00    -0.203 F 
ATOM     83  C   UNL     1       7.133  23.125  -5.350  1.00  0.00     0.198 A 
ATOM     84  C   UNL     1       7.537  22.111  -3.214  1.00  0.00     0.198 A 
ATOM     85  F   UNL     1       8.711  20.074  -3.081  1.00  0.00    -0.203 F 
ATOM     86  F   UNL     1       6.658  24.141  -6.083  1.00  0.00    -0.200 F 
ATOM     87  C   UNL     1       7.015  23.150  -3.969  1.00  0.00     0.200 A 
ATOM     88  F   UNL     1       7.415  22.127  -1.880  1.00  0.00    -0.200 F 
ATOM     89  F   UNL     1       6.410  24.182  -3.366  1.00  0.00    -0.200 F 
ENDBRANCH  55  79
BRANCH  67  90
ATOM     90  C   UNL     1      14.257  20.777  -8.871  1.00  0.00     0.064 A 
ATOM     91  C   UNL     1      15.143  21.365  -7.958  1.00  0.00     0.173 A 
ATOM     92  C   UNL     1      14.334  21.175 -10.215  1.00  0.00     0.173 A 
ATOM     93  F   UNL     1      15.098  21.029  -6.660  1.00  0.00    -0.203 F 
ATOM     94  C   UNL     1      16.057  22.331  -8.372  1.00  0.00     0.198 A 
ATOM     95  C   UNL     1      15.267  22.119 -10.629  1.00  0.00     0.198 A 
ATOM     96  F   UNL     1      13.511  20.636 -11.127  1.00  0.00    -0.203 F 
ATOM     97  F   UNL     1      16.866  22.912  -7.475  1.00  0.00    -0.200 F 
ATOM     98  C   UNL     1      16.124  22.701  -9.707  1.00  0.00     0.200 A 
ATOM     99  F   UNL     1      15.338  22.467 -11.922  1.00  0.00    -0.200 F 
ATOM    100  F   UNL     1      17.010  23.624 -10.104  1.00  0.00    -0.200 F 
ENDBRANCH  67  90
ENDBRANCH  41  42
ENDBRANCH  33  36
ENDBRANCH  31  32
ENDBRANCH  30  31
ENDBRANCH  29  30
ENDBRANCH   1  29
TORSDOF 16
