REMARK SMILES CCn1ncc(NC(=O)[C@@H]2CCCC[C@@H]2C(=O)NCCCCNC(=O)c2ccc(-c3c4nc(c(-c5c(F)c(F)c(F)c(F)c5F)c5ccc([nH]5)c(-c5c(F)c(F)c(F)c(F)c5F)c5nc(c(-c6c(F)c(F)c(F)c(F)c6F)c6ccc3[nH]6)C=C5)C=C4)cc2)c1C(=O)Nc1cnn(C)c1C
REMARK SMILES IDX 19 1 18 2 16 3 17 4 15 6 10 7 11 8 12 9 14 10 13 11 8 12
REMARK SMILES IDX 7 13 9 15 6 16 3 17 4 18 89 19 5 20 2 21 1 22 90 23 91 24
REMARK SMILES IDX 92 25 93 27 94 28 98 29 95 30 96 31 99 32 97 33 20 34 21 35
REMARK SMILES IDX 22 36 23 37 24 38 25 40 26 41 27 42 88 43 28 44 87 45 29 46
REMARK SMILES IDX 30 47 31 48 81 49 32 50 86 51 80 52 82 53 33 54 85 55 79 56
REMARK SMILES IDX 78 57 34 59 66 60 46 61 65 62 47 63 50 64 64 65 83 66 48 67
REMARK SMILES IDX 49 68 63 70 84 71 51 72 35 73 36 74 44 75 37 76 38 77 42 78
REMARK SMILES IDX 45 79 39 80 40 81 43 82 41 83 67 84 68 85 76 86 69 87 70 88
REMARK SMILES IDX 74 89 77 90 71 91 72 92 75 93 73 94 52 95 53 96 61 97 54 98
REMARK SMILES IDX 55 99 59 100 62 101 56 102 57 103 60 104 58 105
REMARK H PARENT 18 5 7 14 92 26 23 39 82 58 50 69
REMARK Flexibility Score: inf
ROOT
ATOM      1  C   UNL     1       2.401  -7.997  -0.099  1.00  0.00     0.116 C 
ENDROOT
BRANCH   1   2
ATOM      2  N   UNL     1       2.987  -6.691  -0.301  1.00  0.00    -0.356 N 
ATOM      3  C   UNL     1       2.336  -5.567  -0.721  1.00  0.00     0.223 C 
ATOM      4  O   UNL     1       3.010  -4.636  -1.157  1.00  0.00    -0.275 OA
ATOM      5  H   UNL     1       3.950  -6.603  -0.117  1.00  0.00     0.163 HD
BRANCH   3   6
ATOM      6  C   UNL     1       0.821  -5.503  -0.511  1.00  0.00     0.091 C 
ATOM      7  C   UNL     1       0.163  -4.301  -1.230  1.00  0.00     0.091 C 
ATOM      8  C   UNL     1       0.624  -3.031  -0.576  1.00  0.00     0.014 C 
ATOM      9  C   UNL     1       0.433  -2.957   0.917  1.00  0.00     0.001 C 
ATOM     10  C   UNL     1       0.554  -5.427   1.017  1.00  0.00     0.014 C 
ATOM     11  C   UNL     1       1.055  -4.124   1.629  1.00  0.00     0.001 C 
BRANCH   7  12
ATOM     12  C   UNL     1       0.298  -4.337  -2.755  1.00  0.00     0.228 C 
ATOM     13  N   UNL     1       0.233  -3.270  -3.612  1.00  0.00    -0.322 N 
ATOM     14  H   UNL     1      -0.035  -3.530  -4.524  1.00  0.00     0.170 HD
ATOM     15  O   UNL     1       0.411  -5.447  -3.304  1.00  0.00    -0.274 OA
BRANCH  13  16
ATOM     16  C   UNL     1       0.459  -1.896  -3.487  1.00  0.00     0.092 A 
ATOM     17  N   UNL     1       0.940   0.124  -2.852  1.00  0.00    -0.258 N 
ATOM     18  N   UNL     1       1.619  -0.003  -4.010  1.00  0.00    -0.178 NA
ATOM     19  C   UNL     1      -0.043  -0.842  -2.693  1.00  0.00     0.150 A 
ATOM     20  C   UNL     1       1.356  -1.250  -4.375  1.00  0.00     0.162 A 
BRANCH  17  21
ATOM     21  C   UNL     1       1.462   1.115  -1.933  1.00  0.00     0.142 C 
ATOM     22  C   UNL     1       2.286   0.503  -0.811  1.00  0.00     0.029 C 
ENDBRANCH  17  21
BRANCH  19  23
ATOM     23  C   UNL     1      -1.294  -0.789  -1.908  1.00  0.00     0.276 C 
ATOM     24  O   UNL     1      -2.314  -1.356  -2.305  1.00  0.00    -0.267 OA
ATOM     25  N   UNL     1      -1.250  -0.449  -0.559  1.00  0.00    -0.318 N 
ATOM     26  H   UNL     1      -1.348  -1.197   0.073  1.00  0.00     0.170 HD
BRANCH  25  27
ATOM     27  C   UNL     1      -1.087   0.794   0.008  1.00  0.00     0.082 A 
ATOM     28  C   UNL     1      -1.461   2.056  -0.489  1.00  0.00     0.161 A 
ATOM     29  C   UNL     1      -0.535   1.050   1.254  1.00  0.00     0.059 A 
ATOM     30  N   UNL     1      -1.008   3.048   0.278  1.00  0.00    -0.179 NA
ATOM     31  N   UNL     1      -0.360   2.415   1.274  1.00  0.00    -0.271 N 
ATOM     32  C   UNL     1      -0.021   0.181   2.345  1.00  0.00     0.068 C 
ATOM     33  C   UNL     1       0.564   3.175   2.088  1.00  0.00     0.174 C 
ENDBRANCH  25  27
ENDBRANCH  19  23
ENDBRANCH  13  16
ENDBRANCH   7  12
ENDBRANCH   3   6
ENDBRANCH   1   2
BRANCH   1  34
ATOM     34  C   UNL     1       2.408  -8.798  -1.394  1.00  0.00     0.023 C 
BRANCH  34  35
ATOM     35  C   UNL     1       3.800  -9.030  -1.997  1.00  0.00     0.023 C 
BRANCH  35  36
ATOM     36  C   UNL     1       4.819  -9.632  -1.036  1.00  0.00     0.116 C 
BRANCH  36  37
ATOM     37  N   UNL     1       4.359 -10.892  -0.461  1.00  0.00    -0.352 N 
ATOM     38  C   UNL     1       4.905 -11.611   0.576  1.00  0.00     0.251 C 
ATOM     39  H   UNL     1       3.552 -11.279  -0.870  1.00  0.00     0.163 HD
ATOM     40  O   UNL     1       4.657 -12.812   0.703  1.00  0.00    -0.269 OA
BRANCH  38  41
ATOM     41  C   UNL     1       5.776 -10.940   1.552  1.00  0.00     0.039 A 
ATOM     42  C   UNL     1       6.929 -11.564   2.031  1.00  0.00     0.014 A 
ATOM     43  C   UNL     1       5.417  -9.672   2.008  1.00  0.00     0.014 A 
ATOM     44  C   UNL     1       7.750 -10.871   2.916  1.00  0.00     0.010 A 
ATOM     45  C   UNL     1       6.275  -8.944   2.793  1.00  0.00     0.010 A 
ATOM     46  C   UNL     1       7.423  -9.554   3.280  1.00  0.00    -0.014 A 
BRANCH  46  47
ATOM     47  C   UNL     1       8.374  -8.734   4.019  1.00  0.00     0.031 A 
ATOM     48  C   UNL     1       9.672  -8.578   3.313  1.00  0.00     0.074 A 
ATOM     49  C   UNL     1       8.037  -8.000   5.102  1.00  0.00     0.049 A 
ATOM     50  N   UNL     1      10.818  -9.057   3.665  1.00  0.00    -0.248 NA
ATOM     51  C   UNL     1       9.671  -7.967   1.971  1.00  0.00     0.031 C 
ATOM     52  C   UNL     1       6.702  -7.824   5.683  1.00  0.00     0.029 A 
ATOM     53  N   UNL     1       8.802  -7.161   5.858  1.00  0.00    -0.354 N 
ATOM     54  C   UNL     1      11.725  -8.603   2.711  1.00  0.00     0.074 A 
ATOM     55  C   UNL     1      10.940  -8.147   1.597  1.00  0.00     0.031 C 
ATOM     56  C   UNL     1       6.711  -6.776   6.536  1.00  0.00     0.029 A 
ATOM     57  C   UNL     1       8.076  -6.304   6.682  1.00  0.00     0.049 A 
ATOM     58  H   UNL     1       9.786  -7.162   5.825  1.00  0.00     0.167 HD
ATOM     59  C   UNL     1      13.013  -8.344   3.070  1.00  0.00     0.037 A 
ATOM     60  C   UNL     1       8.560  -5.263   7.407  1.00  0.00     0.037 A 
ATOM     61  C   UNL     1      13.322  -8.990   4.327  1.00  0.00     0.049 A 
ATOM     62  C   UNL     1      10.019  -5.473   7.548  1.00  0.00     0.074 A 
ATOM     63  C   UNL     1      13.323 -10.288   4.798  1.00  0.00     0.029 A 
ATOM     64  N   UNL     1      13.321  -8.186   5.438  1.00  0.00    -0.354 N 
ATOM     65  N   UNL     1      10.552  -6.428   8.256  1.00  0.00    -0.248 NA
ATOM     66  C   UNL     1      10.893  -4.867   6.557  1.00  0.00     0.031 C 
ATOM     67  C   UNL     1      12.890 -10.195   6.157  1.00  0.00     0.029 A 
ATOM     68  C   UNL     1      12.721  -8.846   6.472  1.00  0.00     0.049 A 
ATOM     69  H   UNL     1      13.695  -7.277   5.483  1.00  0.00     0.167 HD
ATOM     70  C   UNL     1      11.632  -6.855   7.501  1.00  0.00     0.074 A 
ATOM     71  C   UNL     1      11.871  -5.776   6.545  1.00  0.00     0.031 C 
ATOM     72  C   UNL     1      12.016  -8.165   7.533  1.00  0.00     0.037 A 
BRANCH  59  73
ATOM     73  C   UNL     1      13.807  -7.138   2.586  1.00  0.00     0.064 A 
ATOM     74  C   UNL     1      15.123  -6.968   3.070  1.00  0.00     0.173 A 
ATOM     75  C   UNL     1      13.246  -5.996   1.971  1.00  0.00     0.173 A 
ATOM     76  F   UNL     1      15.764  -7.979   3.675  1.00  0.00    -0.203 F 
ATOM     77  C   UNL     1      15.765  -5.726   3.057  1.00  0.00     0.198 A 
ATOM     78  C   UNL     1      13.912  -4.772   1.914  1.00  0.00     0.198 A 
ATOM     79  F   UNL     1      11.998  -5.967   1.496  1.00  0.00    -0.203 F 
ATOM     80  F   UNL     1      16.947  -5.583   3.673  1.00  0.00    -0.200 F 
ATOM     81  C   UNL     1      15.153  -4.626   2.491  1.00  0.00     0.200 A 
ATOM     82  F   UNL     1      13.291  -3.713   1.374  1.00  0.00    -0.200 F 
ATOM     83  F   UNL     1      15.730  -3.419   2.545  1.00  0.00    -0.200 F 
ENDBRANCH  59  73
BRANCH  60  84
ATOM     84  C   UNL     1       7.923  -3.971   7.766  1.00  0.00     0.064 A 
ATOM     85  C   UNL     1       8.491  -3.131   8.742  1.00  0.00     0.173 A 
ATOM     86  C   UNL     1       6.926  -3.396   6.955  1.00  0.00     0.173 A 
ATOM     87  F   UNL     1       9.475  -3.583   9.533  1.00  0.00    -0.203 F 
ATOM     88  C   UNL     1       8.114  -1.789   8.870  1.00  0.00     0.198 A 
ATOM     89  C   UNL     1       6.547  -2.058   7.088  1.00  0.00     0.198 A 
ATOM     90  F   UNL     1       6.372  -4.089   5.951  1.00  0.00    -0.203 F 
ATOM     91  F   UNL     1       8.732  -1.003   9.763  1.00  0.00    -0.200 F 
ATOM     92  C   UNL     1       7.152  -1.250   8.033  1.00  0.00     0.200 A 
ATOM     93  F   UNL     1       5.639  -1.538   6.249  1.00  0.00    -0.200 F 
ATOM     94  F   UNL     1       6.840   0.051   8.107  1.00  0.00    -0.200 F 
ENDBRANCH  60  84
BRANCH  72  95
ATOM     95  C   UNL     1      11.509  -9.008   8.671  1.00  0.00     0.064 A 
ATOM     96  C   UNL     1      10.155  -9.288   8.925  1.00  0.00     0.173 A 
ATOM     97  C   UNL     1      12.459  -9.637   9.488  1.00  0.00     0.173 A 
ATOM     98  F   UNL     1       9.187  -8.808   8.134  1.00  0.00    -0.203 F 
ATOM     99  C   UNL     1       9.774 -10.114   9.983  1.00  0.00     0.198 A 
ATOM    100  C   UNL     1      12.079 -10.493  10.515  1.00  0.00     0.198 A 
ATOM    101  F   UNL     1      13.769  -9.446   9.263  1.00  0.00    -0.203 F 
ATOM    102  F   UNL     1       8.475 -10.342  10.224  1.00  0.00    -0.200 F 
ATOM    103  C   UNL     1      10.737 -10.719  10.773  1.00  0.00     0.200 A 
ATOM    104  F   UNL     1      13.016 -11.113  11.245  1.00  0.00    -0.200 F 
ATOM    105  F   UNL     1      10.374 -11.539  11.769  1.00  0.00    -0.200 F 
ENDBRANCH  72  95
ENDBRANCH  46  47
ENDBRANCH  38  41
ENDBRANCH  36  37
ENDBRANCH  35  36
ENDBRANCH  34  35
ENDBRANCH   1  34
TORSDOF 16
