REMARK SMILES O=C(NCCCCNC(=O)c1ccc(-c2c3nc(c(-c4c(F)c(F)c(F)c(F)c4F)c4ccc([nH]4)c(-c4c(F)c(F)c(F)c(F)c4F)c4nc(c(-c5c(F)c(F)c(F)c(F)c5F)c5ccc2[nH]5)C=C4)C=C3)cc1)C1=CCc2ccccc21
REMARK SMILES IDX 6 1 5 2 4 3 3 4 1 5 2 6 74 8 75 9 82 10 76 11 77 12 81 13
REMARK SMILES IDX 78 14 80 15 79 16 7 17 8 18 9 19 10 21 11 22 12 23 73 24
REMARK SMILES IDX 13 25 72 26 14 27 15 28 16 29 66 30 17 31 71 32 65 33 67 34
REMARK SMILES IDX 18 35 70 36 64 37 63 38 19 40 51 41 31 42 50 43 32 44 35 45
REMARK SMILES IDX 49 46 68 47 33 48 34 49 48 51 69 52 36 53 20 54 21 55 29 56
REMARK SMILES IDX 22 57 23 58 27 59 30 60 24 61 25 62 28 63 26 64 52 65 53 66
REMARK SMILES IDX 61 67 54 68 55 69 59 70 62 71 56 72 57 73 60 74 58 75 37 76
REMARK SMILES IDX 38 77 46 78 39 79 40 80 44 81 47 82 41 83 42 84 45 85 43 86
REMARK H PARENT 3 7 8 20 67 39 35 50
REMARK Flexibility Score: inf
ROOT
ATOM      1  C   UNL     1       4.195  -3.403  -1.352  1.00  0.00     0.023 C 
ENDROOT
BRANCH   1   2
ATOM      2  C   UNL     1       4.210  -1.966  -0.823  1.00  0.00     0.023 C 
BRANCH   2   3
ATOM      3  C   UNL     1       3.541  -0.949  -1.756  1.00  0.00     0.116 C 
BRANCH   3   4
ATOM      4  N   UNL     1       2.641  -0.017  -1.088  1.00  0.00    -0.352 N 
ATOM      5  O   UNL     1       2.033   1.778   0.142  1.00  0.00    -0.269 OA
ATOM      6  C   UNL     1       2.926   1.053  -0.283  1.00  0.00     0.251 C 
ATOM      7  H   UNL     1       1.682  -0.182  -1.239  1.00  0.00     0.163 HD
BRANCH   6   8
ATOM      8  C   UNL     1       4.327   1.221   0.128  1.00  0.00     0.043 C 
ATOM      9  C   UNL     1       4.766   0.674   1.277  1.00  0.00    -0.008 C 
ATOM     10  C   UNL     1       5.479   1.525  -0.708  1.00  0.00    -0.010 A 
ATOM     11  C   UNL     1       6.261   0.497   1.282  1.00  0.00     0.064 C 
ATOM     12  C   UNL     1       6.618   1.001  -0.084  1.00  0.00    -0.036 A 
ATOM     13  C   UNL     1       5.557   2.139  -1.947  1.00  0.00     0.009 A 
ATOM     14  C   UNL     1       7.837   0.969  -0.737  1.00  0.00     0.004 A 
ATOM     15  C   UNL     1       6.792   2.145  -2.599  1.00  0.00     0.001 A 
ATOM     16  C   UNL     1       7.914   1.536  -2.012  1.00  0.00     0.000 A 
ENDBRANCH   6   8
ENDBRANCH   3   4
ENDBRANCH   2   3
ENDBRANCH   1   2
BRANCH   1  17
ATOM     17  C   UNL     1       4.754  -3.597  -2.756  1.00  0.00     0.116 C 
BRANCH  17  18
ATOM     18  N   UNL     1       6.189  -3.405  -2.878  1.00  0.00    -0.352 N 
ATOM     19  C   UNL     1       7.005  -3.935  -3.859  1.00  0.00     0.251 C 
ATOM     20  H   UNL     1       6.622  -2.843  -2.196  1.00  0.00     0.163 HD
ATOM     21  O   UNL     1       8.222  -3.787  -3.830  1.00  0.00    -0.269 OA
BRANCH  19  22
ATOM     22  C   UNL     1       6.377  -4.739  -4.933  1.00  0.00     0.039 A 
ATOM     23  C   UNL     1       6.776  -6.065  -5.121  1.00  0.00     0.014 A 
ATOM     24  C   UNL     1       5.321  -4.208  -5.677  1.00  0.00     0.014 A 
ATOM     25  C   UNL     1       6.050  -6.889  -5.988  1.00  0.00     0.010 A 
ATOM     26  C   UNL     1       4.559  -5.046  -6.485  1.00  0.00     0.010 A 
ATOM     27  C   UNL     1       4.904  -6.399  -6.637  1.00  0.00    -0.014 A 
BRANCH  27  28
ATOM     28  C   UNL     1       4.033  -7.271  -7.470  1.00  0.00     0.031 A 
ATOM     29  C   UNL     1       3.857  -6.969  -8.932  1.00  0.00     0.074 A 
ATOM     30  C   UNL     1       3.310  -8.253  -6.894  1.00  0.00     0.049 A 
ATOM     31  N   UNL     1       3.012  -7.482  -9.790  1.00  0.00    -0.248 NA
ATOM     32  C   UNL     1       4.723  -5.922  -9.497  1.00  0.00     0.031 C 
ATOM     33  C   UNL     1       3.350  -8.618  -5.477  1.00  0.00     0.029 A 
ATOM     34  N   UNL     1       2.374  -9.107  -7.427  1.00  0.00    -0.354 N 
ATOM     35  C   UNL     1       3.216  -6.793 -10.978  1.00  0.00     0.074 A 
ATOM     36  C   UNL     1       4.244  -5.808 -10.727  1.00  0.00     0.031 C 
ATOM     37  C   UNL     1       2.486  -9.622  -5.255  1.00  0.00     0.029 A 
ATOM     38  C   UNL     1       1.799  -9.945  -6.502  1.00  0.00     0.049 A 
ATOM     39  H   UNL     1       2.138  -9.117  -8.383  1.00  0.00     0.167 HD
ATOM     40  C   UNL     1       2.609  -6.978 -12.175  1.00  0.00     0.037 A 
ATOM     41  C   UNL     1       0.817 -10.858  -6.641  1.00  0.00     0.037 A 
ATOM     42  C   UNL     1       1.634  -8.001 -12.441  1.00  0.00     0.049 A 
ATOM     43  C   UNL     1       0.189 -11.066  -7.995  1.00  0.00     0.074 A 
ATOM     44  C   UNL     1       1.029  -8.321 -13.644  1.00  0.00     0.029 A 
ATOM     45  N   UNL     1       1.130  -8.875 -11.492  1.00  0.00    -0.354 N 
ATOM     46  N   UNL     1       0.440 -10.454  -9.126  1.00  0.00    -0.248 NA
ATOM     47  C   UNL     1      -0.857 -12.096  -8.091  1.00  0.00     0.031 C 
ATOM     48  C   UNL     1       0.135  -9.371 -13.417  1.00  0.00     0.029 A 
ATOM     49  C   UNL     1       0.212  -9.729 -12.081  1.00  0.00     0.049 A 
ATOM     50  H   UNL     1       1.385  -8.888 -10.542  1.00  0.00     0.167 HD
ATOM     51  C   UNL     1      -0.385 -11.048 -10.072  1.00  0.00     0.074 A 
ATOM     52  C   UNL     1      -1.143 -12.072  -9.386  1.00  0.00     0.031 C 
ATOM     53  C   UNL     1      -0.503 -10.769 -11.392  1.00  0.00     0.037 A 
BRANCH  40  54
ATOM     54  C   UNL     1       2.986  -6.062 -13.300  1.00  0.00     0.064 A 
ATOM     55  C   UNL     1       4.225  -6.167 -13.949  1.00  0.00     0.173 A 
ATOM     56  C   UNL     1       2.071  -5.112 -13.777  1.00  0.00     0.173 A 
ATOM     57  F   UNL     1       5.137  -7.052 -13.523  1.00  0.00    -0.203 F 
ATOM     58  C   UNL     1       4.540  -5.342 -15.025  1.00  0.00     0.198 A 
ATOM     59  C   UNL     1       2.379  -4.307 -14.870  1.00  0.00     0.198 A 
ATOM     60  F   UNL     1       0.870  -4.977 -13.194  1.00  0.00    -0.203 F 
ATOM     61  F   UNL     1       5.742  -5.436 -15.610  1.00  0.00    -0.200 F 
ATOM     62  C   UNL     1       3.614  -4.420 -15.491  1.00  0.00     0.200 A 
ATOM     63  F   UNL     1       1.478  -3.425 -15.326  1.00  0.00    -0.200 F 
ATOM     64  F   UNL     1       3.914  -3.636 -16.536  1.00  0.00    -0.200 F 
ENDBRANCH  40  54
BRANCH  41  65
ATOM     65  C   UNL     1       0.363 -11.660  -5.474  1.00  0.00     0.064 A 
ATOM     66  C   UNL     1       0.626 -13.036  -5.404  1.00  0.00     0.173 A 
ATOM     67  C   UNL     1      -0.374 -11.082  -4.430  1.00  0.00     0.173 A 
ATOM     68  F   UNL     1       1.306 -13.637  -6.390  1.00  0.00    -0.203 F 
ATOM     69  C   UNL     1       0.141 -13.809  -4.351  1.00  0.00     0.198 A 
ATOM     70  C   UNL     1      -0.834 -11.852  -3.363  1.00  0.00     0.198 A 
ATOM     71  F   UNL     1      -0.649  -9.770  -4.448  1.00  0.00    -0.203 F 
ATOM     72  F   UNL     1       0.357 -15.131  -4.340  1.00  0.00    -0.200 F 
ATOM     73  C   UNL     1      -0.586 -13.216  -3.330  1.00  0.00     0.200 A 
ATOM     74  F   UNL     1      -1.528 -11.274  -2.373  1.00  0.00    -0.200 F 
ATOM     75  F   UNL     1      -1.058 -13.961  -2.321  1.00  0.00    -0.200 F 
ENDBRANCH  41  65
BRANCH  53  76
ATOM     76  C   UNL     1      -1.437 -11.618 -12.201  1.00  0.00     0.064 A 
ATOM     77  C   UNL     1      -2.827 -11.465 -12.120  1.00  0.00     0.173 A 
ATOM     78  C   UNL     1      -0.926 -12.547 -13.120  1.00  0.00     0.173 A 
ATOM     79  F   UNL     1      -3.362 -10.600 -11.246  1.00  0.00    -0.203 F 
ATOM     80  C   UNL     1      -3.675 -12.223 -12.924  1.00  0.00     0.198 A 
ATOM     81  C   UNL     1      -1.775 -13.285 -13.938  1.00  0.00     0.198 A 
ATOM     82  F   UNL     1       0.399 -12.724 -13.236  1.00  0.00    -0.203 F 
ATOM     83  F   UNL     1      -5.003 -12.084 -12.811  1.00  0.00    -0.200 F 
ATOM     84  C   UNL     1      -3.149 -13.124 -13.838  1.00  0.00     0.200 A 
ATOM     85  F   UNL     1      -1.264 -14.146 -14.829  1.00  0.00    -0.200 F 
ATOM     86  F   UNL     1      -3.967 -13.842 -14.620  1.00  0.00    -0.200 F 
ENDBRANCH  53  76
ENDBRANCH  27  28
ENDBRANCH  19  22
ENDBRANCH  17  18
ENDBRANCH   1  17
TORSDOF 11
