REMARK SMILES C[C@@H]1CN(S(=O)(=O)c2cccc(C(=O)N3CCC[C@@H]3C(=O)NCCCCNC(=O)c3ccc(-c4c5nc(c(-c6c(F)c(F)c(F)c(F)c6F)c6ccc([nH]6)c(-c6c(F)c(F)c(F)c(F)c6F)c6nc(c(-c7c(F)c(F)c(F)c(F)c7F)c7ccc4[nH]7)C=C6)C=C5)cc3)c2)C[C@H](C)O1
REMARK SMILES IDX 23 1 22 2 20 3 21 4 19 6 15 7 16 8 17 9 18 10 13 11 14 12
REMARK SMILES IDX 12 13 8 14 9 15 93 16 10 17 11 18 5 19 6 20 7 21 4 22 1 23
REMARK SMILES IDX 2 24 3 25 97 26 95 27 94 28 96 29 24 30 25 31 26 32 27 33
REMARK SMILES IDX 28 34 29 36 30 37 31 38 92 39 32 40 91 41 33 42 34 43 35 44
REMARK SMILES IDX 85 45 36 46 90 47 84 48 86 49 37 50 89 51 83 52 82 53 38 55
REMARK SMILES IDX 70 56 50 57 69 58 51 59 54 60 68 61 87 62 52 63 53 64 67 66
REMARK SMILES IDX 88 67 55 68 39 69 40 70 48 71 41 72 42 73 46 74 49 75 43 76
REMARK SMILES IDX 44 77 47 78 45 79 71 80 72 81 80 82 73 83 74 84 78 85 81 86
REMARK SMILES IDX 75 87 76 88 79 89 77 90 56 91 57 92 65 93 58 94 59 95 63 96
REMARK SMILES IDX 66 97 60 98 61 99 64 100 62 101
REMARK H PARENT 22 5 27 35 86 54 54 65
REMARK Flexibility Score: inf
ROOT
ATOM      1  C   UNL     1      -0.620  -2.633   0.804  1.00  0.00     0.116 C 
ENDROOT
BRANCH   1   2
ATOM      2  N   UNL     1      -0.519  -4.046   1.049  1.00  0.00    -0.354 N 
ATOM      3  C   UNL     1      -1.037  -4.784   2.074  1.00  0.00     0.242 C 
ATOM      4  O   UNL     1      -0.636  -5.949   2.171  1.00  0.00    -0.273 OA
ATOM      5  H   UNL     1      -0.004  -4.555   0.382  1.00  0.00     0.163 HD
BRANCH   3   6
ATOM      6  C   UNL     1      -1.908  -4.166   3.195  1.00  0.00     0.174 C 
ATOM      7  N   UNL     1      -2.840  -3.087   2.866  1.00  0.00    -0.327 N 
ATOM      8  C   UNL     1      -3.070  -2.308   4.068  1.00  0.00     0.121 C 
ATOM      9  C   UNL     1      -1.668  -2.179   4.624  1.00  0.00     0.024 C 
ATOM     10  C   UNL     1      -1.017  -3.529   4.285  1.00  0.00     0.037 C 
BRANCH   7  11
ATOM     11  C   UNL     1      -3.766  -3.246   1.854  1.00  0.00     0.254 C 
ATOM     12  O   UNL     1      -4.172  -4.351   1.510  1.00  0.00    -0.269 OA
BRANCH  11  13
ATOM     13  C   UNL     1      -4.040  -2.046   0.985  1.00  0.00     0.041 A 
ATOM     14  C   UNL     1      -3.687   0.279   0.338  1.00  0.00     0.083 A 
ATOM     15  C   UNL     1      -4.347   0.049  -0.872  1.00  0.00     0.022 A 
ATOM     16  C   UNL     1      -3.534  -0.765   1.255  1.00  0.00     0.035 A 
ATOM     17  C   UNL     1      -4.860  -1.220  -1.152  1.00  0.00     0.002 A 
ATOM     18  C   UNL     1      -4.713  -2.258  -0.227  1.00  0.00     0.014 A 
BRANCH  14  19
ATOM     19  S   UNL     1      -3.358   1.950   0.870  1.00  0.00     0.243 S 
ATOM     20  O   UNL     1      -3.873   2.048   2.221  1.00  0.00    -0.207 OA
ATOM     21  O   UNL     1      -3.868   2.826  -0.166  1.00  0.00    -0.207 OA
BRANCH  19  22
ATOM     22  N   UNL     1      -1.629   2.174   0.968  1.00  0.00    -0.193 NA
ATOM     23  C   UNL     1       1.587   1.376   1.532  1.00  0.00     0.040 C 
ATOM     24  C   UNL     1       0.486   1.975   2.402  1.00  0.00     0.130 C 
ATOM     25  C   UNL     1      -0.959   1.494   2.124  1.00  0.00     0.134 C 
ATOM     26  O   UNL     1       0.598   3.398   2.457  1.00  0.00    -0.373 OA
ATOM     27  C   UNL     1       0.061   4.084   1.324  1.00  0.00     0.130 C 
ATOM     28  C   UNL     1      -1.379   3.671   1.011  1.00  0.00     0.134 C 
ATOM     29  C   UNL     1       0.995   4.071   0.121  1.00  0.00     0.040 C 
ENDBRANCH  19  22
ENDBRANCH  14  19
ENDBRANCH  11  13
ENDBRANCH   7  11
ENDBRANCH   3   6
ENDBRANCH   1   2
BRANCH   1  30
ATOM     30  C   UNL     1       0.739  -1.966   0.714  1.00  0.00     0.023 C 
BRANCH  30  31
ATOM     31  C   UNL     1       1.337  -1.805  -0.676  1.00  0.00     0.023 C 
BRANCH  31  32
ATOM     32  C   UNL     1       0.422  -1.264  -1.771  1.00  0.00     0.116 C 
BRANCH  32  33
ATOM     33  N   UNL     1      -0.239   0.003  -1.479  1.00  0.00    -0.352 N 
ATOM     34  C   UNL     1      -0.251   1.178  -2.197  1.00  0.00     0.251 C 
ATOM     35  H   UNL     1      -0.755   0.021  -0.641  1.00  0.00     0.163 HD
ATOM     36  O   UNL     1      -0.958   2.123  -1.864  1.00  0.00    -0.269 OA
BRANCH  34  37
ATOM     37  C   UNL     1       0.627   1.346  -3.361  1.00  0.00     0.039 A 
ATOM     38  C   UNL     1       1.466   2.466  -3.421  1.00  0.00     0.014 A 
ATOM     39  C   UNL     1       0.615   0.408  -4.388  1.00  0.00     0.014 A 
ATOM     40  C   UNL     1       2.369   2.599  -4.472  1.00  0.00     0.010 A 
ATOM     41  C   UNL     1       1.563   0.498  -5.392  1.00  0.00     0.010 A 
ATOM     42  C   UNL     1       2.442   1.593  -5.439  1.00  0.00    -0.014 A 
BRANCH  42  43
ATOM     43  C   UNL     1       3.363   1.664  -6.589  1.00  0.00     0.031 A 
ATOM     44  C   UNL     1       2.759   1.779  -7.953  1.00  0.00     0.074 A 
ATOM     45  C   UNL     1       4.679   1.463  -6.410  1.00  0.00     0.049 A 
ATOM     46  N   UNL     1       3.277   1.500  -9.117  1.00  0.00    -0.248 NA
ATOM     47  C   UNL     1       1.351   2.210  -7.999  1.00  0.00     0.031 C 
ATOM     48  C   UNL     1       5.354   1.344  -5.117  1.00  0.00     0.029 A 
ATOM     49  N   UNL     1       5.677   1.271  -7.329  1.00  0.00    -0.354 N 
ATOM     50  C   UNL     1       2.243   1.664 -10.028  1.00  0.00     0.074 A 
ATOM     51  C   UNL     1       1.065   2.044  -9.281  1.00  0.00     0.031 C 
ATOM     52  C   UNL     1       6.654   1.081  -5.325  1.00  0.00     0.029 A 
ATOM     53  C   UNL     1       6.886   0.955  -6.761  1.00  0.00     0.049 A 
ATOM     54  H   UNL     1       5.540   1.352  -8.301  1.00  0.00     0.167 HD
ATOM     55  C   UNL     1       2.286   1.505 -11.371  1.00  0.00     0.037 A 
ATOM     56  C   UNL     1       8.035   0.566  -7.344  1.00  0.00     0.037 A 
ATOM     57  C   UNL     1       3.485   1.163 -12.085  1.00  0.00     0.049 A 
ATOM     58  C   UNL     1       8.065   0.422  -8.842  1.00  0.00     0.074 A 
ATOM     59  C   UNL     1       3.672   1.017 -13.446  1.00  0.00     0.029 A 
ATOM     60  N   UNL     1       4.714   0.929 -11.480  1.00  0.00    -0.354 N 
ATOM     61  N   UNL     1       7.090   0.576  -9.707  1.00  0.00    -0.248 NA
ATOM     62  C   UNL     1       9.349   0.046  -9.445  1.00  0.00     0.031 C 
ATOM     63  C   UNL     1       5.011   0.669 -13.664  1.00  0.00     0.029 A 
ATOM     64  C   UNL     1       5.665   0.638 -12.441  1.00  0.00     0.049 A 
ATOM     65  H   UNL     1       4.883   0.965 -10.511  1.00  0.00     0.167 HD
ATOM     66  C   UNL     1       7.645   0.340 -10.956  1.00  0.00     0.074 A 
ATOM     67  C   UNL     1       9.047   0.043 -10.736  1.00  0.00     0.031 C 
ATOM     68  C   UNL     1       7.055   0.364 -12.177  1.00  0.00     0.037 A 
BRANCH  55  69
ATOM     69  C   UNL     1       1.004   1.682 -12.128  1.00  0.00     0.064 A 
ATOM     70  C   UNL     1       0.390   2.938 -12.259  1.00  0.00     0.173 A 
ATOM     71  C   UNL     1       0.372   0.580 -12.723  1.00  0.00     0.173 A 
ATOM     72  F   UNL     1       0.941   4.020 -11.690  1.00  0.00    -0.203 F 
ATOM     73  C   UNL     1      -0.824   3.076 -12.927  1.00  0.00     0.198 A 
ATOM     74  C   UNL     1      -0.826   0.728 -13.417  1.00  0.00     0.198 A 
ATOM     75  F   UNL     1       0.913  -0.644 -12.626  1.00  0.00    -0.203 F 
ATOM     76  F   UNL     1      -1.421   4.275 -12.985  1.00  0.00    -0.200 F 
ATOM     77  C   UNL     1      -1.428   1.973 -13.510  1.00  0.00     0.200 A 
ATOM     78  F   UNL     1      -1.405  -0.339 -13.986  1.00  0.00    -0.200 F 
ATOM     79  F   UNL     1      -2.597   2.108 -14.151  1.00  0.00    -0.200 F 
ENDBRANCH  55  69
BRANCH  56  80
ATOM     80  C   UNL     1       9.236   0.289  -6.515  1.00  0.00     0.064 A 
ATOM     81  C   UNL     1      10.335   1.159  -6.539  1.00  0.00     0.173 A 
ATOM     82  C   UNL     1       9.310  -0.830  -5.674  1.00  0.00     0.173 A 
ATOM     83  F   UNL     1      10.318   2.234  -7.341  1.00  0.00    -0.203 F 
ATOM     84  C   UNL     1      11.468   0.912  -5.767  1.00  0.00     0.198 A 
ATOM     85  C   UNL     1      10.434  -1.063  -4.882  1.00  0.00     0.198 A 
ATOM     86  F   UNL     1       8.283  -1.690  -5.607  1.00  0.00    -0.203 F 
ATOM     87  F   UNL     1      12.518   1.741  -5.838  1.00  0.00    -0.200 F 
ATOM     88  C   UNL     1      11.514  -0.196  -4.934  1.00  0.00     0.200 A 
ATOM     89  F   UNL     1      10.468  -2.127  -4.067  1.00  0.00    -0.200 F 
ATOM     90  F   UNL     1      12.601  -0.428  -4.185  1.00  0.00    -0.200 F 
ENDBRANCH  56  80
BRANCH  68  91
ATOM     91  C   UNL     1       7.935   0.104 -13.361  1.00  0.00     0.064 A 
ATOM     92  C   UNL     1       8.379  -1.187 -13.675  1.00  0.00     0.173 A 
ATOM     93  C   UNL     1       8.291   1.156 -14.218  1.00  0.00     0.173 A 
ATOM     94  F   UNL     1       8.076  -2.219 -12.873  1.00  0.00    -0.203 F 
ATOM     95  C   UNL     1       9.165  -1.415 -14.800  1.00  0.00     0.198 A 
ATOM     96  C   UNL     1       9.055   0.920 -15.356  1.00  0.00     0.198 A 
ATOM     97  F   UNL     1       7.883   2.407 -13.959  1.00  0.00    -0.203 F 
ATOM     98  F   UNL     1       9.611  -2.650 -15.065  1.00  0.00    -0.200 F 
ATOM     99  C   UNL     1       9.495  -0.363 -15.643  1.00  0.00     0.200 A 
ATOM    100  F   UNL     1       9.363   1.935 -16.176  1.00  0.00    -0.200 F 
ATOM    101  F   UNL     1      10.244  -0.586 -16.732  1.00  0.00    -0.200 F 
ENDBRANCH  68  91
ENDBRANCH  42  43
ENDBRANCH  34  37
ENDBRANCH  32  33
ENDBRANCH  31  32
ENDBRANCH  30  31
ENDBRANCH   1  30
TORSDOF 15
