REMARK SMILES CC1=C(CC(=O)NCCCCNC(=O)c2ccc(-c3c4nc(c(-c5c(F)c(F)c(F)c(F)c5F)c5ccc([nH]5)c(-c5c(F)c(F)c(F)c(F)c5F)c5nc(c(-c6c(F)c(F)c(F)c(F)c6F)c6ccc3[nH]6)C=C5)C=C4)cc2)c2cc(F)ccc2/C1=C\c1ccc([S@@+](C)[O-])cc1
REMARK SMILES IDX 9 1 8 2 7 3 5 4 6 5 4 7 3 8 1 9 2 10 85 11 78 12 84 13 86 14
REMARK SMILES IDX 79 15 83 16 80 17 82 18 81 19 87 20 88 21 95 22 89 23 94 24
REMARK SMILES IDX 90 25 91 26 92 27 93 28 10 29 11 30 12 31 13 32 14 34 15 35
REMARK SMILES IDX 16 36 77 37 17 38 76 39 18 40 19 41 20 42 70 43 21 44 75 45
REMARK SMILES IDX 69 46 71 47 22 48 74 49 68 50 67 51 23 53 55 54 35 55 54 56
REMARK SMILES IDX 36 57 39 58 53 59 72 60 37 61 38 62 52 64 73 65 40 66 24 67
REMARK SMILES IDX 25 68 33 69 26 70 27 71 31 72 34 73 28 74 29 75 32 76 30 77
REMARK SMILES IDX 56 78 57 79 65 80 58 81 59 82 63 83 66 84 60 85 61 86 64 87
REMARK SMILES IDX 62 88 41 89 42 90 50 91 43 92 44 93 48 94 51 95 45 96 46 97
REMARK SMILES IDX 49 98 47 99
REMARK H PARENT 7 6 12 33 71 52 39 63
REMARK Flexibility Score: inf
ROOT
ATOM      1  C   UNL     1      -2.127  -2.099   0.835  1.00  0.00     0.023 C 
ENDROOT
BRANCH   1   2
ATOM      2  C   UNL     1      -1.006  -2.250   1.864  1.00  0.00     0.116 C 
BRANCH   2   3
ATOM      3  N   UNL     1      -0.409  -3.568   1.839  1.00  0.00    -0.356 N 
ATOM      4  C   UNL     1       0.743  -3.975   1.230  1.00  0.00     0.224 C 
ATOM      5  O   UNL     1       1.064  -5.161   1.332  1.00  0.00    -0.275 OA
ATOM      6  H   UNL     1      -0.901  -4.267   2.327  1.00  0.00     0.163 HD
BRANCH   4   7
ATOM      7  C   UNL     1       1.624  -2.978   0.477  1.00  0.00     0.136 C 
BRANCH   7   8
ATOM      8  C   UNL     1       0.993  -2.441  -0.767  1.00  0.00    -0.027 C 
ATOM      9  C   UNL     1       1.175   0.068  -0.365  1.00  0.00     0.045 C 
ATOM     10  C   UNL     1       0.769  -1.153  -1.127  1.00  0.00    -0.039 C 
ATOM     11  C   UNL     1       0.062  -1.121  -2.419  1.00  0.00    -0.014 C 
ATOM     12  C   UNL     1       0.556  -3.303  -1.881  1.00  0.00    -0.011 A 
ATOM     13  C   UNL     1       0.034  -2.510  -2.919  1.00  0.00    -0.010 A 
ATOM     14  C   UNL     1      -0.514  -0.027  -2.958  1.00  0.00     0.017 C 
ATOM     15  C   UNL     1       0.641  -4.683  -2.018  1.00  0.00     0.048 A 
ATOM     16  C   UNL     1      -0.348  -3.089  -4.123  1.00  0.00     0.012 A 
ATOM     17  C   UNL     1       0.203  -5.256  -3.208  1.00  0.00     0.123 A 
ATOM     18  C   UNL     1      -0.278  -4.476  -4.258  1.00  0.00     0.040 A 
ATOM     19  F   UNL     1       0.264  -6.586  -3.358  1.00  0.00    -0.207 F 
BRANCH  14  20
ATOM     20  C   UNL     1      -1.284   0.010  -4.205  1.00  0.00    -0.025 A 
ATOM     21  C   UNL     1      -2.521  -0.636  -4.319  1.00  0.00     0.013 A 
ATOM     22  C   UNL     1      -0.721   0.620  -5.328  1.00  0.00     0.013 A 
ATOM     23  C   UNL     1      -3.124  -0.783  -5.574  1.00  0.00     0.061 A 
ATOM     24  C   UNL     1      -1.336   0.493  -6.575  1.00  0.00     0.061 A 
ATOM     25  C   UNL     1      -2.520  -0.242  -6.716  1.00  0.00     0.152 A 
BRANCH  25  26
ATOM     26  S   UNL     1      -3.134  -0.626  -8.376  1.00  0.00    -0.018 S 
ATOM     27  C   UNL     1      -4.869  -0.180  -8.178  1.00  0.00     0.346 C 
ATOM     28  O   UNL     1      -2.478   0.409  -9.358  1.00  0.00    -0.612 OA
ENDBRANCH  25  26
ENDBRANCH  14  20
ENDBRANCH   7   8
ENDBRANCH   4   7
ENDBRANCH   2   3
ENDBRANCH   1   2
BRANCH   1  29
ATOM     29  C   UNL     1      -3.395  -2.898   1.138  1.00  0.00     0.023 C 
BRANCH  29  30
ATOM     30  C   UNL     1      -4.047  -2.600   2.481  1.00  0.00     0.116 C 
BRANCH  30  31
ATOM     31  N   UNL     1      -4.439  -1.208   2.653  1.00  0.00    -0.352 N 
ATOM     32  C   UNL     1      -5.476  -0.704   3.407  1.00  0.00     0.251 C 
ATOM     33  H   UNL     1      -3.895  -0.544   2.170  1.00  0.00     0.163 HD
ATOM     34  O   UNL     1      -5.739   0.494   3.388  1.00  0.00    -0.269 OA
BRANCH  32  35
ATOM     35  C   UNL     1      -6.311  -1.637   4.192  1.00  0.00     0.039 A 
ATOM     36  C   UNL     1      -5.718  -2.611   4.997  1.00  0.00     0.014 A 
ATOM     37  C   UNL     1      -7.700  -1.590   4.048  1.00  0.00     0.014 A 
ATOM     38  C   UNL     1      -6.494  -3.649   5.497  1.00  0.00     0.010 A 
ATOM     39  C   UNL     1      -8.489  -2.591   4.622  1.00  0.00     0.010 A 
ATOM     40  C   UNL     1      -7.884  -3.666   5.293  1.00  0.00    -0.014 A 
BRANCH  40  41
ATOM     41  C   UNL     1      -8.667  -4.846   5.741  1.00  0.00     0.031 A 
ATOM     42  C   UNL     1      -9.316  -5.760   4.736  1.00  0.00     0.074 A 
ATOM     43  C   UNL     1      -8.714  -5.149   7.052  1.00  0.00     0.049 A 
ATOM     44  N   UNL     1      -9.984  -6.869   4.937  1.00  0.00    -0.248 NA
ATOM     45  C   UNL     1      -9.204  -5.381   3.318  1.00  0.00     0.031 C 
ATOM     46  C   UNL     1      -8.107  -4.354   8.120  1.00  0.00     0.029 A 
ATOM     47  N   UNL     1      -9.263  -6.223   7.705  1.00  0.00    -0.354 N 
ATOM     48  C   UNL     1     -10.383  -7.308   3.681  1.00  0.00     0.074 A 
ATOM     49  C   UNL     1      -9.912  -6.332   2.723  1.00  0.00     0.031 C 
ATOM     50  C   UNL     1      -8.258  -5.000   9.285  1.00  0.00     0.029 A 
ATOM     51  C   UNL     1      -9.020  -6.224   9.056  1.00  0.00     0.049 A 
ATOM     52  H   UNL     1      -9.781  -6.926   7.249  1.00  0.00     0.167 HD
ATOM     53  C   UNL     1     -11.064  -8.432   3.354  1.00  0.00     0.037 A 
ATOM     54  C   UNL     1      -9.372  -7.111  10.005  1.00  0.00     0.037 A 
ATOM     55  C   UNL     1     -11.505  -9.421   4.301  1.00  0.00     0.049 A 
ATOM     56  C   UNL     1     -10.169  -8.324   9.622  1.00  0.00     0.074 A 
ATOM     57  C   UNL     1     -12.173 -10.609   4.060  1.00  0.00     0.029 A 
ATOM     58  N   UNL     1     -11.317  -9.339   5.673  1.00  0.00    -0.354 N 
ATOM     59  N   UNL     1     -10.540  -8.726   8.431  1.00  0.00    -0.248 NA
ATOM     60  C   UNL     1     -10.612  -9.198  10.717  1.00  0.00     0.031 C 
ATOM     61  C   UNL     1     -12.424 -11.227   5.289  1.00  0.00     0.029 A 
ATOM     62  C   UNL     1     -11.880 -10.443   6.293  1.00  0.00     0.049 A 
ATOM     63  H   UNL     1     -10.853  -8.605   6.137  1.00  0.00     0.167 HD
ATOM     64  C   UNL     1     -11.260  -9.894   8.631  1.00  0.00     0.074 A 
ATOM     65  C   UNL     1     -11.253 -10.153  10.056  1.00  0.00     0.031 C 
ATOM     66  C   UNL     1     -11.879 -10.676   7.714  1.00  0.00     0.037 A 
BRANCH  53  67
ATOM     67  C   UNL     1     -11.384  -8.656   1.905  1.00  0.00     0.064 A 
ATOM     68  C   UNL     1     -10.397  -9.044   0.987  1.00  0.00     0.173 A 
ATOM     69  C   UNL     1     -12.702  -8.531   1.441  1.00  0.00     0.173 A 
ATOM     70  F   UNL     1      -9.120  -9.163   1.380  1.00  0.00    -0.203 F 
ATOM     71  C   UNL     1     -10.715  -9.281  -0.348  1.00  0.00     0.198 A 
ATOM     72  C   UNL     1     -13.020  -8.792   0.110  1.00  0.00     0.198 A 
ATOM     73  F   UNL     1     -13.683  -8.168   2.280  1.00  0.00    -0.203 F 
ATOM     74  F   UNL     1      -9.750  -9.614  -1.216  1.00  0.00    -0.200 F 
ATOM     75  C   UNL     1     -12.027  -9.162  -0.783  1.00  0.00     0.200 A 
ATOM     76  F   UNL     1     -14.290  -8.686  -0.307  1.00  0.00    -0.200 F 
ATOM     77  F   UNL     1     -12.332  -9.397  -2.067  1.00  0.00    -0.200 F 
ENDBRANCH  53  67
BRANCH  54  78
ATOM     78  C   UNL     1      -8.958  -6.876  11.411  1.00  0.00     0.064 A 
ATOM     79  C   UNL     1      -7.966  -7.666  12.007  1.00  0.00     0.173 A 
ATOM     80  C   UNL     1      -9.512  -5.835  12.169  1.00  0.00     0.173 A 
ATOM     81  F   UNL     1      -7.423  -8.685  11.325  1.00  0.00    -0.203 F 
ATOM     82  C   UNL     1      -7.541  -7.420  13.310  1.00  0.00     0.198 A 
ATOM     83  C   UNL     1      -9.069  -5.575  13.464  1.00  0.00     0.198 A 
ATOM     84  F   UNL     1     -10.463  -5.051  11.640  1.00  0.00    -0.203 F 
ATOM     85  F   UNL     1      -6.604  -8.201  13.865  1.00  0.00    -0.200 F 
ATOM     86  C   UNL     1      -8.085  -6.369  14.034  1.00  0.00     0.200 A 
ATOM     87  F   UNL     1      -9.587  -4.550  14.154  1.00  0.00    -0.200 F 
ATOM     88  F   UNL     1      -7.663  -6.122  15.281  1.00  0.00    -0.200 F 
ENDBRANCH  54  78
BRANCH  66  89
ATOM     89  C   UNL     1     -12.618 -11.878   8.221  1.00  0.00     0.064 A 
ATOM     90  C   UNL     1     -13.861 -11.748   8.856  1.00  0.00     0.173 A 
ATOM     91  C   UNL     1     -12.113 -13.170   8.014  1.00  0.00     0.173 A 
ATOM     92  F   UNL     1     -14.377 -10.532   9.088  1.00  0.00    -0.203 F 
ATOM     93  C   UNL     1     -14.569 -12.871   9.275  1.00  0.00     0.198 A 
ATOM     94  C   UNL     1     -12.834 -14.291   8.415  1.00  0.00     0.198 A 
ATOM     95  F   UNL     1     -10.930 -13.344   7.407  1.00  0.00    -0.203 F 
ATOM     96  F   UNL     1     -15.743 -12.724   9.904  1.00  0.00    -0.200 F 
ATOM     97  C   UNL     1     -14.060 -14.141   9.046  1.00  0.00     0.200 A 
ATOM     98  F   UNL     1     -12.346 -15.518   8.184  1.00  0.00    -0.200 F 
ATOM     99  F   UNL     1     -14.749 -15.221   9.439  1.00  0.00    -0.200 F 
ENDBRANCH  66  89
ENDBRANCH  40  41
ENDBRANCH  32  35
ENDBRANCH  30  31
ENDBRANCH  29  30
ENDBRANCH   1  29
TORSDOF 14
