REMARK SMILES Nc1ccccc1NC(=O)N[C@H]1CCCCC[C@H]1C(=O)NCCCCNC(=O)c1ccc(-c2c3nc(c(-c4c(F)c(F)c(F)c(F)c4F)c4ccc([nH]4)c(-c4c(F)c(F)c(F)c(F)c4F)c4nc(c(-c5c(F)c(F)c(F)c(F)c5F)c5ccc2[nH]5)C=C4)C=C3)cc1
REMARK SMILES IDX 22 1 21 2 19 3 20 4 18 6 12 7 11 8 8 9 9 10 10 12 7 14 2 15
REMARK SMILES IDX 3 16 4 17 6 18 5 19 1 20 13 23 14 24 17 26 16 27 15 28 23 30
REMARK SMILES IDX 24 31 25 32 26 33 27 34 28 36 29 37 30 38 91 39 31 40 90 41
REMARK SMILES IDX 32 42 33 43 34 44 84 45 35 46 89 47 83 48 85 49 36 50 88 51
REMARK SMILES IDX 82 52 81 53 37 55 69 56 49 57 68 58 50 59 53 60 67 61 86 62
REMARK SMILES IDX 51 63 52 64 66 66 87 67 54 68 38 69 39 70 47 71 40 72 41 73
REMARK SMILES IDX 45 74 48 75 42 76 43 77 46 78 44 79 70 80 71 81 79 82 72 83
REMARK SMILES IDX 73 84 77 85 80 86 74 87 75 88 78 89 76 90 55 91 56 92 64 93
REMARK SMILES IDX 57 94 58 95 62 96 65 97 59 98 60 99 63 100 61 101
REMARK H PARENT 21 5 8 11 11 13 1 21 1 22 26 35 85 54 53 65
REMARK Flexibility Score: 90.00
ROOT
ATOM      1  C   UNL     1      -4.874   0.161   0.113  1.00  0.00     0.116 C 
ENDROOT
BRANCH   1   2
ATOM      2  N   UNL     1      -4.634   0.837  -1.133  1.00  0.00    -0.356 N 
ATOM      3  C   UNL     1      -3.477   1.069  -1.798  1.00  0.00     0.225 C 
ATOM      4  O   UNL     1      -3.591   1.238  -3.019  1.00  0.00    -0.275 OA
ATOM      5  H   UNL     1      -5.441   1.188  -1.573  1.00  0.00     0.163 HD
BRANCH   3   6
ATOM      6  C   UNL     1      -2.084   1.119  -1.152  1.00  0.00     0.101 C 
BRANCH   6   7
ATOM      7  C   UNL     1      -1.812   2.006   0.086  1.00  0.00     0.096 C 
BRANCH   7   8
ATOM      8  N   UNL     1      -2.804   3.070   0.285  1.00  0.00    -0.334 N 
ATOM      9  N   UNL     1      -1.753   5.233   0.213  1.00  0.00    -0.306 N 
ATOM     10  C   UNL     1      -2.809   4.410   0.264  1.00  0.00     0.319 C 
ATOM     11  H   UNL     1      -2.024   6.125  -0.102  1.00  0.00     0.171 HD
ATOM     12  O   UNL     1      -3.929   4.937   0.212  1.00  0.00    -0.248 OA
ATOM     13  H   UNL     1      -3.696   2.704   0.487  1.00  0.00     0.165 HD
BRANCH   9  14
ATOM     14  C   UNL     1      -0.371   5.200   0.477  1.00  0.00     0.065 A 
ATOM     15  C   UNL     1       0.430   6.265   0.012  1.00  0.00     0.055 A 
ATOM     16  C   UNL     1       1.826   6.116   0.013  1.00  0.00     0.028 A 
ATOM     17  C   UNL     1       2.426   5.005   0.605  1.00  0.00     0.002 A 
ATOM     18  C   UNL     1       0.245   4.202   1.217  1.00  0.00     0.028 A 
ATOM     19  C   UNL     1       1.633   4.070   1.251  1.00  0.00     0.002 A 
BRANCH  15  20
ATOM     20  N   UNL     1      -0.121   7.420  -0.557  1.00  0.00    -0.397 N 
ATOM     21  H   UNL     1       0.469   8.144  -0.871  1.00  0.00     0.156 HD
ATOM     22  H   UNL     1      -1.097   7.509  -0.642  1.00  0.00     0.156 HD
ENDBRANCH  15  20
ENDBRANCH   9  14
ENDBRANCH   7   8
BRANCH   7  23
ATOM     23  C   UNL     1      -1.410   1.367   1.436  1.00  0.00     0.026 C 
BRANCH  23  24
ATOM     24  C   UNL     1      -1.823  -0.016   1.903  1.00  0.00     0.002 CG0
ATOM     25  G   UNL     1      -1.230  -1.178   1.125  1.00  0.00     0.000 G0
ENDBRANCH  23  24
ENDBRANCH   7  23
ENDBRANCH   6   7
BRANCH   6  26
ATOM     26  C   UNL     1      -1.292  -0.192  -1.246  1.00  0.00     0.015 C 
BRANCH  26  27
ATOM     27  C   UNL     1      -1.668  -1.340  -0.322  1.00  0.00     0.001 C 
BRANCH  27  28
ATOM     28  C   UNL     1      -1.230  -1.178   1.125  1.00  0.00     0.000 CG0
ATOM     29  G   UNL     1      -1.823  -0.016   1.903  1.00  0.00     0.000 G0
ENDBRANCH  27  28
ENDBRANCH  26  27
ENDBRANCH   6  26
ENDBRANCH   3   6
ENDBRANCH   1   2
BRANCH   1  30
ATOM     30  C   UNL     1      -5.524   1.038   1.177  1.00  0.00     0.023 C 
BRANCH  30  31
ATOM     31  C   UNL     1      -6.849   0.498   1.706  1.00  0.00     0.023 C 
BRANCH  31  32
ATOM     32  C   UNL     1      -6.853  -0.949   2.177  1.00  0.00     0.116 C 
BRANCH  32  33
ATOM     33  N   UNL     1      -5.984  -1.247   3.304  1.00  0.00    -0.352 N 
ATOM     34  C   UNL     1      -6.195  -2.219   4.268  1.00  0.00     0.251 C 
ATOM     35  H   UNL     1      -5.166  -0.705   3.390  1.00  0.00     0.163 HD
ATOM     36  O   UNL     1      -5.417  -2.390   5.191  1.00  0.00    -0.269 OA
BRANCH  34  37
ATOM     37  C   UNL     1      -7.446  -3.006   4.175  1.00  0.00     0.039 A 
ATOM     38  C   UNL     1      -8.400  -2.871   5.186  1.00  0.00     0.014 A 
ATOM     39  C   UNL     1      -7.745  -3.691   2.995  1.00  0.00     0.014 A 
ATOM     40  C   UNL     1      -9.701  -3.328   4.962  1.00  0.00     0.010 A 
ATOM     41  C   UNL     1      -9.062  -4.059   2.741  1.00  0.00     0.010 A 
ATOM     42  C   UNL     1     -10.059  -3.862   3.712  1.00  0.00    -0.014 A 
BRANCH  42  43
ATOM     43  C   UNL     1     -11.471  -4.192   3.382  1.00  0.00     0.031 A 
ATOM     44  C   UNL     1     -11.846  -5.599   3.010  1.00  0.00     0.074 A 
ATOM     45  C   UNL     1     -12.397  -3.213   3.321  1.00  0.00     0.049 A 
ATOM     46  N   UNL     1     -12.991  -6.068   2.582  1.00  0.00    -0.248 NA
ATOM     47  C   UNL     1     -10.777  -6.607   3.089  1.00  0.00     0.031 C 
ATOM     48  C   UNL     1     -12.154  -1.794   3.587  1.00  0.00     0.029 A 
ATOM     49  N   UNL     1     -13.733  -3.262   3.001  1.00  0.00    -0.354 N 
ATOM     50  C   UNL     1     -12.769  -7.412   2.313  1.00  0.00     0.074 A 
ATOM     51  C   UNL     1     -11.370  -7.671   2.571  1.00  0.00     0.031 C 
ATOM     52  C   UNL     1     -13.305  -1.115   3.451  1.00  0.00     0.029 A 
ATOM     53  C   UNL     1     -14.361  -2.041   3.054  1.00  0.00     0.049 A 
ATOM     54  H   UNL     1     -14.197  -4.096   2.758  1.00  0.00     0.167 HD
ATOM     55  C   UNL     1     -13.658  -8.353   1.916  1.00  0.00     0.037 A 
ATOM     56  C   UNL     1     -15.643  -1.706   2.809  1.00  0.00     0.037 A 
ATOM     57  C   UNL     1     -15.060  -8.109   1.711  1.00  0.00     0.049 A 
ATOM     58  C   UNL     1     -16.620  -2.779   2.409  1.00  0.00     0.074 A 
ATOM     59  C   UNL     1     -16.055  -9.012   1.383  1.00  0.00     0.029 A 
ATOM     60  N   UNL     1     -15.667  -6.867   1.825  1.00  0.00    -0.354 N 
ATOM     61  N   UNL     1     -16.413  -4.061   2.228  1.00  0.00    -0.248 NA
ATOM     62  C   UNL     1     -18.012  -2.359   2.186  1.00  0.00     0.031 C 
ATOM     63  C   UNL     1     -17.261  -8.313   1.270  1.00  0.00     0.029 A 
ATOM     64  C   UNL     1     -17.023  -6.980   1.565  1.00  0.00     0.049 A 
ATOM     65  H   UNL     1     -15.204  -6.030   2.057  1.00  0.00     0.167 HD
ATOM     66  C   UNL     1     -17.648  -4.604   1.899  1.00  0.00     0.074 A 
ATOM     67  C   UNL     1     -18.602  -3.515   1.917  1.00  0.00     0.031 C 
ATOM     68  C   UNL     1     -17.962  -5.889   1.607  1.00  0.00     0.037 A 
BRANCH  55  69
ATOM     69  C   UNL     1     -13.136  -9.742   1.696  1.00  0.00     0.064 A 
ATOM     70  C   UNL     1     -12.719 -10.547   2.768  1.00  0.00     0.173 A 
ATOM     71  C   UNL     1     -13.065 -10.282   0.403  1.00  0.00     0.173 A 
ATOM     72  F   UNL     1     -12.753 -10.071   4.022  1.00  0.00    -0.203 F 
ATOM     73  C   UNL     1     -12.218 -11.827   2.550  1.00  0.00     0.198 A 
ATOM     74  C   UNL     1     -12.592 -11.574   0.192  1.00  0.00     0.198 A 
ATOM     75  F   UNL     1     -13.455  -9.556  -0.655  1.00  0.00    -0.203 F 
ATOM     76  F   UNL     1     -11.772 -12.554   3.583  1.00  0.00    -0.200 F 
ATOM     77  C   UNL     1     -12.160 -12.342   1.264  1.00  0.00     0.200 A 
ATOM     78  F   UNL     1     -12.546 -12.075  -1.050  1.00  0.00    -0.200 F 
ATOM     79  F   UNL     1     -11.678 -13.575   1.056  1.00  0.00    -0.200 F 
ENDBRANCH  55  69
BRANCH  56  80
ATOM     80  C   UNL     1     -16.093  -0.299   2.974  1.00  0.00     0.064 A 
ATOM     81  C   UNL     1     -16.930   0.063   4.039  1.00  0.00     0.173 A 
ATOM     82  C   UNL     1     -15.714   0.704   2.071  1.00  0.00     0.173 A 
ATOM     83  F   UNL     1     -17.338  -0.867   4.915  1.00  0.00    -0.203 F 
ATOM     84  C   UNL     1     -17.389   1.371   4.183  1.00  0.00     0.198 A 
ATOM     85  C   UNL     1     -16.153   2.017   2.230  1.00  0.00     0.198 A 
ATOM     86  F   UNL     1     -14.912   0.409   1.038  1.00  0.00    -0.203 F 
ATOM     87  F   UNL     1     -18.225   1.679   5.184  1.00  0.00    -0.200 F 
ATOM     88  C   UNL     1     -16.997   2.348   3.281  1.00  0.00     0.200 A 
ATOM     89  F   UNL     1     -15.764   2.961   1.363  1.00  0.00    -0.200 F 
ATOM     90  F   UNL     1     -17.438   3.606   3.418  1.00  0.00    -0.200 F 
ENDBRANCH  56  80
BRANCH  68  91
ATOM     91  C   UNL     1     -19.401  -6.199   1.323  1.00  0.00     0.064 A 
ATOM     92  C   UNL     1     -20.008  -5.827   0.115  1.00  0.00     0.173 A 
ATOM     93  C   UNL     1     -20.166  -6.922   2.251  1.00  0.00     0.173 A 
ATOM     94  F   UNL     1     -19.322  -5.122  -0.796  1.00  0.00    -0.203 F 
ATOM     95  C   UNL     1     -21.337  -6.152  -0.146  1.00  0.00     0.198 A 
ATOM     96  C   UNL     1     -21.486  -7.267   1.976  1.00  0.00     0.198 A 
ATOM     97  F   UNL     1     -19.628  -7.305   3.418  1.00  0.00    -0.203 F 
ATOM     98  F   UNL     1     -21.909  -5.753  -1.290  1.00  0.00    -0.200 F 
ATOM     99  C   UNL     1     -22.071  -6.877   0.780  1.00  0.00     0.200 A 
ATOM    100  F   UNL     1     -22.191  -7.978   2.866  1.00  0.00    -0.200 F 
ATOM    101  F   UNL     1     -23.347  -7.197   0.523  1.00  0.00    -0.200 F 
ENDBRANCH  68  91
ENDBRANCH  42  43
ENDBRANCH  34  37
ENDBRANCH  32  33
ENDBRANCH  31  32
ENDBRANCH  30  31
ENDBRANCH   1  30
TORSDOF 14
