REMARK SMILES O=C(COc1cccc(NC(=O)c2ccc3c(c2)C(=O)N(c2ccccc2-c2ccccc2)C3=O)c1)NCCCCNC(=O)c1ccc(-c2c3nc(c(-c4c(F)c(F)c(F)c(F)c4F)c4ccc([nH]4)c(-c4c(F)c(F)c(F)c(F)c4F)c4nc(c(-c5c(F)c(F)c(F)c(F)c5F)c5ccc2[nH]5)C=C4)C=C3)cc1
REMARK SMILES IDX 1 1 2 2 37 3 3 5 4 6 5 7 6 8 36 9 7 10 9 11 8 12 10 13 11 14
REMARK SMILES IDX 12 16 13 17 14 18 18 19 15 20 17 21 16 22 19 23 34 24 20 25
REMARK SMILES IDX 21 26 35 27 22 28 23 29 27 30 24 31 26 32 25 33 28 34 29 35
REMARK SMILES IDX 33 36 30 37 32 38 31 39 38 40 39 41 40 42 41 43 42 44 43 45
REMARK SMILES IDX 44 47 45 48 46 49 107 50 47 51 106 52 48 53 49 54 50 55
REMARK SMILES IDX 100 56 51 57 105 58 99 59 101 60 52 61 104 62 98 63 97 64
REMARK SMILES IDX 53 66 85 67 65 68 84 69 66 70 69 71 83 72 102 73 67 74 68 75
REMARK SMILES IDX 82 77 103 78 70 79 54 80 55 81 63 82 56 83 57 84 61 85 64 86
REMARK SMILES IDX 58 87 59 88 62 89 60 90 86 91 87 92 95 93 88 94 89 95 93 96
REMARK SMILES IDX 96 97 90 98 91 99 94 100 92 101 71 102 72 103 80 104 73 105
REMARK SMILES IDX 74 106 78 107 81 108 75 109 76 110 79 111 77 112
REMARK H PARENT 37 4 10 15 42 46 101 65 69 76
REMARK Flexibility Score: inf
ROOT
ATOM      1  O   UNL     1       0.830  -0.497  -0.585  1.00  0.00    -0.271 OA
ATOM      2  C   UNL     1       1.954  -0.185  -0.203  1.00  0.00     0.257 C 
ATOM      3  N   UNL     1       2.680  -0.919   0.714  1.00  0.00    -0.353 N 
ATOM      4  H   UNL     1       3.633  -0.710   0.846  1.00  0.00     0.163 HD
ENDROOT
BRANCH   2   5
ATOM      5  C   UNL     1       2.650   1.092  -0.681  1.00  0.00     0.329 C 
BRANCH   5   6
ATOM      6  O   UNL     1       3.695   1.582   0.150  1.00  0.00    -0.484 OA
BRANCH   6   7
ATOM      7  C   UNL     1       3.322   2.322   1.241  1.00  0.00     0.122 A 
ATOM      8  C   UNL     1       4.133   3.421   1.505  1.00  0.00     0.046 A 
ATOM      9  C   UNL     1       2.323   1.956   2.158  1.00  0.00     0.072 A 
ATOM     10  C   UNL     1       3.960   4.136   2.682  1.00  0.00     0.006 A 
ATOM     11  C   UNL     1       2.161   2.644   3.370  1.00  0.00     0.045 A 
ATOM     12  C   UNL     1       2.998   3.732   3.612  1.00  0.00     0.026 A 
BRANCH  11  13
ATOM     13  N   UNL     1       1.243   2.101   4.308  1.00  0.00    -0.322 N 
ATOM     14  C   UNL     1       0.735   2.570   5.508  1.00  0.00     0.255 C 
ATOM     15  H   UNL     1       0.899   1.214   4.054  1.00  0.00     0.170 HD
ATOM     16  O   UNL     1       0.165   1.826   6.299  1.00  0.00    -0.269 OA
BRANCH  14  17
ATOM     17  C   UNL     1       0.738   4.016   5.770  1.00  0.00     0.041 A 
ATOM     18  C   UNL     1       1.705   4.594   6.624  1.00  0.00     0.015 A 
ATOM     19  C   UNL     1      -0.059   4.788   4.928  1.00  0.00     0.028 A 
ATOM     20  C   UNL     1       2.038   5.951   6.471  1.00  0.00     0.015 A 
ATOM     21  C   UNL     1       0.309   6.106   4.803  1.00  0.00     0.054 A 
ATOM     22  C   UNL     1       1.367   6.658   5.483  1.00  0.00     0.053 A 
ATOM     23  C   UNL     1      -0.056   7.001   3.732  1.00  0.00     0.266 C 
ATOM     24  C   UNL     1       1.721   7.888   4.763  1.00  0.00     0.266 C 
ATOM     25  O   UNL     1      -1.113   6.834   3.153  1.00  0.00    -0.268 OA
ATOM     26  N   UNL     1       0.983   7.896   3.593  1.00  0.00    -0.242 N 
ATOM     27  O   UNL     1       2.490   8.683   5.269  1.00  0.00    -0.268 OA
BRANCH  26  28
ATOM     28  C   UNL     1       1.225   8.629   2.373  1.00  0.00     0.060 A 
ATOM     29  C   UNL     1       0.214   8.619   1.377  1.00  0.00     0.027 A 
ATOM     30  C   UNL     1       2.450   9.252   2.014  1.00  0.00     0.006 A 
ATOM     31  C   UNL     1       0.372   9.180   0.107  1.00  0.00     0.002 A 
ATOM     32  C   UNL     1       2.572   9.851   0.728  1.00  0.00     0.011 A 
ATOM     33  C   UNL     1       1.553   9.810  -0.217  1.00  0.00     0.001 A 
BRANCH  30  34
ATOM     34  C   UNL     1       3.700   9.241   2.789  1.00  0.00    -0.016 A 
ATOM     35  C   UNL     1       4.116  10.378   3.499  1.00  0.00     0.009 A 
ATOM     36  C   UNL     1       4.561   8.133   2.736  1.00  0.00     0.009 A 
ATOM     37  C   UNL     1       5.333  10.385   4.184  1.00  0.00     0.001 A 
ATOM     38  C   UNL     1       5.781   8.141   3.416  1.00  0.00     0.001 A 
ATOM     39  C   UNL     1       6.162   9.265   4.147  1.00  0.00     0.000 A 
ENDBRANCH  30  34
ENDBRANCH  26  28
ENDBRANCH  14  17
ENDBRANCH  11  13
ENDBRANCH   6   7
ENDBRANCH   5   6
ENDBRANCH   2   5
BRANCH   3  40
ATOM     40  C   UNL     1       2.083  -1.987   1.485  1.00  0.00     0.116 C 
BRANCH  40  41
ATOM     41  C   UNL     1       2.491  -3.372   1.003  1.00  0.00     0.023 C 
BRANCH  41  42
ATOM     42  C   UNL     1       3.985  -3.681   1.129  1.00  0.00     0.023 C 
BRANCH  42  43
ATOM     43  C   UNL     1       4.578  -3.534   2.528  1.00  0.00     0.116 C 
BRANCH  43  44
ATOM     44  N   UNL     1       3.968  -4.419   3.508  1.00  0.00    -0.352 N 
ATOM     45  C   UNL     1       4.560  -5.270   4.412  1.00  0.00     0.251 C 
ATOM     46  H   UNL     1       2.984  -4.407   3.527  1.00  0.00     0.163 HD
ATOM     47  O   UNL     1       3.867  -6.031   5.080  1.00  0.00    -0.269 OA
BRANCH  45  48
ATOM     48  C   UNL     1       6.032  -5.301   4.562  1.00  0.00     0.039 A 
ATOM     49  C   UNL     1       6.672  -6.542   4.634  1.00  0.00     0.014 A 
ATOM     50  C   UNL     1       6.782  -4.125   4.640  1.00  0.00     0.014 A 
ATOM     51  C   UNL     1       8.066  -6.605   4.706  1.00  0.00     0.010 A 
ATOM     52  C   UNL     1       8.175  -4.188   4.643  1.00  0.00     0.010 A 
ATOM     53  C   UNL     1       8.832  -5.429   4.670  1.00  0.00    -0.014 A 
BRANCH  53  54
ATOM     54  C   UNL     1      10.317  -5.476   4.643  1.00  0.00     0.031 A 
ATOM     55  C   UNL     1      11.118  -4.904   5.779  1.00  0.00     0.074 A 
ATOM     56  C   UNL     1      10.948  -5.972   3.560  1.00  0.00     0.049 A 
ATOM     57  N   UNL     1      12.416  -4.777   5.896  1.00  0.00    -0.248 NA
ATOM     58  C   UNL     1      10.357  -4.382   6.924  1.00  0.00     0.031 C 
ATOM     59  C   UNL     1      10.288  -6.515   2.372  1.00  0.00     0.029 A 
ATOM     60  N   UNL     1      12.287  -6.086   3.277  1.00  0.00    -0.354 N 
ATOM     61  C   UNL     1      12.626  -4.150   7.117  1.00  0.00     0.074 A 
ATOM     62  C   UNL     1      11.320  -3.877   7.681  1.00  0.00     0.031 C 
ATOM     63  C   UNL     1      11.221  -6.917   1.495  1.00  0.00     0.029 A 
ATOM     64  C   UNL     1      12.544  -6.628   2.041  1.00  0.00     0.049 A 
ATOM     65  H   UNL     1      12.995  -5.805   3.900  1.00  0.00     0.167 HD
ATOM     66  C   UNL     1      13.799  -3.850   7.724  1.00  0.00     0.037 A 
ATOM     67  C   UNL     1      13.713  -6.856   1.413  1.00  0.00     0.037 A 
ATOM     68  C   UNL     1      15.097  -4.143   7.174  1.00  0.00     0.049 A 
ATOM     69  C   UNL     1      15.003  -6.512   2.107  1.00  0.00     0.074 A 
ATOM     70  C   UNL     1      16.343  -3.927   7.738  1.00  0.00     0.029 A 
ATOM     71  N   UNL     1      15.317  -4.716   5.930  1.00  0.00    -0.354 N 
ATOM     72  N   UNL     1      15.189  -5.974   3.288  1.00  0.00    -0.248 NA
ATOM     73  C   UNL     1      16.246  -6.812   1.383  1.00  0.00     0.031 C 
ATOM     74  C   UNL     1      17.317  -4.330   6.818  1.00  0.00     0.029 A 
ATOM     75  C   UNL     1      16.678  -4.843   5.701  1.00  0.00     0.049 A 
ATOM     76  H   UNL     1      14.611  -4.992   5.302  1.00  0.00     0.167 HD
ATOM     77  C   UNL     1      16.564  -5.897   3.460  1.00  0.00     0.074 A 
ATOM     78  C   UNL     1      17.167  -6.455   2.268  1.00  0.00     0.031 C 
ATOM     79  C   UNL     1      17.265  -5.406   4.512  1.00  0.00     0.037 A 
BRANCH  66  80
ATOM     80  C   UNL     1      13.733  -3.171   9.062  1.00  0.00     0.064 A 
ATOM     81  C   UNL     1      13.290  -3.849  10.208  1.00  0.00     0.173 A 
ATOM     82  C   UNL     1      14.149  -1.839   9.207  1.00  0.00     0.173 A 
ATOM     83  F   UNL     1      12.871  -5.120  10.121  1.00  0.00    -0.203 F 
ATOM     84  C   UNL     1      13.237  -3.208  11.443  1.00  0.00     0.198 A 
ATOM     85  C   UNL     1      14.123  -1.211  10.450  1.00  0.00     0.198 A 
ATOM     86  F   UNL     1      14.587  -1.147   8.144  1.00  0.00    -0.203 F 
ATOM     87  F   UNL     1      12.762  -3.860  12.514  1.00  0.00    -0.200 F 
ATOM     88  C   UNL     1      13.659  -1.893  11.565  1.00  0.00     0.200 A 
ATOM     89  F   UNL     1      14.543   0.056  10.568  1.00  0.00    -0.200 F 
ATOM     90  F   UNL     1      13.612  -1.280  12.755  1.00  0.00    -0.200 F 
ENDBRANCH  66  80
BRANCH  67  91
ATOM     91  C   UNL     1      13.718  -7.462   0.057  1.00  0.00     0.064 A 
ATOM     92  C   UNL     1      14.168  -8.774  -0.143  1.00  0.00     0.173 A 
ATOM     93  C   UNL     1      13.275  -6.745  -1.064  1.00  0.00     0.173 A 
ATOM     94  F   UNL     1      14.623  -9.491   0.895  1.00  0.00    -0.203 F 
ATOM     95  C   UNL     1      14.192  -9.341  -1.416  1.00  0.00     0.198 A 
ATOM     96  C   UNL     1      13.273  -7.322  -2.332  1.00  0.00     0.198 A 
ATOM     97  F   UNL     1      12.831  -5.487  -0.924  1.00  0.00    -0.203 F 
ATOM     98  F   UNL     1      14.668 -10.582  -1.585  1.00  0.00    -0.200 F 
ATOM     99  C   UNL     1      13.739  -8.617  -2.508  1.00  0.00     0.200 A 
ATOM    100  F   UNL     1      12.822  -6.624  -3.383  1.00  0.00    -0.200 F 
ATOM    101  F   UNL     1      13.757  -9.163  -3.731  1.00  0.00    -0.200 F 
ENDBRANCH  67  91
BRANCH  79 102
ATOM    102  C   UNL     1      18.762  -5.479   4.436  1.00  0.00     0.064 A 
ATOM    103  C   UNL     1      19.497  -4.643   3.583  1.00  0.00     0.173 A 
ATOM    104  C   UNL     1      19.471  -6.370   5.256  1.00  0.00     0.173 A 
ATOM    105  F   UNL     1      18.865  -3.785   2.769  1.00  0.00    -0.203 F 
ATOM    106  C   UNL     1      20.887  -4.713   3.538  1.00  0.00     0.198 A 
ATOM    107  C   UNL     1      20.862  -6.417   5.228  1.00  0.00     0.198 A 
ATOM    108  F   UNL     1      18.814  -7.187   6.093  1.00  0.00    -0.203 F 
ATOM    109  F   UNL     1      21.567  -3.937   2.683  1.00  0.00    -0.200 F 
ATOM    110  C   UNL     1      21.568  -5.594   4.365  1.00  0.00     0.200 A 
ATOM    111  F   UNL     1      21.519  -7.260   6.037  1.00  0.00    -0.200 F 
ATOM    112  F   UNL     1      22.907  -5.655   4.324  1.00  0.00    -0.200 F 
ENDBRANCH  79 102
ENDBRANCH  53  54
ENDBRANCH  45  48
ENDBRANCH  43  44
ENDBRANCH  42  43
ENDBRANCH  41  42
ENDBRANCH  40  41
ENDBRANCH   3  40
TORSDOF 17
