REMARK SMILES Cc1ccc(C(=O)NCCCCNC(=O)c2ccc(-c3c4nc(c(-c5c(F)c(F)c(F)c(F)c5F)c5ccc([nH]5)c(-c5c(F)c(F)c(F)c(F)c5F)c5nc(c(-c6c(F)c(F)c(F)c(F)c6F)c6ccc3[nH]6)C=C5)C=C4)cc2)cc1N1C(=O)/C(=C/c2ccc([N+](=O)[O-])cc2)SC1=S
REMARK SMILES IDX 10 1 9 2 8 3 6 4 7 5 5 7 1 8 2 9 3 10 80 11 4 12 79 13 81 14
REMARK SMILES IDX 82 15 96 16 83 17 84 18 95 19 97 20 85 21 86 22 87 23 94 24
REMARK SMILES IDX 88 25 93 26 89 27 90 28 91 29 92 30 11 31 12 32 13 33 14 34
REMARK SMILES IDX 15 36 16 37 17 38 78 39 18 40 77 41 19 42 20 43 21 44 71 45
REMARK SMILES IDX 22 46 76 47 70 48 72 49 23 50 75 51 69 52 68 53 24 55 56 56
REMARK SMILES IDX 36 57 55 58 37 59 40 60 54 61 73 62 38 63 39 64 53 66 74 67
REMARK SMILES IDX 41 68 25 69 26 70 34 71 27 72 28 73 32 74 35 75 29 76 30 77
REMARK SMILES IDX 33 78 31 79 57 80 58 81 66 82 59 83 60 84 64 85 67 86 61 87
REMARK SMILES IDX 62 88 65 89 63 90 42 91 43 92 51 93 44 94 45 95 49 96 52 97
REMARK SMILES IDX 46 98 47 99 50 100 48 101
REMARK H PARENT 8 6 13 35 72 54 40 65
REMARK Flexibility Score: inf
ROOT
ATOM      1  C   UNL     1      -3.508   3.224  -1.438  1.00  0.00     0.023 C 
ENDROOT
BRANCH   1   2
ATOM      2  C   UNL     1      -3.580   2.667  -0.008  1.00  0.00     0.116 C 
BRANCH   2   3
ATOM      3  N   UNL     1      -3.841   1.239   0.030  1.00  0.00    -0.352 N 
ATOM      4  C   UNL     1      -3.068   0.107   0.088  1.00  0.00     0.251 C 
ATOM      5  O   UNL     1      -3.686  -0.956   0.201  1.00  0.00    -0.269 OA
ATOM      6  H   UNL     1      -4.804   1.034   0.011  1.00  0.00     0.163 HD
BRANCH   4   7
ATOM      7  C   UNL     1      -1.575   0.056   0.017  1.00  0.00     0.041 A 
ATOM      8  C   UNL     1       2.742  -0.488  -0.222  1.00  0.00     0.046 C 
ATOM      9  C   UNL     1       1.259  -0.257  -0.147  1.00  0.00    -0.027 A 
ATOM     10  C   UNL     1       0.419  -1.365   0.025  1.00  0.00     0.006 A 
ATOM     11  C   UNL     1       0.664   1.010  -0.246  1.00  0.00     0.054 A 
ATOM     12  C   UNL     1      -0.972  -1.210   0.098  1.00  0.00     0.014 A 
ATOM     13  C   UNL     1      -0.736   1.151  -0.158  1.00  0.00     0.041 A 
BRANCH  11  14
ATOM     14  N   UNL     1       1.419   2.186  -0.495  1.00  0.00    -0.261 N 
ATOM     15  C   UNL     1       2.143   2.775   0.533  1.00  0.00     0.270 C 
ATOM     16  C   UNL     1       1.356   2.876  -1.697  1.00  0.00     0.152 C 
ATOM     17  O   UNL     1       2.324   2.341   1.663  1.00  0.00    -0.268 OA
ATOM     18  C   UNL     1       2.646   4.105   0.083  1.00  0.00     0.081 C 
ATOM     19  S   UNL     1       2.337   4.332  -1.590  1.00  0.00    -0.054 SA
ATOM     20  S   UNL     1       0.531   2.485  -3.098  1.00  0.00    -0.051 S 
ATOM     21  C   UNL     1       3.201   4.985   0.927  1.00  0.00     0.029 C 
BRANCH  21  22
ATOM     22  C   UNL     1       3.730   6.298   0.546  1.00  0.00    -0.024 A 
ATOM     23  C   UNL     1       2.898   7.421   0.436  1.00  0.00     0.015 A 
ATOM     24  C   UNL     1       5.102   6.423   0.299  1.00  0.00     0.015 A 
ATOM     25  C   UNL     1       3.441   8.669   0.110  1.00  0.00     0.086 A 
ATOM     26  C   UNL     1       5.652   7.664  -0.027  1.00  0.00     0.086 A 
ATOM     27  C   UNL     1       4.821   8.788  -0.106  1.00  0.00     0.269 A 
BRANCH  27  28
ATOM     28  N   UNL     1       5.409  10.103  -0.392  1.00  0.00     0.062 N 
ATOM     29  O   UNL     1       4.644  11.076  -0.448  1.00  0.00    -0.258 OA
ATOM     30  O   UNL     1       6.637  10.164  -0.546  1.00  0.00    -0.258 OA
ENDBRANCH  27  28
ENDBRANCH  21  22
ENDBRANCH  11  14
ENDBRANCH   4   7
ENDBRANCH   2   3
ENDBRANCH   1   2
BRANCH   1  31
ATOM     31  C   UNL     1      -4.866   3.396  -2.135  1.00  0.00     0.023 C 
BRANCH  31  32
ATOM     32  C   UNL     1      -5.790   4.410  -1.469  1.00  0.00     0.116 C 
BRANCH  32  33
ATOM     33  N   UNL     1      -5.500   5.809  -1.736  1.00  0.00    -0.352 N 
ATOM     34  C   UNL     1      -5.976   6.962  -1.119  1.00  0.00     0.251 C 
ATOM     35  H   UNL     1      -4.864   5.967  -2.470  1.00  0.00     0.163 HD
ATOM     36  O   UNL     1      -5.719   8.047  -1.603  1.00  0.00    -0.269 OA
BRANCH  34  37
ATOM     37  C   UNL     1      -6.663   6.892   0.205  1.00  0.00     0.039 A 
ATOM     38  C   UNL     1      -6.438   7.932   1.123  1.00  0.00     0.014 A 
ATOM     39  C   UNL     1      -7.344   5.757   0.623  1.00  0.00     0.014 A 
ATOM     40  C   UNL     1      -6.641   7.711   2.485  1.00  0.00     0.010 A 
ATOM     41  C   UNL     1      -7.409   5.480   1.970  1.00  0.00     0.010 A 
ATOM     42  C   UNL     1      -6.994   6.435   2.901  1.00  0.00    -0.014 A 
BRANCH  42  43
ATOM     43  C   UNL     1      -6.908   5.949   4.270  1.00  0.00     0.031 A 
ATOM     44  C   UNL     1      -8.148   5.657   5.018  1.00  0.00     0.074 A 
ATOM     45  C   UNL     1      -5.704   5.527   4.719  1.00  0.00     0.049 A 
ATOM     46  N   UNL     1      -8.178   5.312   6.258  1.00  0.00    -0.248 NA
ATOM     47  C   UNL     1      -9.483   5.783   4.431  1.00  0.00     0.031 C 
ATOM     48  C   UNL     1      -5.430   4.593   5.810  1.00  0.00     0.029 A 
ATOM     49  N   UNL     1      -4.436   6.035   4.378  1.00  0.00    -0.354 N 
ATOM     50  C   UNL     1      -9.445   4.855   6.525  1.00  0.00     0.074 A 
ATOM     51  C   UNL     1     -10.247   5.304   5.418  1.00  0.00     0.031 C 
ATOM     52  C   UNL     1      -4.179   4.795   6.254  1.00  0.00     0.029 A 
ATOM     53  C   UNL     1      -3.689   5.984   5.583  1.00  0.00     0.049 A 
ATOM     54  H   UNL     1      -4.134   6.355   3.497  1.00  0.00     0.167 HD
ATOM     55  C   UNL     1      -9.616   4.012   7.579  1.00  0.00     0.037 A 
ATOM     56  C   UNL     1      -3.309   7.128   6.228  1.00  0.00     0.037 A 
ATOM     57  C   UNL     1      -8.451   4.053   8.461  1.00  0.00     0.049 A 
ATOM     58  C   UNL     1      -3.840   7.236   7.639  1.00  0.00     0.074 A 
ATOM     59  C   UNL     1      -7.416   3.174   8.720  1.00  0.00     0.029 A 
ATOM     60  N   UNL     1      -8.086   5.274   9.027  1.00  0.00    -0.354 N 
ATOM     61  N   UNL     1      -4.889   6.593   8.073  1.00  0.00    -0.248 NA
ATOM     62  C   UNL     1      -3.240   8.085   8.665  1.00  0.00     0.031 C 
ATOM     63  C   UNL     1      -6.367   3.915   9.335  1.00  0.00     0.029 A 
ATOM     64  C   UNL     1      -6.792   5.224   9.501  1.00  0.00     0.049 A 
ATOM     65  H   UNL     1      -8.672   6.063   9.081  1.00  0.00     0.167 HD
ATOM     66  C   UNL     1      -5.117   6.920   9.383  1.00  0.00     0.074 A 
ATOM     67  C   UNL     1      -4.052   7.850   9.711  1.00  0.00     0.031 C 
ATOM     68  C   UNL     1      -6.168   6.403  10.086  1.00  0.00     0.037 A 
BRANCH  55  69
ATOM     69  C   UNL     1     -10.736   3.001   7.720  1.00  0.00     0.064 A 
ATOM     70  C   UNL     1     -10.833   2.214   8.889  1.00  0.00     0.173 A 
ATOM     71  C   UNL     1     -11.650   2.650   6.701  1.00  0.00     0.173 A 
ATOM     72  F   UNL     1     -10.018   2.423   9.932  1.00  0.00    -0.203 F 
ATOM     73  C   UNL     1     -11.753   1.165   9.017  1.00  0.00     0.198 A 
ATOM     74  C   UNL     1     -12.605   1.639   6.852  1.00  0.00     0.198 A 
ATOM     75  F   UNL     1     -11.625   3.215   5.490  1.00  0.00    -0.203 F 
ATOM     76  F   UNL     1     -11.755   0.412  10.126  1.00  0.00    -0.200 F 
ATOM     77  C   UNL     1     -12.647   0.886   8.004  1.00  0.00     0.200 A 
ATOM     78  F   UNL     1     -13.459   1.382   5.851  1.00  0.00    -0.200 F 
ATOM     79  F   UNL     1     -13.529  -0.116   8.124  1.00  0.00    -0.200 F 
ENDBRANCH  55  69
BRANCH  56  80
ATOM     80  C   UNL     1      -3.107   8.271   5.295  1.00  0.00     0.064 A 
ATOM     81  C   UNL     1      -2.108   8.149   4.308  1.00  0.00     0.173 A 
ATOM     82  C   UNL     1      -4.112   9.223   5.085  1.00  0.00     0.173 A 
ATOM     83  F   UNL     1      -1.120   7.252   4.463  1.00  0.00    -0.203 F 
ATOM     84  C   UNL     1      -2.195   8.836   3.100  1.00  0.00     0.198 A 
ATOM     85  C   UNL     1      -4.181   9.930   3.881  1.00  0.00     0.198 A 
ATOM     86  F   UNL     1      -5.097   9.381   5.979  1.00  0.00    -0.203 F 
ATOM     87  F   UNL     1      -1.306   8.591   2.126  1.00  0.00    -0.200 F 
ATOM     88  C   UNL     1      -3.251   9.702   2.875  1.00  0.00     0.200 A 
ATOM     89  F   UNL     1      -5.216  10.750   3.649  1.00  0.00    -0.200 F 
ATOM     90  F   UNL     1      -3.403  10.279   1.675  1.00  0.00    -0.200 F 
ENDBRANCH  56  80
BRANCH  68  91
ATOM     91  C   UNL     1      -6.656   6.904  11.426  1.00  0.00     0.064 A 
ATOM     92  C   UNL     1      -6.506   8.229  11.870  1.00  0.00     0.173 A 
ATOM     93  C   UNL     1      -7.442   6.071  12.258  1.00  0.00     0.173 A 
ATOM     94  F   UNL     1      -5.900   9.154  11.113  1.00  0.00    -0.203 F 
ATOM     95  C   UNL     1      -7.033   8.666  13.088  1.00  0.00     0.198 A 
ATOM     96  C   UNL     1      -8.017   6.527  13.444  1.00  0.00     0.198 A 
ATOM     97  F   UNL     1      -7.699   4.796  11.931  1.00  0.00    -0.203 F 
ATOM     98  F   UNL     1      -6.820   9.928  13.488  1.00  0.00    -0.200 F 
ATOM     99  C   UNL     1      -7.796   7.819  13.869  1.00  0.00     0.200 A 
ATOM    100  F   UNL     1      -8.804   5.710  14.159  1.00  0.00    -0.200 F 
ATOM    101  F   UNL     1      -8.335   8.255  15.015  1.00  0.00    -0.200 F 
ENDBRANCH  68  91
ENDBRANCH  42  43
ENDBRANCH  34  37
ENDBRANCH  32  33
ENDBRANCH  31  32
ENDBRANCH   1  31
TORSDOF 14
