REMARK SMILES CS(=O)(=O)NCC[NH2+]Cc1ccc(C(=O)NCCCCNC(=O)c2ccc(-c3c4nc(c(-c5c(F)c(F)c(F)c(F)c5F)c5ccc([nH]5)c(-c5c(F)c(F)c(F)c(F)c5F)c5nc(c(-c6c(F)c(F)c(F)c(F)c6F)c6ccc3[nH]6)C=C5)C=C4)cc2)cn1
REMARK SMILES IDX 14 1 15 2 16 3 13 5 10 6 11 7 88 8 12 9 87 10 9 11 8 12 7 15
REMARK SMILES IDX 6 16 5 17 2 19 1 20 3 21 4 22 17 23 18 24 19 25 20 26 21 27
REMARK SMILES IDX 22 28 23 30 24 31 25 32 86 33 26 34 85 35 27 36 28 37 29 38
REMARK SMILES IDX 79 39 30 40 84 41 78 42 80 43 31 44 83 45 77 46 76 47 32 49
REMARK SMILES IDX 64 50 44 51 63 52 45 53 48 54 62 55 81 56 46 57 47 58 61 60
REMARK SMILES IDX 82 61 49 62 33 63 34 64 42 65 35 66 36 67 40 68 43 69 37 70
REMARK SMILES IDX 38 71 41 72 39 73 65 74 66 75 74 76 67 77 68 78 72 79 75 80
REMARK SMILES IDX 69 81 70 82 73 83 71 84 50 85 51 86 59 87 52 88 53 89 57 90
REMARK SMILES IDX 60 91 54 92 55 93 58 94 56 95
REMARK H PARENT 16 4 8 13 8 14 5 18 21 29 80 48 48 59
REMARK Flexibility Score: inf
ROOT
ATOM      1  C   UNL     1       1.366  -5.872   2.299  1.00  0.00     0.252 C 
ATOM      2  O   UNL     1       1.135  -4.932   3.063  1.00  0.00    -0.269 OA
ATOM      3  N   UNL     1       1.008  -7.113   2.748  1.00  0.00    -0.352 N 
ATOM      4  H   UNL     1       0.500  -7.104   3.590  1.00  0.00     0.163 HD
ENDROOT
BRANCH   1   5
ATOM      5  C   UNL     1       1.963  -5.592   0.966  1.00  0.00     0.058 A 
ATOM      6  C   UNL     1       2.775  -4.686  -1.537  1.00  0.00     0.094 A 
ATOM      7  C   UNL     1       2.861  -6.040  -1.249  1.00  0.00     0.030 A 
ATOM      8  N   UNL     1       2.416  -3.795  -0.589  1.00  0.00    -0.255 NA
ATOM      9  C   UNL     1       2.475  -6.487   0.023  1.00  0.00     0.017 A 
ATOM     10  C   UNL     1       1.988  -4.255   0.605  1.00  0.00     0.125 A 
BRANCH   6  11
ATOM     11  C   UNL     1       3.050  -4.150  -2.934  1.00  0.00     0.317 C 
BRANCH  11  12
ATOM     12  N   UNL     1       2.344  -2.882  -3.247  1.00  0.00    -0.340 N 
ATOM     13  H   UNL     1       2.312  -2.760  -4.259  1.00  0.00     0.346 HD
ATOM     14  H   UNL     1       1.401  -2.933  -2.862  1.00  0.00     0.346 HD
BRANCH  12  15
ATOM     15  C   UNL     1       3.034  -1.730  -2.644  1.00  0.00     0.277 C 
BRANCH  15  16
ATOM     16  C   UNL     1       2.348  -0.388  -2.941  1.00  0.00     0.159 C 
BRANCH  16  17
ATOM     17  N   UNL     1       0.866  -0.394  -2.879  1.00  0.00    -0.210 NA
ATOM     18  H   UNL     1       0.566   0.537  -3.167  1.00  0.00     0.141 HD
BRANCH  17  19
ATOM     19  S   UNL     1       0.026  -0.739  -1.470  1.00  0.00     0.208 S 
ATOM     20  C   UNL     1       0.905   0.126  -0.179  1.00  0.00     0.176 C 
ATOM     21  O   UNL     1       0.128  -2.162  -1.262  1.00  0.00    -0.213 OA
ATOM     22  O   UNL     1      -1.279  -0.128  -1.621  1.00  0.00    -0.213 OA
ENDBRANCH  17  19
ENDBRANCH  16  17
ENDBRANCH  15  16
ENDBRANCH  12  15
ENDBRANCH  11  12
ENDBRANCH   6  11
ENDBRANCH   1   5
BRANCH   3  23
ATOM     23  C   UNL     1       1.239  -8.431   2.214  1.00  0.00     0.116 C 
BRANCH  23  24
ATOM     24  C   UNL     1       2.622  -8.923   2.639  1.00  0.00     0.023 C 
BRANCH  24  25
ATOM     25  C   UNL     1       2.655  -9.473   4.069  1.00  0.00     0.023 C 
BRANCH  25  26
ATOM     26  C   UNL     1       1.688 -10.623   4.318  1.00  0.00     0.116 C 
BRANCH  26  27
ATOM     27  N   UNL     1       1.831 -11.705   3.354  1.00  0.00    -0.352 N 
ATOM     28  C   UNL     1       1.605 -13.044   3.544  1.00  0.00     0.251 C 
ATOM     29  H   UNL     1       2.128 -11.442   2.452  1.00  0.00     0.163 HD
ATOM     30  O   UNL     1       1.895 -13.861   2.679  1.00  0.00    -0.269 OA
BRANCH  28  31
ATOM     31  C   UNL     1       1.040 -13.481   4.832  1.00  0.00     0.039 A 
ATOM     32  C   UNL     1       1.690 -14.487   5.545  1.00  0.00     0.014 A 
ATOM     33  C   UNL     1      -0.089 -12.845   5.355  1.00  0.00     0.014 A 
ATOM     34  C   UNL     1       1.232 -14.823   6.817  1.00  0.00     0.010 A 
ATOM     35  C   UNL     1      -0.487 -13.119   6.656  1.00  0.00     0.010 A 
ATOM     36  C   UNL     1       0.162 -14.119   7.395  1.00  0.00    -0.014 A 
BRANCH  36  37
ATOM     37  C   UNL     1      -0.300 -14.432   8.768  1.00  0.00     0.031 A 
ATOM     38  C   UNL     1      -1.691 -14.956   8.991  1.00  0.00     0.074 A 
ATOM     39  C   UNL     1       0.519 -14.205   9.813  1.00  0.00     0.049 A 
ATOM     40  N   UNL     1      -2.287 -15.269  10.114  1.00  0.00    -0.248 NA
ATOM     41  C   UNL     1      -2.537 -15.123   7.798  1.00  0.00     0.031 C 
ATOM     42  C   UNL     1       1.869 -13.645   9.724  1.00  0.00     0.029 A 
ATOM     43  N   UNL     1       0.335 -14.414  11.156  1.00  0.00    -0.354 N 
ATOM     44  C   UNL     1      -3.572 -15.658   9.762  1.00  0.00     0.074 A 
ATOM     45  C   UNL     1      -3.695 -15.478   8.333  1.00  0.00     0.031 C 
ATOM     46  C   UNL     1       2.403 -13.589  10.954  1.00  0.00     0.029 A 
ATOM     47  C   UNL     1       1.421 -14.068  11.921  1.00  0.00     0.049 A 
ATOM     48  H   UNL     1      -0.498 -14.778  11.536  1.00  0.00     0.167 HD
ATOM     49  C   UNL     1      -4.552 -16.151  10.555  1.00  0.00     0.037 A 
ATOM     50  C   UNL     1       1.601 -14.130  13.254  1.00  0.00     0.037 A 
ATOM     51  C   UNL     1      -4.416 -16.344  11.975  1.00  0.00     0.049 A 
ATOM     52  C   UNL     1       0.492 -14.675  14.114  1.00  0.00     0.074 A 
ATOM     53  C   UNL     1      -5.328 -16.886  12.863  1.00  0.00     0.029 A 
ATOM     54  N   UNL     1      -3.296 -15.993  12.716  1.00  0.00    -0.354 N 
ATOM     55  N   UNL     1      -0.692 -15.115  13.761  1.00  0.00    -0.248 NA
ATOM     56  C   UNL     1       0.750 -14.743  15.558  1.00  0.00     0.031 C 
ATOM     57  C   UNL     1      -4.784 -16.807  14.149  1.00  0.00     0.029 A 
ATOM     58  C   UNL     1      -3.505 -16.284  14.054  1.00  0.00     0.049 A 
ATOM     59  H   UNL     1      -2.475 -15.597  12.345  1.00  0.00     0.167 HD
ATOM     60  C   UNL     1      -1.304 -15.544  14.931  1.00  0.00     0.074 A 
ATOM     61  C   UNL     1      -0.352 -15.328  16.001  1.00  0.00     0.031 C 
ATOM     62  C   UNL     1      -2.543 -16.070  15.106  1.00  0.00     0.037 A 
BRANCH  49  63
ATOM     63  C   UNL     1      -5.857 -16.516   9.905  1.00  0.00     0.064 A 
ATOM     64  C   UNL     1      -5.961 -17.594   9.011  1.00  0.00     0.173 A 
ATOM     65  C   UNL     1      -7.026 -15.800  10.204  1.00  0.00     0.173 A 
ATOM     66  F   UNL     1      -4.873 -18.304   8.679  1.00  0.00    -0.203 F 
ATOM     67  C   UNL     1      -7.178 -17.919   8.418  1.00  0.00     0.198 A 
ATOM     68  C   UNL     1      -8.248 -16.152   9.638  1.00  0.00     0.198 A 
ATOM     69  F   UNL     1      -6.985 -14.763  11.054  1.00  0.00    -0.203 F 
ATOM     70  F   UNL     1      -7.241 -18.917   7.525  1.00  0.00    -0.200 F 
ATOM     71  C   UNL     1      -8.322 -17.205   8.739  1.00  0.00     0.200 A 
ATOM     72  F   UNL     1      -9.355 -15.469   9.961  1.00  0.00    -0.200 F 
ATOM     73  F   UNL     1      -9.495 -17.526   8.176  1.00  0.00    -0.200 F 
ENDBRANCH  49  63
BRANCH  50  74
ATOM     74  C   UNL     1       2.888 -13.688  13.856  1.00  0.00     0.064 A 
ATOM     75  C   UNL     1       3.751 -14.606  14.471  1.00  0.00     0.173 A 
ATOM     76  C   UNL     1       3.273 -12.340  13.846  1.00  0.00     0.173 A 
ATOM     77  F   UNL     1       3.421 -15.905  14.522  1.00  0.00    -0.203 F 
ATOM     78  C   UNL     1       4.933 -14.189  15.079  1.00  0.00     0.198 A 
ATOM     79  C   UNL     1       4.472 -11.928  14.424  1.00  0.00     0.198 A 
ATOM     80  F   UNL     1       2.489 -11.421  13.264  1.00  0.00    -0.203 F 
ATOM     81  F   UNL     1       5.710 -15.080  15.711  1.00  0.00    -0.200 F 
ATOM     82  C   UNL     1       5.295 -12.851  15.051  1.00  0.00     0.200 A 
ATOM     83  F   UNL     1       4.827 -10.637  14.378  1.00  0.00    -0.200 F 
ATOM     84  F   UNL     1       6.432 -12.450  15.635  1.00  0.00    -0.200 F 
ENDBRANCH  50  74
BRANCH  62  85
ATOM     85  C   UNL     1      -2.919 -16.495  16.498  1.00  0.00     0.064 A 
ATOM     86  C   UNL     1      -3.125 -15.567  17.529  1.00  0.00     0.173 A 
ATOM     87  C   UNL     1      -3.096 -17.856  16.796  1.00  0.00     0.173 A 
ATOM     88  F   UNL     1      -2.957 -14.255  17.301  1.00  0.00    -0.203 F 
ATOM     89  C   UNL     1      -3.452 -15.986  18.816  1.00  0.00     0.198 A 
ATOM     90  C   UNL     1      -3.463 -18.269  18.074  1.00  0.00     0.198 A 
ATOM     91  F   UNL     1      -2.922 -18.786  15.845  1.00  0.00    -0.203 F 
ATOM     92  F   UNL     1      -3.577 -15.086  19.800  1.00  0.00    -0.200 F 
ATOM     93  C   UNL     1      -3.628 -17.335  19.085  1.00  0.00     0.200 A 
ATOM     94  F   UNL     1      -3.651 -19.571  18.326  1.00  0.00    -0.200 F 
ATOM     95  F   UNL     1      -3.946 -17.737  20.323  1.00  0.00    -0.200 F 
ENDBRANCH  62  85
ENDBRANCH  36  37
ENDBRANCH  28  31
ENDBRANCH  26  27
ENDBRANCH  25  26
ENDBRANCH  24  25
ENDBRANCH  23  24
ENDBRANCH   3  23
TORSDOF 17
