REMARK SMILES CC(=O)N1C[C@@H]2C[N@H+](CC(=O)NCc3ccccc3)C[C@]2(C(=O)NCCCCNC(=O)c2ccc(-c3c4nc(c(-c5c(F)c(F)c(F)c(F)c5F)c5ccc([nH]5)c(-c5c(F)c(F)c(F)c(F)c5F)c5nc(c(-c6c(F)c(F)c(F)c(F)c6F)c6ccc3[nH]6)C=C5)C=C4)cc2)C1
REMARK SMILES IDX 25 1 24 2 22 3 23 4 21 6 4 7 5 8 95 9 6 10 7 11 20 12 8 13
REMARK SMILES IDX 2 15 1 16 3 17 9 18 10 19 11 20 12 21 13 23 14 24 15 25
REMARK SMILES IDX 19 26 16 27 18 28 17 29 26 30 27 31 28 32 29 33 30 34 31 36
REMARK SMILES IDX 32 37 33 38 94 39 34 40 93 41 35 42 36 43 37 44 87 45 38 46
REMARK SMILES IDX 92 47 86 48 88 49 39 50 91 51 85 52 84 53 40 55 72 56 52 57
REMARK SMILES IDX 71 58 53 59 56 60 70 61 89 62 54 63 55 64 69 66 90 67 57 68
REMARK SMILES IDX 41 69 42 70 50 71 43 72 44 73 48 74 51 75 45 76 46 77 49 78
REMARK SMILES IDX 47 79 73 80 74 81 82 82 75 83 76 84 80 85 83 86 77 87 78 88
REMARK SMILES IDX 81 89 79 90 58 91 59 92 67 93 60 94 61 95 65 96 68 97 62 98
REMARK SMILES IDX 63 99 66 100 64 101
REMARK H PARENT 24 5 8 14 12 22 29 35 88 54 56 65
REMARK Flexibility Score: inf
ROOT
ATOM      1  C   UNL     1       4.691   3.562   5.227  1.00  0.00     0.116 C 
ENDROOT
BRANCH   1   2
ATOM      2  N   UNL     1       4.512   2.110   5.371  1.00  0.00    -0.355 N 
ATOM      3  C   UNL     1       3.406   1.267   5.288  1.00  0.00     0.234 C 
ATOM      4  O   UNL     1       3.635   0.077   5.527  1.00  0.00    -0.274 OA
ATOM      5  H   UNL     1       5.351   1.633   5.567  1.00  0.00     0.163 HD
BRANCH   3   6
ATOM      6  C   UNL     1       1.951   1.823   4.944  1.00  0.00     0.125 C 
ATOM      7  N   UNL     1       0.332   0.741   3.298  1.00  0.00    -0.341 N 
ATOM      8  C   UNL     1      -0.539   1.256   4.277  1.00  0.00     0.130 C 
ATOM      9  C   UNL     1       1.671   0.625   3.880  1.00  0.00     0.143 C 
ATOM     10  C   UNL     1       0.373   1.470   5.459  1.00  0.00     0.087 C 
ATOM     11  C   UNL     1      -0.235   2.641   6.244  1.00  0.00     0.269 C 
ATOM     12  C   UNL     1       1.971   2.548   6.331  1.00  0.00     0.282 C 
ATOM     13  N   UNL     1       0.894   3.526   6.371  1.00  0.00    -0.326 N 
ATOM     14  H   UNL     1       0.854   4.110   7.206  1.00  0.00     0.348 HD
BRANCH   7  15
ATOM     15  C   UNL     1      -0.221   0.431   2.081  1.00  0.00     0.219 C 
ATOM     16  C   UNL     1       0.440  -0.570   1.187  1.00  0.00     0.114 C 
ATOM     17  O   UNL     1      -1.296   0.919   1.717  1.00  0.00    -0.275 OA
ENDBRANCH   7  15
BRANCH  13  18
ATOM     18  C   UNL     1       1.018   4.623   5.356  1.00  0.00     0.363 C 
BRANCH  18  19
ATOM     19  C   UNL     1       0.464   4.375   3.941  1.00  0.00     0.275 C 
ATOM     20  O   UNL     1      -0.755   4.479   3.749  1.00  0.00    -0.268 OA
ATOM     21  N   UNL     1       1.200   4.023   2.848  1.00  0.00    -0.347 N 
ATOM     22  H   UNL     1       0.688   3.485   2.203  1.00  0.00     0.164 HD
BRANCH  21  23
ATOM     23  C   UNL     1       2.575   4.262   2.417  1.00  0.00     0.151 C 
BRANCH  23  24
ATOM     24  C   UNL     1       3.260   3.062   1.777  1.00  0.00    -0.029 A 
ATOM     25  C   UNL     1       2.599   2.206   0.887  1.00  0.00     0.005 A 
ATOM     26  C   UNL     1       4.624   2.803   1.992  1.00  0.00     0.005 A 
ATOM     27  C   UNL     1       3.241   1.075   0.356  1.00  0.00     0.000 A 
ATOM     28  C   UNL     1       5.249   1.640   1.520  1.00  0.00     0.000 A 
ATOM     29  C   UNL     1       4.545   0.759   0.716  1.00  0.00     0.000 A 
ENDBRANCH  23  24
ENDBRANCH  21  23
ENDBRANCH  18  19
ENDBRANCH  13  18
ENDBRANCH   3   6
ENDBRANCH   1   2
BRANCH   1  30
ATOM     30  C   UNL     1       5.159   4.336   6.472  1.00  0.00     0.023 C 
BRANCH  30  31
ATOM     31  C   UNL     1       6.287   5.345   6.181  1.00  0.00     0.023 C 
BRANCH  31  32
ATOM     32  C   UNL     1       6.037   6.391   5.089  1.00  0.00     0.116 C 
BRANCH  32  33
ATOM     33  N   UNL     1       5.165   7.488   5.481  1.00  0.00    -0.352 N 
ATOM     34  C   UNL     1       5.368   8.845   5.324  1.00  0.00     0.251 C 
ATOM     35  H   UNL     1       4.321   7.229   5.916  1.00  0.00     0.163 HD
ATOM     36  O   UNL     1       4.544   9.654   5.743  1.00  0.00    -0.269 OA
BRANCH  34  37
ATOM     37  C   UNL     1       6.615   9.333   4.692  1.00  0.00     0.039 A 
ATOM     38  C   UNL     1       7.431  10.219   5.402  1.00  0.00     0.014 A 
ATOM     39  C   UNL     1       7.012   8.865   3.437  1.00  0.00     0.014 A 
ATOM     40  C   UNL     1       8.695  10.549   4.902  1.00  0.00     0.010 A 
ATOM     41  C   UNL     1       8.298   9.144   2.973  1.00  0.00     0.010 A 
ATOM     42  C   UNL     1       9.163   9.969   3.711  1.00  0.00    -0.014 A 
BRANCH  42  43
ATOM     43  C   UNL     1      10.558  10.188   3.240  1.00  0.00     0.031 A 
ATOM     44  C   UNL     1      10.818  10.884   1.932  1.00  0.00     0.074 A 
ATOM     45  C   UNL     1      11.593   9.700   3.956  1.00  0.00     0.049 A 
ATOM     46  N   UNL     1      11.954  11.086   1.312  1.00  0.00    -0.248 NA
ATOM     47  C   UNL     1       9.642  11.398   1.213  1.00  0.00     0.031 C 
ATOM     48  C   UNL     1      11.479   8.967   5.219  1.00  0.00     0.029 A 
ATOM     49  N   UNL     1      12.946   9.735   3.719  1.00  0.00    -0.354 N 
ATOM     50  C   UNL     1      11.628  11.743   0.132  1.00  0.00     0.074 A 
ATOM     51  C   UNL     1      10.186  11.853   0.094  1.00  0.00     0.031 C 
ATOM     52  C   UNL     1      12.707   8.641   5.654  1.00  0.00     0.029 A 
ATOM     53  C   UNL     1      13.696   9.107   4.686  1.00  0.00     0.049 A 
ATOM     54  H   UNL     1      13.343  10.170   2.930  1.00  0.00     0.167 HD
ATOM     55  C   UNL     1      12.457  12.237  -0.819  1.00  0.00     0.037 A 
ATOM     56  C   UNL     1      15.027   8.920   4.777  1.00  0.00     0.037 A 
ATOM     57  C   UNL     1      13.893  12.151  -0.772  1.00  0.00     0.049 A 
ATOM     58  C   UNL     1      15.922   9.467   3.695  1.00  0.00     0.074 A 
ATOM     59  C   UNL     1      14.818  12.649  -1.674  1.00  0.00     0.029 A 
ATOM     60  N   UNL     1      14.613  11.531   0.238  1.00  0.00    -0.354 N 
ATOM     61  N   UNL     1      15.602  10.134   2.614  1.00  0.00    -0.248 NA
ATOM     62  C   UNL     1      17.367   9.239   3.851  1.00  0.00     0.031 C 
ATOM     63  C   UNL     1      16.096  12.301  -1.227  1.00  0.00     0.029 A 
ATOM     64  C   UNL     1      15.970  11.626  -0.024  1.00  0.00     0.049 A 
ATOM     65  H   UNL     1      14.219  11.088   1.024  1.00  0.00     0.167 HD
ATOM     66  C   UNL     1      16.802  10.438   1.984  1.00  0.00     0.074 A 
ATOM     67  C   UNL     1      17.859   9.895   2.810  1.00  0.00     0.031 C 
ATOM     68  C   UNL     1      17.011  11.105   0.823  1.00  0.00     0.037 A 
BRANCH  55  69
ATOM     69  C   UNL     1      11.832  12.941  -1.988  1.00  0.00     0.064 A 
ATOM     70  C   UNL     1      11.233  14.202  -1.843  1.00  0.00     0.173 A 
ATOM     71  C   UNL     1      11.884  12.383  -3.273  1.00  0.00     0.173 A 
ATOM     72  F   UNL     1      11.149  14.774  -0.633  1.00  0.00    -0.203 F 
ATOM     73  C   UNL     1      10.690  14.867  -2.939  1.00  0.00     0.198 A 
ATOM     74  C   UNL     1      11.365  13.064  -4.372  1.00  0.00     0.198 A 
ATOM     75  F   UNL     1      12.451  11.182  -3.467  1.00  0.00    -0.203 F 
ATOM     76  F   UNL     1      10.087  16.052  -2.769  1.00  0.00    -0.200 F 
ATOM     77  C   UNL     1      10.764  14.302  -4.203  1.00  0.00     0.200 A 
ATOM     78  F   UNL     1      11.449  12.523  -5.595  1.00  0.00    -0.200 F 
ATOM     79  F   UNL     1      10.252  14.950  -5.258  1.00  0.00    -0.200 F 
ENDBRANCH  55  69
BRANCH  56  80
ATOM     80  C   UNL     1      15.613   8.197   5.939  1.00  0.00     0.064 A 
ATOM     81  C   UNL     1      16.424   8.865   6.869  1.00  0.00     0.173 A 
ATOM     82  C   UNL     1      15.418   6.820   6.118  1.00  0.00     0.173 A 
ATOM     83  F   UNL     1      16.659  10.178   6.729  1.00  0.00    -0.203 F 
ATOM     84  C   UNL     1      17.047   8.178   7.909  1.00  0.00     0.198 A 
ATOM     85  C   UNL     1      16.016   6.139   7.178  1.00  0.00     0.198 A 
ATOM     86  F   UNL     1      14.648   6.133   5.262  1.00  0.00    -0.203 F 
ATOM     87  F   UNL     1      17.869   8.830   8.742  1.00  0.00    -0.200 F 
ATOM     88  C   UNL     1      16.841   6.816   8.064  1.00  0.00     0.200 A 
ATOM     89  F   UNL     1      15.803   4.825   7.332  1.00  0.00    -0.200 F 
ATOM     90  F   UNL     1      17.446   6.153   9.059  1.00  0.00    -0.200 F 
ENDBRANCH  56  80
BRANCH  68  91
ATOM     91  C   UNL     1      18.433  11.333   0.403  1.00  0.00     0.064 A 
ATOM     92  C   UNL     1      19.239  10.288  -0.073  1.00  0.00     0.173 A 
ATOM     93  C   UNL     1      18.983  12.624   0.437  1.00  0.00     0.173 A 
ATOM     94  F   UNL     1      18.764   9.034  -0.112  1.00  0.00    -0.203 F 
ATOM     95  C   UNL     1      20.551  10.523  -0.475  1.00  0.00     0.198 A 
ATOM     96  C   UNL     1      20.285  12.860   0.006  1.00  0.00     0.198 A 
ATOM     97  F   UNL     1      18.251  13.658   0.877  1.00  0.00    -0.203 F 
ATOM     98  F   UNL     1      21.318   9.502  -0.882  1.00  0.00    -0.200 F 
ATOM     99  C   UNL     1      21.070  11.809  -0.443  1.00  0.00     0.200 A 
ATOM    100  F   UNL     1      20.780  14.105   0.025  1.00  0.00    -0.200 F 
ATOM    101  F   UNL     1      22.330  12.034  -0.838  1.00  0.00    -0.200 F 
ENDBRANCH  68  91
ENDBRANCH  42  43
ENDBRANCH  34  37
ENDBRANCH  32  33
ENDBRANCH  31  32
ENDBRANCH  30  31
ENDBRANCH   1  30
TORSDOF 16
