REMARK SMILES Cc1ccccc1NC(=S)NN1C(=O)CS[C@H]1c1ccccc1C(=O)NCCCCNC(=O)c1ccc(-c2c3nc(c(-c4c(F)c(F)c(F)c(F)c4F)c4ccc([nH]4)c(-c4c(F)c(F)c(F)c(F)c4F)c4nc(c(-c5c(F)c(F)c(F)c(F)c5F)c5ccc2[nH]5)C=C4)C=C3)cc1
REMARK SMILES IDX 27 1 26 2 24 3 25 4 23 6 18 7 19 8 20 9 22 10 21 11 17 12
REMARK SMILES IDX 12 13 13 14 14 15 15 16 16 17 11 18 9 20 10 21 8 22 7 24
REMARK SMILES IDX 1 25 2 26 3 27 4 28 6 29 5 30 28 31 29 32 30 33 31 34 32 35
REMARK SMILES IDX 33 37 34 38 35 39 96 40 36 41 95 42 37 43 38 44 39 45 89 46
REMARK SMILES IDX 40 47 94 48 88 49 90 50 41 51 93 52 87 53 86 54 42 56 74 57
REMARK SMILES IDX 54 58 73 59 55 60 58 61 72 62 91 63 56 64 57 65 71 67 92 68
REMARK SMILES IDX 59 69 43 70 44 71 52 72 45 73 46 74 50 75 53 76 47 77 48 78
REMARK SMILES IDX 51 79 49 80 75 81 76 82 84 83 77 84 78 85 82 86 85 87 79 88
REMARK SMILES IDX 80 89 83 90 81 91 60 92 61 93 69 94 62 95 63 96 67 97 70 98
REMARK SMILES IDX 64 99 65 100 68 101 66 102
REMARK H PARENT 26 5 11 19 8 23 31 36 90 55 58 66
REMARK Flexibility Score: inf
ROOT
ATOM      1  C   UNL     1      -3.333   2.911   0.472  1.00  0.00     0.116 C 
ENDROOT
BRANCH   1   2
ATOM      2  N   UNL     1      -2.550   4.080   1.279  1.00  0.00    -0.352 N 
ATOM      3  C   UNL     1      -2.525   5.427   1.083  1.00  0.00     0.251 C 
ATOM      4  O   UNL     1      -1.748   6.163   1.674  1.00  0.00    -0.269 OA
ATOM      5  H   UNL     1      -2.003   3.763   2.034  1.00  0.00     0.163 HD
BRANCH   3   6
ATOM      6  C   UNL     1      -3.550   5.942   0.182  1.00  0.00     0.046 A 
ATOM      7  C   UNL     1      -4.046   5.144  -0.862  1.00  0.00    -0.001 A 
ATOM      8  C   UNL     1      -5.364   5.453  -1.275  1.00  0.00     0.007 A 
ATOM      9  C   UNL     1      -6.076   6.543  -0.728  1.00  0.00     0.000 A 
ATOM     10  C   UNL     1      -4.199   7.104   0.642  1.00  0.00     0.014 A 
ATOM     11  C   UNL     1      -5.471   7.403   0.184  1.00  0.00     0.001 A 
BRANCH   7  12
ATOM     12  C   UNL     1      -3.255   3.880  -1.432  1.00  0.00     0.197 C 
ATOM     13  N   UNL     1      -1.641   3.330  -0.629  1.00  0.00    -0.236 N 
ATOM     14  C   UNL     1      -1.663   1.998   0.517  1.00  0.00     0.252 C 
ATOM     15  O   UNL     1      -0.774   2.025   1.341  1.00  0.00    -0.272 OA
ATOM     16  C   UNL     1      -3.432   0.923   0.426  1.00  0.00     0.174 C 
ATOM     17  S   UNL     1      -4.832   2.151  -1.085  1.00  0.00    -0.120 SA
BRANCH  13  18
ATOM     18  N   UNL     1      -0.296   3.892  -0.835  1.00  0.00    -0.270 N 
ATOM     19  H   UNL     1      -0.237   4.679  -1.422  1.00  0.00     0.191 HD
BRANCH  18  20
ATOM     20  C   UNL     1       0.925   3.424  -0.281  1.00  0.00     0.189 C 
ATOM     21  S   UNL     1       2.140   4.604  -0.084  1.00  0.00    -0.039 S 
BRANCH  20  22
ATOM     22  N   UNL     1       1.257   2.111   0.140  1.00  0.00    -0.331 N 
ATOM     23  H   UNL     1       1.988   2.074   0.798  1.00  0.00     0.169 HD
BRANCH  22  24
ATOM     24  C   UNL     1       0.703   0.770  -0.229  1.00  0.00     0.043 A 
ATOM     25  C   UNL     1       2.695   0.518  -2.066  1.00  0.00     0.046 C 
ATOM     26  C   UNL     1       1.216   0.283  -1.840  1.00  0.00    -0.028 A 
ATOM     27  C   UNL     1       0.244  -0.871  -2.809  1.00  0.00     0.005 A 
ATOM     28  C   UNL     1      -1.202  -1.696  -2.116  1.00  0.00     0.000 A 
ATOM     29  C   UNL     1      -0.719  -0.128   0.538  1.00  0.00     0.026 A 
ATOM     30  C   UNL     1      -1.740  -1.283  -0.441  1.00  0.00     0.002 A 
ENDBRANCH  22  24
ENDBRANCH  20  22
ENDBRANCH  18  20
ENDBRANCH  13  18
ENDBRANCH   7  12
ENDBRANCH   3   6
ENDBRANCH   1   2
BRANCH   1  31
ATOM     31  C   UNL     1      -2.537   1.634  -1.165  1.00  0.00     0.023 C 
BRANCH  31  32
ATOM     32  C   UNL     1      -1.016   0.377  -1.449  1.00  0.00     0.023 C 
BRANCH  32  33
ATOM     33  C   UNL     1       0.271  -1.288  -0.742  1.00  0.00     0.116 C 
BRANCH  33  34
ATOM     34  N   UNL     1      -0.107  -2.810  -0.100  1.00  0.00    -0.352 N 
ATOM     35  C   UNL     1       0.753  -3.908  -0.191  1.00  0.00     0.251 C 
ATOM     36  H   UNL     1      -0.971  -2.926   0.357  1.00  0.00     0.163 HD
ATOM     37  O   UNL     1       0.907  -4.643  -1.148  1.00  0.00    -0.269 OA
BRANCH  35  38
ATOM     38  C   UNL     1       1.547  -4.046   1.063  1.00  0.00     0.039 A 
ATOM     39  C   UNL     1       0.936  -4.738   2.117  1.00  0.00     0.014 A 
ATOM     40  C   UNL     1       2.263  -2.872   1.292  1.00  0.00     0.014 A 
ATOM     41  C   UNL     1       0.803  -4.101   3.346  1.00  0.00     0.010 A 
ATOM     42  C   UNL     1       1.928  -2.157   2.416  1.00  0.00     0.010 A 
ATOM     43  C   UNL     1       1.185  -2.766   3.436  1.00  0.00    -0.014 A 
BRANCH  43  44
ATOM     44  C   UNL     1       1.058  -1.946   4.623  1.00  0.00     0.031 A 
ATOM     45  C   UNL     1       2.309  -1.785   5.397  1.00  0.00     0.074 A 
ATOM     46  C   UNL     1      -0.080  -1.278   4.919  1.00  0.00     0.049 A 
ATOM     47  N   UNL     1       2.362  -1.307   6.585  1.00  0.00    -0.248 NA
ATOM     48  C   UNL     1       3.623  -2.220   4.903  1.00  0.00     0.031 C 
ATOM     49  C   UNL     1      -0.248  -0.209   5.904  1.00  0.00     0.029 A 
ATOM     50  N   UNL     1      -1.397  -1.583   4.522  1.00  0.00    -0.354 N 
ATOM     51  C   UNL     1       3.686  -1.089   6.876  1.00  0.00     0.074 A 
ATOM     52  C   UNL     1       4.432  -1.777   5.865  1.00  0.00     0.031 C 
ATOM     53  C   UNL     1      -1.534  -0.172   6.292  1.00  0.00     0.029 A 
ATOM     54  C   UNL     1      -2.194  -1.302   5.666  1.00  0.00     0.049 A 
ATOM     55  H   UNL     1      -1.699  -1.917   3.646  1.00  0.00     0.167 HD
ATOM     56  C   UNL     1       3.975  -0.221   7.876  1.00  0.00     0.037 A 
ATOM     57  C   UNL     1      -2.827  -2.304   6.344  1.00  0.00     0.037 A 
ATOM     58  C   UNL     1       2.790  -0.022   8.707  1.00  0.00     0.049 A 
ATOM     59  C   UNL     1      -2.339  -2.459   7.767  1.00  0.00     0.074 A 
ATOM     60  C   UNL     1       1.864   0.998   8.821  1.00  0.00     0.029 A 
ATOM     61  N   UNL     1       2.218  -1.146   9.304  1.00  0.00    -0.354 N 
ATOM     62  N   UNL     1      -1.196  -1.995   8.197  1.00  0.00    -0.248 NA
ATOM     63  C   UNL     1      -3.097  -3.134   8.816  1.00  0.00     0.031 C 
ATOM     64  C   UNL     1       0.674   0.432   9.367  1.00  0.00     0.029 A 
ATOM     65  C   UNL     1       0.900  -0.908   9.641  1.00  0.00     0.049 A 
ATOM     66  H   UNL     1       2.690  -1.995   9.464  1.00  0.00     0.167 HD
ATOM     67  C   UNL     1      -1.044  -2.300   9.524  1.00  0.00     0.074 A 
ATOM     68  C   UNL     1      -2.270  -2.999   9.867  1.00  0.00     0.031 C 
ATOM     69  C   UNL     1       0.080  -1.966  10.227  1.00  0.00     0.037 A 
BRANCH  56  70
ATOM     70  C   UNL     1       5.254   0.570   7.981  1.00  0.00     0.064 A 
ATOM     71  C   UNL     1       5.473   1.396   9.101  1.00  0.00     0.173 A 
ATOM     72  C   UNL     1       6.232   0.680   6.965  1.00  0.00     0.173 A 
ATOM     73  F   UNL     1       4.606   1.412  10.124  1.00  0.00    -0.203 F 
ATOM     74  C   UNL     1       6.574   2.255   9.194  1.00  0.00     0.198 A 
ATOM     75  C   UNL     1       7.360   1.496   7.084  1.00  0.00     0.198 A 
ATOM     76  F   UNL     1       6.114   0.063   5.784  1.00  0.00    -0.203 F 
ATOM     77  F   UNL     1       6.700   3.061  10.257  1.00  0.00    -0.200 F 
ATOM     78  C   UNL     1       7.525   2.294   8.193  1.00  0.00     0.200 A 
ATOM     79  F   UNL     1       8.265   1.524   6.094  1.00  0.00    -0.200 F 
ATOM     80  F   UNL     1       8.581   3.113   8.284  1.00  0.00    -0.200 F 
ENDBRANCH  56  70
BRANCH  57  81
ATOM     81  C   UNL     1      -3.286  -3.386   5.428  1.00  0.00     0.064 A 
ATOM     82  C   UNL     1      -4.240  -3.025   4.454  1.00  0.00     0.173 A 
ATOM     83  C   UNL     1      -2.486  -4.505   5.164  1.00  0.00     0.173 A 
ATOM     84  F   UNL     1      -5.041  -1.967   4.663  1.00  0.00    -0.203 F 
ATOM     85  C   UNL     1      -4.253  -3.625   3.197  1.00  0.00     0.198 A 
ATOM     86  C   UNL     1      -2.528  -5.127   3.911  1.00  0.00     0.198 A 
ATOM     87  F   UNL     1      -1.560  -4.901   6.048  1.00  0.00    -0.203 F 
ATOM     88  F   UNL     1      -5.040  -3.130   2.230  1.00  0.00    -0.200 F 
ATOM     89  C   UNL     1      -3.367  -4.649   2.914  1.00  0.00     0.200 A 
ATOM     90  F   UNL     1      -1.671  -6.119   3.629  1.00  0.00    -0.200 F 
ATOM     91  F   UNL     1      -3.280  -5.133   1.667  1.00  0.00    -0.200 F 
ENDBRANCH  57  81
BRANCH  69  92
ATOM     92  C   UNL     1       0.483  -2.550  11.568  1.00  0.00     0.064 A 
ATOM     93  C   UNL     1       0.045  -3.796  12.050  1.00  0.00     0.173 A 
ATOM     94  C   UNL     1       1.476  -1.917  12.358  1.00  0.00     0.173 A 
ATOM     95  F   UNL     1      -0.781  -4.573  11.339  1.00  0.00    -0.203 F 
ATOM     96  C   UNL     1       0.498  -4.325  13.262  1.00  0.00     0.198 A 
ATOM     97  C   UNL     1       1.982  -2.485  13.527  1.00  0.00     0.198 A 
ATOM     98  F   UNL     1       2.013  -0.740  12.005  1.00  0.00    -0.203 F 
ATOM     99  F   UNL     1       0.001  -5.490  13.702  1.00  0.00    -0.200 F 
ATOM    100  C   UNL     1       1.475  -3.678  13.993  1.00  0.00     0.200 A 
ATOM    101  F   UNL     1       2.980  -1.877  14.184  1.00  0.00    -0.200 F 
ATOM    102  F   UNL     1       1.944  -4.215  15.127  1.00  0.00    -0.200 F 
ENDBRANCH  69  92
ENDBRANCH  43  44
ENDBRANCH  35  38
ENDBRANCH  33  34
ENDBRANCH  32  33
ENDBRANCH  31  32
ENDBRANCH   1  31
TORSDOF 16
