REMARK SMILES CCCN(CC)S(=O)(=O)c1ccc(C(=O)NCCCCNC(=O)c2ccc(-c3c4nc(c(-c5c(F)c(F)c(F)c(F)c5F)c5ccc([nH]5)c(-c5c(F)c(F)c(F)c(F)c5F)c5nc(c(-c6c(F)c(F)c(F)c(F)c6F)c6ccc3[nH]6)C=C5)C=C4)cc2)o1
REMARK SMILES IDX 17 1 16 2 14 3 15 4 13 6 10 7 11 8 87 9 12 10 7 11 8 12 9 13
REMARK SMILES IDX 4 14 3 15 2 16 1 17 5 18 6 19 18 20 19 21 20 22 21 23 22 24
REMARK SMILES IDX 23 26 24 27 25 28 86 29 26 30 85 31 27 32 28 33 29 34 79 35
REMARK SMILES IDX 30 36 84 37 78 38 80 39 31 40 83 41 77 42 76 43 32 45 64 46
REMARK SMILES IDX 44 47 63 48 45 49 48 50 62 51 81 52 46 53 47 54 61 56 82 57
REMARK SMILES IDX 49 58 33 59 34 60 42 61 35 62 36 63 40 64 43 65 37 66 38 67
REMARK SMILES IDX 41 68 39 69 65 70 66 71 74 72 67 73 68 74 72 75 75 76 69 77
REMARK SMILES IDX 70 78 73 79 71 80 50 81 51 82 59 83 52 84 53 85 57 86 60 87
REMARK SMILES IDX 54 88 55 89 58 90 56 91
REMARK H PARENT 16 5 21 25 80 44 48 55
REMARK Flexibility Score: inf
ROOT
ATOM      1  C   UNL     1      -1.356   8.018   3.483  1.00  0.00     0.116 C 
ENDROOT
BRANCH   1   2
ATOM      2  N   UNL     1      -0.092   7.994   2.784  1.00  0.00    -0.349 N 
ATOM      3  C   UNL     1       0.693   6.940   2.375  1.00  0.00     0.287 C 
ATOM      4  O   UNL     1       1.722   7.255   1.772  1.00  0.00    -0.266 OA
ATOM      5  H   UNL     1       0.270   8.882   2.563  1.00  0.00     0.163 HD
BRANCH   3   6
ATOM      6  C   UNL     1       0.318   5.556   2.626  1.00  0.00     0.193 A 
ATOM      7  C   UNL     1       0.558   3.353   2.258  1.00  0.00     0.234 A 
ATOM      8  C   UNL     1      -0.515   3.522   3.119  1.00  0.00     0.065 A 
ATOM      9  O   UNL     1       1.058   4.603   1.973  1.00  0.00    -0.438 OA
ATOM     10  C   UNL     1      -0.634   4.905   3.388  1.00  0.00     0.058 A 
BRANCH   7  11
ATOM     11  S   UNL     1       1.259   1.882   1.507  1.00  0.00     0.276 S 
ATOM     12  O   UNL     1       2.691   2.079   1.511  1.00  0.00    -0.204 OA
ATOM     13  O   UNL     1       0.515   1.750   0.272  1.00  0.00    -0.204 OA
BRANCH  11  14
ATOM     14  N   UNL     1       0.906   0.519   2.491  1.00  0.00    -0.195 NA
BRANCH  14  15
ATOM     15  C   UNL     1       1.352  -0.789   1.910  1.00  0.00     0.102 C 
BRANCH  15  16
ATOM     16  C   UNL     1       0.402  -1.323   0.837  1.00  0.00     0.013 C 
ATOM     17  C   UNL     1       0.881  -1.082  -0.592  1.00  0.00     0.005 C 
ENDBRANCH  15  16
ENDBRANCH  14  15
BRANCH  14  18
ATOM     18  C   UNL     1       1.234   0.623   3.945  1.00  0.00     0.099 C 
ATOM     19  C   UNL     1       2.718   0.684   4.260  1.00  0.00     0.022 C 
ENDBRANCH  14  18
ENDBRANCH  11  14
ENDBRANCH   7  11
ENDBRANCH   3   6
ENDBRANCH   1   2
BRANCH   1  20
ATOM     20  C   UNL     1      -1.154   8.001   4.998  1.00  0.00     0.023 C 
BRANCH  20  21
ATOM     21  C   UNL     1      -0.748   9.354   5.597  1.00  0.00     0.023 C 
BRANCH  21  22
ATOM     22  C   UNL     1      -1.765  10.476   5.406  1.00  0.00     0.116 C 
BRANCH  22  23
ATOM     23  N   UNL     1      -3.084  10.151   5.923  1.00  0.00    -0.352 N 
ATOM     24  C   UNL     1      -4.095  11.007   6.284  1.00  0.00     0.251 C 
ATOM     25  H   UNL     1      -3.279   9.191   6.027  1.00  0.00     0.163 HD
ATOM     26  O   UNL     1      -5.121  10.575   6.797  1.00  0.00    -0.269 OA
BRANCH  24  27
ATOM     27  C   UNL     1      -3.916  12.461   6.097  1.00  0.00     0.039 A 
ATOM     28  C   UNL     1      -4.152  13.305   7.186  1.00  0.00     0.014 A 
ATOM     29  C   UNL     1      -3.512  12.986   4.867  1.00  0.00     0.014 A 
ATOM     30  C   UNL     1      -3.918  14.675   7.061  1.00  0.00     0.010 A 
ATOM     31  C   UNL     1      -3.236  14.345   4.756  1.00  0.00     0.010 A 
ATOM     32  C   UNL     1      -3.431  15.198   5.853  1.00  0.00    -0.014 A 
BRANCH  32  33
ATOM     33  C   UNL     1      -3.112  16.638   5.718  1.00  0.00     0.031 A 
ATOM     34  C   UNL     1      -3.953  17.515   4.838  1.00  0.00     0.074 A 
ATOM     35  C   UNL     1      -2.020  17.134   6.329  1.00  0.00     0.049 A 
ATOM     36  N   UNL     1      -3.780  18.770   4.514  1.00  0.00    -0.248 NA
ATOM     37  C   UNL     1      -5.132  16.888   4.221  1.00  0.00     0.031 C 
ATOM     38  C   UNL     1      -1.102  16.369   7.174  1.00  0.00     0.029 A 
ATOM     39  N   UNL     1      -1.489  18.399   6.319  1.00  0.00    -0.354 N 
ATOM     40  C   UNL     1      -4.810  19.077   3.637  1.00  0.00     0.074 A 
ATOM     41  C   UNL     1      -5.590  17.871   3.458  1.00  0.00     0.031 C 
ATOM     42  C   UNL     1      -0.126  17.181   7.609  1.00  0.00     0.029 A 
ATOM     43  C   UNL     1      -0.335  18.515   7.054  1.00  0.00     0.049 A 
ATOM     44  H   UNL     1      -1.896  19.151   5.832  1.00  0.00     0.167 HD
ATOM     45  C   UNL     1      -5.086  20.263   3.044  1.00  0.00     0.037 A 
ATOM     46  C   UNL     1       0.465  19.579   7.251  1.00  0.00     0.037 A 
ATOM     47  C   UNL     1      -4.332  21.470   3.252  1.00  0.00     0.049 A 
ATOM     48  C   UNL     1       0.113  20.894   6.614  1.00  0.00     0.074 A 
ATOM     49  C   UNL     1      -4.566  22.735   2.741  1.00  0.00     0.029 A 
ATOM     50  N   UNL     1      -3.197  21.561   4.043  1.00  0.00    -0.354 N 
ATOM     51  N   UNL     1      -0.891  21.185   5.823  1.00  0.00    -0.248 NA
ATOM     52  C   UNL     1       1.001  22.029   6.901  1.00  0.00     0.031 C 
ATOM     53  C   UNL     1      -3.560  23.588   3.209  1.00  0.00     0.029 A 
ATOM     54  C   UNL     1      -2.716  22.860   4.031  1.00  0.00     0.049 A 
ATOM     55  H   UNL     1      -2.793  20.813   4.541  1.00  0.00     0.167 HD
ATOM     56  C   UNL     1      -0.769  22.536   5.535  1.00  0.00     0.074 A 
ATOM     57  C   UNL     1       0.402  23.012   6.242  1.00  0.00     0.031 C 
ATOM     58  C   UNL     1      -1.556  23.313   4.753  1.00  0.00     0.037 A 
BRANCH  45  59
ATOM     59  C   UNL     1      -6.258  20.308   2.113  1.00  0.00     0.064 A 
ATOM     60  C   UNL     1      -7.575  20.298   2.594  1.00  0.00     0.173 A 
ATOM     61  C   UNL     1      -6.062  20.387   0.726  1.00  0.00     0.173 A 
ATOM     62  F   UNL     1      -7.811  20.208   3.911  1.00  0.00    -0.203 F 
ATOM     63  C   UNL     1      -8.656  20.342   1.718  1.00  0.00     0.198 A 
ATOM     64  C   UNL     1      -7.146  20.452  -0.146  1.00  0.00     0.198 A 
ATOM     65  F   UNL     1      -4.821  20.401   0.218  1.00  0.00    -0.203 F 
ATOM     66  F   UNL     1      -9.907  20.290   2.197  1.00  0.00    -0.200 F 
ATOM     67  C   UNL     1      -8.441  20.423   0.350  1.00  0.00     0.200 A 
ATOM     68  F   UNL     1      -6.937  20.536  -1.467  1.00  0.00    -0.200 F 
ATOM     69  F   UNL     1      -9.483  20.466  -0.492  1.00  0.00    -0.200 F 
ENDBRANCH  45  59
BRANCH  46  70
ATOM     70  C   UNL     1       1.661  19.450   8.117  1.00  0.00     0.064 A 
ATOM     71  C   UNL     1       1.671  19.996   9.407  1.00  0.00     0.173 A 
ATOM     72  C   UNL     1       2.809  18.775   7.680  1.00  0.00     0.173 A 
ATOM     73  F   UNL     1       0.601  20.667   9.858  1.00  0.00    -0.203 F 
ATOM     74  C   UNL     1       2.792  19.882  10.226  1.00  0.00     0.198 A 
ATOM     75  C   UNL     1       3.922  18.645   8.507  1.00  0.00     0.198 A 
ATOM     76  F   UNL     1       2.843  18.232   6.455  1.00  0.00    -0.203 F 
ATOM     77  F   UNL     1       2.788  20.439  11.445  1.00  0.00    -0.200 F 
ATOM     78  C   UNL     1       3.915  19.203   9.778  1.00  0.00     0.200 A 
ATOM     79  F   UNL     1       5.002  17.980   8.075  1.00  0.00    -0.200 F 
ATOM     80  F   UNL     1       4.992  19.091  10.567  1.00  0.00    -0.200 F 
ENDBRANCH  46  70
BRANCH  58  81
ATOM     81  C   UNL     1      -1.194  24.762   4.646  1.00  0.00     0.064 A 
ATOM     82  C   UNL     1      -0.137  25.192   3.833  1.00  0.00     0.173 A 
ATOM     83  C   UNL     1      -1.940  25.731   5.333  1.00  0.00     0.173 A 
ATOM     84  F   UNL     1       0.613  24.297   3.172  1.00  0.00    -0.203 F 
ATOM     85  C   UNL     1       0.171  26.544   3.722  1.00  0.00     0.198 A 
ATOM     86  C   UNL     1      -1.640  27.084   5.205  1.00  0.00     0.198 A 
ATOM     87  F   UNL     1      -2.961  25.365   6.121  1.00  0.00    -0.203 F 
ATOM     88  F   UNL     1       1.206  26.934   2.964  1.00  0.00    -0.200 F 
ATOM     89  C   UNL     1      -0.583  27.489   4.402  1.00  0.00     0.200 A 
ATOM     90  F   UNL     1      -2.373  27.996   5.858  1.00  0.00    -0.200 F 
ATOM     91  F   UNL     1      -0.287  28.791   4.290  1.00  0.00    -0.200 F 
ENDBRANCH  58  81
ENDBRANCH  32  33
ENDBRANCH  24  27
ENDBRANCH  22  23
ENDBRANCH  21  22
ENDBRANCH  20  21
ENDBRANCH   1  20
TORSDOF 16
