REMARK SMILES CCN(Cc1cn(CC)nc1C)C(=O)c1ccn([C@@H](C)C(=O)NCCCCNC(=O)c2ccc(-c3c4nc(c(-c5c(F)c(F)c(F)c(F)c5F)c5ccc([nH]5)c(-c5c(F)c(F)c(F)c(F)c5F)c5nc(c(-c6c(F)c(F)c(F)c(F)c6F)c6ccc3[nH]6)C=C5)C=C4)cc2)n1
REMARK SMILES IDX 21 1 22 2 23 3 19 5 20 6 18 7 15 8 16 9 94 10 17 11 13 12
REMARK SMILES IDX 14 13 3 14 2 15 1 16 4 17 5 18 6 19 11 20 7 21 10 22 12 23
REMARK SMILES IDX 8 24 9 25 24 26 25 27 26 28 27 29 28 30 29 31 30 33 31 34
REMARK SMILES IDX 32 35 93 36 33 37 92 38 34 39 35 40 36 41 86 42 37 43 91 44
REMARK SMILES IDX 85 45 87 46 38 47 90 48 84 49 83 50 39 52 71 53 51 54 70 55
REMARK SMILES IDX 52 56 55 57 69 58 88 59 53 60 54 61 68 63 89 64 56 65 40 66
REMARK SMILES IDX 41 67 49 68 42 69 43 70 47 71 50 72 44 73 45 74 48 75 46 76
REMARK SMILES IDX 72 77 73 78 81 79 74 80 75 81 79 82 82 83 76 84 77 85 80 86
REMARK SMILES IDX 78 87 57 88 58 89 66 90 59 91 60 92 64 93 67 94 61 95 62 96
REMARK SMILES IDX 65 97 63 98
REMARK H PARENT 23 4 28 32 87 51 55 62
REMARK Flexibility Score: inf
ROOT
ATOM      1  C   UNL     1       6.100   0.055   6.878  1.00  0.00     0.244 C 
ATOM      2  O   UNL     1       7.282   0.029   6.505  1.00  0.00    -0.273 OA
ATOM      3  N   UNL     1       5.817  -0.807   7.899  1.00  0.00    -0.354 N 
ATOM      4  H   UNL     1       6.598  -1.340   8.173  1.00  0.00     0.163 HD
ENDROOT
BRANCH   1   5
ATOM      5  C   UNL     1       5.128   1.058   6.225  1.00  0.00     0.193 C 
ATOM      6  C   UNL     1       4.611   2.127   7.179  1.00  0.00     0.044 C 
BRANCH   5   7
ATOM      7  N   UNL     1       4.078   0.402   5.457  1.00  0.00    -0.260 N 
ATOM      8  C   UNL     1       3.160  -0.528   3.784  1.00  0.00     0.150 A 
ATOM      9  C   UNL     1       2.860  -1.272   4.940  1.00  0.00     0.056 A 
ATOM     10  N   UNL     1       3.987   0.495   4.106  1.00  0.00    -0.167 NA
ATOM     11  C   UNL     1       3.086  -0.381   5.953  1.00  0.00     0.110 A 
BRANCH   8  12
ATOM     12  C   UNL     1       2.643  -0.810   2.438  1.00  0.00     0.274 C 
ATOM     13  O   UNL     1       3.407  -0.974   1.487  1.00  0.00    -0.267 OA
BRANCH  12  14
ATOM     14  N   UNL     1       1.234  -0.902   2.284  1.00  0.00    -0.333 N 
BRANCH  14  15
ATOM     15  C   UNL     1       0.739  -1.125   0.926  1.00  0.00     0.117 C 
ATOM     16  C   UNL     1       0.909   0.088   0.020  1.00  0.00     0.027 C 
ENDBRANCH  14  15
BRANCH  14  17
ATOM     17  C   UNL     1       0.232  -0.543   3.308  1.00  0.00     0.159 C 
BRANCH  17  18
ATOM     18  C   UNL     1      -0.055  -1.635   4.307  1.00  0.00     0.012 A 
ATOM     19  C   UNL     1      -0.181  -1.456   5.681  1.00  0.00     0.114 A 
ATOM     20  C   UNL     1      -0.197  -3.048   4.153  1.00  0.00     0.064 A 
ATOM     21  N   UNL     1      -0.182  -2.699   6.246  1.00  0.00    -0.272 N 
ATOM     22  N   UNL     1      -0.245  -3.679   5.336  1.00  0.00    -0.178 NA
ATOM     23  C   UNL     1      -0.208  -3.882   2.928  1.00  0.00     0.069 C 
BRANCH  21  24
ATOM     24  C   UNL     1       0.123  -3.027   7.627  1.00  0.00     0.141 C 
ATOM     25  C   UNL     1      -0.982  -3.772   8.348  1.00  0.00     0.029 C 
ENDBRANCH  21  24
ENDBRANCH  17  18
ENDBRANCH  14  17
ENDBRANCH  12  14
ENDBRANCH   8  12
ENDBRANCH   5   7
ENDBRANCH   1   5
BRANCH   3  26
ATOM     26  C   UNL     1       4.628  -1.120   8.676  1.00  0.00     0.116 C 
BRANCH  26  27
ATOM     27  C   UNL     1       3.897  -2.381   8.184  1.00  0.00     0.023 C 
BRANCH  27  28
ATOM     28  C   UNL     1       4.368  -3.743   8.692  1.00  0.00     0.023 C 
BRANCH  28  29
ATOM     29  C   UNL     1       4.160  -3.988  10.177  1.00  0.00     0.116 C 
BRANCH  29  30
ATOM     30  N   UNL     1       2.756  -3.928  10.589  1.00  0.00    -0.352 N 
ATOM     31  C   UNL     1       2.258  -3.839  11.881  1.00  0.00     0.251 C 
ATOM     32  H   UNL     1       2.088  -3.953   9.866  1.00  0.00     0.163 HD
ATOM     33  O   UNL     1       1.121  -4.177  12.149  1.00  0.00    -0.269 OA
BRANCH  31  34
ATOM     34  C   UNL     1       3.152  -3.307  12.925  1.00  0.00     0.039 A 
ATOM     35  C   UNL     1       3.298  -3.945  14.158  1.00  0.00     0.014 A 
ATOM     36  C   UNL     1       3.918  -2.193  12.596  1.00  0.00     0.014 A 
ATOM     37  C   UNL     1       4.305  -3.510  15.016  1.00  0.00     0.010 A 
ATOM     38  C   UNL     1       5.007  -1.874  13.365  1.00  0.00     0.010 A 
ATOM     39  C   UNL     1       5.184  -2.495  14.597  1.00  0.00    -0.014 A 
BRANCH  39  40
ATOM     40  C   UNL     1       6.383  -2.178  15.368  1.00  0.00     0.031 A 
ATOM     41  C   UNL     1       7.218  -3.360  15.715  1.00  0.00     0.074 A 
ATOM     42  C   UNL     1       6.822  -0.918  15.582  1.00  0.00     0.049 A 
ATOM     43  N   UNL     1       7.415  -3.849  16.893  1.00  0.00    -0.248 NA
ATOM     44  C   UNL     1       7.785  -4.177  14.630  1.00  0.00     0.031 C 
ATOM     45  C   UNL     1       6.266   0.336  15.063  1.00  0.00     0.029 A 
ATOM     46  N   UNL     1       7.940  -0.493  16.237  1.00  0.00    -0.354 N 
ATOM     47  C   UNL     1       8.307  -4.904  16.728  1.00  0.00     0.074 A 
ATOM     48  C   UNL     1       8.344  -5.179  15.316  1.00  0.00     0.031 C 
ATOM     49  C   UNL     1       7.164   1.333  15.219  1.00  0.00     0.029 A 
ATOM     50  C   UNL     1       8.283   0.834  15.995  1.00  0.00     0.049 A 
ATOM     51  H   UNL     1       8.462  -1.078  16.833  1.00  0.00     0.167 HD
ATOM     52  C   UNL     1       9.142  -5.259  17.744  1.00  0.00     0.037 A 
ATOM     53  C   UNL     1       9.410   1.478  16.394  1.00  0.00     0.037 A 
ATOM     54  C   UNL     1       8.676  -4.720  19.003  1.00  0.00     0.049 A 
ATOM     55  C   UNL     1       9.972   0.709  17.530  1.00  0.00     0.074 A 
ATOM     56  C   UNL     1       7.498  -4.806  19.721  1.00  0.00     0.029 A 
ATOM     57  N   UNL     1       9.341  -3.636  19.521  1.00  0.00    -0.354 N 
ATOM     58  N   UNL     1       9.408   0.639  18.702  1.00  0.00    -0.248 NA
ATOM     59  C   UNL     1      10.919  -0.353  17.227  1.00  0.00     0.031 C 
ATOM     60  C   UNL     1       7.298  -3.499  20.261  1.00  0.00     0.029 A 
ATOM     61  C   UNL     1       8.401  -2.720  19.913  1.00  0.00     0.049 A 
ATOM     62  H   UNL     1      10.317  -3.536  19.598  1.00  0.00     0.167 HD
ATOM     63  C   UNL     1       9.552  -0.687  19.073  1.00  0.00     0.074 A 
ATOM     64  C   UNL     1      10.580  -1.223  18.182  1.00  0.00     0.031 C 
ATOM     65  C   UNL     1       8.617  -1.295  19.860  1.00  0.00     0.037 A 
BRANCH  52  66
ATOM     66  C   UNL     1      10.579  -5.696  17.553  1.00  0.00     0.064 A 
ATOM     67  C   UNL     1      11.323  -6.080  18.689  1.00  0.00     0.173 A 
ATOM     68  C   UNL     1      11.341  -5.433  16.394  1.00  0.00     0.173 A 
ATOM     69  F   UNL     1      10.707  -6.352  19.849  1.00  0.00    -0.203 F 
ATOM     70  C   UNL     1      12.720  -6.075  18.694  1.00  0.00     0.198 A 
ATOM     71  C   UNL     1      12.734  -5.484  16.389  1.00  0.00     0.198 A 
ATOM     72  F   UNL     1      10.791  -5.004  15.253  1.00  0.00    -0.203 F 
ATOM     73  F   UNL     1      13.381  -6.291  19.840  1.00  0.00    -0.200 F 
ATOM     74  C   UNL     1      13.425  -5.764  17.547  1.00  0.00     0.200 A 
ATOM     75  F   UNL     1      13.398  -5.162  15.269  1.00  0.00    -0.200 F 
ATOM     76  F   UNL     1      14.761  -5.681  17.568  1.00  0.00    -0.200 F 
ENDBRANCH  52  66
BRANCH  53  77
ATOM     77  C   UNL     1      10.162   2.572  15.734  1.00  0.00     0.064 A 
ATOM     78  C   UNL     1      11.162   3.280  16.424  1.00  0.00     0.173 A 
ATOM     79  C   UNL     1      10.126   2.748  14.337  1.00  0.00     0.173 A 
ATOM     80  F   UNL     1      11.292   3.145  17.752  1.00  0.00    -0.203 F 
ATOM     81  C   UNL     1      12.096   4.078  15.754  1.00  0.00     0.198 A 
ATOM     82  C   UNL     1      11.054   3.552  13.670  1.00  0.00     0.198 A 
ATOM     83  F   UNL     1       9.253   2.069  13.580  1.00  0.00    -0.203 F 
ATOM     84  F   UNL     1      13.079   4.677  16.440  1.00  0.00    -0.200 F 
ATOM     85  C   UNL     1      12.049   4.202  14.376  1.00  0.00     0.200 A 
ATOM     86  F   UNL     1      11.017   3.636  12.333  1.00  0.00    -0.200 F 
ATOM     87  F   UNL     1      12.984   4.908  13.726  1.00  0.00    -0.200 F 
ENDBRANCH  53  77
BRANCH  65  88
ATOM     88  C   UNL     1       7.609  -0.420  20.552  1.00  0.00     0.064 A 
ATOM     89  C   UNL     1       6.691   0.415  19.891  1.00  0.00     0.173 A 
ATOM     90  C   UNL     1       7.504  -0.513  21.946  1.00  0.00     0.173 A 
ATOM     91  F   UNL     1       6.651   0.483  18.555  1.00  0.00    -0.203 F 
ATOM     92  C   UNL     1       5.755   1.166  20.601  1.00  0.00     0.198 A 
ATOM     93  C   UNL     1       6.542   0.205  22.649  1.00  0.00     0.198 A 
ATOM     94  F   UNL     1       8.317  -1.336  22.627  1.00  0.00    -0.203 F 
ATOM     95  F   UNL     1       4.907   1.976  19.948  1.00  0.00    -0.200 F 
ATOM     96  C   UNL     1       5.679   1.057  21.979  1.00  0.00     0.200 A 
ATOM     97  F   UNL     1       6.441   0.058  23.977  1.00  0.00    -0.200 F 
ATOM     98  F   UNL     1       4.759   1.754  22.660  1.00  0.00    -0.200 F 
ENDBRANCH  65  88
ENDBRANCH  39  40
ENDBRANCH  31  34
ENDBRANCH  29  30
ENDBRANCH  28  29
ENDBRANCH  27  28
ENDBRANCH  26  27
ENDBRANCH   3  26
TORSDOF 18
