REMARK SMILES CS(=O)(=O)c1ccc(C2=NN(c3ccc(C(=O)NCCCCNC(=O)c4ccc(-c5c6nc(c(-c7c(F)c(F)c(F)c(F)c7F)c7ccc([nH]7)c(-c7c(F)c(F)c(F)c(F)c7F)c7nc(c(-c8c(F)c(F)c(F)c(F)c8F)c8ccc5[nH]8)C=C7)C=C6)cc4)cc3)[C@H](c3ccc(F)cc3)C2)cc1
REMARK SMILES IDX 20 1 19 2 18 3 16 4 17 5 15 7 12 8 13 9 90 10 14 11 89 12
REMARK SMILES IDX 11 13 9 14 10 15 99 16 91 17 8 18 5 19 6 20 101 21 7 22
REMARK SMILES IDX 100 23 2 24 1 25 3 26 4 27 92 28 93 29 98 30 94 31 97 32
REMARK SMILES IDX 95 33 96 34 21 35 22 36 23 37 24 38 25 40 26 41 27 42 88 43
REMARK SMILES IDX 28 44 87 45 29 46 30 47 31 48 81 49 32 50 86 51 80 52 82 53
REMARK SMILES IDX 33 54 85 55 79 56 78 57 34 59 66 60 46 61 65 62 47 63 50 64
REMARK SMILES IDX 64 65 83 66 48 67 49 68 63 70 84 71 51 72 35 73 36 74 44 75
REMARK SMILES IDX 37 76 38 77 42 78 45 79 39 80 40 81 43 82 41 83 67 84 68 85
REMARK SMILES IDX 76 86 69 87 70 88 74 89 77 90 71 91 72 92 75 93 73 94 52 95
REMARK SMILES IDX 53 96 61 97 54 98 55 99 59 100 62 101 56 102 57 103 60 104
REMARK SMILES IDX 58 105
REMARK H PARENT 18 6 23 39 82 58 50 69
REMARK Flexibility Score: inf
ROOT
ATOM      1  C   UNL     1       4.982 -11.460   8.384  1.00  0.00     0.023 C 
ENDROOT
BRANCH   1   2
ATOM      2  C   UNL     1       5.409 -10.388   9.389  1.00  0.00     0.116 C 
BRANCH   2   3
ATOM      3  N   UNL     1       6.629  -9.724   8.968  1.00  0.00    -0.352 N 
ATOM      4  C   UNL     1       6.824  -8.496   8.383  1.00  0.00     0.251 C 
ATOM      5  O   UNL     1       7.978  -8.098   8.231  1.00  0.00    -0.269 OA
ATOM      6  H   UNL     1       7.452 -10.240   9.127  1.00  0.00     0.163 HD
BRANCH   4   7
ATOM      7  C   UNL     1       5.691  -7.619   7.985  1.00  0.00     0.039 A 
ATOM      8  C   UNL     1       3.588  -5.864   7.321  1.00  0.00     0.060 A 
ATOM      9  C   UNL     1       4.802  -5.366   7.803  1.00  0.00     0.029 A 
ATOM     10  C   UNL     1       3.462  -7.238   7.117  1.00  0.00     0.029 A 
ATOM     11  C   UNL     1       5.848  -6.235   8.134  1.00  0.00     0.016 A 
ATOM     12  C   UNL     1       4.509  -8.105   7.426  1.00  0.00     0.016 A 
BRANCH   8  13
ATOM     13  N   UNL     1       2.502  -5.042   7.056  1.00  0.00    -0.257 N 
ATOM     14  C   UNL     1       1.715  -3.314   6.106  1.00  0.00     0.071 C 
ATOM     15  N   UNL     1       2.494  -4.329   5.905  1.00  0.00    -0.176 NA
ATOM     16  C   UNL     1       1.141  -3.186   7.490  1.00  0.00     0.091 C 
ATOM     17  C   UNL     1       1.698  -4.464   8.136  1.00  0.00     0.144 C 
BRANCH  14  18
ATOM     18  C   UNL     1       1.396  -2.354   5.040  1.00  0.00    -0.002 A 
ATOM     19  C   UNL     1       0.775  -0.617   2.962  1.00  0.00     0.067 A 
ATOM     20  C   UNL     1       0.769  -1.994   2.729  1.00  0.00     0.021 A 
ATOM     21  C   UNL     1       1.100  -0.104   4.225  1.00  0.00     0.021 A 
ATOM     22  C   UNL     1       1.099  -2.862   3.769  1.00  0.00     0.011 A 
ATOM     23  C   UNL     1       1.401  -0.978   5.273  1.00  0.00     0.011 A 
BRANCH  19  24
ATOM     24  S   UNL     1       0.352   0.509   1.651  1.00  0.00     0.175 S 
ATOM     25  C   UNL     1       1.190  -0.094   0.209  1.00  0.00     0.163 C 
ATOM     26  O   UNL     1       0.937   1.791   1.982  1.00  0.00    -0.224 OA
ATOM     27  O   UNL     1      -1.079   0.367   1.441  1.00  0.00    -0.224 OA
ENDBRANCH  19  24
ENDBRANCH  14  18
BRANCH  17  28
ATOM     28  C   UNL     1       0.703  -5.501   8.648  1.00  0.00    -0.023 A 
ATOM     29  C   UNL     1      -0.594  -5.659   8.130  1.00  0.00     0.009 A 
ATOM     30  C   UNL     1       1.136  -6.413   9.636  1.00  0.00     0.009 A 
ATOM     31  C   UNL     1      -1.434  -6.673   8.604  1.00  0.00     0.039 A 
ATOM     32  C   UNL     1       0.305  -7.438  10.091  1.00  0.00     0.039 A 
ATOM     33  C   UNL     1      -0.976  -7.555   9.574  1.00  0.00     0.123 A 
ATOM     34  F   UNL     1      -1.776  -8.539  10.005  1.00  0.00    -0.207 F 
ENDBRANCH  17  28
ENDBRANCH   8  13
ENDBRANCH   4   7
ENDBRANCH   2   3
ENDBRANCH   1   2
BRANCH   1  35
ATOM     35  C   UNL     1       5.788 -12.757   8.450  1.00  0.00     0.023 C 
BRANCH  35  36
ATOM     36  C   UNL     1       5.669 -13.526   9.759  1.00  0.00     0.116 C 
BRANCH  36  37
ATOM     37  N   UNL     1       4.301 -13.889  10.094  1.00  0.00    -0.352 N 
ATOM     38  C   UNL     1       3.843 -15.015  10.734  1.00  0.00     0.251 C 
ATOM     39  H   UNL     1       3.610 -13.241   9.825  1.00  0.00     0.163 HD
ATOM     40  O   UNL     1       2.639 -15.214  10.856  1.00  0.00    -0.269 OA
BRANCH  38  41
ATOM     41  C   UNL     1       4.812 -16.010  11.237  1.00  0.00     0.039 A 
ATOM     42  C   UNL     1       4.606 -17.358  10.931  1.00  0.00     0.014 A 
ATOM     43  C   UNL     1       5.931 -15.615  11.975  1.00  0.00     0.014 A 
ATOM     44  C   UNL     1       5.562 -18.303  11.304  1.00  0.00     0.010 A 
ATOM     45  C   UNL     1       6.916 -16.547  12.286  1.00  0.00     0.010 A 
ATOM     46  C   UNL     1       6.742 -17.898  11.950  1.00  0.00    -0.014 A 
BRANCH  46  47
ATOM     47  C   UNL     1       7.813 -18.874  12.264  1.00  0.00     0.031 A 
ATOM     48  C   UNL     1       8.159 -19.184  13.691  1.00  0.00     0.074 A 
ATOM     49  C   UNL     1       8.520 -19.425  11.260  1.00  0.00     0.049 A 
ATOM     50  N   UNL     1       9.095 -19.968  14.164  1.00  0.00    -0.248 NA
ATOM     51  C   UNL     1       7.365 -18.504  14.726  1.00  0.00     0.031 C 
ATOM     52  C   UNL     1       8.316 -19.156   9.836  1.00  0.00     0.029 A 
ATOM     53  N   UNL     1       9.560 -20.320  11.284  1.00  0.00    -0.354 N 
ATOM     54  C   UNL     1       9.012 -19.863  15.546  1.00  0.00     0.074 A 
ATOM     55  C   UNL     1       7.968 -18.903  15.836  1.00  0.00     0.031 C 
ATOM     56  C   UNL     1       9.186 -19.888   9.121  1.00  0.00     0.029 A 
ATOM     57  C   UNL     1      10.028 -20.652  10.037  1.00  0.00     0.049 A 
ATOM     58  H   UNL     1       9.935 -20.688  12.116  1.00  0.00     0.167 HD
ATOM     59  C   UNL     1       9.726 -20.525  16.486  1.00  0.00     0.037 A 
ATOM     60  C   UNL     1      11.025 -21.481   9.674  1.00  0.00     0.037 A 
ATOM     61  C   UNL     1      10.745 -21.499  16.194  1.00  0.00     0.049 A 
ATOM     62  C   UNL     1      11.795 -22.213  10.737  1.00  0.00     0.074 A 
ATOM     63  C   UNL     1      11.475 -22.276  17.075  1.00  0.00     0.029 A 
ATOM     64  N   UNL     1      11.178 -21.826  14.917  1.00  0.00    -0.354 N 
ATOM     65  N   UNL     1      11.657 -22.164  12.040  1.00  0.00    -0.248 NA
ATOM     66  C   UNL     1      12.856 -23.120  10.279  1.00  0.00     0.031 C 
ATOM     67  C   UNL     1      12.379 -23.046  16.333  1.00  0.00     0.029 A 
ATOM     68  C   UNL     1      12.182 -22.779  14.988  1.00  0.00     0.049 A 
ATOM     69  H   UNL     1      10.826 -21.438  14.084  1.00  0.00     0.167 HD
ATOM     70  C   UNL     1      12.594 -23.048  12.556  1.00  0.00     0.074 A 
ATOM     71  C   UNL     1      13.286 -23.631  11.424  1.00  0.00     0.031 C 
ATOM     72  C   UNL     1      12.858 -23.349  13.851  1.00  0.00     0.037 A 
BRANCH  59  73
ATOM     73  C   UNL     1       9.424 -20.220  17.924  1.00  0.00     0.064 A 
ATOM     74  C   UNL     1       8.223 -20.629  18.525  1.00  0.00     0.173 A 
ATOM     75  C   UNL     1      10.354 -19.532  18.718  1.00  0.00     0.173 A 
ATOM     76  F   UNL     1       7.296 -21.278  17.805  1.00  0.00    -0.203 F 
ATOM     77  C   UNL     1       7.952 -20.333  19.858  1.00  0.00     0.198 A 
ATOM     78  C   UNL     1      10.091 -19.264  20.058  1.00  0.00     0.198 A 
ATOM     79  F   UNL     1      11.519 -19.123  18.194  1.00  0.00    -0.203 F 
ATOM     80  F   UNL     1       6.777 -20.689  20.395  1.00  0.00    -0.200 F 
ATOM     81  C   UNL     1       8.888 -19.657  20.625  1.00  0.00     0.200 A 
ATOM     82  F   UNL     1      11.001 -18.619  20.802  1.00  0.00    -0.200 F 
ATOM     83  F   UNL     1       8.627 -19.376  21.909  1.00  0.00    -0.200 F 
ENDBRANCH  59  73
BRANCH  60  84
ATOM     84  C   UNL     1      11.324 -21.689   8.234  1.00  0.00     0.064 A 
ATOM     85  C   UNL     1      11.003 -22.900   7.605  1.00  0.00     0.173 A 
ATOM     86  C   UNL     1      11.923 -20.687   7.459  1.00  0.00     0.173 A 
ATOM     87  F   UNL     1      10.447 -23.895   8.312  1.00  0.00    -0.203 F 
ATOM     88  C   UNL     1      11.283 -23.106   6.256  1.00  0.00     0.198 A 
ATOM     89  C   UNL     1      12.181 -20.885   6.104  1.00  0.00     0.198 A 
ATOM     90  F   UNL     1      12.243 -19.510   8.014  1.00  0.00    -0.203 F 
ATOM     91  F   UNL     1      11.000 -24.286   5.688  1.00  0.00    -0.200 F 
ATOM     92  C   UNL     1      11.866 -22.096   5.505  1.00  0.00     0.200 A 
ATOM     93  F   UNL     1      12.733 -19.903   5.378  1.00  0.00    -0.200 F 
ATOM     94  F   UNL     1      12.131 -22.293   4.207  1.00  0.00    -0.200 F 
ENDBRANCH  60  84
BRANCH  72  95
ATOM     95  C   UNL     1      13.925 -24.370  14.111  1.00  0.00     0.064 A 
ATOM     96  C   UNL     1      15.284 -24.073  13.933  1.00  0.00     0.173 A 
ATOM     97  C   UNL     1      13.586 -25.649  14.578  1.00  0.00     0.173 A 
ATOM     98  F   UNL     1      15.657 -22.869  13.473  1.00  0.00    -0.203 F 
ATOM     99  C   UNL     1      16.264 -25.028  14.191  1.00  0.00     0.198 A 
ATOM    100  C   UNL     1      14.570 -26.592  14.860  1.00  0.00     0.198 A 
ATOM    101  F   UNL     1      12.300 -25.980  14.769  1.00  0.00    -0.203 F 
ATOM    102  F   UNL     1      17.554 -24.737  13.971  1.00  0.00    -0.200 F 
ATOM    103  C   UNL     1      15.907 -26.283  14.660  1.00  0.00     0.200 A 
ATOM    104  F   UNL     1      14.224 -27.801  15.323  1.00  0.00    -0.200 F 
ATOM    105  F   UNL     1      16.852 -27.199  14.912  1.00  0.00    -0.200 F 
ENDBRANCH  72  95
ENDBRANCH  46  47
ENDBRANCH  38  41
ENDBRANCH  36  37
ENDBRANCH  35  36
ENDBRANCH   1  35
TORSDOF 15
