REMARK SMILES COc1ccc(C2=NN(C(=O)CCC(=O)NCCCCNC(=O)c3ccc(-c4c5nc(c(-c6c(F)c(F)c(F)c(F)c6F)c6ccc([nH]6)c(-c6c(F)c(F)c(F)c(F)c6F)c6nc(c(-c7c(F)c(F)c(F)c(F)c7F)c7ccc4[nH]7)C=C6)C=C5)cc3)[C@H](c3ccc(Cl)cc3Cl)C2)cc1
REMARK SMILES IDX 17 1 16 2 14 3 15 4 13 6 12 7 10 8 11 9 9 10 7 11 8 12 96 13
REMARK SMILES IDX 87 14 6 15 3 16 4 17 98 18 5 19 97 20 2 21 1 22 88 23 89 24
REMARK SMILES IDX 94 25 90 26 93 27 95 28 91 29 92 30 18 31 19 32 20 33 21 34
REMARK SMILES IDX 22 35 23 37 24 38 25 39 86 40 26 41 85 42 27 43 28 44 29 45
REMARK SMILES IDX 79 46 30 47 84 48 78 49 80 50 31 51 83 52 77 53 76 54 32 56
REMARK SMILES IDX 64 57 44 58 63 59 45 60 48 61 62 62 81 63 46 64 47 65 61 67
REMARK SMILES IDX 82 68 49 69 33 70 34 71 42 72 35 73 36 74 40 75 43 76 37 77
REMARK SMILES IDX 38 78 41 79 39 80 65 81 66 82 74 83 67 84 68 85 72 86 75 87
REMARK SMILES IDX 69 88 70 89 73 90 71 91 50 92 51 93 59 94 52 95 53 96 57 97
REMARK SMILES IDX 60 98 54 99 55 100 58 101 56 102
REMARK H PARENT 16 5 21 36 80 55 48 66
REMARK Flexibility Score: inf
ROOT
ATOM      1  C   UNL     1       2.865   4.809   6.432  1.00  0.00     0.116 C 
ENDROOT
BRANCH   1   2
ATOM      2  N   UNL     1       4.255   4.905   7.151  1.00  0.00    -0.356 N 
ATOM      3  C   UNL     1       4.609   5.306   8.401  1.00  0.00     0.220 C 
ATOM      4  O   UNL     1       5.817   5.375   8.635  1.00  0.00    -0.275 OA
ATOM      5  H   UNL     1       5.015   4.623   6.592  1.00  0.00     0.163 HD
BRANCH   3   6
ATOM      6  C   UNL     1       3.572   5.613   9.452  1.00  0.00     0.110 C 
BRANCH   6   7
ATOM      7  C   UNL     1       2.528   6.699   9.208  1.00  0.00     0.112 C 
BRANCH   7   8
ATOM      8  C   UNL     1       1.408   6.363   8.255  1.00  0.00     0.243 C 
ATOM      9  O   UNL     1       0.335   5.948   8.696  1.00  0.00    -0.273 OA
BRANCH   8  10
ATOM     10  N   UNL     1       1.730   6.360   6.887  1.00  0.00    -0.225 N 
ATOM     11  C   UNL     1       1.737   4.261   4.918  1.00  0.00     0.071 C 
ATOM     12  N   UNL     1       0.912   4.900   6.093  1.00  0.00    -0.174 NA
ATOM     13  C   UNL     1       3.603   5.248   4.761  1.00  0.00     0.091 C 
ATOM     14  C   UNL     1       3.393   6.807   6.053  1.00  0.00     0.149 C 
BRANCH  11  15
ATOM     15  C   UNL     1       0.713   3.412   3.972  1.00  0.00    -0.002 A 
ATOM     16  C   UNL     1      -1.340   1.954   2.582  1.00  0.00     0.118 A 
ATOM     17  C   UNL     1      -1.388   2.100   3.958  1.00  0.00     0.047 A 
ATOM     18  C   UNL     1      -0.413   2.671   1.871  1.00  0.00     0.047 A 
ATOM     19  C   UNL     1      -0.373   2.815   4.639  1.00  0.00     0.014 A 
ATOM     20  C   UNL     1       0.577   3.383   2.565  1.00  0.00     0.014 A 
BRANCH  16  21
ATOM     21  O   UNL     1      -2.193   1.104   1.942  1.00  0.00    -0.497 OA
ATOM     22  C   UNL     1      -1.485  -0.084   1.556  1.00  0.00     0.278 C 
ENDBRANCH  16  21
ENDBRANCH  11  15
BRANCH  14  23
ATOM     23  C   UNL     1       3.412   8.395   5.720  1.00  0.00    -0.004 A 
ATOM     24  C   UNL     1       3.021   8.950   4.484  1.00  0.00     0.009 A 
ATOM     25  C   UNL     1       3.642   9.347   6.744  1.00  0.00     0.047 A 
ATOM     26  C   UNL     1       2.612  10.289   4.360  1.00  0.00     0.021 A 
ATOM     27  C   UNL     1       3.190  10.674   6.646  1.00  0.00     0.041 A 
ATOM     28  Cl  UNL     1       4.733   9.053   8.059  1.00  0.00    -0.084 Cl
ATOM     29  C   UNL     1       2.635  11.128   5.463  1.00  0.00     0.042 A 
ATOM     30  Cl  UNL     1       2.052  12.740   5.338  1.00  0.00    -0.084 Cl
ENDBRANCH  14  23
ENDBRANCH   8  10
ENDBRANCH   7   8
ENDBRANCH   6   7
ENDBRANCH   3   6
ENDBRANCH   1   2
BRANCH   1  31
ATOM     31  C   UNL     1       1.961   6.091   4.855  1.00  0.00     0.023 C 
BRANCH  31  32
ATOM     32  C   UNL     1       2.291   5.765   3.018  1.00  0.00     0.023 C 
BRANCH  32  33
ATOM     33  C   UNL     1       3.322   4.496   2.397  1.00  0.00     0.116 C 
BRANCH  33  34
ATOM     34  N   UNL     1       3.397   3.151   3.097  1.00  0.00    -0.352 N 
ATOM     35  C   UNL     1       3.254   1.855   2.649  1.00  0.00     0.251 C 
ATOM     36  H   UNL     1       3.586   3.217   4.061  1.00  0.00     0.163 HD
ATOM     37  O   UNL     1       3.105   0.910   3.410  1.00  0.00    -0.269 OA
BRANCH  35  38
ATOM     38  C   UNL     1       3.302   1.668   1.214  1.00  0.00     0.039 A 
ATOM     39  C   UNL     1       2.172   1.224   0.529  1.00  0.00     0.014 A 
ATOM     40  C   UNL     1       4.424   2.196   0.585  1.00  0.00     0.014 A 
ATOM     41  C   UNL     1       2.081   1.500  -0.819  1.00  0.00     0.010 A 
ATOM     42  C   UNL     1       4.333   2.479  -0.752  1.00  0.00     0.010 A 
ATOM     43  C   UNL     1       3.150   2.158  -1.438  1.00  0.00    -0.014 A 
BRANCH  43  44
ATOM     44  C   UNL     1       3.182   2.303  -2.887  1.00  0.00     0.031 A 
ATOM     45  C   UNL     1       3.985   1.276  -3.602  1.00  0.00     0.074 A 
ATOM     46  C   UNL     1       2.592   3.354  -3.471  1.00  0.00     0.049 A 
ATOM     47  N   UNL     1       4.465   1.294  -4.808  1.00  0.00    -0.248 NA
ATOM     48  C   UNL     1       4.336   0.075  -2.818  1.00  0.00     0.031 C 
ATOM     49  C   UNL     1       1.732   4.331  -2.799  1.00  0.00     0.029 A 
ATOM     50  N   UNL     1       2.642   3.781  -4.765  1.00  0.00    -0.354 N 
ATOM     51  C   UNL     1       5.211   0.130  -4.913  1.00  0.00     0.074 A 
ATOM     52  C   UNL     1       5.139  -0.562  -3.650  1.00  0.00     0.031 C 
ATOM     53  C   UNL     1       1.329   5.246  -3.699  1.00  0.00     0.029 A 
ATOM     54  C   UNL     1       1.966   4.956  -4.979  1.00  0.00     0.049 A 
ATOM     55  H   UNL     1       3.116   3.293  -5.477  1.00  0.00     0.167 HD
ATOM     56  C   UNL     1       5.905  -0.298  -5.988  1.00  0.00     0.037 A 
ATOM     57  C   UNL     1       1.927   5.711  -6.093  1.00  0.00     0.037 A 
ATOM     58  C   UNL     1       5.939   0.450  -7.211  1.00  0.00     0.049 A 
ATOM     59  C   UNL     1       2.743   5.231  -7.270  1.00  0.00     0.074 A 
ATOM     60  C   UNL     1       6.627   0.186  -8.375  1.00  0.00     0.029 A 
ATOM     61  N   UNL     1       5.231   1.633  -7.412  1.00  0.00    -0.354 N 
ATOM     62  N   UNL     1       3.499   4.159  -7.369  1.00  0.00    -0.248 NA
ATOM     63  C   UNL     1       2.723   6.064  -8.475  1.00  0.00     0.031 C 
ATOM     64  C   UNL     1       6.367   1.232  -9.267  1.00  0.00     0.029 A 
ATOM     65  C   UNL     1       5.470   2.118  -8.680  1.00  0.00     0.049 A 
ATOM     66  H   UNL     1       4.646   2.060  -6.745  1.00  0.00     0.167 HD
ATOM     67  C   UNL     1       4.026   4.173  -8.652  1.00  0.00     0.074 A 
ATOM     68  C   UNL     1       3.488   5.358  -9.297  1.00  0.00     0.031 C 
ATOM     69  C   UNL     1       4.879   3.305  -9.253  1.00  0.00     0.037 A 
BRANCH  56  70
ATOM     70  C   UNL     1       6.703  -1.554  -5.820  1.00  0.00     0.064 A 
ATOM     71  C   UNL     1       6.091  -2.803  -5.622  1.00  0.00     0.173 A 
ATOM     72  C   UNL     1       8.103  -1.494  -5.754  1.00  0.00     0.173 A 
ATOM     73  F   UNL     1       4.753  -2.907  -5.626  1.00  0.00    -0.203 F 
ATOM     74  C   UNL     1       6.848  -3.933  -5.323  1.00  0.00     0.198 A 
ATOM     75  C   UNL     1       8.858  -2.634  -5.490  1.00  0.00     0.198 A 
ATOM     76  F   UNL     1       8.738  -0.323  -5.910  1.00  0.00    -0.203 F 
ATOM     77  F   UNL     1       6.236  -5.094  -5.050  1.00  0.00    -0.200 F 
ATOM     78  C   UNL     1       8.230  -3.849  -5.262  1.00  0.00     0.200 A 
ATOM     79  F   UNL     1      10.194  -2.549  -5.426  1.00  0.00    -0.200 F 
ATOM     80  F   UNL     1       8.957  -4.933  -4.958  1.00  0.00    -0.200 F 
ENDBRANCH  56  70
BRANCH  57  81
ATOM     81  C   UNL     1       1.137   6.972  -6.135  1.00  0.00     0.064 A 
ATOM     82  C   UNL     1       0.038   7.110  -6.995  1.00  0.00     0.173 A 
ATOM     83  C   UNL     1       1.458   8.070  -5.321  1.00  0.00     0.173 A 
ATOM     84  F   UNL     1      -0.307   6.099  -7.806  1.00  0.00    -0.203 F 
ATOM     85  C   UNL     1      -0.692   8.298  -7.056  1.00  0.00     0.198 A 
ATOM     86  C   UNL     1       0.708   9.246  -5.359  1.00  0.00     0.198 A 
ATOM     87  F   UNL     1       2.495   8.000  -4.473  1.00  0.00    -0.203 F 
ATOM     88  F   UNL     1      -1.709   8.413  -7.921  1.00  0.00    -0.200 F 
ATOM     89  C   UNL     1      -0.360   9.363  -6.233  1.00  0.00     0.200 A 
ATOM     90  F   UNL     1       1.024  10.265  -4.548  1.00  0.00    -0.200 F 
ATOM     91  F   UNL     1      -1.065  10.502  -6.287  1.00  0.00    -0.200 F 
ENDBRANCH  57  81
BRANCH  69  92
ATOM     92  C   UNL     1       5.234   3.591 -10.679  1.00  0.00     0.064 A 
ATOM     93  C   UNL     1       6.113   4.626 -11.022  1.00  0.00     0.173 A 
ATOM     94  C   UNL     1       4.752   2.757 -11.700  1.00  0.00     0.173 A 
ATOM     95  F   UNL     1       6.587   5.452 -10.077  1.00  0.00    -0.203 F 
ATOM     96  C   UNL     1       6.485   4.829 -12.346  1.00  0.00     0.198 A 
ATOM     97  C   UNL     1       5.154   2.942 -13.016  1.00  0.00     0.198 A 
ATOM     98  F   UNL     1       3.918   1.747 -11.411  1.00  0.00    -0.203 F 
ATOM     99  F   UNL     1       7.296   5.848 -12.662  1.00  0.00    -0.200 F 
ATOM    100  C   UNL     1       6.015   3.981 -13.339  1.00  0.00     0.200 A 
ATOM    101  F   UNL     1       4.716   2.110 -13.971  1.00  0.00    -0.200 F 
ATOM    102  F   UNL     1       6.392   4.166 -14.612  1.00  0.00    -0.200 F 
ENDBRANCH  69  92
ENDBRANCH  43  44
ENDBRANCH  35  38
ENDBRANCH  33  34
ENDBRANCH  32  33
ENDBRANCH  31  32
ENDBRANCH   1  31
TORSDOF 17
