REMARK SMILES Cc1nc(NC(=O)[C@H]2[C@@H]3CC[C@@H](C3)[C@@H]2C(=O)NCCCCNC(=O)c2ccc(-c3c4nc(c(-c5c(F)c(F)c(F)c(F)c5F)c5ccc([nH]5)c(-c5c(F)c(F)c(F)c(F)c5F)c5nc(c(-c6c(F)c(F)c(F)c(F)c6F)c6ccc3[nH]6)C=C5)C=C4)cc2)sc1-c1ccccc1
REMARK SMILES IDX 19 1 18 2 17 3 15 4 16 5 14 7 8 8 9 9 10 10 13 11 12 12
REMARK SMILES IDX 11 13 6 14 5 15 7 17 4 18 1 19 2 20 3 21 89 22 88 23 90 24
REMARK SMILES IDX 91 25 95 26 92 27 94 28 93 29 20 30 21 31 22 32 23 33 24 35
REMARK SMILES IDX 25 36 26 37 87 38 27 39 86 40 28 41 29 42 30 43 80 44 31 45
REMARK SMILES IDX 85 46 79 47 81 48 32 49 84 50 78 51 77 52 33 54 65 55 45 56
REMARK SMILES IDX 64 57 46 58 49 59 63 60 82 61 47 62 48 63 62 65 83 66 50 67
REMARK SMILES IDX 34 68 35 69 43 70 36 71 37 72 41 73 44 74 38 75 39 76 42 77
REMARK SMILES IDX 40 78 66 79 67 80 75 81 68 82 69 83 73 84 76 85 70 86 71 87
REMARK SMILES IDX 74 88 72 89 51 90 52 91 60 92 53 93 54 94 58 95 61 96 55 97
REMARK SMILES IDX 56 98 59 99 57 100
REMARK H PARENT 17 6 5 16 22 34 81 53 49 64
REMARK Flexibility Score: inf
ROOT
ATOM      1  C   UNL     1      -4.268  -0.682  -1.063  1.00  0.00     0.023 C 
ENDROOT
BRANCH   1   2
ATOM      2  C   UNL     1      -4.464   0.806  -0.796  1.00  0.00     0.116 C 
BRANCH   2   3
ATOM      3  N   UNL     1      -3.780   1.288   0.385  1.00  0.00    -0.356 N 
ATOM      4  C   UNL     1      -2.699   2.100   0.561  1.00  0.00     0.224 C 
ATOM      5  O   UNL     1      -2.493   2.447   1.728  1.00  0.00    -0.275 OA
ATOM      6  H   UNL     1      -4.173   0.967   1.228  1.00  0.00     0.163 HD
BRANCH   4   7
ATOM      7  C   UNL     1      -1.783   2.531  -0.604  1.00  0.00     0.094 C 
ATOM      8  C   UNL     1      -0.750   3.619  -0.132  1.00  0.00     0.094 C 
ATOM      9  C   UNL     1      -1.170   4.829  -1.040  1.00  0.00     0.002 C 
ATOM     10  C   UNL     1      -2.578   5.341  -0.679  1.00  0.00     0.005 C 
ATOM     11  C   UNL     1      -1.422   4.122  -2.367  1.00  0.00     0.009 C 
ATOM     12  C   UNL     1      -2.509   3.231  -1.781  1.00  0.00     0.002 C 
ATOM     13  C   UNL     1      -3.506   4.270  -1.257  1.00  0.00     0.005 C 
BRANCH   8  14
ATOM     14  C   UNL     1       0.777   3.412  -0.333  1.00  0.00     0.230 C 
ATOM     15  N   UNL     1       1.453   2.243  -0.260  1.00  0.00    -0.302 N 
ATOM     16  H   UNL     1       2.390   2.269  -0.563  1.00  0.00     0.172 HD
ATOM     17  O   UNL     1       1.492   4.394  -0.590  1.00  0.00    -0.274 OA
BRANCH  15  18
ATOM     18  C   UNL     1       1.010   1.041   0.176  1.00  0.00     0.190 A 
ATOM     19  C   UNL     1      -1.535  -1.051   1.488  1.00  0.00     0.068 C 
ATOM     20  C   UNL     1      -0.265  -0.564   0.914  1.00  0.00     0.058 A 
ATOM     21  N   UNL     1      -0.062   0.795   0.869  1.00  0.00    -0.225 NA
ATOM     22  C   UNL     1       0.683  -1.327   0.254  1.00  0.00     0.059 A 
ATOM     23  S   UNL     1       1.936  -0.314  -0.313  1.00  0.00    -0.096 S 
BRANCH  22  24
ATOM     24  C   UNL     1       0.595  -2.758   0.003  1.00  0.00    -0.006 A 
ATOM     25  C   UNL     1       0.946  -3.660   1.013  1.00  0.00     0.009 A 
ATOM     26  C   UNL     1      -0.143  -3.211  -1.102  1.00  0.00     0.009 A 
ATOM     27  C   UNL     1       0.512  -4.985   0.949  1.00  0.00     0.001 A 
ATOM     28  C   UNL     1      -0.574  -4.537  -1.163  1.00  0.00     0.001 A 
ATOM     29  C   UNL     1      -0.261  -5.418  -0.129  1.00  0.00     0.000 A 
ENDBRANCH  22  24
ENDBRANCH  15  18
ENDBRANCH   8  14
ENDBRANCH   4   7
ENDBRANCH   2   3
ENDBRANCH   1   2
BRANCH   1  30
ATOM     30  C   UNL     1      -4.784  -1.612   0.038  1.00  0.00     0.023 C 
BRANCH  30  31
ATOM     31  C   UNL     1      -6.234  -1.394   0.430  1.00  0.00     0.116 C 
BRANCH  31  32
ATOM     32  N   UNL     1      -7.133  -1.538  -0.701  1.00  0.00    -0.352 N 
ATOM     33  C   UNL     1      -8.232  -2.349  -0.823  1.00  0.00     0.251 C 
ATOM     34  H   UNL     1      -6.925  -0.980  -1.485  1.00  0.00     0.163 HD
ATOM     35  O   UNL     1      -8.748  -2.536  -1.916  1.00  0.00    -0.269 OA
BRANCH  33  36
ATOM     36  C   UNL     1      -8.774  -3.006   0.383  1.00  0.00     0.039 A 
ATOM     37  C   UNL     1      -9.136  -4.352   0.318  1.00  0.00     0.014 A 
ATOM     38  C   UNL     1      -8.903  -2.292   1.578  1.00  0.00     0.014 A 
ATOM     39  C   UNL     1      -9.581  -4.997   1.471  1.00  0.00     0.010 A 
ATOM     40  C   UNL     1      -9.254  -2.958   2.744  1.00  0.00     0.010 A 
ATOM     41  C   UNL     1      -9.610  -4.313   2.698  1.00  0.00    -0.014 A 
BRANCH  41  42
ATOM     42  C   UNL     1     -10.024  -4.997   3.947  1.00  0.00     0.031 A 
ATOM     43  C   UNL     1     -11.244  -4.527   4.688  1.00  0.00     0.074 A 
ATOM     44  C   UNL     1      -9.263  -5.993   4.438  1.00  0.00     0.049 A 
ATOM     45  N   UNL     1     -11.735  -4.949   5.824  1.00  0.00    -0.248 NA
ATOM     46  C   UNL     1     -11.998  -3.412   4.089  1.00  0.00     0.031 C 
ATOM     47  C   UNL     1      -8.025  -6.490   3.833  1.00  0.00     0.029 A 
ATOM     48  N   UNL     1      -9.411  -6.761   5.565  1.00  0.00    -0.354 N 
ATOM     49  C   UNL     1     -12.838  -4.146   6.080  1.00  0.00     0.074 A 
ATOM     50  C   UNL     1     -12.914  -3.172   5.015  1.00  0.00     0.031 C 
ATOM     51  C   UNL     1      -7.541  -7.495   4.580  1.00  0.00     0.029 A 
ATOM     52  C   UNL     1      -8.408  -7.684   5.739  1.00  0.00     0.049 A 
ATOM     53  H   UNL     1     -10.165  -6.661   6.191  1.00  0.00     0.167 HD
ATOM     54  C   UNL     1     -13.723  -4.233   7.101  1.00  0.00     0.037 A 
ATOM     55  C   UNL     1      -8.207  -8.573   6.729  1.00  0.00     0.037 A 
ATOM     56  C   UNL     1     -13.654  -5.226   8.140  1.00  0.00     0.049 A 
ATOM     57  C   UNL     1      -9.209  -8.645   7.852  1.00  0.00     0.074 A 
ATOM     58  C   UNL     1     -14.539  -5.448   9.179  1.00  0.00     0.029 A 
ATOM     59  N   UNL     1     -12.636  -6.159   8.271  1.00  0.00    -0.354 N 
ATOM     60  N   UNL     1     -10.297  -7.938   8.037  1.00  0.00    -0.248 NA
ATOM     61  C   UNL     1      -8.958  -9.644   8.899  1.00  0.00     0.031 C 
ATOM     62  C   UNL     1     -14.026  -6.477   9.974  1.00  0.00     0.029 A 
ATOM     63  C   UNL     1     -12.856  -6.940   9.394  1.00  0.00     0.049 A 
ATOM     64  H   UNL     1     -11.872  -6.253   7.658  1.00  0.00     0.167 HD
ATOM     65  C   UNL     1     -10.875  -8.424   9.202  1.00  0.00     0.074 A 
ATOM     66  C   UNL     1     -10.027  -9.502   9.668  1.00  0.00     0.031 C 
ATOM     67  C   UNL     1     -12.002  -8.014   9.834  1.00  0.00     0.037 A 
BRANCH  54  68
ATOM     68  C   UNL     1     -14.846  -3.236   7.145  1.00  0.00     0.064 A 
ATOM     69  C   UNL     1     -15.888  -3.256   6.206  1.00  0.00     0.173 A 
ATOM     70  C   UNL     1     -14.911  -2.287   8.176  1.00  0.00     0.173 A 
ATOM     71  F   UNL     1     -15.868  -4.134   5.192  1.00  0.00    -0.203 F 
ATOM     72  C   UNL     1     -16.942  -2.349   6.285  1.00  0.00     0.198 A 
ATOM     73  C   UNL     1     -15.983  -1.403   8.271  1.00  0.00     0.198 A 
ATOM     74  F   UNL     1     -13.943  -2.225   9.102  1.00  0.00    -0.203 F 
ATOM     75  F   UNL     1     -17.904  -2.359   5.351  1.00  0.00    -0.200 F 
ATOM     76  C   UNL     1     -16.994  -1.431   7.323  1.00  0.00     0.200 A 
ATOM     77  F   UNL     1     -16.039  -0.526   9.283  1.00  0.00    -0.200 F 
ATOM     78  F   UNL     1     -18.018  -0.571   7.407  1.00  0.00    -0.200 F 
ENDBRANCH  54  68
BRANCH  55  79
ATOM     79  C   UNL     1      -7.020  -9.469   6.705  1.00  0.00     0.064 A 
ATOM     80  C   UNL     1      -7.163 -10.856   6.551  1.00  0.00     0.173 A 
ATOM     81  C   UNL     1      -5.721  -8.963   6.857  1.00  0.00     0.173 A 
ATOM     82  F   UNL     1      -8.385 -11.392   6.418  1.00  0.00    -0.203 F 
ATOM     83  C   UNL     1      -6.058 -11.704   6.587  1.00  0.00     0.198 A 
ATOM     84  C   UNL     1      -4.613  -9.808   6.856  1.00  0.00     0.198 A 
ATOM     85  F   UNL     1      -5.525  -7.644   6.997  1.00  0.00    -0.203 F 
ATOM     86  F   UNL     1      -6.230 -13.029   6.499  1.00  0.00    -0.200 F 
ATOM     87  C   UNL     1      -4.783 -11.179   6.735  1.00  0.00     0.200 A 
ATOM     88  F   UNL     1      -3.381  -9.295   6.979  1.00  0.00    -0.200 F 
ATOM     89  F   UNL     1      -3.720 -11.994   6.769  1.00  0.00    -0.200 F 
ENDBRANCH  55  79
BRANCH  67  90
ATOM     90  C   UNL     1     -12.402  -8.756  11.076  1.00  0.00     0.064 A 
ATOM     91  C   UNL     1     -11.673  -8.646  12.269  1.00  0.00     0.173 A 
ATOM     92  C   UNL     1     -13.554  -9.558  11.082  1.00  0.00     0.173 A 
ATOM     93  F   UNL     1     -10.556  -7.903  12.311  1.00  0.00    -0.203 F 
ATOM     94  C   UNL     1     -12.065  -9.334  13.413  1.00  0.00     0.198 A 
ATOM     95  C   UNL     1     -13.964 -10.215  12.238  1.00  0.00     0.198 A 
ATOM     96  F   UNL     1     -14.292  -9.690   9.970  1.00  0.00    -0.203 F 
ATOM     97  F   UNL     1     -11.322  -9.258  14.526  1.00  0.00    -0.200 F 
ATOM     98  C   UNL     1     -13.214 -10.111  13.399  1.00  0.00     0.200 A 
ATOM     99  F   UNL     1     -15.084 -10.950  12.227  1.00  0.00    -0.200 F 
ATOM    100  F   UNL     1     -13.595 -10.766  14.505  1.00  0.00    -0.200 F 
ENDBRANCH  67  90
ENDBRANCH  41  42
ENDBRANCH  33  36
ENDBRANCH  31  32
ENDBRANCH  30  31
ENDBRANCH   1  30
TORSDOF 14
