REMARK SMILES Cc1cc(N[C@@H]2C=C[C@@H](C(=O)NCCCCNC(=O)c3ccc(-c4c5nc(c(-c6c(F)c(F)c(F)c(F)c6F)c6ccc([nH]6)c(-c6c(F)c(F)c(F)c(F)c6F)c6nc(c(-c7c(F)c(F)c(F)c(F)c7F)c7ccc4[nH]7)C=C6)C=C5)cc3)C2)nc(C)n1
REMARK SMILES IDX 14 1 13 2 12 3 10 4 11 5 9 7 6 8 7 9 83 10 8 11 5 12 4 14
REMARK SMILES IDX 1 15 2 16 3 17 87 18 85 19 84 20 86 21 15 22 16 23 17 24
REMARK SMILES IDX 18 25 19 27 20 28 21 29 82 30 22 31 81 32 23 33 24 34 25 35
REMARK SMILES IDX 75 36 26 37 80 38 74 39 76 40 27 41 79 42 73 43 72 44 28 46
REMARK SMILES IDX 60 47 40 48 59 49 41 50 44 51 58 52 77 53 42 54 43 55 57 57
REMARK SMILES IDX 78 58 45 59 29 60 30 61 38 62 31 63 32 64 36 65 39 66 33 67
REMARK SMILES IDX 34 68 37 69 35 70 61 71 62 72 70 73 63 74 64 75 68 76 71 77
REMARK SMILES IDX 65 78 66 79 69 80 67 81 46 82 47 83 55 84 48 85 49 86 53 87
REMARK SMILES IDX 56 88 50 89 51 90 54 91 52 92
REMARK H PARENT 12 6 5 13 17 26 76 45 44 56
REMARK Flexibility Score: inf
ROOT
ATOM      1  C   UNL     1       2.102  -0.529   2.182  1.00  0.00     0.023 C 
ENDROOT
BRANCH   1   2
ATOM      2  C   UNL     1       1.570  -1.280   0.967  1.00  0.00     0.116 C 
BRANCH   2   3
ATOM      3  N   UNL     1       2.636  -1.585   0.036  1.00  0.00    -0.356 N 
ATOM      4  C   UNL     1       3.080  -2.778  -0.434  1.00  0.00     0.227 C 
ATOM      5  O   UNL     1       4.030  -2.757  -1.221  1.00  0.00    -0.274 OA
ATOM      6  H   UNL     1       3.116  -0.800  -0.313  1.00  0.00     0.163 HD
BRANCH   4   7
ATOM      7  C   UNL     1       2.428  -4.098  -0.045  1.00  0.00     0.103 C 
ATOM      8  C   UNL     1       1.081  -4.970   1.815  1.00  0.00     0.104 C 
ATOM      9  C   UNL     1       0.240  -4.649   0.623  1.00  0.00    -0.006 C 
ATOM     10  C   UNL     1       2.488  -4.471   1.445  1.00  0.00     0.046 C 
ATOM     11  C   UNL     1       0.966  -4.156  -0.390  1.00  0.00    -0.016 C 
BRANCH   8  12
ATOM     12  N   UNL     1       1.005  -6.372   2.145  1.00  0.00    -0.364 N 
ATOM     13  H   UNL     1       0.574  -6.563   3.009  1.00  0.00     0.162 HD
BRANCH  12  14
ATOM     14  C   UNL     1       1.426  -7.482   1.468  1.00  0.00     0.130 A 
ATOM     15  C   UNL     1       2.890  -8.672  -1.758  1.00  0.00     0.067 C 
ATOM     16  C   UNL     1       2.336  -8.667  -0.365  1.00  0.00     0.043 A 
ATOM     17  C   UNL     1       1.833  -7.494   0.156  1.00  0.00     0.070 A 
ATOM     18  N   UNL     1       2.364  -9.805   0.342  1.00  0.00    -0.238 NA
ATOM     19  C   UNL     1       1.883  -9.733   1.595  1.00  0.00     0.127 A 
ATOM     20  N   UNL     1       1.432  -8.610   2.191  1.00  0.00    -0.216 NA
ATOM     21  C   UNL     1       1.821 -11.000   2.386  1.00  0.00     0.090 C 
ENDBRANCH  12  14
ENDBRANCH   8  12
ENDBRANCH   4   7
ENDBRANCH   2   3
ENDBRANCH   1   2
BRANCH   1  22
ATOM     22  C   UNL     1       2.732   0.823   1.851  1.00  0.00     0.023 C 
BRANCH  22  23
ATOM     23  C   UNL     1       1.863   1.725   0.984  1.00  0.00     0.116 C 
BRANCH  23  24
ATOM     24  N   UNL     1       0.564   1.980   1.589  1.00  0.00    -0.352 N 
ATOM     25  C   UNL     1      -0.009   3.190   1.885  1.00  0.00     0.251 C 
ATOM     26  H   UNL     1       0.029   1.185   1.814  1.00  0.00     0.163 HD
ATOM     27  O   UNL     1      -1.040   3.263   2.544  1.00  0.00    -0.269 OA
BRANCH  25  28
ATOM     28  C   UNL     1       0.656   4.409   1.401  1.00  0.00     0.039 A 
ATOM     29  C   UNL     1       1.024   5.393   2.320  1.00  0.00     0.014 A 
ATOM     30  C   UNL     1       0.955   4.538   0.041  1.00  0.00     0.014 A 
ATOM     31  C   UNL     1       1.735   6.505   1.875  1.00  0.00     0.010 A 
ATOM     32  C   UNL     1       1.712   5.618  -0.390  1.00  0.00     0.010 A 
ATOM     33  C   UNL     1       2.091   6.616   0.522  1.00  0.00    -0.014 A 
BRANCH  33  34
ATOM     34  C   UNL     1       2.786   7.816   0.013  1.00  0.00     0.031 A 
ATOM     35  C   UNL     1       2.027   8.779  -0.852  1.00  0.00     0.074 A 
ATOM     36  C   UNL     1       4.088   8.013   0.287  1.00  0.00     0.049 A 
ATOM     37  N   UNL     1       2.451   9.850  -1.469  1.00  0.00    -0.248 NA
ATOM     38  C   UNL     1       0.602   8.481  -1.070  1.00  0.00     0.031 C 
ATOM     39  C   UNL     1       4.925   7.132   1.100  1.00  0.00     0.029 A 
ATOM     40  N   UNL     1       4.935   9.018  -0.102  1.00  0.00    -0.354 N 
ATOM     41  C   UNL     1       1.349  10.349  -2.148  1.00  0.00     0.074 A 
ATOM     42  C   UNL     1       0.253   9.436  -1.917  1.00  0.00     0.031 C 
ATOM     43  C   UNL     1       6.166   7.645   1.163  1.00  0.00     0.029 A 
ATOM     44  C   UNL     1       6.215   8.872   0.372  1.00  0.00     0.049 A 
ATOM     45  H   UNL     1       4.653   9.774  -0.666  1.00  0.00     0.167 HD
ATOM     46  C   UNL     1       1.255  11.485  -2.876  1.00  0.00     0.037 A 
ATOM     47  C   UNL     1       7.301   9.643   0.180  1.00  0.00     0.037 A 
ATOM     48  C   UNL     1       2.344  12.398  -3.087  1.00  0.00     0.049 A 
ATOM     49  C   UNL     1       7.179  10.883  -0.665  1.00  0.00     0.074 A 
ATOM     50  C   UNL     1       2.345  13.597  -3.776  1.00  0.00     0.029 A 
ATOM     51  N   UNL     1       3.631  12.210  -2.605  1.00  0.00    -0.354 N 
ATOM     52  N   UNL     1       6.124  11.369  -1.273  1.00  0.00    -0.248 NA
ATOM     53  C   UNL     1       8.400  11.680  -0.851  1.00  0.00     0.031 C 
ATOM     54  C   UNL     1       3.642  14.117  -3.741  1.00  0.00     0.029 A 
ATOM     55  C   UNL     1       4.441  13.262  -2.998  1.00  0.00     0.049 A 
ATOM     56  H   UNL     1       3.925  11.441  -2.063  1.00  0.00     0.167 HD
ATOM     57  C   UNL     1       6.547  12.533  -1.901  1.00  0.00     0.074 A 
ATOM     58  C   UNL     1       7.951  12.691  -1.583  1.00  0.00     0.031 C 
ATOM     59  C   UNL     1       5.838  13.391  -2.675  1.00  0.00     0.037 A 
BRANCH  46  60
ATOM     60  C   UNL     1      -0.077  11.803  -3.484  1.00  0.00     0.064 A 
ATOM     61  C   UNL     1      -1.160  12.216  -2.692  1.00  0.00     0.173 A 
ATOM     62  C   UNL     1      -0.271  11.715  -4.869  1.00  0.00     0.173 A 
ATOM     63  F   UNL     1      -1.030  12.295  -1.359  1.00  0.00    -0.203 F 
ATOM     64  C   UNL     1      -2.395  12.507  -3.264  1.00  0.00     0.198 A 
ATOM     65  C   UNL     1      -1.500  12.033  -5.441  1.00  0.00     0.198 A 
ATOM     66  F   UNL     1       0.733  11.323  -5.669  1.00  0.00    -0.203 F 
ATOM     67  F   UNL     1      -3.427  12.856  -2.484  1.00  0.00    -0.200 F 
ATOM     68  C   UNL     1      -2.562  12.423  -4.638  1.00  0.00     0.200 A 
ATOM     69  F   UNL     1      -1.658  11.958  -6.770  1.00  0.00    -0.200 F 
ATOM     70  F   UNL     1      -3.749  12.710  -5.189  1.00  0.00    -0.200 F 
ENDBRANCH  46  60
BRANCH  47  71
ATOM     71  C   UNL     1       8.590   9.281   0.823  1.00  0.00     0.064 A 
ATOM     72  C   UNL     1       9.090  10.034   1.894  1.00  0.00     0.173 A 
ATOM     73  C   UNL     1       9.341   8.180   0.389  1.00  0.00     0.173 A 
ATOM     74  F   UNL     1       8.416  11.109   2.329  1.00  0.00    -0.203 F 
ATOM     75  C   UNL     1      10.300   9.706   2.501  1.00  0.00     0.198 A 
ATOM     76  C   UNL     1      10.541   7.839   1.011  1.00  0.00     0.198 A 
ATOM     77  F   UNL     1       8.904   7.428  -0.631  1.00  0.00    -0.203 F 
ATOM     78  F   UNL     1      10.773  10.461   3.501  1.00  0.00    -0.200 F 
ATOM     79  C   UNL     1      11.022   8.605   2.063  1.00  0.00     0.200 A 
ATOM     80  F   UNL     1      11.230   6.769   0.592  1.00  0.00    -0.200 F 
ATOM     81  F   UNL     1      12.183   8.286   2.651  1.00  0.00    -0.200 F 
ENDBRANCH  47  71
BRANCH  59  82
ATOM     82  C   UNL     1       6.569  14.577  -3.230  1.00  0.00     0.064 A 
ATOM     83  C   UNL     1       7.485  14.441  -4.283  1.00  0.00     0.173 A 
ATOM     84  C   UNL     1       6.307  15.868  -2.745  1.00  0.00     0.173 A 
ATOM     85  F   UNL     1       7.777  13.226  -4.769  1.00  0.00    -0.203 F 
ATOM     86  C   UNL     1       8.126  15.553  -4.820  1.00  0.00     0.198 A 
ATOM     87  C   UNL     1       6.930  16.980  -3.303  1.00  0.00     0.198 A 
ATOM     88  F   UNL     1       5.434  16.050  -1.744  1.00  0.00    -0.203 F 
ATOM     89  F   UNL     1       9.025  15.397  -5.801  1.00  0.00    -0.200 F 
ATOM     90  C   UNL     1       7.842  16.822  -4.336  1.00  0.00     0.200 A 
ATOM     91  F   UNL     1       6.644  18.206  -2.844  1.00  0.00    -0.200 F 
ATOM     92  F   UNL     1       8.451  17.893  -4.862  1.00  0.00    -0.200 F 
ENDBRANCH  59  82
ENDBRANCH  33  34
ENDBRANCH  25  28
ENDBRANCH  23  24
ENDBRANCH  22  23
ENDBRANCH   1  22
TORSDOF 13
