REMARK SMILES C[C@@H](C(=O)NCCCCNC(=O)c1ccc(-c2c3nc(c(-c4c(F)c(F)c(F)c(F)c4F)c4ccc([nH]4)c(-c4c(F)c(F)c(F)c(F)c4F)c4nc(c(-c5c(F)c(F)c(F)c(F)c5F)c5ccc2[nH]5)C=C4)C=C3)cc1)c1ccc(C(=O)c2cccs2)cc1
REMARK SMILES IDX 7 1 6 2 5 3 3 4 4 5 2 7 1 8 76 9 77 10 88 11 78 12 87 13
REMARK SMILES IDX 79 14 80 15 81 16 82 17 83 18 86 19 84 20 85 21 8 22 9 23
REMARK SMILES IDX 10 24 11 25 12 27 13 28 14 29 75 30 15 31 74 32 16 33 17 34
REMARK SMILES IDX 18 35 68 36 19 37 73 38 67 39 69 40 20 41 72 42 66 43 65 44
REMARK SMILES IDX 21 46 53 47 33 48 52 49 34 50 37 51 51 52 70 53 35 54 36 55
REMARK SMILES IDX 50 57 71 58 38 59 22 60 23 61 31 62 24 63 25 64 29 65 32 66
REMARK SMILES IDX 26 67 27 68 30 69 28 70 54 71 55 72 63 73 56 74 57 75 61 76
REMARK SMILES IDX 64 77 58 78 59 79 62 80 60 81 39 82 40 83 48 84 41 85 42 86
REMARK SMILES IDX 46 87 49 88 43 89 44 90 47 91 45 92
REMARK H PARENT 5 6 10 26 69 45 37 56
REMARK Flexibility Score: inf
ROOT
ATOM      1  C   UNL     1       4.113   0.729   0.889  1.00  0.00     0.023 C 
ENDROOT
BRANCH   1   2
ATOM      2  C   UNL     1       3.350  -0.296   1.730  1.00  0.00     0.116 C 
BRANCH   2   3
ATOM      3  N   UNL     1       2.338   0.346   2.539  1.00  0.00    -0.356 N 
ATOM      4  C   UNL     1       0.989   0.436   2.358  1.00  0.00     0.227 C 
ATOM      5  O   UNL     1       0.381   1.140   3.166  1.00  0.00    -0.274 OA
ATOM      6  H   UNL     1       2.677   0.788   3.351  1.00  0.00     0.163 HD
BRANCH   4   7
ATOM      7  C   UNL     1       0.306  -0.350   1.224  1.00  0.00     0.105 C 
ATOM      8  C   UNL     1       0.636   0.196  -0.168  1.00  0.00     0.023 C 
BRANCH   7   9
ATOM      9  C   UNL     1      -1.212  -0.415   1.370  1.00  0.00    -0.036 A 
ATOM     10  C   UNL     1      -1.986   0.753   1.431  1.00  0.00     0.005 A 
ATOM     11  C   UNL     1      -1.867  -1.653   1.380  1.00  0.00     0.005 A 
ATOM     12  C   UNL     1      -3.377   0.686   1.518  1.00  0.00     0.012 A 
ATOM     13  C   UNL     1      -3.263  -1.721   1.447  1.00  0.00     0.012 A 
ATOM     14  C   UNL     1      -4.032  -0.551   1.526  1.00  0.00     0.023 A 
BRANCH  14  15
ATOM     15  C   UNL     1      -5.531  -0.554   1.561  1.00  0.00     0.202 C 
ATOM     16  O   UNL     1      -6.116   0.528   1.560  1.00  0.00    -0.288 OA
BRANCH  15  17
ATOM     17  C   UNL     1      -6.239  -1.820   1.554  1.00  0.00     0.075 A 
ATOM     18  C   UNL     1      -6.209  -2.853   2.470  1.00  0.00     0.024 A 
ATOM     19  S   UNL     1      -7.311  -2.148   0.261  1.00  0.00    -0.140 S 
ATOM     20  C   UNL     1      -7.037  -3.945   2.073  1.00  0.00     0.012 A 
ATOM     21  C   UNL     1      -7.686  -3.695   0.885  1.00  0.00     0.065 A 
ENDBRANCH  15  17
ENDBRANCH  14  15
ENDBRANCH   7   9
ENDBRANCH   4   7
ENDBRANCH   2   3
ENDBRANCH   1   2
BRANCH   1  22
ATOM     22  C   UNL     1       4.891   1.772   1.697  1.00  0.00     0.023 C 
BRANCH  22  23
ATOM     23  C   UNL     1       5.882   1.204   2.703  1.00  0.00     0.116 C 
BRANCH  23  24
ATOM     24  N   UNL     1       6.874   0.339   2.088  1.00  0.00    -0.352 N 
ATOM     25  C   UNL     1       8.218   0.247   2.338  1.00  0.00     0.251 C 
ATOM     26  H   UNL     1       6.532  -0.268   1.392  1.00  0.00     0.163 HD
ATOM     27  O   UNL     1       8.927  -0.453   1.613  1.00  0.00    -0.269 OA
BRANCH  25  28
ATOM     28  C   UNL     1       8.827   0.999   3.455  1.00  0.00     0.039 A 
ATOM     29  C   UNL     1      10.067   1.609   3.252  1.00  0.00     0.014 A 
ATOM     30  C   UNL     1       8.203   1.080   4.704  1.00  0.00     0.014 A 
ATOM     31  C   UNL     1      10.667   2.324   4.291  1.00  0.00     0.010 A 
ATOM     32  C   UNL     1       8.762   1.861   5.711  1.00  0.00     0.010 A 
ATOM     33  C   UNL     1      10.012   2.469   5.525  1.00  0.00    -0.014 A 
BRANCH  33  34
ATOM     34  C   UNL     1      10.651   3.210   6.641  1.00  0.00     0.031 A 
ATOM     35  C   UNL     1      11.039   2.485   7.902  1.00  0.00     0.074 A 
ATOM     36  C   UNL     1      10.855   4.537   6.534  1.00  0.00     0.049 A 
ATOM     37  N   UNL     1      11.606   2.952   8.986  1.00  0.00    -0.248 NA
ATOM     38  C   UNL     1      10.725   1.049   7.964  1.00  0.00     0.031 C 
ATOM     39  C   UNL     1      10.475   5.361   5.386  1.00  0.00     0.029 A 
ATOM     40  N   UNL     1      11.434   5.425   7.405  1.00  0.00    -0.354 N 
ATOM     41  C   UNL     1      11.697   1.875   9.859  1.00  0.00     0.074 A 
ATOM     42  C   UNL     1      11.074   0.746   9.205  1.00  0.00     0.031 C 
ATOM     43  C   UNL     1      10.864   6.627   5.607  1.00  0.00     0.029 A 
ATOM     44  C   UNL     1      11.492   6.710   6.923  1.00  0.00     0.049 A 
ATOM     45  H   UNL     1      11.776   5.166   8.291  1.00  0.00     0.167 HD
ATOM     46  C   UNL     1      12.273   1.824  11.084  1.00  0.00     0.037 A 
ATOM     47  C   UNL     1      12.001   7.825   7.478  1.00  0.00     0.037 A 
ATOM     48  C   UNL     1      12.921   2.942  11.717  1.00  0.00     0.049 A 
ATOM     49  C   UNL     1      12.649   7.738   8.835  1.00  0.00     0.074 A 
ATOM     50  C   UNL     1      13.591   2.980  12.927  1.00  0.00     0.029 A 
ATOM     51  N   UNL     1      12.976   4.223  11.189  1.00  0.00    -0.354 N 
ATOM     52  N   UNL     1      12.803   6.696   9.616  1.00  0.00    -0.248 NA
ATOM     53  C   UNL     1      13.209   8.983   9.379  1.00  0.00     0.031 C 
ATOM     54  C   UNL     1      14.010   4.295  13.154  1.00  0.00     0.029 A 
ATOM     55  C   UNL     1      13.653   5.064  12.058  1.00  0.00     0.049 A 
ATOM     56  H   UNL     1      12.592   4.495  10.324  1.00  0.00     0.167 HD
ATOM     57  C   UNL     1      13.510   7.149  10.722  1.00  0.00     0.074 A 
ATOM     58  C   UNL     1      13.765   8.558  10.504  1.00  0.00     0.031 C 
ATOM     59  C   UNL     1      13.914   6.461  11.818  1.00  0.00     0.037 A 
BRANCH  46  60
ATOM     60  C   UNL     1      12.228   0.514  11.819  1.00  0.00     0.064 A 
ATOM     61  C   UNL     1      12.957  -0.604  11.382  1.00  0.00     0.173 A 
ATOM     62  C   UNL     1      11.469   0.381  12.991  1.00  0.00     0.173 A 
ATOM     63  F   UNL     1      13.690  -0.536  10.260  1.00  0.00    -0.203 F 
ATOM     64  C   UNL     1      12.897  -1.813  12.070  1.00  0.00     0.198 A 
ATOM     65  C   UNL     1      11.439  -0.819  13.695  1.00  0.00     0.198 A 
ATOM     66  F   UNL     1      10.757   1.419  13.457  1.00  0.00    -0.203 F 
ATOM     67  F   UNL     1      13.555  -2.882  11.600  1.00  0.00    -0.200 F 
ATOM     68  C   UNL     1      12.145  -1.918  13.230  1.00  0.00     0.200 A 
ATOM     69  F   UNL     1      10.722  -0.915  14.824  1.00  0.00    -0.200 F 
ATOM     70  F   UNL     1      12.094  -3.081  13.894  1.00  0.00    -0.200 F 
ENDBRANCH  46  60
BRANCH  47  71
ATOM     71  C   UNL     1      11.966   9.112   6.734  1.00  0.00     0.064 A 
ATOM     72  C   UNL     1      13.147   9.693   6.250  1.00  0.00     0.173 A 
ATOM     73  C   UNL     1      10.762   9.792   6.503  1.00  0.00     0.173 A 
ATOM     74  F   UNL     1      14.326   9.090   6.462  1.00  0.00    -0.203 F 
ATOM     75  C   UNL     1      13.127  10.919   5.587  1.00  0.00     0.198 A 
ATOM     76  C   UNL     1      10.741  11.002   5.814  1.00  0.00     0.198 A 
ATOM     77  F   UNL     1       9.604   9.275   6.940  1.00  0.00    -0.203 F 
ATOM     78  F   UNL     1      14.276  11.476   5.181  1.00  0.00    -0.200 F 
ATOM     79  C   UNL     1      11.924  11.570   5.365  1.00  0.00     0.200 A 
ATOM     80  F   UNL     1       9.574  11.622   5.588  1.00  0.00    -0.200 F 
ATOM     81  F   UNL     1      11.905  12.748   4.727  1.00  0.00    -0.200 F 
ENDBRANCH  47  71
BRANCH  59  82
ATOM     82  C   UNL     1      14.724   7.208  12.839  1.00  0.00     0.064 A 
ATOM     83  C   UNL     1      14.160   8.202  13.652  1.00  0.00     0.173 A 
ATOM     84  C   UNL     1      16.082   6.904  13.021  1.00  0.00     0.173 A 
ATOM     85  F   UNL     1      12.869   8.539  13.509  1.00  0.00    -0.203 F 
ATOM     86  C   UNL     1      14.934   8.891  14.582  1.00  0.00     0.198 A 
ATOM     87  C   UNL     1      16.845   7.570  13.976  1.00  0.00     0.198 A 
ATOM     88  F   UNL     1      16.669   5.955  12.277  1.00  0.00    -0.203 F 
ATOM     89  F   UNL     1      14.389   9.879  15.304  1.00  0.00    -0.200 F 
ATOM     90  C   UNL     1      16.273   8.570  14.747  1.00  0.00     0.200 A 
ATOM     91  F   UNL     1      18.134   7.247  14.146  1.00  0.00    -0.200 F 
ATOM     92  F   UNL     1      17.016   9.232  15.645  1.00  0.00    -0.200 F 
ENDBRANCH  59  82
ENDBRANCH  33  34
ENDBRANCH  25  28
ENDBRANCH  23  24
ENDBRANCH  22  23
ENDBRANCH   1  22
TORSDOF 14
