REMARK SMILES C=CCN1C(=O)/C(=C\c2cccn2-c2ccc(C(=O)NCCCCNC(=O)c3ccc(-c4c5nc(c(-c6c(F)c(F)c(F)c(F)c6F)c6ccc([nH]6)c(-c6c(F)c(F)c(F)c(F)c6F)c6nc(c(-c7c(F)c(F)c(F)c(F)c7F)c7ccc4[nH]7)C=C6)C=C5)cc3)cc2)C(O)=NC1=S
REMARK SMILES IDX 21 1 20 2 18 3 19 4 17 6 14 7 15 8 92 9 16 10 91 11 13 12
REMARK SMILES IDX 9 13 10 14 11 15 12 16 8 17 4 18 5 19 96 20 6 21 7 22 95 23
REMARK SMILES IDX 97 24 93 25 3 26 2 27 1 28 94 29 22 31 23 32 24 33 25 34
REMARK SMILES IDX 26 35 27 37 28 38 29 39 90 40 30 41 89 42 31 43 32 44 33 45
REMARK SMILES IDX 83 46 34 47 88 48 82 49 84 50 35 51 87 52 81 53 80 54 36 56
REMARK SMILES IDX 68 57 48 58 67 59 49 60 52 61 66 62 85 63 50 64 51 65 65 67
REMARK SMILES IDX 86 68 53 69 37 70 38 71 46 72 39 73 40 74 44 75 47 76 41 77
REMARK SMILES IDX 42 78 45 79 43 80 69 81 70 82 78 83 71 84 72 85 76 86 79 87
REMARK SMILES IDX 73 88 74 89 77 90 75 91 54 92 55 93 63 94 56 95 57 96 61 97
REMARK SMILES IDX 64 98 58 99 59 100 62 101 60 102
REMARK H PARENT 20 5 94 30 25 36 84 55 52 66
REMARK Flexibility Score: inf
ROOT
ATOM      1  C   UNL     1       2.767   0.277  -8.482  1.00  0.00     0.116 C 
ENDROOT
BRANCH   1   2
ATOM      2  N   UNL     1       2.389  -0.550  -9.613  1.00  0.00    -0.352 N 
ATOM      3  C   UNL     1       1.363  -1.435  -9.827  1.00  0.00     0.251 C 
ATOM      4  O   UNL     1       1.315  -1.977 -10.932  1.00  0.00    -0.269 OA
ATOM      5  H   UNL     1       2.993  -0.456 -10.384  1.00  0.00     0.163 HD
BRANCH   3   6
ATOM      6  C   UNL     1       0.290  -1.728  -8.832  1.00  0.00     0.039 A 
ATOM      7  C   UNL     1      -1.880  -2.238  -7.121  1.00  0.00     0.046 A 
ATOM      8  C   UNL     1      -1.994  -2.531  -8.480  1.00  0.00     0.027 A 
ATOM      9  C   UNL     1      -0.673  -1.769  -6.602  1.00  0.00     0.027 A 
ATOM     10  C   UNL     1      -0.920  -2.247  -9.331  1.00  0.00     0.016 A 
ATOM     11  C   UNL     1       0.416  -1.558  -7.452  1.00  0.00     0.016 A 
BRANCH   7  12
ATOM     12  N   UNL     1      -2.963  -2.487  -6.245  1.00  0.00    -0.317 N 
ATOM     13  C   UNL     1      -3.520  -1.622  -5.307  1.00  0.00     0.047 A 
ATOM     14  C   UNL     1      -4.460  -2.337  -4.584  1.00  0.00     0.028 A 
ATOM     15  C   UNL     1      -4.502  -3.649  -5.103  1.00  0.00     0.020 A 
ATOM     16  C   UNL     1      -3.616  -3.700  -6.155  1.00  0.00     0.092 A 
BRANCH  13  17
ATOM     17  C   UNL     1      -3.195  -0.237  -5.285  1.00  0.00     0.046 C 
ATOM     18  N   UNL     1      -1.603   0.413  -2.031  1.00  0.00    -0.279 N 
ATOM     19  C   UNL     1      -1.914  -0.367  -3.143  1.00  0.00     0.265 C 
ATOM     20  C   UNL     1      -1.626   1.817  -2.042  1.00  0.00     0.206 C 
ATOM     21  O   UNL     1      -1.666  -1.569  -3.204  1.00  0.00    -0.268 OA
ATOM     22  C   UNL     1      -2.509   0.367  -4.293  1.00  0.00     0.104 C 
ATOM     23  N   UNL     1      -1.910   2.466  -3.217  1.00  0.00    -0.184 NA
ATOM     24  S   UNL     1      -1.300   2.781  -0.685  1.00  0.00    -0.038 S 
ATOM     25  C   UNL     1      -2.317   1.818  -4.242  1.00  0.00     0.226 C 
BRANCH  18  26
ATOM     26  C   UNL     1      -1.192  -0.351  -0.847  1.00  0.00     0.155 C 
BRANCH  26  27
ATOM     27  C   UNL     1       0.301  -0.547  -0.867  1.00  0.00    -0.013 C 
ATOM     28  C   UNL     1       1.128  -0.170   0.116  1.00  0.00     0.006 C 
ENDBRANCH  26  27
ENDBRANCH  18  26
BRANCH  25  29
ATOM     29  O   UNL     1      -2.555   2.544  -5.348  1.00  0.00    -0.493 OA
ATOM     30  H   UNL     1      -2.856   2.123  -6.129  1.00  0.00     0.295 HD
ENDBRANCH  25  29
ENDBRANCH  13  17
ENDBRANCH   7  12
ENDBRANCH   3   6
ENDBRANCH   1   2
BRANCH   1  31
ATOM     31  C   UNL     1       3.872  -0.396  -7.663  1.00  0.00     0.023 C 
BRANCH  31  32
ATOM     32  C   UNL     1       5.261  -0.327  -8.317  1.00  0.00     0.023 C 
BRANCH  32  33
ATOM     33  C   UNL     1       5.841   1.085  -8.405  1.00  0.00     0.116 C 
BRANCH  33  34
ATOM     34  N   UNL     1       6.012   1.669  -7.086  1.00  0.00    -0.352 N 
ATOM     35  C   UNL     1       6.304   2.962  -6.732  1.00  0.00     0.251 C 
ATOM     36  H   UNL     1       5.902   1.044  -6.333  1.00  0.00     0.163 HD
ATOM     37  O   UNL     1       6.786   3.193  -5.630  1.00  0.00    -0.269 OA
BRANCH  35  38
ATOM     38  C   UNL     1       6.058   4.082  -7.663  1.00  0.00     0.039 A 
ATOM     39  C   UNL     1       7.017   5.097  -7.737  1.00  0.00     0.014 A 
ATOM     40  C   UNL     1       4.863   4.182  -8.385  1.00  0.00     0.014 A 
ATOM     41  C   UNL     1       6.808   6.181  -8.582  1.00  0.00     0.010 A 
ATOM     42  C   UNL     1       4.663   5.249  -9.255  1.00  0.00     0.010 A 
ATOM     43  C   UNL     1       5.644   6.242  -9.361  1.00  0.00    -0.014 A 
BRANCH  43  44
ATOM     44  C   UNL     1       5.565   7.279 -10.416  1.00  0.00     0.031 A 
ATOM     45  C   UNL     1       6.486   6.930 -11.607  1.00  0.00     0.074 A 
ATOM     46  C   UNL     1       4.765   8.360 -10.161  1.00  0.00     0.049 A 
ATOM     47  N   UNL     1       7.122   7.702 -12.434  1.00  0.00    -0.248 NA
ATOM     48  C   UNL     1       6.805   5.497 -11.872  1.00  0.00     0.031 C 
ATOM     49  C   UNL     1       3.884   8.492  -8.980  1.00  0.00     0.029 A 
ATOM     50  N   UNL     1       4.523   9.557 -10.810  1.00  0.00    -0.354 N 
ATOM     51  C   UNL     1       7.753   6.879 -13.400  1.00  0.00     0.074 A 
ATOM     52  C   UNL     1       7.616   5.535 -12.932  1.00  0.00     0.031 C 
ATOM     53  C   UNL     1       3.285   9.702  -8.952  1.00  0.00     0.029 A 
ATOM     54  C   UNL     1       3.709  10.483 -10.096  1.00  0.00     0.049 A 
ATOM     55  H   UNL     1       4.888   9.756 -11.703  1.00  0.00     0.167 HD
ATOM     56  C   UNL     1       8.228   7.356 -14.591  1.00  0.00     0.037 A 
ATOM     57  C   UNL     1       3.448  11.802 -10.373  1.00  0.00     0.037 A 
ATOM     58  C   UNL     1       8.045   8.765 -14.645  1.00  0.00     0.049 A 
ATOM     59  C   UNL     1       4.079  12.043 -11.675  1.00  0.00     0.074 A 
ATOM     60  C   UNL     1       8.678   9.800 -14.011  1.00  0.00     0.029 A 
ATOM     61  N   UNL     1       6.857   9.211 -15.167  1.00  0.00    -0.354 N 
ATOM     62  N   UNL     1       3.612  11.620 -12.811  1.00  0.00    -0.248 NA
ATOM     63  C   UNL     1       5.380  12.723 -11.709  1.00  0.00     0.031 C 
ATOM     64  C   UNL     1       7.628  10.702 -13.747  1.00  0.00     0.029 A 
ATOM     65  C   UNL     1       6.473  10.297 -14.426  1.00  0.00     0.049 A 
ATOM     66  H   UNL     1       6.372   8.823 -15.931  1.00  0.00     0.167 HD
ATOM     67  C   UNL     1       4.721  11.692 -13.618  1.00  0.00     0.074 A 
ATOM     68  C   UNL     1       5.620  12.649 -13.014  1.00  0.00     0.031 C 
ATOM     69  C   UNL     1       5.068  10.615 -14.365  1.00  0.00     0.037 A 
BRANCH  56  70
ATOM     70  C   UNL     1       8.642   6.692 -15.880  1.00  0.00     0.064 A 
ATOM     71  C   UNL     1       9.355   7.469 -16.834  1.00  0.00     0.173 A 
ATOM     72  C   UNL     1       8.062   5.513 -16.362  1.00  0.00     0.173 A 
ATOM     73  F   UNL     1      10.002   8.586 -16.466  1.00  0.00    -0.203 F 
ATOM     74  C   UNL     1       9.339   7.172 -18.195  1.00  0.00     0.198 A 
ATOM     75  C   UNL     1       8.094   5.191 -17.725  1.00  0.00     0.198 A 
ATOM     76  F   UNL     1       7.366   4.703 -15.555  1.00  0.00    -0.203 F 
ATOM     77  F   UNL     1       9.891   8.023 -19.072  1.00  0.00    -0.200 F 
ATOM     78  C   UNL     1       8.688   6.042 -18.643  1.00  0.00     0.200 A 
ATOM     79  F   UNL     1       7.472   4.085 -18.157  1.00  0.00    -0.200 F 
ATOM     80  F   UNL     1       8.601   5.790 -19.956  1.00  0.00    -0.200 F 
ENDBRANCH  56  70
BRANCH  57  81
ATOM     81  C   UNL     1       2.828  13.014  -9.700  1.00  0.00     0.064 A 
ATOM     82  C   UNL     1       2.054  13.011  -8.534  1.00  0.00     0.173 A 
ATOM     83  C   UNL     1       3.078  14.322 -10.218  1.00  0.00     0.173 A 
ATOM     84  F   UNL     1       1.605  11.868  -8.007  1.00  0.00    -0.203 F 
ATOM     85  C   UNL     1       1.685  14.205  -7.877  1.00  0.00     0.198 A 
ATOM     86  C   UNL     1       2.761  15.501  -9.544  1.00  0.00     0.198 A 
ATOM     87  F   UNL     1       3.646  14.512 -11.416  1.00  0.00    -0.203 F 
ATOM     88  F   UNL     1       0.950  14.147  -6.758  1.00  0.00    -0.200 F 
ATOM     89  C   UNL     1       2.079  15.443  -8.356  1.00  0.00     0.200 A 
ATOM     90  F   UNL     1       3.143  16.681 -10.054  1.00  0.00    -0.200 F 
ATOM     91  F   UNL     1       1.788  16.569  -7.691  1.00  0.00    -0.200 F 
ENDBRANCH  57  81
BRANCH  69  92
ATOM     92  C   UNL     1       3.910   9.688 -14.683  1.00  0.00     0.064 A 
ATOM     93  C   UNL     1       2.828  10.166 -15.438  1.00  0.00     0.173 A 
ATOM     94  C   UNL     1       3.771   8.390 -14.163  1.00  0.00     0.173 A 
ATOM     95  F   UNL     1       2.886  11.389 -15.986  1.00  0.00    -0.203 F 
ATOM     96  C   UNL     1       1.674   9.403 -15.638  1.00  0.00     0.198 A 
ATOM     97  C   UNL     1       2.622   7.620 -14.367  1.00  0.00     0.198 A 
ATOM     98  F   UNL     1       4.745   7.837 -13.444  1.00  0.00    -0.203 F 
ATOM     99  F   UNL     1       0.661   9.902 -16.360  1.00  0.00    -0.200 F 
ATOM    100  C   UNL     1       1.570   8.131 -15.100  1.00  0.00     0.200 A 
ATOM    101  F   UNL     1       2.543   6.382 -13.853  1.00  0.00    -0.200 F 
ATOM    102  F   UNL     1       0.468   7.395 -15.301  1.00  0.00    -0.200 F 
ENDBRANCH  69  92
ENDBRANCH  43  44
ENDBRANCH  35  38
ENDBRANCH  33  34
ENDBRANCH  32  33
ENDBRANCH  31  32
ENDBRANCH   1  31
TORSDOF 16
