REMARK SMILES COc1nc2c(cc1C(=O)NCc1ccc(C(=O)NCCCCNC(=O)c3ccc(-c4c5nc(c(-c6c(F)c(F)c(F)c(F)c6F)c6ccc([nH]6)c(-c6c(F)c(F)c(F)c(F)c6F)c6nc(c(-c7c(F)c(F)c(F)c(F)c7F)c7ccc4[nH]7)C=C6)C=C5)cc3)s1)CCC2
REMARK SMILES IDX 20 1 19 2 17 3 18 4 16 6 13 7 14 8 90 9 15 10 12 11 11 12
REMARK SMILES IDX 9 13 10 14 8 16 3 17 4 18 5 19 7 20 6 21 93 22 91 23 92 24
REMARK SMILES IDX 2 25 1 26 21 27 22 28 23 29 24 30 25 31 26 33 27 34 28 35
REMARK SMILES IDX 89 36 29 37 88 38 30 39 31 40 32 41 82 42 33 43 87 44 81 45
REMARK SMILES IDX 83 46 34 47 86 48 80 49 79 50 35 52 67 53 47 54 66 55 48 56
REMARK SMILES IDX 51 57 65 58 84 59 49 60 50 61 64 63 85 64 52 65 36 66 37 67
REMARK SMILES IDX 45 68 38 69 39 70 43 71 46 72 40 73 41 74 44 75 42 76 68 77
REMARK SMILES IDX 69 78 77 79 70 80 71 81 75 82 78 83 72 84 73 85 76 86 74 87
REMARK SMILES IDX 53 88 54 89 62 90 55 91 56 92 60 93 63 94 57 95 58 96 61 97
REMARK SMILES IDX 59 98
REMARK H PARENT 19 5 11 15 24 32 83 51 51 62
REMARK Flexibility Score: inf
ROOT
ATOM      1  C   UNL     1       0.855   1.712   7.292  1.00  0.00     0.116 C 
ENDROOT
BRANCH   1   2
ATOM      2  N   UNL     1       0.991   2.912   6.500  1.00  0.00    -0.351 N 
ATOM      3  C   UNL     1       1.346   3.130   5.190  1.00  0.00     0.261 C 
ATOM      4  O   UNL     1       1.478   4.325   4.905  1.00  0.00    -0.268 OA
ATOM      5  H   UNL     1       0.788   3.737   6.996  1.00  0.00     0.163 HD
BRANCH   3   6
ATOM      6  C   UNL     1       1.544   2.052   4.222  1.00  0.00     0.092 A 
ATOM      7  C   UNL     1       2.064   0.932   2.035  1.00  0.00     0.025 A 
ATOM      8  C   UNL     1       1.548   0.060   2.967  1.00  0.00     0.018 A 
ATOM      9  S   UNL     1       2.248   2.496   2.707  1.00  0.00    -0.133 S 
ATOM     10  C   UNL     1       1.249   0.700   4.210  1.00  0.00     0.026 A 
BRANCH   7  11
ATOM     11  C   UNL     1       2.397   0.711   0.597  1.00  0.00     0.163 C 
BRANCH  11  12
ATOM     12  N   UNL     1       3.370  -0.346   0.429  1.00  0.00    -0.347 N 
ATOM     13  C   UNL     1       3.382  -1.685   0.171  1.00  0.00     0.257 C 
ATOM     14  O   UNL     1       4.515  -2.130  -0.064  1.00  0.00    -0.269 OA
ATOM     15  H   UNL     1       4.286   0.001   0.529  1.00  0.00     0.164 HD
BRANCH  13  16
ATOM     16  C   UNL     1       2.259  -2.671   0.185  1.00  0.00     0.102 A 
ATOM     17  C   UNL     1       0.877  -2.463   0.180  1.00  0.00     0.226 A 
ATOM     18  N   UNL     1      -0.066  -3.451   0.257  1.00  0.00    -0.218 NA
ATOM     19  C   UNL     1       0.395  -4.707   0.279  1.00  0.00     0.048 A 
ATOM     20  C   UNL     1       2.671  -4.025   0.167  1.00  0.00     0.025 A 
ATOM     21  C   UNL     1       1.732  -5.039   0.207  1.00  0.00    -0.025 A 
ATOM     22  C   UNL     1      -0.468  -5.937   0.311  1.00  0.00     0.057 C 
ATOM     23  C   UNL     1       1.922  -6.516   0.126  1.00  0.00     0.038 C 
ATOM     24  C   UNL     1       0.570  -7.016   0.658  1.00  0.00     0.011 C 
BRANCH  17  25
ATOM     25  O   UNL     1       0.331  -1.217   0.103  1.00  0.00    -0.480 OA
ATOM     26  C   UNL     1      -0.301  -1.053  -1.167  1.00  0.00     0.280 C 
ENDBRANCH  17  25
ENDBRANCH  13  16
ENDBRANCH  11  12
ENDBRANCH   7  11
ENDBRANCH   3   6
ENDBRANCH   1   2
BRANCH   1  27
ATOM     27  C   UNL     1       2.195   1.258   7.865  1.00  0.00     0.023 C 
BRANCH  27  28
ATOM     28  C   UNL     1       2.674   2.083   9.066  1.00  0.00     0.023 C 
BRANCH  28  29
ATOM     29  C   UNL     1       1.686   2.181  10.226  1.00  0.00     0.116 C 
BRANCH  29  30
ATOM     30  N   UNL     1       1.197   0.891  10.686  1.00  0.00    -0.352 N 
ATOM     31  C   UNL     1       0.732   0.568  11.942  1.00  0.00     0.251 C 
ATOM     32  H   UNL     1       1.199   0.163  10.023  1.00  0.00     0.163 HD
ATOM     33  O   UNL     1       0.393  -0.563  12.227  1.00  0.00    -0.269 OA
BRANCH  31  34
ATOM     34  C   UNL     1       0.697   1.642  12.951  1.00  0.00     0.039 A 
ATOM     35  C   UNL     1       1.512   1.524  14.078  1.00  0.00     0.014 A 
ATOM     36  C   UNL     1      -0.070   2.788  12.727  1.00  0.00     0.014 A 
ATOM     37  C   UNL     1       1.601   2.593  14.967  1.00  0.00     0.010 A 
ATOM     38  C   UNL     1       0.053   3.869  13.592  1.00  0.00     0.010 A 
ATOM     39  C   UNL     1       0.892   3.778  14.714  1.00  0.00    -0.014 A 
BRANCH  39  40
ATOM     40  C   UNL     1       0.996   4.930  15.637  1.00  0.00     0.031 A 
ATOM     41  C   UNL     1      -0.164   5.272  16.521  1.00  0.00     0.074 A 
ATOM     42  C   UNL     1       2.113   5.680  15.646  1.00  0.00     0.049 A 
ATOM     43  N   UNL     1      -0.289   6.253  17.377  1.00  0.00    -0.248 NA
ATOM     44  C   UNL     1      -1.349   4.405  16.418  1.00  0.00     0.031 C 
ATOM     45  C   UNL     1       3.290   5.454  14.807  1.00  0.00     0.029 A 
ATOM     46  N   UNL     1       2.438   6.787  16.387  1.00  0.00    -0.354 N 
ATOM     47  C   UNL     1      -1.560   6.118  17.915  1.00  0.00     0.074 A 
ATOM     48  C   UNL     1      -2.190   4.997  17.253  1.00  0.00     0.031 C 
ATOM     49  C   UNL     1       4.217   6.383  15.095  1.00  0.00     0.029 A 
ATOM     50  C   UNL     1       3.691   7.280  16.120  1.00  0.00     0.049 A 
ATOM     51  H   UNL     1       1.830   7.191  17.048  1.00  0.00     0.167 HD
ATOM     52  C   UNL     1      -2.138   6.848  18.896  1.00  0.00     0.037 A 
ATOM     53  C   UNL     1       4.338   8.335  16.650  1.00  0.00     0.037 A 
ATOM     54  C   UNL     1      -1.502   7.952  19.562  1.00  0.00     0.049 A 
ATOM     55  C   UNL     1       3.660   9.151  17.716  1.00  0.00     0.074 A 
ATOM     56  C   UNL     1      -1.988   8.731  20.596  1.00  0.00     0.029 A 
ATOM     57  N   UNL     1      -0.237   8.430  19.256  1.00  0.00    -0.354 N 
ATOM     58  N   UNL     1       2.477   8.985  18.257  1.00  0.00    -0.248 NA
ATOM     59  C   UNL     1       4.406  10.301  18.248  1.00  0.00     0.031 C 
ATOM     60  C   UNL     1      -1.028   9.703  20.896  1.00  0.00     0.029 A 
ATOM     61  C   UNL     1       0.069   9.506  20.071  1.00  0.00     0.049 A 
ATOM     62  H   UNL     1       0.355   8.060  18.563  1.00  0.00     0.167 HD
ATOM     63  C   UNL     1       2.345   9.989  19.204  1.00  0.00     0.074 A 
ATOM     64  C   UNL     1       3.572  10.758  19.173  1.00  0.00     0.031 C 
ATOM     65  C   UNL     1       1.301  10.251  20.027  1.00  0.00     0.037 A 
BRANCH  52  66
ATOM     66  C   UNL     1      -3.522   6.460  19.319  1.00  0.00     0.064 A 
ATOM     67  C   UNL     1      -3.752   5.299  20.071  1.00  0.00     0.173 A 
ATOM     68  C   UNL     1      -4.622   7.269  18.999  1.00  0.00     0.173 A 
ATOM     69  F   UNL     1      -2.732   4.486  20.387  1.00  0.00    -0.203 F 
ATOM     70  C   UNL     1      -5.038   4.950  20.471  1.00  0.00     0.198 A 
ATOM     71  C   UNL     1      -5.904   6.928  19.420  1.00  0.00     0.198 A 
ATOM     72  F   UNL     1      -4.452   8.389  18.281  1.00  0.00    -0.203 F 
ATOM     73  F   UNL     1      -5.241   3.815  21.155  1.00  0.00    -0.200 F 
ATOM     74  C   UNL     1      -6.112   5.767  20.151  1.00  0.00     0.200 A 
ATOM     75  F   UNL     1      -6.940   7.722  19.118  1.00  0.00    -0.200 F 
ATOM     76  F   UNL     1      -7.349   5.433  20.542  1.00  0.00    -0.200 F 
ENDBRANCH  52  66
BRANCH  53  77
ATOM     77  C   UNL     1       5.719   8.652  16.209  1.00  0.00     0.064 A 
ATOM     78  C   UNL     1       6.812   8.402  17.051  1.00  0.00     0.173 A 
ATOM     79  C   UNL     1       5.978   9.197  14.944  1.00  0.00     0.173 A 
ATOM     80  F   UNL     1       6.610   7.900  18.278  1.00  0.00    -0.203 F 
ATOM     81  C   UNL     1       8.113   8.696  16.647  1.00  0.00     0.198 A 
ATOM     82  C   UNL     1       7.281   9.472  14.534  1.00  0.00     0.198 A 
ATOM     83  F   UNL     1       4.966   9.452  14.103  1.00  0.00    -0.203 F 
ATOM     84  F   UNL     1       9.137   8.475  17.482  1.00  0.00    -0.200 F 
ATOM     85  C   UNL     1       8.347   9.225  15.386  1.00  0.00     0.200 A 
ATOM     86  F   UNL     1       7.505   9.975  13.312  1.00  0.00    -0.200 F 
ATOM     87  F   UNL     1       9.598   9.502  14.996  1.00  0.00    -0.200 F 
ENDBRANCH  53  77
BRANCH  65  88
ATOM     88  C   UNL     1       1.438  11.403  20.974  1.00  0.00     0.064 A 
ATOM     89  C   UNL     1       1.306  12.727  20.534  1.00  0.00     0.173 A 
ATOM     90  C   UNL     1       1.615  11.176  22.347  1.00  0.00     0.173 A 
ATOM     91  F   UNL     1       1.149  12.992  19.228  1.00  0.00    -0.203 F 
ATOM     92  C   UNL     1       1.352  13.786  21.436  1.00  0.00     0.198 A 
ATOM     93  C   UNL     1       1.638  12.236  23.249  1.00  0.00     0.198 A 
ATOM     94  F   UNL     1       1.739   9.925  22.815  1.00  0.00    -0.203 F 
ATOM     95  F   UNL     1       1.245  15.046  20.993  1.00  0.00    -0.200 F 
ATOM     96  C   UNL     1       1.508  13.539  22.793  1.00  0.00     0.200 A 
ATOM     97  F   UNL     1       1.776  11.996  24.560  1.00  0.00    -0.200 F 
ATOM     98  F   UNL     1       1.532  14.559  23.661  1.00  0.00    -0.200 F 
ENDBRANCH  65  88
ENDBRANCH  39  40
ENDBRANCH  31  34
ENDBRANCH  29  30
ENDBRANCH  28  29
ENDBRANCH  27  28
ENDBRANCH   1  27
TORSDOF 15
