REMARK SMILES CCCN1C(=O)/C(=C\c2ccc(OC)c(OC)c2C(=O)NCCCCNC(=O)c2ccc(-c3c4nc(c(-c5c(F)c(F)c(F)c(F)c5F)c5ccc([nH]5)c(-c5c(F)c(F)c(F)c(F)c5F)c5nc(c(-c6c(F)c(F)c(F)c(F)c6F)c6ccc3[nH]6)C=C5)C=C4)cc2)S/C1=[NH+]\c1nccs1
REMARK SMILES IDX 23 1 22 2 21 3 19 4 20 5 18 7 9 8 10 9 11 10 15 11 12 12
REMARK SMILES IDX 8 13 4 14 5 15 93 16 6 17 7 18 92 19 94 20 3 22 2 23 1 24
REMARK SMILES IDX 95 25 96 26 99 27 97 28 98 29 16 30 17 31 13 32 14 33 24 34
REMARK SMILES IDX 25 35 26 36 27 37 28 39 29 40 30 41 91 42 31 43 90 44 32 45
REMARK SMILES IDX 33 46 34 47 84 48 35 49 89 50 83 51 85 52 36 53 88 54 82 55
REMARK SMILES IDX 81 56 37 58 69 59 49 60 68 61 50 62 53 63 67 64 86 65 51 66
REMARK SMILES IDX 52 67 66 69 87 70 54 71 38 72 39 73 47 74 40 75 41 76 45 77
REMARK SMILES IDX 48 78 42 79 43 80 46 81 44 82 70 83 71 84 79 85 72 86 73 87
REMARK SMILES IDX 77 88 80 89 74 90 75 91 78 92 76 93 55 94 56 95 64 96 57 97
REMARK SMILES IDX 58 98 62 99 65 100 59 101 60 102 63 103 61 104
REMARK H PARENT 21 6 94 21 26 38 85 57 53 68
REMARK Flexibility Score: inf
ROOT
ATOM      1  C   UNL     1      -3.109  -2.300   5.447  1.00  0.00     0.023 C 
ENDROOT
BRANCH   1   2
ATOM      2  C   UNL     1      -2.032  -1.455   4.781  1.00  0.00     0.116 C 
BRANCH   2   3
ATOM      3  N   UNL     1      -2.194  -1.225   3.366  1.00  0.00    -0.352 N 
ATOM      4  C   UNL     1      -1.604  -0.269   2.571  1.00  0.00     0.255 C 
ATOM      5  O   UNL     1      -1.629  -0.427   1.352  1.00  0.00    -0.269 OA
ATOM      6  H   UNL     1      -2.813  -1.836   2.905  1.00  0.00     0.163 HD
BRANCH   4   7
ATOM      7  C   UNL     1      -0.925   0.930   3.126  1.00  0.00     0.092 A 
ATOM      8  C   UNL     1       0.317   0.838   3.804  1.00  0.00    -0.007 A 
ATOM      9  C   UNL     1       0.939   2.001   4.272  1.00  0.00     0.013 A 
ATOM     10  C   UNL     1       0.356   3.246   4.054  1.00  0.00     0.051 A 
ATOM     11  C   UNL     1      -1.496   2.196   2.885  1.00  0.00     0.174 A 
ATOM     12  C   UNL     1      -0.846   3.346   3.356  1.00  0.00     0.161 A 
BRANCH   8  13
ATOM     13  C   UNL     1       0.944  -0.442   4.148  1.00  0.00     0.032 C 
ATOM     14  N   UNL     1       1.660  -2.235   1.138  1.00  0.00    -0.219 N 
ATOM     15  C   UNL     1       1.810  -1.061   1.845  1.00  0.00     0.321 C 
ATOM     16  C   UNL     1       1.329  -3.346   1.885  1.00  0.00     0.271 C 
ATOM     17  O   UNL     1       2.225   0.011   1.431  1.00  0.00    -0.250 OA
ATOM     18  C   UNL     1       1.466  -1.300   3.267  1.00  0.00     0.100 C 
ATOM     19  S   UNL     1       1.538  -2.985   3.581  1.00  0.00    -0.012 SA
ATOM     20  N   UNL     1       0.916  -4.436   1.342  1.00  0.00    -0.228 N 
ATOM     21  H   UNL     1       1.015  -4.568   0.371  1.00  0.00     0.268 HD
BRANCH  14  22
ATOM     22  C   UNL     1       1.858  -2.277  -0.305  1.00  0.00     0.206 C 
BRANCH  22  23
ATOM     23  C   UNL     1       0.813  -1.518  -1.128  1.00  0.00     0.035 C 
ATOM     24  C   UNL     1       1.137  -0.046  -1.336  1.00  0.00     0.007 C 
ENDBRANCH  22  23
ENDBRANCH  14  22
BRANCH  20  25
ATOM     25  C   UNL     1       0.343  -5.412   2.105  1.00  0.00     0.319 A 
ATOM     26  N   UNL     1      -1.226  -5.822   2.079  1.00  0.00    -0.101 NA
ATOM     27  S   UNL     1       1.761  -7.100   2.689  1.00  0.00    -0.070 S 
ATOM     28  C   UNL     1      -1.677  -7.593   2.535  1.00  0.00     0.219 A 
ATOM     29  C   UNL     1      -0.009  -8.567   2.936  1.00  0.00     0.110 A 
ENDBRANCH  20  25
ENDBRANCH   8  13
BRANCH  11  30
ATOM     30  O   UNL     1      -2.753   2.342   2.351  1.00  0.00    -0.492 OA
ATOM     31  C   UNL     1      -2.777   2.201   0.931  1.00  0.00     0.278 C 
ENDBRANCH  11  30
BRANCH  12  32
ATOM     32  O   UNL     1      -1.365   4.610   3.251  1.00  0.00    -0.493 OA
ATOM     33  C   UNL     1      -1.413   5.069   1.903  1.00  0.00     0.278 C 
ENDBRANCH  12  32
ENDBRANCH   4   7
ENDBRANCH   2   3
ENDBRANCH   1   2
BRANCH   1  34
ATOM     34  C   UNL     1      -3.406  -3.701   4.898  1.00  0.00     0.023 C 
BRANCH  34  35
ATOM     35  C   UNL     1      -2.318  -4.488   4.171  1.00  0.00     0.116 C 
BRANCH  35  36
ATOM     36  N   UNL     1      -1.116  -4.800   4.921  1.00  0.00    -0.352 N 
ATOM     37  C   UNL     1      -0.111  -5.701   4.589  1.00  0.00     0.251 C 
ATOM     38  H   UNL     1      -0.999  -4.315   5.769  1.00  0.00     0.163 HD
ATOM     39  O   UNL     1       0.909  -5.716   5.277  1.00  0.00    -0.269 OA
BRANCH  37  40
ATOM     40  C   UNL     1      -0.351  -6.846   3.555  1.00  0.00     0.039 A 
ATOM     41  C   UNL     1      -1.237  -8.018   4.596  1.00  0.00     0.014 A 
ATOM     42  C   UNL     1      -0.154  -7.356   1.561  1.00  0.00     0.014 A 
ATOM     43  C   UNL     1      -1.883  -9.458   3.861  1.00  0.00     0.010 A 
ATOM     44  C   UNL     1      -0.911  -8.866   0.988  1.00  0.00     0.010 A 
ATOM     45  C   UNL     1      -1.762  -9.852   2.148  1.00  0.00    -0.014 A 
BRANCH  45  46
ATOM     46  C   UNL     1      -2.560 -10.982   1.576  1.00  0.00     0.031 A 
ATOM     47  C   UNL     1      -1.923 -11.902   0.570  1.00  0.00     0.074 A 
ATOM     48  C   UNL     1      -3.887 -11.070   1.802  1.00  0.00     0.049 A 
ATOM     49  N   UNL     1      -2.484 -12.688  -0.315  1.00  0.00    -0.248 NA
ATOM     50  C   UNL     1      -0.454 -11.890   0.514  1.00  0.00     0.031 C 
ATOM     51  C   UNL     1      -4.672 -10.215   2.693  1.00  0.00     0.029 A 
ATOM     52  N   UNL     1      -4.832 -11.908   1.250  1.00  0.00    -0.354 N 
ATOM     53  C   UNL     1      -1.446 -13.176  -1.099  1.00  0.00     0.074 A 
ATOM     54  C   UNL     1      -0.222 -12.609  -0.575  1.00  0.00     0.031 C 
ATOM     55  C   UNL     1      -5.963 -10.574   2.642  1.00  0.00     0.029 A 
ATOM     56  C   UNL     1      -6.117 -11.639   1.661  1.00  0.00     0.049 A 
ATOM     57  H   UNL     1      -4.608 -12.631   0.621  1.00  0.00     0.167 HD
ATOM     58  C   UNL     1      -1.513 -14.013  -2.163  1.00  0.00     0.037 A 
ATOM     59  C   UNL     1      -7.298 -12.156   1.270  1.00  0.00     0.037 A 
ATOM     60  C   UNL     1      -2.717 -14.667  -2.606  1.00  0.00     0.049 A 
ATOM     61  C   UNL     1      -7.326 -13.200   0.193  1.00  0.00     0.074 A 
ATOM     62  C   UNL     1      -2.869 -15.616  -3.603  1.00  0.00     0.029 A 
ATOM     63  N   UNL     1      -3.973 -14.463  -2.056  1.00  0.00    -0.354 N 
ATOM     64  N   UNL     1      -6.339 -13.659  -0.535  1.00  0.00    -0.248 NA
ATOM     65  C   UNL     1      -8.633 -13.796  -0.121  1.00  0.00     0.031 C 
ATOM     66  C   UNL     1      -4.218 -15.981  -3.661  1.00  0.00     0.029 A 
ATOM     67  C   UNL     1      -4.901 -15.279  -2.682  1.00  0.00     0.049 A 
ATOM     68  H   UNL     1      -4.175 -13.831  -1.328  1.00  0.00     0.167 HD
ATOM     69  C   UNL     1      -6.899 -14.605  -1.380  1.00  0.00     0.074 A 
ATOM     70  C   UNL     1      -8.310 -14.669  -1.065  1.00  0.00     0.031 C 
ATOM     71  C   UNL     1      -6.296 -15.348  -2.338  1.00  0.00     0.037 A 
BRANCH  58  72
ATOM     72  C   UNL     1      -0.250 -14.268  -2.934  1.00  0.00     0.064 A 
ATOM     73  C   UNL     1       0.800 -15.034  -2.412  1.00  0.00     0.173 A 
ATOM     74  C   UNL     1      -0.105 -13.763  -4.235  1.00  0.00     0.173 A 
ATOM     75  F   UNL     1       0.716 -15.535  -1.171  1.00  0.00    -0.203 F 
ATOM     76  C   UNL     1       1.962 -15.254  -3.148  1.00  0.00     0.198 A 
ATOM     77  C   UNL     1       1.045 -14.011  -4.980  1.00  0.00     0.198 A 
ATOM     78  F   UNL     1      -1.085 -13.033  -4.790  1.00  0.00    -0.203 F 
ATOM     79  F   UNL     1       2.974 -15.945  -2.607  1.00  0.00    -0.200 F 
ATOM     80  C   UNL     1       2.082 -14.748  -4.433  1.00  0.00     0.200 A 
ATOM     81  F   UNL     1       1.152 -13.533  -6.227  1.00  0.00    -0.200 F 
ATOM     82  F   UNL     1       3.199 -14.965  -5.139  1.00  0.00    -0.200 F 
ENDBRANCH  58  72
BRANCH  59  83
ATOM     83  C   UNL     1      -8.557 -11.692   1.907  1.00  0.00     0.064 A 
ATOM     84  C   UNL     1      -9.246 -12.514   2.808  1.00  0.00     0.173 A 
ATOM     85  C   UNL     1      -9.095 -10.426   1.637  1.00  0.00     0.173 A 
ATOM     86  F   UNL     1      -8.779 -13.741   3.083  1.00  0.00    -0.203 F 
ATOM     87  C   UNL     1     -10.435 -12.096   3.399  1.00  0.00     0.198 A 
ATOM     88  C   UNL     1     -10.272  -9.999   2.248  1.00  0.00     0.198 A 
ATOM     89  F   UNL     1      -8.467  -9.598   0.790  1.00  0.00    -0.203 F 
ATOM     90  F   UNL     1     -11.095 -12.919   4.226  1.00  0.00    -0.200 F 
ATOM     91  C   UNL     1     -10.945 -10.837   3.123  1.00  0.00     0.200 A 
ATOM     92  F   UNL     1     -10.753  -8.775   1.992  1.00  0.00    -0.200 F 
ATOM     93  F   UNL     1     -12.087 -10.434   3.696  1.00  0.00    -0.200 F 
ENDBRANCH  59  83
BRANCH  71  94
ATOM     94  C   UNL     1      -7.150 -16.329  -3.080  1.00  0.00     0.064 A 
ATOM     95  C   UNL     1      -8.033 -15.918  -4.087  1.00  0.00     0.173 A 
ATOM     96  C   UNL     1      -7.051 -17.701  -2.807  1.00  0.00     0.173 A 
ATOM     97  F   UNL     1      -8.174 -14.614  -4.369  1.00  0.00    -0.203 F 
ATOM     98  C   UNL     1      -8.800 -16.846  -4.786  1.00  0.00     0.198 A 
ATOM     99  C   UNL     1      -7.805 -18.627  -3.520  1.00  0.00     0.198 A 
ATOM    100  F   UNL     1      -6.219 -18.140  -1.851  1.00  0.00    -0.203 F 
ATOM    101  F   UNL     1      -9.663 -16.430  -5.723  1.00  0.00    -0.200 F 
ATOM    102  C   UNL     1      -8.680 -18.199  -4.507  1.00  0.00     0.200 A 
ATOM    103  F   UNL     1      -7.685 -19.934  -3.253  1.00  0.00    -0.200 F 
ATOM    104  F   UNL     1      -9.416 -19.091  -5.184  1.00  0.00    -0.200 F 
ENDBRANCH  71  94
ENDBRANCH  45  46
ENDBRANCH  37  40
ENDBRANCH  35  36
ENDBRANCH  34  35
ENDBRANCH   1  34
TORSDOF 17
