REMARK SMILES O=C(NCCCCNC(=O)c1ccc(COc2cccc(Cl)c2Cl)o1)c1ccc(-c2c3nc(c(-c4c(F)c(F)c(F)c(F)c4F)c4ccc([nH]4)c(-c4c(F)c(F)c(F)c(F)c4F)c4nc(c(-c5c(F)c(F)c(F)c(F)c5F)c5ccc2[nH]5)C=C4)C=C3)cc1
REMARK SMILES IDX 6 1 5 2 4 3 3 4 1 5 2 6 26 8 27 9 88 10 28 11 87 12 29 13
REMARK SMILES IDX 30 14 31 15 81 16 32 17 86 18 80 19 82 20 33 21 85 22 79 23
REMARK SMILES IDX 78 24 34 26 66 27 46 28 65 29 47 30 50 31 64 32 83 33 48 34
REMARK SMILES IDX 49 35 63 37 84 38 51 39 35 40 36 41 44 42 37 43 38 44 42 45
REMARK SMILES IDX 45 46 39 47 40 48 43 49 41 50 67 51 68 52 76 53 69 54 70 55
REMARK SMILES IDX 74 56 77 57 71 58 72 59 75 60 73 61 52 62 53 63 61 64 54 65
REMARK SMILES IDX 55 66 59 67 62 68 56 69 57 70 60 71 58 72 7 73 8 74 9 75
REMARK SMILES IDX 10 77 11 78 12 79 25 80 13 81 14 82 15 83 16 84 17 85 18 86
REMARK SMILES IDX 23 87 19 88 21 89 24 90 20 91 22 92
REMARK H PARENT 3 7 82 25 50 36 8 76
REMARK Flexibility Score: inf
ROOT
ATOM      1  C   UNL     1       4.465  -3.612   1.334  1.00  0.00     0.023 C 
ENDROOT
BRANCH   1   2
ATOM      2  C   UNL     1       4.994  -2.189   1.482  1.00  0.00     0.023 C 
BRANCH   2   3
ATOM      3  C   UNL     1       4.665  -1.261   0.321  1.00  0.00     0.116 C 
BRANCH   3   4
ATOM      4  N   UNL     1       3.236  -1.139   0.076  1.00  0.00    -0.352 N 
ATOM      5  O   UNL     1       1.251  -0.075  -0.116  1.00  0.00    -0.269 OA
ATOM      6  C   UNL     1       2.473  -0.002  -0.037  1.00  0.00     0.251 C 
ATOM      7  H   UNL     1       2.748  -1.988  -0.023  1.00  0.00     0.163 HD
BRANCH   6   8
ATOM      8  C   UNL     1       3.139   1.315  -0.032  1.00  0.00     0.039 A 
ATOM      9  C   UNL     1       4.268   1.536  -0.823  1.00  0.00     0.014 A 
ATOM     10  C   UNL     1       2.644   2.326   0.796  1.00  0.00     0.014 A 
ATOM     11  C   UNL     1       4.992   2.710  -0.671  1.00  0.00     0.010 A 
ATOM     12  C   UNL     1       3.323   3.544   0.876  1.00  0.00     0.010 A 
ATOM     13  C   UNL     1       4.520   3.733   0.168  1.00  0.00    -0.014 A 
BRANCH  13  14
ATOM     14  C   UNL     1       5.264   5.014   0.232  1.00  0.00     0.031 A 
ATOM     15  C   UNL     1       5.925   5.471   1.500  1.00  0.00     0.074 A 
ATOM     16  C   UNL     1       5.361   5.751  -0.891  1.00  0.00     0.049 A 
ATOM     17  N   UNL     1       6.627   6.556   1.717  1.00  0.00    -0.248 NA
ATOM     18  C   UNL     1       5.776   4.608   2.680  1.00  0.00     0.031 C 
ATOM     19  C   UNL     1       4.748   5.407  -2.176  1.00  0.00     0.029 A 
ATOM     20  N   UNL     1       6.021   6.926  -1.141  1.00  0.00    -0.354 N 
ATOM     21  C   UNL     1       6.986   6.516   3.058  1.00  0.00     0.074 A 
ATOM     22  C   UNL     1       6.404   5.312   3.613  1.00  0.00     0.031 C 
ATOM     23  C   UNL     1       5.100   6.322  -3.089  1.00  0.00     0.029 A 
ATOM     24  C   UNL     1       5.905   7.350  -2.441  1.00  0.00     0.049 A 
ATOM     25  H   UNL     1       6.527   7.418  -0.455  1.00  0.00     0.167 HD
ATOM     26  C   UNL     1       7.739   7.402   3.755  1.00  0.00     0.037 A 
ATOM     27  C   UNL     1       6.380   8.455  -3.043  1.00  0.00     0.037 A 
ATOM     28  C   UNL     1       8.326   8.590   3.188  1.00  0.00     0.049 A 
ATOM     29  C   UNL     1       7.188   9.430  -2.240  1.00  0.00     0.074 A 
ATOM     30  C   UNL     1       9.139   9.528   3.800  1.00  0.00     0.029 A 
ATOM     31  N   UNL     1       8.158   9.006   1.875  1.00  0.00    -0.354 N 
ATOM     32  N   UNL     1       7.549   9.363  -0.982  1.00  0.00    -0.248 NA
ATOM     33  C   UNL     1       7.651  10.635  -2.938  1.00  0.00     0.031 C 
ATOM     34  C   UNL     1       9.422  10.537   2.872  1.00  0.00     0.029 A 
ATOM     35  C   UNL     1       8.828  10.202   1.666  1.00  0.00     0.049 A 
ATOM     36  H   UNL     1       7.639   8.523   1.192  1.00  0.00     0.167 HD
ATOM     37  C   UNL     1       8.290  10.509  -0.738  1.00  0.00     0.074 A 
ATOM     38  C   UNL     1       8.347  11.242  -1.987  1.00  0.00     0.031 C 
ATOM     39  C   UNL     1       8.868  10.920   0.417  1.00  0.00     0.037 A 
BRANCH  26  40
ATOM     40  C   UNL     1       7.956   7.134   5.217  1.00  0.00     0.064 A 
ATOM     41  C   UNL     1       8.787   6.096   5.663  1.00  0.00     0.173 A 
ATOM     42  C   UNL     1       7.362   7.959   6.185  1.00  0.00     0.173 A 
ATOM     43  F   UNL     1       9.371   5.272   4.780  1.00  0.00    -0.203 F 
ATOM     44  C   UNL     1       8.995   5.877   7.024  1.00  0.00     0.198 A 
ATOM     45  C   UNL     1       7.593   7.755   7.543  1.00  0.00     0.198 A 
ATOM     46  F   UNL     1       6.564   8.971   5.813  1.00  0.00    -0.203 F 
ATOM     47  F   UNL     1       9.758   4.853   7.427  1.00  0.00    -0.200 F 
ATOM     48  C   UNL     1       8.404   6.711   7.962  1.00  0.00     0.200 A 
ATOM     49  F   UNL     1       7.031   8.569   8.447  1.00  0.00    -0.200 F 
ATOM     50  F   UNL     1       8.610   6.503   9.270  1.00  0.00    -0.200 F 
ENDBRANCH  26  40
BRANCH  27  51
ATOM     51  C   UNL     1       6.092   8.686  -4.481  1.00  0.00     0.064 A 
ATOM     52  C   UNL     1       7.108   8.606  -5.442  1.00  0.00     0.173 A 
ATOM     53  C   UNL     1       4.790   8.960  -4.926  1.00  0.00     0.173 A 
ATOM     54  F   UNL     1       8.371   8.362  -5.062  1.00  0.00    -0.203 F 
ATOM     55  C   UNL     1       6.834   8.801  -6.793  1.00  0.00     0.198 A 
ATOM     56  C   UNL     1       4.512   9.125  -6.280  1.00  0.00     0.198 A 
ATOM     57  F   UNL     1       3.781   9.038  -4.045  1.00  0.00    -0.203 F 
ATOM     58  F   UNL     1       7.830   8.753  -7.689  1.00  0.00    -0.200 F 
ATOM     59  C   UNL     1       5.536   9.052  -7.213  1.00  0.00     0.200 A 
ATOM     60  F   UNL     1       3.253   9.347  -6.682  1.00  0.00    -0.200 F 
ATOM     61  F   UNL     1       5.272   9.226  -8.514  1.00  0.00    -0.200 F 
ENDBRANCH  27  51
BRANCH  39  62
ATOM     62  C   UNL     1       9.626  12.214   0.374  1.00  0.00     0.064 A 
ATOM     63  C   UNL     1       8.966  13.448   0.275  1.00  0.00     0.173 A 
ATOM     64  C   UNL     1      11.027  12.220   0.451  1.00  0.00     0.173 A 
ATOM     65  F   UNL     1       7.629  13.492   0.179  1.00  0.00    -0.203 F 
ATOM     66  C   UNL     1       9.683  14.640   0.229  1.00  0.00     0.198 A 
ATOM     67  C   UNL     1      11.739  13.416   0.434  1.00  0.00     0.198 A 
ATOM     68  F   UNL     1      11.704  11.067   0.550  1.00  0.00    -0.203 F 
ATOM     69  F   UNL     1       9.035  15.804   0.083  1.00  0.00    -0.200 F 
ATOM     70  C   UNL     1      11.067  14.624   0.315  1.00  0.00     0.200 A 
ATOM     71  F   UNL     1      13.075  13.400   0.528  1.00  0.00    -0.200 F 
ATOM     72  F   UNL     1      11.755  15.773   0.273  1.00  0.00    -0.200 F 
ENDBRANCH  39  62
ENDBRANCH  13  14
ENDBRANCH   6   8
ENDBRANCH   3   4
ENDBRANCH   2   3
ENDBRANCH   1   2
BRANCH   1  73
ATOM     73  C   UNL     1       4.822  -4.289   0.015  1.00  0.00     0.116 C 
BRANCH  73  74
ATOM     74  N   UNL     1       6.252  -4.483  -0.123  1.00  0.00    -0.349 N 
ATOM     75  C   UNL     1       6.949  -5.667  -0.165  1.00  0.00     0.286 C 
ATOM     76  H   UNL     1       6.792  -3.663  -0.196  1.00  0.00     0.163 HD
ATOM     77  O   UNL     1       8.176  -5.608  -0.056  1.00  0.00    -0.266 OA
BRANCH  75  78
ATOM     78  C   UNL     1       6.216  -6.897  -0.347  1.00  0.00     0.191 A 
ATOM     79  C   UNL     1       5.180  -7.254  -1.194  1.00  0.00     0.057 A 
ATOM     80  O   UNL     1       6.585  -7.983   0.393  1.00  0.00    -0.452 OA
ATOM     81  C   UNL     1       4.878  -8.609  -0.927  1.00  0.00     0.050 A 
ATOM     82  C   UNL     1       5.790  -9.025   0.018  1.00  0.00     0.142 A 
BRANCH  82  83
ATOM     83  C   UNL     1       6.129 -10.355   0.589  1.00  0.00     0.304 C 
BRANCH  83  84
ATOM     84  O   UNL     1       7.516 -10.640   0.324  1.00  0.00    -0.484 OA
BRANCH  84  85
ATOM     85  C   UNL     1       7.727 -11.098  -0.955  1.00  0.00     0.140 A 
ATOM     86  C   UNL     1       7.912 -10.160  -1.977  1.00  0.00     0.048 A 
ATOM     87  C   UNL     1       7.858 -12.466  -1.219  1.00  0.00     0.101 A 
ATOM     88  C   UNL     1       8.141 -10.578  -3.284  1.00  0.00     0.005 A 
ATOM     89  C   UNL     1       8.121 -12.881  -2.532  1.00  0.00     0.063 A 
ATOM     90  Cl  UNL     1       7.694 -13.605   0.077  1.00  0.00    -0.079 Cl
ATOM     91  C   UNL     1       8.245 -11.939  -3.561  1.00  0.00     0.022 A 
ATOM     92  Cl  UNL     1       8.315 -14.546  -2.957  1.00  0.00    -0.083 Cl
ENDBRANCH  84  85
ENDBRANCH  83  84
ENDBRANCH  82  83
ENDBRANCH  75  78
ENDBRANCH  73  74
ENDBRANCH   1  73
TORSDOF 14
