REMARK SMILES NC(=O)[C@H]1CC(C(=O)NCCCCNC(=O)c2ccc(-c3c4nc(c(-c5c(F)c(F)c(F)c(F)c5F)c5ccc([nH]5)c(-c5c(F)c(F)c(F)c(F)c5F)c5nc(c(-c6c(F)c(F)c(F)c(F)c6F)c6ccc3[nH]6)C=C5)C=C4)cc2)=NN1c1ccc(F)cc1
REMARK SMILES IDX 12 1 11 2 10 3 9 4 7 5 8 6 6 8 4 9 5 10 81 11 80 12 2 13
REMARK SMILES IDX 1 14 3 17 82 18 83 19 88 20 84 21 87 22 85 23 86 24 13 25
REMARK SMILES IDX 14 26 15 27 16 29 17 30 18 31 79 32 19 33 78 34 20 35 21 36
REMARK SMILES IDX 22 37 72 38 23 39 77 40 71 41 73 42 24 43 76 44 70 45 69 46
REMARK SMILES IDX 25 48 57 49 37 50 56 51 38 52 41 53 55 54 74 55 39 56 40 57
REMARK SMILES IDX 54 59 75 60 42 61 26 62 27 63 35 64 28 65 29 66 33 67 36 68
REMARK SMILES IDX 30 69 31 70 34 71 32 72 58 73 59 74 67 75 60 76 61 77 65 78
REMARK SMILES IDX 68 79 62 80 63 81 66 82 64 83 43 84 44 85 52 86 45 87 46 88
REMARK SMILES IDX 50 89 53 90 47 91 48 92 51 93 49 94
REMARK H PARENT 9 7 1 15 1 16 14 28 73 47 41 58
REMARK Flexibility Score: inf
ROOT
ATOM      1  C   UNL     1       5.143  -1.152   3.950  1.00  0.00     0.023 C 
ENDROOT
BRANCH   1   2
ATOM      2  C   UNL     1       4.152  -1.150   2.782  1.00  0.00     0.023 C 
BRANCH   2   3
ATOM      3  C   UNL     1       4.585  -2.014   1.601  1.00  0.00     0.116 C 
BRANCH   3   4
ATOM      4  N   UNL     1       4.258  -3.410   1.806  1.00  0.00    -0.351 N 
ATOM      5  C   UNL     1       3.203  -4.206   1.428  1.00  0.00     0.267 C 
ATOM      6  O   UNL     1       3.217  -5.378   1.797  1.00  0.00    -0.268 OA
ATOM      7  H   UNL     1       4.938  -3.893   2.328  1.00  0.00     0.163 HD
BRANCH   5   8
ATOM      8  C   UNL     1       2.046  -3.722   0.565  1.00  0.00     0.128 C 
ATOM      9  C   UNL     1       0.748  -2.489  -0.933  1.00  0.00     0.203 C 
ATOM     10  C   UNL     1       2.041  -2.406  -0.132  1.00  0.00     0.101 C 
ATOM     11  N   UNL     1       0.213  -3.785  -0.536  1.00  0.00    -0.252 N 
ATOM     12  N   UNL     1       1.002  -4.465   0.347  1.00  0.00    -0.171 NA
BRANCH   9  13
ATOM     13  C   UNL     1      -0.215  -1.333  -0.596  1.00  0.00     0.242 C 
ATOM     14  N   UNL     1       0.331  -0.074  -0.575  1.00  0.00    -0.368 N 
ATOM     15  H   UNL     1      -0.235   0.705  -0.366  1.00  0.00     0.159 HD
ATOM     16  H   UNL     1       1.288   0.052  -0.770  1.00  0.00     0.159 HD
ATOM     17  O   UNL     1      -1.424  -1.439  -0.412  1.00  0.00    -0.273 OA
ENDBRANCH   9  13
BRANCH  11  18
ATOM     18  C   UNL     1      -0.797  -4.462  -1.211  1.00  0.00     0.061 A 
ATOM     19  C   UNL     1      -1.706  -5.261  -0.497  1.00  0.00     0.031 A 
ATOM     20  C   UNL     1      -0.944  -4.391  -2.606  1.00  0.00     0.031 A 
ATOM     21  C   UNL     1      -2.747  -5.933  -1.144  1.00  0.00     0.041 A 
ATOM     22  C   UNL     1      -1.964  -5.085  -3.263  1.00  0.00     0.041 A 
ATOM     23  C   UNL     1      -2.863  -5.840  -2.523  1.00  0.00     0.123 A 
ATOM     24  F   UNL     1      -3.850  -6.492  -3.151  1.00  0.00    -0.207 F 
ENDBRANCH  11  18
ENDBRANCH   5   8
ENDBRANCH   3   4
ENDBRANCH   2   3
ENDBRANCH   1   2
BRANCH   1  25
ATOM     25  C   UNL     1       6.567  -0.723   3.601  1.00  0.00     0.116 C 
BRANCH  25  26
ATOM     26  N   UNL     1       6.642   0.565   2.927  1.00  0.00    -0.352 N 
ATOM     27  C   UNL     1       7.643   1.505   2.989  1.00  0.00     0.251 C 
ATOM     28  H   UNL     1       5.876   0.793   2.352  1.00  0.00     0.163 HD
ATOM     29  O   UNL     1       7.514   2.587   2.427  1.00  0.00    -0.269 OA
BRANCH  27  30
ATOM     30  C   UNL     1       8.857   1.215   3.778  1.00  0.00     0.039 A 
ATOM     31  C   UNL     1       9.284   2.151   4.722  1.00  0.00     0.014 A 
ATOM     32  C   UNL     1       9.538   0.006   3.620  1.00  0.00     0.014 A 
ATOM     33  C   UNL     1      10.356   1.842   5.561  1.00  0.00     0.010 A 
ATOM     34  C   UNL     1      10.559  -0.329   4.503  1.00  0.00     0.010 A 
ATOM     35  C   UNL     1      10.975   0.584   5.484  1.00  0.00    -0.014 A 
BRANCH  35  36
ATOM     36  C   UNL     1      12.051   0.201   6.432  1.00  0.00     0.031 A 
ATOM     37  C   UNL     1      13.441  -0.065   5.929  1.00  0.00     0.074 A 
ATOM     38  C   UNL     1      11.757   0.027   7.735  1.00  0.00     0.049 A 
ATOM     39  N   UNL     1      14.499  -0.463   6.591  1.00  0.00    -0.248 NA
ATOM     40  C   UNL     1      13.667   0.110   4.486  1.00  0.00     0.031 C 
ATOM     41  C   UNL     1      10.431   0.197   8.332  1.00  0.00     0.029 A 
ATOM     42  N   UNL     1      12.552  -0.342   8.791  1.00  0.00    -0.354 N 
ATOM     43  C   UNL     1      15.507  -0.597   5.646  1.00  0.00     0.074 A 
ATOM     44  C   UNL     1      14.922  -0.293   4.357  1.00  0.00     0.031 C 
ATOM     45  C   UNL     1      10.509  -0.042   9.651  1.00  0.00     0.029 A 
ATOM     46  C   UNL     1      11.880  -0.414   9.987  1.00  0.00     0.049 A 
ATOM     47  H   UNL     1      13.513  -0.535   8.700  1.00  0.00     0.167 HD
ATOM     48  C   UNL     1      16.808  -0.918   5.839  1.00  0.00     0.037 A 
ATOM     49  C   UNL     1      12.322  -0.746  11.215  1.00  0.00     0.037 A 
ATOM     50  C   UNL     1      17.391  -1.192   7.126  1.00  0.00     0.049 A 
ATOM     51  C   UNL     1      13.775  -1.090  11.403  1.00  0.00     0.074 A 
ATOM     52  C   UNL     1      18.712  -1.463   7.435  1.00  0.00     0.029 A 
ATOM     53  N   UNL     1      16.685  -1.232   8.319  1.00  0.00    -0.354 N 
ATOM     54  N   UNL     1      14.736  -1.138  10.513  1.00  0.00    -0.248 NA
ATOM     55  C   UNL     1      14.205  -1.419  12.769  1.00  0.00     0.031 C 
ATOM     56  C   UNL     1      18.799  -1.709   8.809  1.00  0.00     0.029 A 
ATOM     57  C   UNL     1      17.540  -1.543   9.365  1.00  0.00     0.049 A 
ATOM     58  H   UNL     1      15.719  -1.064   8.411  1.00  0.00     0.167 HD
ATOM     59  C   UNL     1      15.887  -1.473  11.213  1.00  0.00     0.074 A 
ATOM     60  C   UNL     1      15.507  -1.601  12.605  1.00  0.00     0.031 C 
ATOM     61  C   UNL     1      17.146  -1.659  10.745  1.00  0.00     0.037 A 
BRANCH  48  62
ATOM     62  C   UNL     1      17.693  -0.982   4.628  1.00  0.00     0.064 A 
ATOM     63  C   UNL     1      18.055   0.175   3.921  1.00  0.00     0.173 A 
ATOM     64  C   UNL     1      18.212  -2.208   4.188  1.00  0.00     0.173 A 
ATOM     65  F   UNL     1      17.576   1.372   4.293  1.00  0.00    -0.203 F 
ATOM     66  C   UNL     1      18.879   0.103   2.801  1.00  0.00     0.198 A 
ATOM     67  C   UNL     1      19.060  -2.274   3.085  1.00  0.00     0.198 A 
ATOM     68  F   UNL     1      17.901  -3.345   4.830  1.00  0.00    -0.203 F 
ATOM     69  F   UNL     1      19.169   1.215   2.111  1.00  0.00    -0.200 F 
ATOM     70  C   UNL     1      19.386  -1.120   2.388  1.00  0.00     0.200 A 
ATOM     71  F   UNL     1      19.559  -3.454   2.694  1.00  0.00    -0.200 F 
ATOM     72  F   UNL     1      20.184  -1.188   1.313  1.00  0.00    -0.200 F 
ENDBRANCH  48  62
BRANCH  49  73
ATOM     73  C   UNL     1      11.386  -0.736  12.369  1.00  0.00     0.064 A 
ATOM     74  C   UNL     1      11.495   0.236  13.373  1.00  0.00     0.173 A 
ATOM     75  C   UNL     1      10.370  -1.694  12.495  1.00  0.00     0.173 A 
ATOM     76  F   UNL     1      12.464   1.161  13.306  1.00  0.00    -0.203 F 
ATOM     77  C   UNL     1      10.638   0.236  14.472  1.00  0.00     0.198 A 
ATOM     78  C   UNL     1       9.496  -1.677  13.580  1.00  0.00     0.198 A 
ATOM     79  F   UNL     1      10.219  -2.641  11.557  1.00  0.00    -0.203 F 
ATOM     80  F   UNL     1      10.794   1.149  15.440  1.00  0.00    -0.200 F 
ATOM     81  C   UNL     1       9.636  -0.717  14.571  1.00  0.00     0.200 A 
ATOM     82  F   UNL     1       8.519  -2.590  13.665  1.00  0.00    -0.200 F 
ATOM     83  F   UNL     1       8.809  -0.715  15.626  1.00  0.00    -0.200 F 
ENDBRANCH  49  73
BRANCH  61  84
ATOM     84  C   UNL     1      18.210  -1.988  11.751  1.00  0.00     0.064 A 
ATOM     85  C   UNL     1      18.268  -3.242  12.377  1.00  0.00     0.173 A 
ATOM     86  C   UNL     1      19.204  -1.049  12.065  1.00  0.00     0.173 A 
ATOM     87  F   UNL     1      17.332  -4.168  12.122  1.00  0.00    -0.203 F 
ATOM     88  C   UNL     1      19.268  -3.533  13.302  1.00  0.00     0.198 A 
ATOM     89  C   UNL     1      20.218  -1.354  12.968  1.00  0.00     0.198 A 
ATOM     90  F   UNL     1      19.196   0.162  11.489  1.00  0.00    -0.203 F 
ATOM     91  F   UNL     1      19.276  -4.720  13.925  1.00  0.00    -0.200 F 
ATOM     92  C   UNL     1      20.245  -2.592  13.591  1.00  0.00     0.200 A 
ATOM     93  F   UNL     1      21.170  -0.449  13.235  1.00  0.00    -0.200 F 
ATOM     94  F   UNL     1      21.209  -2.877  14.477  1.00  0.00    -0.200 F 
ENDBRANCH  61  84
ENDBRANCH  35  36
ENDBRANCH  27  30
ENDBRANCH  25  26
ENDBRANCH   1  25
TORSDOF 13
