REMARK SMILES O=C(NCCCCNC(=O)[C@H]1CCCN(c2cc(-c3ccccn3)nc(-c3ccccc3F)n2)C1)c1ccc(-c2c3nc(c(-c4c(F)c(F)c(F)c(F)c4F)c4ccc([nH]4)c(-c4c(F)c(F)c(F)c(F)c4F)c4nc(c(-c5c(F)c(F)c(F)c(F)c5F)c5ccc2[nH]5)C=C4)C=C3)cc1
REMARK SMILES IDX 5 1 4 2 3 3 1 4 2 5 36 7 37 8 98 9 38 10 97 11 39 12 40 13
REMARK SMILES IDX 41 14 91 15 42 16 96 17 90 18 92 19 43 20 95 21 89 22 88 23
REMARK SMILES IDX 44 25 76 26 56 27 75 28 57 29 60 30 74 31 93 32 58 33 59 34
REMARK SMILES IDX 73 36 94 37 61 38 45 39 46 40 54 41 47 42 48 43 52 44 55 45
REMARK SMILES IDX 49 46 50 47 53 48 51 49 77 50 78 51 86 52 79 53 80 54 84 55
REMARK SMILES IDX 87 56 81 57 82 58 85 59 83 60 62 61 63 62 71 63 64 64 65 65
REMARK SMILES IDX 69 66 72 67 66 68 67 69 70 70 68 71 6 72 7 73 8 74 9 75
REMARK SMILES IDX 10 77 11 78 12 79 35 80 13 81 15 82 14 83 16 84 17 85 34 86
REMARK SMILES IDX 18 87 26 88 25 89 19 90 20 91 24 92 21 93 23 94 22 95 27 96
REMARK SMILES IDX 28 97 32 98 29 99 31 100 33 101 30 102
REMARK H PARENT 3 6 92 24 60 35 8 76
REMARK Flexibility Score: inf
ROOT
ATOM      1  C   UNL     1       9.115  -0.239  -8.544  1.00  0.00     0.023 C 
ENDROOT
BRANCH   1   2
ATOM      2  C   UNL     1      10.624  -0.163  -8.367  1.00  0.00     0.116 C 
BRANCH   2   3
ATOM      3  N   UNL     1      11.158  -1.216  -7.518  1.00  0.00    -0.352 N 
ATOM      4  O   UNL     1      12.526  -2.923  -6.950  1.00  0.00    -0.269 OA
ATOM      5  C   UNL     1      12.271  -1.998  -7.715  1.00  0.00     0.251 C 
ATOM      6  H   UNL     1      10.655  -1.391  -6.690  1.00  0.00     0.163 HD
BRANCH   5   7
ATOM      7  C   UNL     1      13.147  -1.741  -8.879  1.00  0.00     0.039 A 
ATOM      8  C   UNL     1      13.533  -0.439  -9.203  1.00  0.00     0.014 A 
ATOM      9  C   UNL     1      13.570  -2.816  -9.668  1.00  0.00     0.014 A 
ATOM     10  C   UNL     1      14.210  -0.198 -10.391  1.00  0.00     0.010 A 
ATOM     11  C   UNL     1      14.330  -2.578 -10.818  1.00  0.00     0.010 A 
ATOM     12  C   UNL     1      14.628  -1.264 -11.206  1.00  0.00    -0.014 A 
BRANCH  12  13
ATOM     13  C   UNL     1      15.428  -0.961 -12.421  1.00  0.00     0.031 A 
ATOM     14  C   UNL     1      14.891  -1.223 -13.800  1.00  0.00     0.074 A 
ATOM     15  C   UNL     1      16.628  -0.369 -12.262  1.00  0.00     0.049 A 
ATOM     16  N   UNL     1      15.431  -0.937 -14.959  1.00  0.00    -0.248 NA
ATOM     17  C   UNL     1      13.586  -1.894 -13.900  1.00  0.00     0.031 C 
ATOM     18  C   UNL     1      17.252  -0.076 -10.969  1.00  0.00     0.029 A 
ATOM     19  N   UNL     1      17.515   0.131 -13.180  1.00  0.00    -0.354 N 
ATOM     20  C   UNL     1      14.544  -1.401 -15.920  1.00  0.00     0.074 A 
ATOM     21  C   UNL     1      13.437  -2.009 -15.214  1.00  0.00     0.031 C 
ATOM     22  C   UNL     1      18.378   0.620 -11.173  1.00  0.00     0.029 A 
ATOM     23  C   UNL     1      18.589   0.769 -12.608  1.00  0.00     0.049 A 
ATOM     24  H   UNL     1      17.395   0.042 -14.152  1.00  0.00     0.167 HD
ATOM     25  C   UNL     1      14.645  -1.316 -17.268  1.00  0.00     0.037 A 
ATOM     26  C   UNL     1      19.630   1.407 -13.176  1.00  0.00     0.037 A 
ATOM     27  C   UNL     1      15.737  -0.687 -17.966  1.00  0.00     0.049 A 
ATOM     28  C   UNL     1      19.713   1.479 -14.672  1.00  0.00     0.074 A 
ATOM     29  C   UNL     1      15.915  -0.538 -19.331  1.00  0.00     0.029 A 
ATOM     30  N   UNL     1      16.833  -0.097 -17.354  1.00  0.00    -0.354 N 
ATOM     31  N   UNL     1      18.862   1.041 -15.567  1.00  0.00    -0.248 NA
ATOM     32  C   UNL     1      20.906   2.122 -15.238  1.00  0.00     0.031 C 
ATOM     33  C   UNL     1      17.134   0.111 -19.547  1.00  0.00     0.029 A 
ATOM     34  C   UNL     1      17.697   0.403 -18.315  1.00  0.00     0.049 A 
ATOM     35  H   UNL     1      16.976  -0.043 -16.382  1.00  0.00     0.167 HD
ATOM     36  C   UNL     1      19.412   1.358 -16.800  1.00  0.00     0.074 A 
ATOM     37  C   UNL     1      20.656   2.051 -16.538  1.00  0.00     0.031 C 
ATOM     38  C   UNL     1      18.933   1.087 -18.038  1.00  0.00     0.037 A 
BRANCH  25  39
ATOM     39  C   UNL     1      13.547  -1.911 -18.100  1.00  0.00     0.064 A 
ATOM     40  C   UNL     1      13.775  -3.077 -18.847  1.00  0.00     0.173 A 
ATOM     41  C   UNL     1      12.311  -1.267 -18.246  1.00  0.00     0.173 A 
ATOM     42  F   UNL     1      14.946  -3.725 -18.748  1.00  0.00    -0.203 F 
ATOM     43  C   UNL     1      12.812  -3.564 -19.727  1.00  0.00     0.198 A 
ATOM     44  C   UNL     1      11.341  -1.769 -19.111  1.00  0.00     0.198 A 
ATOM     45  F   UNL     1      12.042  -0.154 -17.547  1.00  0.00    -0.203 F 
ATOM     46  F   UNL     1      13.066  -4.658 -20.459  1.00  0.00    -0.200 F 
ATOM     47  C   UNL     1      11.597  -2.909 -19.859  1.00  0.00     0.200 A 
ATOM     48  F   UNL     1      10.161  -1.144 -19.228  1.00  0.00    -0.200 F 
ATOM     49  F   UNL     1      10.672  -3.376 -20.710  1.00  0.00    -0.200 F 
ENDBRANCH  25  39
BRANCH  26  50
ATOM     50  C   UNL     1      20.662   2.038 -12.316  1.00  0.00     0.064 A 
ATOM     51  C   UNL     1      21.530   1.264 -11.531  1.00  0.00     0.173 A 
ATOM     52  C   UNL     1      20.781   3.432 -12.241  1.00  0.00     0.173 A 
ATOM     53  F   UNL     1      21.452  -0.074 -11.565  1.00  0.00    -0.203 F 
ATOM     54  C   UNL     1      22.463   1.862 -10.688  1.00  0.00     0.198 A 
ATOM     55  C   UNL     1      21.734   4.029 -11.419  1.00  0.00     0.198 A 
ATOM     56  F   UNL     1      19.986   4.213 -12.987  1.00  0.00    -0.203 F 
ATOM     57  F   UNL     1      23.255   1.100  -9.921  1.00  0.00    -0.200 F 
ATOM     58  C   UNL     1      22.568   3.244 -10.637  1.00  0.00     0.200 A 
ATOM     59  F   UNL     1      21.849   5.364 -11.390  1.00  0.00    -0.200 F 
ATOM     60  F   UNL     1      23.476   3.819  -9.836  1.00  0.00    -0.200 F 
ENDBRANCH  26  50
BRANCH  38  61
ATOM     61  C   UNL     1      19.755   1.545 -19.204  1.00  0.00     0.064 A 
ATOM     62  C   UNL     1      19.331   2.620 -19.998  1.00  0.00     0.173 A 
ATOM     63  C   UNL     1      20.940   0.886 -19.562  1.00  0.00     0.173 A 
ATOM     64  F   UNL     1      18.201   3.277 -19.699  1.00  0.00    -0.203 F 
ATOM     65  C   UNL     1      20.062   3.016 -21.114  1.00  0.00     0.198 A 
ATOM     66  C   UNL     1      21.682   1.300 -20.664  1.00  0.00     0.198 A 
ATOM     67  F   UNL     1      21.392  -0.139 -18.823  1.00  0.00    -0.203 F 
ATOM     68  F   UNL     1      19.628   4.032 -21.872  1.00  0.00    -0.200 F 
ATOM     69  C   UNL     1      21.239   2.360 -21.443  1.00  0.00     0.200 A 
ATOM     70  F   UNL     1      22.831   0.681 -20.966  1.00  0.00    -0.200 F 
ATOM     71  F   UNL     1      21.951   2.752 -22.508  1.00  0.00    -0.200 F 
ENDBRANCH  38  61
ENDBRANCH  12  13
ENDBRANCH   5   7
ENDBRANCH   2   3
ENDBRANCH   1   2
BRANCH   1  72
ATOM     72  C   UNL     1       8.300  -0.096  -7.260  1.00  0.00     0.023 C 
BRANCH  72  73
ATOM     73  C   UNL     1       8.602   1.155  -6.434  1.00  0.00     0.116 C 
BRANCH  73  74
ATOM     74  N   UNL     1       8.363   2.381  -7.179  1.00  0.00    -0.356 N 
ATOM     75  C   UNL     1       7.430   3.356  -6.971  1.00  0.00     0.224 C 
ATOM     76  H   UNL     1       8.962   2.530  -7.947  1.00  0.00     0.163 HD
ATOM     77  O   UNL     1       7.433   4.331  -7.722  1.00  0.00    -0.275 OA
BRANCH  75  78
ATOM     78  C   UNL     1       6.422   3.193  -5.847  1.00  0.00     0.098 C 
ATOM     79  C   UNL     1       5.714   4.515  -5.505  1.00  0.00     0.017 C 
ATOM     80  C   UNL     1       5.379   2.163  -6.268  1.00  0.00     0.131 C 
ATOM     81  C   UNL     1       4.660   4.296  -4.414  1.00  0.00     0.022 C 
ATOM     82  N   UNL     1       4.383   2.015  -5.218  1.00  0.00    -0.356 N 
ATOM     83  C   UNL     1       3.658   3.200  -4.792  1.00  0.00     0.118 C 
BRANCH  82  84
ATOM     84  C   UNL     1       4.165   0.766  -4.683  1.00  0.00     0.133 A 
ATOM     85  C   UNL     1       2.883   0.278  -4.555  1.00  0.00     0.077 A 
ATOM     86  N   UNL     1       5.231   0.019  -4.346  1.00  0.00    -0.211 NA
ATOM     87  C   UNL     1       2.734  -1.021  -4.109  1.00  0.00     0.095 A 
ATOM     88  C   UNL     1       4.994  -1.219  -3.871  1.00  0.00     0.165 A 
ATOM     89  N   UNL     1       3.785  -1.783  -3.753  1.00  0.00    -0.226 NA
BRANCH  87  90
ATOM     90  C   UNL     1       1.412  -1.656  -4.069  1.00  0.00     0.089 A 
ATOM     91  C   UNL     1       0.696  -1.904  -5.242  1.00  0.00     0.030 A 
ATOM     92  N   UNL     1       0.913  -1.952  -2.841  1.00  0.00    -0.255 NA
ATOM     93  C   UNL     1      -0.569  -2.479  -5.155  1.00  0.00     0.004 A 
ATOM     94  C   UNL     1      -0.310  -2.522  -2.789  1.00  0.00     0.112 A 
ATOM     95  C   UNL     1      -1.083  -2.797  -3.905  1.00  0.00     0.020 A 
ENDBRANCH  87  90
BRANCH  88  96
ATOM     96  C   UNL     1       6.133  -1.980  -3.369  1.00  0.00     0.055 A 
ATOM     97  C   UNL     1       6.910  -1.498  -2.299  1.00  0.00     0.015 A 
ATOM     98  C   UNL     1       6.466  -3.229  -3.902  1.00  0.00     0.134 A 
ATOM     99  C   UNL     1       7.965  -2.253  -1.774  1.00  0.00     0.001 A 
ATOM    100  C   UNL     1       7.522  -3.985  -3.391  1.00  0.00     0.040 A 
ATOM    101  F   UNL     1       5.782  -3.726  -4.945  1.00  0.00    -0.206 F 
ATOM    102  C   UNL     1       8.269  -3.499  -2.320  1.00  0.00     0.003 A 
ENDBRANCH  88  96
ENDBRANCH  82  84
ENDBRANCH  75  78
ENDBRANCH  73  74
ENDBRANCH  72  73
ENDBRANCH   1  72
TORSDOF 14
