REMARK SMILES O=C(NCCCCNC(=O)c1ccc(-c2c3nc(c(-c4c(F)c(F)c(F)c(F)c4F)c4ccc([nH]4)c(-c4c(F)c(F)c(F)c(F)c4F)c4nc(c(-c5c(F)c(F)c(F)c(F)c5F)c5ccc2[nH]5)C=C4)C=C3)cc1)C1=Cc2cc(Cl)cc(-c3ccccc3)c2O[C@@H]1C(F)(F)F
REMARK SMILES IDX 6 1 5 2 4 3 3 4 1 5 2 6 74 8 75 9 90 10 76 11 89 12 77 13
REMARK SMILES IDX 88 14 78 15 81 16 79 17 80 18 91 19 92 20 93 21 94 22 82 23
REMARK SMILES IDX 83 24 87 25 84 26 86 27 85 28 7 29 8 30 9 31 10 33 11 34
REMARK SMILES IDX 12 35 73 36 13 37 72 38 14 39 15 40 16 41 66 42 17 43 71 44
REMARK SMILES IDX 65 45 67 46 18 47 70 48 64 49 63 50 19 52 51 53 31 54 50 55
REMARK SMILES IDX 32 56 35 57 49 58 68 59 33 60 34 61 48 63 69 64 36 65 20 66
REMARK SMILES IDX 21 67 29 68 22 69 23 70 27 71 30 72 24 73 25 74 28 75 26 76
REMARK SMILES IDX 52 77 53 78 61 79 54 80 55 81 59 82 62 83 56 84 57 85 60 86
REMARK SMILES IDX 58 87 37 88 38 89 46 90 39 91 40 92 44 93 47 94 41 95 42 96
REMARK SMILES IDX 45 97 43 98
REMARK H PARENT 3 7 8 32 67 51 35 62
REMARK Flexibility Score: inf
ROOT
ATOM      1  C   UNL     1       4.249   1.413  -4.502  1.00  0.00     0.023 C 
ENDROOT
BRANCH   1   2
ATOM      2  C   UNL     1       4.462   0.146  -3.675  1.00  0.00     0.023 C 
BRANCH   2   3
ATOM      3  C   UNL     1       4.099   0.217  -2.195  1.00  0.00     0.116 C 
BRANCH   3   4
ATOM      4  N   UNL     1       2.805  -0.331  -1.824  1.00  0.00    -0.352 N 
ATOM      5  O   UNL     1       1.155  -1.018  -0.470  1.00  0.00    -0.270 OA
ATOM      6  C   UNL     1       2.347  -0.737  -0.598  1.00  0.00     0.251 C 
ATOM      7  H   UNL     1       2.163  -0.425  -2.564  1.00  0.00     0.163 HD
BRANCH   6   8
ATOM      8  C   UNL     1       3.212  -0.785   0.622  1.00  0.00     0.067 C 
ATOM      9  C   UNL     1       4.505  -1.153   0.583  1.00  0.00     0.025 C 
ATOM     10  C   UNL     1       2.808   0.236   1.664  1.00  0.00     0.314 C 
ATOM     11  C   UNL     1       5.399   0.033   0.694  1.00  0.00     0.019 A 
ATOM     12  O   UNL     1       3.581   1.454   1.491  1.00  0.00    -0.475 OA
ATOM     13  C   UNL     1       6.700  -0.087   0.195  1.00  0.00     0.032 A 
ATOM     14  C   UNL     1       4.862   1.302   1.004  1.00  0.00     0.135 A 
ATOM     15  C   UNL     1       7.428   1.063  -0.085  1.00  0.00     0.042 A 
ATOM     16  C   UNL     1       5.588   2.466   0.694  1.00  0.00     0.026 A 
ATOM     17  Cl  UNL     1       8.958   0.927  -0.858  1.00  0.00    -0.084 Cl
ATOM     18  C   UNL     1       6.878   2.324   0.146  1.00  0.00     0.033 A 
BRANCH  10  19
ATOM     19  C   UNL     1       2.893  -0.308   3.103  1.00  0.00     0.429 C 
ATOM     20  F   UNL     1       2.419   0.585   4.003  1.00  0.00    -0.167 F 
ATOM     21  F   UNL     1       2.160  -1.439   3.248  1.00  0.00    -0.167 F 
ATOM     22  F   UNL     1       4.161  -0.612   3.473  1.00  0.00    -0.167 F 
ENDBRANCH  10  19
BRANCH  16  23
ATOM     23  C   UNL     1       5.000   3.812   0.753  1.00  0.00    -0.015 A 
ATOM     24  C   UNL     1       4.101   4.234  -0.243  1.00  0.00     0.009 A 
ATOM     25  C   UNL     1       5.388   4.734   1.731  1.00  0.00     0.009 A 
ATOM     26  C   UNL     1       3.646   5.552  -0.294  1.00  0.00     0.001 A 
ATOM     27  C   UNL     1       4.919   6.050   1.692  1.00  0.00     0.001 A 
ATOM     28  C   UNL     1       4.063   6.463   0.671  1.00  0.00     0.000 A 
ENDBRANCH  16  23
ENDBRANCH   6   8
ENDBRANCH   3   4
ENDBRANCH   2   3
ENDBRANCH   1   2
BRANCH   1  29
ATOM     29  C   UNL     1       4.876   2.713  -3.998  1.00  0.00     0.116 C 
BRANCH  29  30
ATOM     30  N   UNL     1       6.324   2.716  -3.842  1.00  0.00    -0.352 N 
ATOM     31  C   UNL     1       7.212   3.736  -4.135  1.00  0.00     0.251 C 
ATOM     32  H   UNL     1       6.721   1.890  -3.483  1.00  0.00     0.163 HD
ATOM     33  O   UNL     1       8.412   3.609  -3.914  1.00  0.00    -0.269 OA
BRANCH  31  34
ATOM     34  C   UNL     1       6.716   4.959  -4.806  1.00  0.00     0.039 A 
ATOM     35  C   UNL     1       7.241   5.285  -6.059  1.00  0.00     0.014 A 
ATOM     36  C   UNL     1       5.653   5.693  -4.273  1.00  0.00     0.014 A 
ATOM     37  C   UNL     1       6.599   6.244  -6.847  1.00  0.00     0.010 A 
ATOM     38  C   UNL     1       4.975   6.603  -5.085  1.00  0.00     0.010 A 
ATOM     39  C   UNL     1       5.410   6.844  -6.398  1.00  0.00    -0.014 A 
BRANCH  39  40
ATOM     40  C   UNL     1       4.541   7.592  -7.345  1.00  0.00     0.031 A 
ATOM     41  C   UNL     1       4.277   9.057  -7.178  1.00  0.00     0.074 A 
ATOM     42  C   UNL     1       3.908   6.907  -8.320  1.00  0.00     0.049 A 
ATOM     43  N   UNL     1       3.520   9.845  -7.901  1.00  0.00    -0.248 NA
ATOM     44  C   UNL     1       4.927   9.720  -6.040  1.00  0.00     0.031 C 
ATOM     45  C   UNL     1       4.015   5.463  -8.541  1.00  0.00     0.029 A 
ATOM     46  N   UNL     1       3.036   7.326  -9.296  1.00  0.00    -0.354 N 
ATOM     47  C   UNL     1       3.604  11.097  -7.309  1.00  0.00     0.074 A 
ATOM     48  C   UNL     1       4.444  10.951  -6.137  1.00  0.00     0.031 C 
ATOM     49  C   UNL     1       3.252   5.120  -9.590  1.00  0.00     0.029 A 
ATOM     50  C   UNL     1       2.578   6.310 -10.098  1.00  0.00     0.049 A 
ATOM     51  H   UNL     1       2.766   8.266  -9.409  1.00  0.00     0.167 HD
ATOM     52  C   UNL     1       3.048  12.263  -7.718  1.00  0.00     0.037 A 
ATOM     53  C   UNL     1       1.706   6.327 -11.124  1.00  0.00     0.037 A 
ATOM     54  C   UNL     1       2.217  12.408  -8.885  1.00  0.00     0.049 A 
ATOM     55  C   UNL     1       1.098   7.631 -11.557  1.00  0.00     0.074 A 
ATOM     56  C   UNL     1       1.685  13.565  -9.428  1.00  0.00     0.029 A 
ATOM     57  N   UNL     1       1.782  11.359  -9.682  1.00  0.00    -0.354 N 
ATOM     58  N   UNL     1       1.271   8.828 -11.052  1.00  0.00    -0.248 NA
ATOM     59  C   UNL     1       0.179   7.589 -12.703  1.00  0.00     0.031 C 
ATOM     60  C   UNL     1       0.888  13.211 -10.523  1.00  0.00     0.029 A 
ATOM     61  C   UNL     1       0.957  11.838 -10.689  1.00  0.00     0.049 A 
ATOM     62  H   UNL     1       2.022  10.413  -9.552  1.00  0.00     0.167 HD
ATOM     63  C   UNL     1       0.492   9.681 -11.819  1.00  0.00     0.074 A 
ATOM     64  C   UNL     1      -0.139   8.869 -12.839  1.00  0.00     0.031 C 
ATOM     65  C   UNL     1       0.316  11.019 -11.687  1.00  0.00     0.037 A 
BRANCH  52  66
ATOM     66  C   UNL     1       3.327  13.483  -6.890  1.00  0.00     0.064 A 
ATOM     67  C   UNL     1       4.598  14.077  -6.867  1.00  0.00     0.173 A 
ATOM     68  C   UNL     1       2.308  14.081  -6.133  1.00  0.00     0.173 A 
ATOM     69  F   UNL     1       5.607  13.539  -7.568  1.00  0.00    -0.203 F 
ATOM     70  C   UNL     1       4.848  15.205  -6.089  1.00  0.00     0.198 A 
ATOM     71  C   UNL     1       2.555  15.224  -5.378  1.00  0.00     0.198 A 
ATOM     72  F   UNL     1       1.073  13.557  -6.127  1.00  0.00    -0.203 F 
ATOM     73  F   UNL     1       6.082  15.724  -6.043  1.00  0.00    -0.200 F 
ATOM     74  C   UNL     1       3.826  15.780  -5.349  1.00  0.00     0.200 A 
ATOM     75  F   UNL     1       1.564  15.786  -4.671  1.00  0.00    -0.200 F 
ATOM     76  F   UNL     1       4.068  16.864  -4.600  1.00  0.00    -0.200 F 
ENDBRANCH  52  66
BRANCH  53  77
ATOM     77  C   UNL     1       1.369   5.058 -11.817  1.00  0.00     0.064 A 
ATOM     78  C   UNL     1       1.853   4.787 -13.104  1.00  0.00     0.173 A 
ATOM     79  C   UNL     1       0.583   4.078 -11.193  1.00  0.00     0.173 A 
ATOM     80  F   UNL     1       2.592   5.703 -13.746  1.00  0.00    -0.203 F 
ATOM     81  C   UNL     1       1.559   3.585 -13.744  1.00  0.00     0.198 A 
ATOM     82  C   UNL     1       0.309   2.867 -11.825  1.00  0.00     0.198 A 
ATOM     83  F   UNL     1       0.102   4.288  -9.959  1.00  0.00    -0.203 F 
ATOM     84  F   UNL     1       2.011   3.362 -14.985  1.00  0.00    -0.200 F 
ATOM     85  C   UNL     1       0.794   2.623 -13.101  1.00  0.00     0.200 A 
ATOM     86  F   UNL     1      -0.418   1.934 -11.194  1.00  0.00    -0.200 F 
ATOM     87  F   UNL     1       0.522   1.462 -13.712  1.00  0.00    -0.200 F 
ENDBRANCH  53  77
BRANCH  65  88
ATOM     88  C   UNL     1      -0.604  11.689 -12.664  1.00  0.00     0.064 A 
ATOM     89  C   UNL     1      -1.996  11.533 -12.579  1.00  0.00     0.173 A 
ATOM     90  C   UNL     1      -0.096  12.527 -13.668  1.00  0.00     0.173 A 
ATOM     91  F   UNL     1      -2.529  10.728 -11.648  1.00  0.00    -0.203 F 
ATOM     92  C   UNL     1      -2.844  12.180 -13.474  1.00  0.00     0.198 A 
ATOM     93  C   UNL     1      -0.948  13.191 -14.546  1.00  0.00     0.198 A 
ATOM     94  F   UNL     1       1.227  12.710 -13.790  1.00  0.00    -0.203 F 
ATOM     95  F   UNL     1      -4.168  11.987 -13.398  1.00  0.00    -0.200 F 
ATOM     96  C   UNL     1      -2.321  13.014 -14.451  1.00  0.00     0.200 A 
ATOM     97  F   UNL     1      -0.442  14.003 -15.483  1.00  0.00    -0.200 F 
ATOM     98  F   UNL     1      -3.139  13.641 -15.306  1.00  0.00    -0.200 F 
ENDBRANCH  65  88
ENDBRANCH  39  40
ENDBRANCH  31  34
ENDBRANCH  29  30
ENDBRANCH   1  29
TORSDOF 13
