REMARK SMILES C[C@H]1Cc2ccc(C3CC3)cc2[C@H](C(=O)NCCCCNC(=O)c2ccc(-c3c4nc(c(-c5c(F)c(F)c(F)c(F)c5F)c5ccc([nH]5)c(-c5c(F)c(F)c(F)c(F)c5F)c5nc(c(-c6c(F)c(F)c(F)c(F)c6F)c6ccc3[nH]6)C=C5)C=C4)cc2)[NH2+]1
REMARK SMILES IDX 19 1 18 2 17 3 16 4 14 5 15 6 13 8 1 9 2 10 3 11 87 12 4 13
REMARK SMILES IDX 5 16 12 17 6 18 11 19 7 20 8 21 9 22 10 23 20 24 21 25 22 26
REMARK SMILES IDX 23 28 24 29 25 30 86 31 26 32 85 33 27 34 28 35 29 36 79 37
REMARK SMILES IDX 30 38 84 39 78 40 80 41 31 42 83 43 77 44 76 45 32 47 64 48
REMARK SMILES IDX 44 49 63 50 45 51 48 52 62 53 81 54 46 55 47 56 61 58 82 59
REMARK SMILES IDX 49 60 33 61 34 62 42 63 35 64 36 65 40 66 43 67 37 68 38 69
REMARK SMILES IDX 41 70 39 71 65 72 66 73 74 74 67 75 68 76 72 77 75 78 69 79
REMARK SMILES IDX 70 80 73 81 71 82 50 83 51 84 59 85 52 86 53 87 57 88 60 89
REMARK SMILES IDX 54 90 55 91 58 92 56 93
REMARK H PARENT 16 7 87 14 87 15 21 27 80 46 48 57
REMARK Flexibility Score: inf
ROOT
ATOM      1  C   UNL     1       1.836   4.595  -1.601  1.00  0.00     0.023 C 
ENDROOT
BRANCH   1   2
ATOM      2  C   UNL     1       0.531   3.862  -1.287  1.00  0.00     0.023 C 
BRANCH   2   3
ATOM      3  C   UNL     1      -0.399   3.644  -2.485  1.00  0.00     0.116 C 
BRANCH   3   4
ATOM      4  N   UNL     1       0.222   2.817  -3.498  1.00  0.00    -0.351 N 
ATOM      5  C   UNL     1       0.065   1.484  -3.779  1.00  0.00     0.283 C 
ATOM      6  O   UNL     1       0.793   1.028  -4.664  1.00  0.00    -0.268 OA
ATOM      7  H   UNL     1       0.861   3.288  -4.081  1.00  0.00     0.163 HD
BRANCH   5   8
ATOM      8  C   UNL     1      -1.002   0.637  -3.014  1.00  0.00     0.304 C 
ATOM      9  C   UNL     1       0.947  -0.301   0.071  1.00  0.00     0.075 C 
ATOM     10  C   UNL     1       0.478  -0.382  -1.381  1.00  0.00     0.184 C 
ATOM     11  C   UNL     1       0.064  -1.817  -1.746  1.00  0.00     0.100 C 
ATOM     12  N   UNL     1      -0.665   0.520  -1.571  1.00  0.00    -0.330 N 
ATOM     13  C   UNL     1      -0.672  -1.890  -3.062  1.00  0.00    -0.032 A 
ATOM     14  H   UNL     1      -0.428   1.442  -1.206  1.00  0.00     0.347 HD
ATOM     15  H   UNL     1      -1.471   0.140  -1.075  1.00  0.00     0.347 HD
ATOM     16  C   UNL     1      -0.866  -3.127  -3.679  1.00  0.00     0.005 A 
ATOM     17  C   UNL     1      -1.215  -0.733  -3.648  1.00  0.00     0.023 A 
ATOM     18  C   UNL     1      -1.569  -3.211  -4.883  1.00  0.00     0.004 A 
ATOM     19  C   UNL     1      -1.925  -0.844  -4.860  1.00  0.00     0.014 A 
ATOM     20  C   UNL     1      -2.114  -2.077  -5.509  1.00  0.00    -0.044 A 
BRANCH  20  21
ATOM     21  C   UNL     1      -2.852  -2.237  -6.823  1.00  0.00     0.019 C 
ATOM     22  C   UNL     1      -3.465  -1.095  -7.596  1.00  0.00     0.009 C 
ATOM     23  C   UNL     1      -2.192  -1.722  -8.082  1.00  0.00     0.009 C 
ENDBRANCH  20  21
ENDBRANCH   5   8
ENDBRANCH   3   4
ENDBRANCH   2   3
ENDBRANCH   1   2
BRANCH   1  24
ATOM     24  C   UNL     1       1.673   5.987  -2.192  1.00  0.00     0.116 C 
BRANCH  24  25
ATOM     25  N   UNL     1       0.948   6.901  -1.322  1.00  0.00    -0.352 N 
ATOM     26  C   UNL     1       1.180   8.238  -1.099  1.00  0.00     0.251 C 
ATOM     27  H   UNL     1       0.191   6.510  -0.828  1.00  0.00     0.163 HD
ATOM     28  O   UNL     1       0.537   8.849  -0.251  1.00  0.00    -0.269 OA
BRANCH  26  29
ATOM     29  C   UNL     1       2.250   8.921  -1.855  1.00  0.00     0.039 A 
ATOM     30  C   UNL     1       2.356   8.761  -3.238  1.00  0.00     0.014 A 
ATOM     31  C   UNL     1       3.192   9.684  -1.158  1.00  0.00     0.014 A 
ATOM     32  C   UNL     1       3.490   9.219  -3.896  1.00  0.00     0.010 A 
ATOM     33  C   UNL     1       4.294  10.209  -1.837  1.00  0.00     0.010 A 
ATOM     34  C   UNL     1       4.479   9.936  -3.201  1.00  0.00    -0.014 A 
BRANCH  34  35
ATOM     35  C   UNL     1       5.709  10.361  -3.916  1.00  0.00     0.031 A 
ATOM     36  C   UNL     1       7.042   9.755  -3.568  1.00  0.00     0.074 A 
ATOM     37  C   UNL     1       5.610  11.235  -4.935  1.00  0.00     0.049 A 
ATOM     38  N   UNL     1       8.219   9.992  -4.093  1.00  0.00    -0.248 NA
ATOM     39  C   UNL     1       7.061   8.747  -2.495  1.00  0.00     0.031 C 
ATOM     40  C   UNL     1       4.367  11.864  -5.387  1.00  0.00     0.029 A 
ATOM     41  N   UNL     1       6.561  11.721  -5.797  1.00  0.00    -0.354 N 
ATOM     42  C   UNL     1       9.112   9.176  -3.412  1.00  0.00     0.074 A 
ATOM     43  C   UNL     1       8.352   8.454  -2.415  1.00  0.00     0.031 C 
ATOM     44  C   UNL     1       4.621  12.602  -6.478  1.00  0.00     0.029 A 
ATOM     45  C   UNL     1       6.051  12.550  -6.766  1.00  0.00     0.049 A 
ATOM     46  H   UNL     1       7.517  11.496  -5.727  1.00  0.00     0.167 HD
ATOM     47  C   UNL     1      10.444   9.032  -3.611  1.00  0.00     0.037 A 
ATOM     48  C   UNL     1       6.668  13.201  -7.769  1.00  0.00     0.037 A 
ATOM     49  C   UNL     1      11.197   9.733  -4.617  1.00  0.00     0.049 A 
ATOM     50  C   UNL     1       8.156  13.065  -7.925  1.00  0.00     0.074 A 
ATOM     51  C   UNL     1      12.555   9.667  -4.880  1.00  0.00     0.029 A 
ATOM     52  N   UNL     1      10.654  10.617  -5.537  1.00  0.00    -0.354 N 
ATOM     53  N   UNL     1       8.993  12.316  -7.251  1.00  0.00    -0.248 NA
ATOM     54  C   UNL     1       8.787  13.880  -8.973  1.00  0.00     0.031 C 
ATOM     55  C   UNL     1      12.838  10.530  -5.943  1.00  0.00     0.029 A 
ATOM     56  C   UNL     1      11.651  11.107  -6.364  1.00  0.00     0.049 A 
ATOM     57  H   UNL     1       9.702  10.860  -5.593  1.00  0.00     0.167 HD
ATOM     58  C   UNL     1      10.244  12.556  -7.800  1.00  0.00     0.074 A 
ATOM     59  C   UNL     1      10.056  13.505  -8.877  1.00  0.00     0.031 C 
ATOM     60  C   UNL     1      11.443  12.041  -7.438  1.00  0.00     0.037 A 
BRANCH  47  61
ATOM     61  C   UNL     1      11.189   8.074  -2.732  1.00  0.00     0.064 A 
ATOM     62  C   UNL     1      11.107   6.689  -2.933  1.00  0.00     0.173 A 
ATOM     63  C   UNL     1      12.068   8.546  -1.745  1.00  0.00     0.173 A 
ATOM     64  F   UNL     1      10.272   6.189  -3.856  1.00  0.00    -0.203 F 
ATOM     65  C   UNL     1      11.880   5.810  -2.177  1.00  0.00     0.198 A 
ATOM     66  C   UNL     1      12.853   7.666  -1.006  1.00  0.00     0.198 A 
ATOM     67  F   UNL     1      12.185   9.863  -1.519  1.00  0.00    -0.203 F 
ATOM     68  F   UNL     1      11.775   4.489  -2.375  1.00  0.00    -0.200 F 
ATOM     69  C   UNL     1      12.759   6.300  -1.222  1.00  0.00     0.200 A 
ATOM     70  F   UNL     1      13.711   8.141  -0.092  1.00  0.00    -0.200 F 
ATOM     71  F   UNL     1      13.517   5.453  -0.512  1.00  0.00    -0.200 F 
ENDBRANCH  47  61
BRANCH  48  72
ATOM     72  C   UNL     1       5.879  14.038  -8.707  1.00  0.00     0.064 A 
ATOM     73  C   UNL     1       5.717  13.656 -10.046  1.00  0.00     0.173 A 
ATOM     74  C   UNL     1       5.275  15.233  -8.290  1.00  0.00     0.173 A 
ATOM     75  F   UNL     1       6.295  12.532 -10.496  1.00  0.00    -0.203 F 
ATOM     76  C   UNL     1       4.991  14.444 -10.935  1.00  0.00     0.198 A 
ATOM     77  C   UNL     1       4.527  16.006  -9.174  1.00  0.00     0.198 A 
ATOM     78  F   UNL     1       5.401  15.641  -7.019  1.00  0.00    -0.203 F 
ATOM     79  F   UNL     1       4.884  14.076 -12.219  1.00  0.00    -0.200 F 
ATOM     80  C   UNL     1       4.391  15.615 -10.497  1.00  0.00     0.200 A 
ATOM     81  F   UNL     1       3.938  17.131  -8.743  1.00  0.00    -0.200 F 
ATOM     82  F   UNL     1       3.688  16.371 -11.352  1.00  0.00    -0.200 F 
ENDBRANCH  48  72
BRANCH  60  83
ATOM     83  C   UNL     1      12.643  12.474  -8.223  1.00  0.00     0.064 A 
ATOM     84  C   UNL     1      13.212  13.742  -8.043  1.00  0.00     0.173 A 
ATOM     85  C   UNL     1      13.264  11.591  -9.119  1.00  0.00     0.173 A 
ATOM     86  F   UNL     1      12.644  14.624  -7.207  1.00  0.00    -0.203 F 
ATOM     87  C   UNL     1      14.354  14.117  -8.744  1.00  0.00     0.198 A 
ATOM     88  C   UNL     1      14.419  11.961  -9.801  1.00  0.00     0.198 A 
ATOM     89  F   UNL     1      12.759  10.364  -9.318  1.00  0.00    -0.203 F 
ATOM     90  F   UNL     1      14.864  15.346  -8.582  1.00  0.00    -0.200 F 
ATOM     91  C   UNL     1      14.961  13.225  -9.616  1.00  0.00     0.200 A 
ATOM     92  F   UNL     1      15.010  11.095 -10.635  1.00  0.00    -0.200 F 
ATOM     93  F   UNL     1      16.066  13.584 -10.283  1.00  0.00    -0.200 F 
ENDBRANCH  60  83
ENDBRANCH  34  35
ENDBRANCH  26  29
ENDBRANCH  24  25
ENDBRANCH   1  24
TORSDOF 12
