REMARK SMILES Cc1cccc(N2C(=O)/C(=C/c3cccn3-c3cccc(C(=O)NCCCCNC(=O)c4ccc(-c5c6nc(c(-c7c(F)c(F)c(F)c(F)c7F)c7ccc([nH]7)c(-c7c(F)c(F)c(F)c(F)c7F)c7nc(c(-c8c(F)c(F)c(F)c(F)c8F)c8ccc5[nH]8)C=C7)C=C6)cc4)c3)C(O)=NC2=S)c1C
REMARK SMILES IDX 26 1 25 2 24 3 22 4 23 5 21 7 17 8 18 9 95 10 19 11 20 12
REMARK SMILES IDX 16 13 12 14 13 15 14 16 15 17 11 18 7 19 8 20 99 21 9 22
REMARK SMILES IDX 10 23 98 24 100 25 96 26 6 27 1 28 2 29 3 30 101 31 4 32
REMARK SMILES IDX 102 33 5 34 97 35 27 37 28 38 29 39 30 40 31 42 32 43 33 44
REMARK SMILES IDX 94 45 34 46 93 47 35 48 36 49 37 50 87 51 38 52 92 53 86 54
REMARK SMILES IDX 88 55 39 56 91 57 85 58 84 59 40 61 72 62 52 63 71 64 53 65
REMARK SMILES IDX 56 66 70 67 89 68 54 69 55 70 69 72 90 73 57 74 41 75 42 76
REMARK SMILES IDX 50 77 43 78 44 79 48 80 51 81 45 82 46 83 49 84 47 85 73 86
REMARK SMILES IDX 74 87 82 88 75 89 76 90 80 91 83 92 77 93 78 94 81 95 79 96
REMARK SMILES IDX 58 97 59 98 67 99 60 100 61 101 65 102 68 103 62 104 63 105
REMARK SMILES IDX 66 106 64 107
REMARK H PARENT 24 6 97 36 29 41 88 60 56 71
REMARK Flexibility Score: inf
ROOT
ATOM      1  C   UNL     1       3.508  -6.843  -1.471  1.00  0.00     0.023 C 
ENDROOT
BRANCH   1   2
ATOM      2  C   UNL     1       2.450  -6.029  -2.217  1.00  0.00     0.116 C 
BRANCH   2   3
ATOM      3  N   UNL     1       2.892  -5.393  -3.451  1.00  0.00    -0.352 N 
ATOM      4  C   UNL     1       2.337  -5.344  -4.717  1.00  0.00     0.251 C 
ATOM      5  O   UNL     1       2.929  -4.713  -5.591  1.00  0.00    -0.269 OA
ATOM      6  H   UNL     1       3.745  -4.908  -3.369  1.00  0.00     0.163 HD
BRANCH   4   7
ATOM      7  C   UNL     1       1.097  -6.089  -5.077  1.00  0.00     0.041 A 
ATOM      8  C   UNL     1      -0.915  -7.266  -4.405  1.00  0.00     0.046 A 
ATOM      9  C   UNL     1      -0.973  -7.872  -5.667  1.00  0.00     0.026 A 
ATOM     10  C   UNL     1       0.058  -6.287  -4.166  1.00  0.00     0.040 A 
ATOM     11  C   UNL     1      -0.045  -7.530  -6.653  1.00  0.00     0.003 A 
ATOM     12  C   UNL     1       1.008  -6.666  -6.348  1.00  0.00     0.014 A 
BRANCH   8  13
ATOM     13  N   UNL     1      -1.705  -7.777  -3.324  1.00  0.00    -0.317 N 
ATOM     14  C   UNL     1      -2.118  -7.150  -2.143  1.00  0.00     0.047 A 
ATOM     15  C   UNL     1      -2.663  -8.110  -1.306  1.00  0.00     0.028 A 
ATOM     16  C   UNL     1      -2.577  -9.352  -1.959  1.00  0.00     0.020 A 
ATOM     17  C   UNL     1      -2.026  -9.120  -3.197  1.00  0.00     0.092 A 
BRANCH  14  18
ATOM     18  C   UNL     1      -2.054  -5.744  -1.998  1.00  0.00     0.046 C 
ATOM     19  N   UNL     1      -1.084  -2.880  -0.018  1.00  0.00    -0.251 N 
ATOM     20  C   UNL     1      -1.500  -3.589  -1.141  1.00  0.00     0.270 C 
ATOM     21  C   UNL     1      -0.579  -3.485   1.150  1.00  0.00     0.210 C 
ATOM     22  O   UNL     1      -1.872  -3.073  -2.195  1.00  0.00    -0.268 OA
ATOM     23  C   UNL     1      -1.421  -5.072  -1.016  1.00  0.00     0.104 C 
ATOM     24  N   UNL     1      -0.238  -4.815   1.097  1.00  0.00    -0.184 NA
ATOM     25  S   UNL     1      -0.319  -2.652   2.607  1.00  0.00    -0.038 S 
ATOM     26  C   UNL     1      -0.617  -5.544   0.114  1.00  0.00     0.226 C 
BRANCH  19  27
ATOM     27  C   UNL     1      -1.046  -1.460  -0.179  1.00  0.00     0.055 A 
ATOM     28  C   UNL     1       1.353   1.323  -1.296  1.00  0.00     0.044 C 
ATOM     29  C   UNL     1       0.135   0.565  -0.842  1.00  0.00    -0.046 A 
ATOM     30  C   UNL     1      -1.023   1.297  -0.532  1.00  0.00     0.004 A 
ATOM     31  C   UNL     1       0.118  -0.837  -0.694  1.00  0.00    -0.024 A 
ATOM     32  C   UNL     1      -2.184   0.661  -0.091  1.00  0.00     0.002 A 
ATOM     33  C   UNL     1       1.256  -1.701  -1.164  1.00  0.00     0.047 C 
ATOM     34  C   UNL     1      -2.196  -0.716   0.095  1.00  0.00     0.027 A 
ENDBRANCH  19  27
BRANCH  26  35
ATOM     35  O   UNL     1      -0.149  -6.801   0.101  1.00  0.00    -0.493 OA
ATOM     36  H   UNL     1      -0.391  -7.383  -0.593  1.00  0.00     0.295 HD
ENDBRANCH  26  35
ENDBRANCH  14  18
ENDBRANCH   8  13
ENDBRANCH   4   7
ENDBRANCH   2   3
ENDBRANCH   1   2
BRANCH   1  37
ATOM     37  C   UNL     1       4.743  -6.101  -0.956  1.00  0.00     0.023 C 
BRANCH  37  38
ATOM     38  C   UNL     1       4.440  -4.899  -0.070  1.00  0.00     0.116 C 
BRANCH  38  39
ATOM     39  N   UNL     1       3.929  -5.240   1.246  1.00  0.00    -0.352 N 
ATOM     40  C   UNL     1       3.782  -4.475   2.392  1.00  0.00     0.251 C 
ATOM     41  H   UNL     1       3.636  -6.175   1.340  1.00  0.00     0.163 HD
ATOM     42  O   UNL     1       3.621  -5.056   3.454  1.00  0.00    -0.269 OA
BRANCH  40  43
ATOM     43  C   UNL     1       3.797  -2.980   2.381  1.00  0.00     0.039 A 
ATOM     44  C   UNL     1       3.936  -2.278   3.591  1.00  0.00     0.014 A 
ATOM     45  C   UNL     1       3.586  -2.244   1.224  1.00  0.00     0.014 A 
ATOM     46  C   UNL     1       3.900  -0.874   3.616  1.00  0.00     0.010 A 
ATOM     47  C   UNL     1       3.494  -0.865   1.245  1.00  0.00     0.010 A 
ATOM     48  C   UNL     1       3.689  -0.170   2.430  1.00  0.00    -0.014 A 
BRANCH  48  49
ATOM     49  C   UNL     1       3.857   1.293   2.310  1.00  0.00     0.031 A 
ATOM     50  C   UNL     1       5.292   1.670   1.897  1.00  0.00     0.074 A 
ATOM     51  C   UNL     1       2.745   2.065   2.495  1.00  0.00     0.049 A 
ATOM     52  N   UNL     1       5.966   2.752   2.137  1.00  0.00    -0.248 NA
ATOM     53  C   UNL     1       6.133   0.674   1.172  1.00  0.00     0.031 C 
ATOM     54  C   UNL     1       1.403   1.530   2.803  1.00  0.00     0.029 A 
ATOM     55  N   UNL     1       2.498   3.425   2.453  1.00  0.00    -0.354 N 
ATOM     56  C   UNL     1       7.228   2.621   1.517  1.00  0.00     0.074 A 
ATOM     57  C   UNL     1       7.306   1.287   1.015  1.00  0.00     0.031 C 
ATOM     58  C   UNL     1       0.518   2.530   2.998  1.00  0.00     0.029 A 
ATOM     59  C   UNL     1       1.184   3.808   2.828  1.00  0.00     0.049 A 
ATOM     60  H   UNL     1       3.182   4.079   2.184  1.00  0.00     0.167 HD
ATOM     61  C   UNL     1       8.099   3.658   1.358  1.00  0.00     0.037 A 
ATOM     62  C   UNL     1       0.675   5.058   3.062  1.00  0.00     0.037 A 
ATOM     63  C   UNL     1       7.553   4.843   1.923  1.00  0.00     0.049 A 
ATOM     64  C   UNL     1       1.777   5.996   2.793  1.00  0.00     0.074 A 
ATOM     65  C   UNL     1       7.349   5.236   3.220  1.00  0.00     0.029 A 
ATOM     66  N   UNL     1       6.795   5.629   1.092  1.00  0.00    -0.354 N 
ATOM     67  N   UNL     1       2.199   6.347   1.614  1.00  0.00    -0.248 NA
ATOM     68  C   UNL     1       2.562   6.481   3.936  1.00  0.00     0.031 C 
ATOM     69  C   UNL     1       6.127   5.939   3.164  1.00  0.00     0.029 A 
ATOM     70  C   UNL     1       5.739   6.104   1.830  1.00  0.00     0.049 A 
ATOM     71  H   UNL     1       6.975   5.817   0.143  1.00  0.00     0.167 HD
ATOM     72  C   UNL     1       3.461   6.827   1.888  1.00  0.00     0.074 A 
ATOM     73  C   UNL     1       3.489   7.174   3.287  1.00  0.00     0.031 C 
ATOM     74  C   UNL     1       4.515   6.428   1.136  1.00  0.00     0.037 A 
BRANCH  61  75
ATOM     75  C   UNL     1       9.348   3.800   0.538  1.00  0.00     0.064 A 
ATOM     76  C   UNL     1      10.259   4.827   0.887  1.00  0.00     0.173 A 
ATOM     77  C   UNL     1       9.511   3.230  -0.731  1.00  0.00     0.173 A 
ATOM     78  F   UNL     1      10.213   5.402   2.099  1.00  0.00    -0.203 F 
ATOM     79  C   UNL     1      11.177   5.341  -0.026  1.00  0.00     0.198 A 
ATOM     80  C   UNL     1      10.469   3.716  -1.627  1.00  0.00     0.198 A 
ATOM     81  F   UNL     1       8.687   2.270  -1.171  1.00  0.00    -0.203 F 
ATOM     82  F   UNL     1      11.920   6.408   0.302  1.00  0.00    -0.200 F 
ATOM     83  C   UNL     1      11.268   4.796  -1.291  1.00  0.00     0.200 A 
ATOM     84  F   UNL     1      10.560   3.180  -2.852  1.00  0.00    -0.200 F 
ATOM     85  F   UNL     1      12.097   5.332  -2.197  1.00  0.00    -0.200 F 
ENDBRANCH  61  75
BRANCH  62  86
ATOM     86  C   UNL     1      -0.600   5.620   3.652  1.00  0.00     0.064 A 
ATOM     87  C   UNL     1      -1.848   4.983   3.646  1.00  0.00     0.173 A 
ATOM     88  C   UNL     1      -0.606   6.892   4.291  1.00  0.00     0.173 A 
ATOM     89  F   UNL     1      -2.047   3.870   2.929  1.00  0.00    -0.203 F 
ATOM     90  C   UNL     1      -2.957   5.502   4.344  1.00  0.00     0.198 A 
ATOM     91  C   UNL     1      -1.692   7.395   5.007  1.00  0.00     0.198 A 
ATOM     92  F   UNL     1       0.447   7.716   4.238  1.00  0.00    -0.203 F 
ATOM     93  F   UNL     1      -4.124   4.843   4.325  1.00  0.00    -0.200 F 
ATOM     94  C   UNL     1      -2.866   6.686   5.056  1.00  0.00     0.200 A 
ATOM     95  F   UNL     1      -1.578   8.566   5.651  1.00  0.00    -0.200 F 
ATOM     96  F   UNL     1      -3.907   7.154   5.758  1.00  0.00    -0.200 F 
ENDBRANCH  62  86
BRANCH  74  97
ATOM     97  C   UNL     1       4.142   6.014  -0.266  1.00  0.00     0.064 A 
ATOM     98  C   UNL     1       3.636   6.979  -1.151  1.00  0.00     0.173 A 
ATOM     99  C   UNL     1       4.156   4.687  -0.726  1.00  0.00     0.173 A 
ATOM    100  F   UNL     1       3.600   8.268  -0.782  1.00  0.00    -0.203 F 
ATOM    101  C   UNL     1       3.161   6.635  -2.417  1.00  0.00     0.198 A 
ATOM    102  C   UNL     1       3.699   4.343  -2.001  1.00  0.00     0.198 A 
ATOM    103  F   UNL     1       4.601   3.698   0.051  1.00  0.00    -0.203 F 
ATOM    104  F   UNL     1       2.675   7.584  -3.228  1.00  0.00    -0.200 F 
ATOM    105  C   UNL     1       3.193   5.317  -2.842  1.00  0.00     0.200 A 
ATOM    106  F   UNL     1       3.748   3.066  -2.409  1.00  0.00    -0.200 F 
ATOM    107  F   UNL     1       2.747   4.988  -4.063  1.00  0.00    -0.200 F 
ENDBRANCH  74  97
ENDBRANCH  48  49
ENDBRANCH  40  43
ENDBRANCH  38  39
ENDBRANCH  37  38
ENDBRANCH   1  37
TORSDOF 15
