REMARK SMILES O=C(CSc1ccnc(C(=O)NCCCCNC(=O)c2ccc(-c3c4nc(c(-c5c(F)c(F)c(F)c(F)c5F)c5ccc([nH]5)c(-c5c(F)c(F)c(F)c(F)c5F)c5nc(c(-c6c(F)c(F)c(F)c(F)c6F)c6ccc3[nH]6)C=C5)C=C4)cc2)c1)NCC(F)(F)F
REMARK SMILES IDX 13 1 12 2 10 3 11 4 9 6 5 7 6 8 83 9 7 10 8 11 4 12 3 13
REMARK SMILES IDX 2 14 1 15 84 16 85 18 86 19 87 20 88 21 89 22 14 23 15 24
REMARK SMILES IDX 16 25 17 26 18 27 19 29 20 30 21 31 82 32 22 33 81 34 23 35
REMARK SMILES IDX 24 36 25 37 75 38 26 39 80 40 74 41 76 42 27 43 79 44 73 45
REMARK SMILES IDX 72 46 28 48 60 49 40 50 59 51 41 52 44 53 58 54 77 55 42 56
REMARK SMILES IDX 43 57 57 59 78 60 45 61 29 62 30 63 38 64 31 65 32 66 36 67
REMARK SMILES IDX 39 68 33 69 34 70 37 71 35 72 61 73 62 74 70 75 63 76 64 77
REMARK SMILES IDX 68 78 71 79 65 80 66 81 69 82 67 83 46 84 47 85 55 86 48 87
REMARK SMILES IDX 49 88 53 89 56 90 50 91 51 92 54 93 52 94
REMARK H PARENT 12 5 84 17 17 28 76 47 44 58
REMARK Flexibility Score: inf
ROOT
ATOM      1  C   UNL     1       0.806  -0.063   3.564  1.00  0.00     0.116 C 
ENDROOT
BRANCH   1   2
ATOM      2  N   UNL     1       0.421   1.103   4.327  1.00  0.00    -0.351 N 
ATOM      3  C   UNL     1       0.750   2.438   4.280  1.00  0.00     0.269 C 
ATOM      4  O   UNL     1       0.188   3.136   5.131  1.00  0.00    -0.268 OA
ATOM      5  H   UNL     1      -0.221   0.894   5.043  1.00  0.00     0.163 HD
BRANCH   3   6
ATOM      6  C   UNL     1       1.691   3.088   3.290  1.00  0.00     0.129 A 
ATOM      7  C   UNL     1       3.312   3.161   1.518  1.00  0.00     0.012 A 
ATOM      8  C   UNL     1       3.266   4.549   1.551  1.00  0.00     0.035 A 
ATOM      9  C   UNL     1       2.558   2.422   2.437  1.00  0.00     0.049 A 
ATOM     10  C   UNL     1       2.429   5.144   2.471  1.00  0.00     0.113 A 
ATOM     11  N   UNL     1       1.638   4.449   3.311  1.00  0.00    -0.251 NA
BRANCH   7  12
ATOM     12  S   UNL     1       4.380   2.350   0.335  1.00  0.00    -0.116 SA
BRANCH  12  13
ATOM     13  C   UNL     1       3.136   1.647  -0.813  1.00  0.00     0.174 C 
BRANCH  13  14
ATOM     14  C   UNL     1       2.522   0.386  -0.231  1.00  0.00     0.230 C 
ATOM     15  O   UNL     1       1.336   0.309   0.075  1.00  0.00    -0.274 OA
ATOM     16  N   UNL     1       3.401  -0.659  -0.064  1.00  0.00    -0.346 N 
ATOM     17  H   UNL     1       4.324  -0.557  -0.390  1.00  0.00     0.163 HD
BRANCH  16  18
ATOM     18  C   UNL     1       3.018  -1.918   0.580  1.00  0.00     0.231 C 
BRANCH  18  19
ATOM     19  C   UNL     1       3.747  -3.160   0.074  1.00  0.00     0.405 C 
ATOM     20  F   UNL     1       5.041  -2.859  -0.198  1.00  0.00    -0.169 F 
ATOM     21  F   UNL     1       3.756  -4.129   1.013  1.00  0.00    -0.169 F 
ATOM     22  F   UNL     1       3.191  -3.647  -1.052  1.00  0.00    -0.169 F 
ENDBRANCH  18  19
ENDBRANCH  16  18
ENDBRANCH  13  14
ENDBRANCH  12  13
ENDBRANCH   7  12
ENDBRANCH   3   6
ENDBRANCH   1   2
BRANCH   1  23
ATOM     23  C   UNL     1       1.878  -0.863   4.305  1.00  0.00     0.023 C 
BRANCH  23  24
ATOM     24  C   UNL     1       1.338  -1.979   5.207  1.00  0.00     0.023 C 
BRANCH  24  25
ATOM     25  C   UNL     1       0.399  -2.979   4.537  1.00  0.00     0.116 C 
BRANCH  25  26
ATOM     26  N   UNL     1       0.909  -3.520   3.286  1.00  0.00    -0.352 N 
ATOM     27  C   UNL     1       0.608  -4.718   2.687  1.00  0.00     0.251 C 
ATOM     28  H   UNL     1       1.554  -2.952   2.806  1.00  0.00     0.163 HD
ATOM     29  O   UNL     1       1.129  -5.032   1.622  1.00  0.00    -0.269 OA
BRANCH  27  30
ATOM     30  C   UNL     1      -0.327  -5.633   3.364  1.00  0.00     0.039 A 
ATOM     31  C   UNL     1       0.075  -6.942   3.638  1.00  0.00     0.014 A 
ATOM     32  C   UNL     1      -1.577  -5.168   3.779  1.00  0.00     0.014 A 
ATOM     33  C   UNL     1      -0.758  -7.772   4.389  1.00  0.00     0.010 A 
ATOM     34  C   UNL     1      -2.370  -5.968   4.588  1.00  0.00     0.010 A 
ATOM     35  C   UNL     1      -1.972  -7.279   4.893  1.00  0.00    -0.014 A 
BRANCH  35  36
ATOM     36  C   UNL     1      -2.875  -8.124   5.708  1.00  0.00     0.031 A 
ATOM     37  C   UNL     1      -4.229  -8.484   5.167  1.00  0.00     0.074 A 
ATOM     38  C   UNL     1      -2.510  -8.489   6.952  1.00  0.00     0.049 A 
ATOM     39  N   UNL     1      -5.218  -9.109   5.750  1.00  0.00    -0.248 NA
ATOM     40  C   UNL     1      -4.524  -8.043   3.793  1.00  0.00     0.031 C 
ATOM     41  C   UNL     1      -1.240  -8.151   7.595  1.00  0.00     0.029 A 
ATOM     42  N   UNL     1      -3.183  -9.211   7.904  1.00  0.00    -0.354 N 
ATOM     43  C   UNL     1      -6.256  -9.112   4.827  1.00  0.00     0.074 A 
ATOM     44  C   UNL     1      -5.798  -8.379   3.669  1.00  0.00     0.031 C 
ATOM     45  C   UNL     1      -1.217  -8.681   8.829  1.00  0.00     0.029 A 
ATOM     46  C   UNL     1      -2.482  -9.367   9.075  1.00  0.00     0.049 A 
ATOM     47  H   UNL     1      -4.083  -9.584   7.761  1.00  0.00     0.167 HD
ATOM     48  C   UNL     1      -7.473  -9.697   4.930  1.00  0.00     0.037 A 
ATOM     49  C   UNL     1      -2.829  -9.991  10.216  1.00  0.00     0.037 A 
ATOM     50  C   UNL     1      -7.901 -10.453   6.077  1.00  0.00     0.049 A 
ATOM     51  C   UNL     1      -4.175 -10.663  10.292  1.00  0.00     0.074 A 
ATOM     52  C   UNL     1      -9.092 -11.128   6.273  1.00  0.00     0.029 A 
ATOM     53  N   UNL     1      -7.140 -10.637   7.223  1.00  0.00    -0.354 N 
ATOM     54  N   UNL     1      -5.130 -10.707   9.394  1.00  0.00    -0.248 NA
ATOM     55  C   UNL     1      -4.485 -11.384  11.534  1.00  0.00     0.031 C 
ATOM     56  C   UNL     1      -9.065 -11.694   7.553  1.00  0.00     0.029 A 
ATOM     57  C   UNL     1      -7.838 -11.413   8.133  1.00  0.00     0.049 A 
ATOM     58  H   UNL     1      -6.238 -10.271   7.367  1.00  0.00     0.167 HD
ATOM     59  C   UNL     1      -6.137 -11.487   9.945  1.00  0.00     0.074 A 
ATOM     60  C   UNL     1      -5.671 -11.904  11.252  1.00  0.00     0.031 C 
ATOM     61  C   UNL     1      -7.340 -11.828   9.420  1.00  0.00     0.037 A 
BRANCH  48  62
ATOM     62  C   UNL     1      -8.416  -9.540   3.772  1.00  0.00     0.064 A 
ATOM     63  C   UNL     1      -8.169 -10.153   2.533  1.00  0.00     0.173 A 
ATOM     64  C   UNL     1      -9.585  -8.776   3.901  1.00  0.00     0.173 A 
ATOM     65  F   UNL     1      -7.058 -10.883   2.349  1.00  0.00    -0.203 F 
ATOM     66  C   UNL     1      -9.037  -9.976   1.458  1.00  0.00     0.198 A 
ATOM     67  C   UNL     1     -10.468  -8.628   2.834  1.00  0.00     0.198 A 
ATOM     68  F   UNL     1      -9.873  -8.170   5.063  1.00  0.00    -0.203 F 
ATOM     69  F   UNL     1      -8.748 -10.521   0.269  1.00  0.00    -0.200 F 
ATOM     70  C   UNL     1     -10.189  -9.220   1.611  1.00  0.00     0.200 A 
ATOM     71  F   UNL     1     -11.587  -7.907   2.987  1.00  0.00    -0.200 F 
ATOM     72  F   UNL     1     -11.025  -9.052   0.577  1.00  0.00    -0.200 F 
ENDBRANCH  48  62
BRANCH  49  73
ATOM     73  C   UNL     1      -1.875 -10.050  11.354  1.00  0.00     0.064 A 
ATOM     74  C   UNL     1      -1.262 -11.258  11.716  1.00  0.00     0.173 A 
ATOM     75  C   UNL     1      -1.550  -8.907  12.100  1.00  0.00     0.173 A 
ATOM     76  F   UNL     1      -1.553 -12.382  11.045  1.00  0.00    -0.203 F 
ATOM     77  C   UNL     1      -0.379 -11.326  12.791  1.00  0.00     0.198 A 
ATOM     78  C   UNL     1      -0.645  -8.971  13.158  1.00  0.00     0.198 A 
ATOM     79  F   UNL     1      -2.102  -7.725  11.791  1.00  0.00    -0.203 F 
ATOM     80  F   UNL     1       0.158 -12.503  13.141  1.00  0.00    -0.200 F 
ATOM     81  C   UNL     1      -0.066 -10.181  13.508  1.00  0.00     0.200 A 
ATOM     82  F   UNL     1      -0.334  -7.859  13.838  1.00  0.00    -0.200 F 
ATOM     83  F   UNL     1       0.788 -10.245  14.538  1.00  0.00    -0.200 F 
ENDBRANCH  49  73
BRANCH  61  84
ATOM     84  C   UNL     1      -8.209 -12.739  10.236  1.00  0.00     0.064 A 
ATOM     85  C   UNL     1      -8.862 -12.294  11.394  1.00  0.00     0.173 A 
ATOM     86  C   UNL     1      -8.418 -14.065   9.829  1.00  0.00     0.173 A 
ATOM     87  F   UNL     1      -8.682 -11.038  11.831  1.00  0.00    -0.203 F 
ATOM     88  C   UNL     1      -9.671 -13.154  12.132  1.00  0.00     0.198 A 
ATOM     89  C   UNL     1      -9.251 -14.913  10.552  1.00  0.00     0.198 A 
ATOM     90  F   UNL     1      -7.821 -14.535   8.723  1.00  0.00    -0.203 F 
ATOM     91  F   UNL     1     -10.246 -12.723  13.263  1.00  0.00    -0.200 F 
ATOM     92  C   UNL     1      -9.870 -14.459  11.707  1.00  0.00     0.200 A 
ATOM     93  F   UNL     1      -9.453 -16.169  10.132  1.00  0.00    -0.200 F 
ATOM     94  F   UNL     1     -10.654 -15.283  12.415  1.00  0.00    -0.200 F 
ENDBRANCH  61  84
ENDBRANCH  35  36
ENDBRANCH  27  30
ENDBRANCH  25  26
ENDBRANCH  24  25
ENDBRANCH  23  24
ENDBRANCH   1  23
TORSDOF 16
