REMARK SMILES Cc1nn(CC(=O)NCCCCNC(=O)c2ccc(-c3c4nc(c(-c5c(F)c(F)c(F)c(F)c5F)c5ccc([nH]5)c(-c5c(F)c(F)c(F)c(F)c5F)c5nc(c(-c6c(F)c(F)c(F)c(F)c6F)c6ccc3[nH]6)C=C5)C=C4)cc2)c(C)c1NS(=O)(=O)c1cccc2cccnc12
REMARK SMILES IDX 9 1 8 2 6 3 7 4 5 6 4 7 1 8 2 9 3 10 81 11 79 12 80 13 82 14
REMARK SMILES IDX 83 16 84 17 85 18 86 19 87 20 95 21 88 22 90 23 94 24 89 25
REMARK SMILES IDX 91 26 93 27 92 28 10 29 11 30 12 31 13 32 14 33 15 35 16 36
REMARK SMILES IDX 17 37 78 38 18 39 77 40 19 41 20 42 21 43 71 44 22 45 76 46
REMARK SMILES IDX 70 47 72 48 23 49 75 50 69 51 68 52 24 54 56 55 36 56 55 57
REMARK SMILES IDX 37 58 40 59 54 60 73 61 38 62 39 63 53 65 74 66 41 67 25 68
REMARK SMILES IDX 26 69 34 70 27 71 28 72 32 73 35 74 29 75 30 76 33 77 31 78
REMARK SMILES IDX 57 79 58 80 66 81 59 82 60 83 64 84 67 85 61 86 62 87 65 88
REMARK SMILES IDX 63 89 42 90 43 91 51 92 44 93 45 94 49 95 52 96 46 97 47 98
REMARK SMILES IDX 50 99 48 100
REMARK H PARENT 8 5 82 15 13 34 72 53 40 64
REMARK Flexibility Score: inf
ROOT
ATOM      1  C   UNL     1      -2.404  -3.947   1.962  1.00  0.00     0.116 C 
ENDROOT
BRANCH   1   2
ATOM      2  N   UNL     1      -1.553  -4.944   1.346  1.00  0.00    -0.354 N 
ATOM      3  C   UNL     1      -0.249  -5.258   1.603  1.00  0.00     0.241 C 
ATOM      4  O   UNL     1       0.147  -6.349   1.173  1.00  0.00    -0.273 OA
ATOM      5  H   UNL     1      -1.978  -5.475   0.635  1.00  0.00     0.163 HD
BRANCH   3   6
ATOM      6  C   UNL     1       0.656  -4.433   2.493  1.00  0.00     0.244 C 
BRANCH   6   7
ATOM      7  N   UNL     1       0.546  -2.994   2.344  1.00  0.00    -0.258 N 
ATOM      8  C   UNL     1       0.548  -0.160   0.266  1.00  0.00     0.071 C 
ATOM      9  C   UNL     1       0.366  -1.133   1.374  1.00  0.00     0.084 A 
ATOM     10  N   UNL     1       0.685  -2.415   1.143  1.00  0.00    -0.175 NA
ATOM     11  C   UNL     1      -0.024  -0.920   2.738  1.00  0.00     0.093 A 
ATOM     12  C   UNL     1       0.418  -2.072   3.354  1.00  0.00     0.060 A 
ATOM     13  C   UNL     1       0.804  -2.384   4.745  1.00  0.00     0.069 C 
BRANCH  11  14
ATOM     14  N   UNL     1      -0.464   0.286   3.307  1.00  0.00    -0.276 N 
ATOM     15  H   UNL     1       0.042   1.100   3.080  1.00  0.00     0.180 HD
BRANCH  14  16
ATOM     16  S   UNL     1      -1.799   0.468   4.359  1.00  0.00     0.264 S 
ATOM     17  O   UNL     1      -1.601   1.784   4.945  1.00  0.00    -0.201 OA
ATOM     18  O   UNL     1      -2.994   0.241   3.576  1.00  0.00    -0.201 OA
BRANCH  16  19
ATOM     19  C   UNL     1      -1.667  -0.679   5.707  1.00  0.00     0.114 A 
ATOM     20  C   UNL     1      -0.823  -0.327   6.777  1.00  0.00     0.024 A 
ATOM     21  C   UNL     1      -2.440  -1.841   5.760  1.00  0.00     0.091 A 
ATOM     22  C   UNL     1      -0.708  -1.160   7.887  1.00  0.00     0.002 A 
ATOM     23  C   UNL     1      -2.365  -2.636   6.938  1.00  0.00     0.002 A 
ATOM     24  N   UNL     1      -3.183  -2.271   4.733  1.00  0.00    -0.255 NA
ATOM     25  C   UNL     1      -1.494  -2.300   7.976  1.00  0.00     0.010 A 
ATOM     26  C   UNL     1      -3.138  -3.801   7.049  1.00  0.00     0.012 A 
ATOM     27  C   UNL     1      -3.862  -3.427   4.863  1.00  0.00     0.112 A 
ATOM     28  C   UNL     1      -3.906  -4.215   5.985  1.00  0.00     0.021 A 
ENDBRANCH  16  19
ENDBRANCH  14  16
ENDBRANCH  11  14
ENDBRANCH   6   7
ENDBRANCH   3   6
ENDBRANCH   1   2
BRANCH   1  29
ATOM     29  C   UNL     1      -2.976  -2.899   1.002  1.00  0.00     0.023 C 
BRANCH  29  30
ATOM     30  C   UNL     1      -4.153  -3.378   0.136  1.00  0.00     0.023 C 
BRANCH  30  31
ATOM     31  C   UNL     1      -5.455  -3.662   0.891  1.00  0.00     0.116 C 
BRANCH  31  32
ATOM     32  N   UNL     1      -6.183  -2.466   1.319  1.00  0.00    -0.352 N 
ATOM     33  C   UNL     1      -7.459  -2.404   1.872  1.00  0.00     0.251 C 
ATOM     34  H   UNL     1      -5.716  -1.607   1.203  1.00  0.00     0.163 HD
ATOM     35  O   UNL     1      -8.131  -1.391   1.831  1.00  0.00    -0.269 OA
BRANCH  33  36
ATOM     36  C   UNL     1      -7.972  -3.597   2.583  1.00  0.00     0.039 A 
ATOM     37  C   UNL     1      -9.277  -4.066   2.483  1.00  0.00     0.014 A 
ATOM     38  C   UNL     1      -7.075  -4.239   3.422  1.00  0.00     0.014 A 
ATOM     39  C   UNL     1      -9.619  -5.245   3.155  1.00  0.00     0.010 A 
ATOM     40  C   UNL     1      -7.357  -5.450   3.996  1.00  0.00     0.010 A 
ATOM     41  C   UNL     1      -8.646  -5.945   3.892  1.00  0.00    -0.014 A 
BRANCH  41  42
ATOM     42  C   UNL     1      -8.895  -7.293   4.398  1.00  0.00     0.031 A 
ATOM     43  C   UNL     1      -9.251  -8.268   3.329  1.00  0.00     0.074 A 
ATOM     44  C   UNL     1      -8.555  -7.697   5.643  1.00  0.00     0.049 A 
ATOM     45  N   UNL     1     -10.354  -8.927   3.195  1.00  0.00    -0.248 NA
ATOM     46  C   UNL     1      -8.320  -8.433   2.198  1.00  0.00     0.031 C 
ATOM     47  C   UNL     1      -7.861  -6.922   6.680  1.00  0.00     0.029 A 
ATOM     48  N   UNL     1      -8.649  -8.933   6.214  1.00  0.00    -0.354 N 
ATOM     49  C   UNL     1     -10.178  -9.742   2.079  1.00  0.00     0.074 A 
ATOM     50  C   UNL     1      -9.006  -9.257   1.403  1.00  0.00     0.031 C 
ATOM     51  C   UNL     1      -7.401  -7.755   7.640  1.00  0.00     0.029 A 
ATOM     52  C   UNL     1      -7.897  -9.093   7.375  1.00  0.00     0.049 A 
ATOM     53  H   UNL     1      -9.204  -9.653   5.835  1.00  0.00     0.167 HD
ATOM     54  C   UNL     1     -10.851 -10.922   1.974  1.00  0.00     0.037 A 
ATOM     55  C   UNL     1      -7.673 -10.247   8.052  1.00  0.00     0.037 A 
ATOM     56  C   UNL     1     -11.979 -10.946   2.873  1.00  0.00     0.049 A 
ATOM     57  C   UNL     1      -8.711 -11.214   7.628  1.00  0.00     0.074 A 
ATOM     58  C   UNL     1     -13.116 -10.181   3.045  1.00  0.00     0.029 A 
ATOM     59  N   UNL     1     -11.834 -11.664   4.032  1.00  0.00    -0.354 N 
ATOM     60  N   UNL     1      -9.978 -11.095   7.908  1.00  0.00    -0.248 NA
ATOM     61  C   UNL     1      -8.396 -12.111   6.529  1.00  0.00     0.031 C 
ATOM     62  C   UNL     1     -13.326 -10.137   4.457  1.00  0.00     0.029 A 
ATOM     63  C   UNL     1     -12.351 -10.929   5.064  1.00  0.00     0.049 A 
ATOM     64  H   UNL     1     -11.428 -12.557   4.109  1.00  0.00     0.167 HD
ATOM     65  C   UNL     1     -10.627 -11.520   6.761  1.00  0.00     0.074 A 
ATOM     66  C   UNL     1      -9.614 -12.248   6.002  1.00  0.00     0.031 C 
ATOM     67  C   UNL     1     -11.834 -10.985   6.411  1.00  0.00     0.037 A 
BRANCH  54  68
ATOM     68  C   UNL     1     -10.248 -12.202   1.423  1.00  0.00     0.064 A 
ATOM     69  C   UNL     1     -11.062 -13.354   1.354  1.00  0.00     0.173 A 
ATOM     70  C   UNL     1      -8.862 -12.437   1.284  1.00  0.00     0.173 A 
ATOM     71  F   UNL     1     -12.394 -13.258   1.480  1.00  0.00    -0.203 F 
ATOM     72  C   UNL     1     -10.521 -14.640   1.272  1.00  0.00     0.198 A 
ATOM     73  C   UNL     1      -8.331 -13.719   1.148  1.00  0.00     0.198 A 
ATOM     74  F   UNL     1      -7.951 -11.465   1.390  1.00  0.00    -0.203 F 
ATOM     75  F   UNL     1     -11.327 -15.706   1.366  1.00  0.00    -0.200 F 
ATOM     76  C   UNL     1      -9.155 -14.822   1.181  1.00  0.00     0.200 A 
ATOM     77  F   UNL     1      -7.001 -13.874   1.079  1.00  0.00    -0.200 F 
ATOM     78  F   UNL     1      -8.629 -16.054   1.179  1.00  0.00    -0.200 F 
ENDBRANCH  54  68
BRANCH  55  79
ATOM     79  C   UNL     1      -6.479 -10.674   8.825  1.00  0.00     0.064 A 
ATOM     80  C   UNL     1      -6.536 -11.775   9.699  1.00  0.00     0.173 A 
ATOM     81  C   UNL     1      -5.193 -10.200   8.502  1.00  0.00     0.173 A 
ATOM     82  F   UNL     1      -7.718 -12.315  10.028  1.00  0.00    -0.203 F 
ATOM     83  C   UNL     1      -5.376 -12.387  10.188  1.00  0.00     0.198 A 
ATOM     84  C   UNL     1      -4.037 -10.809   8.997  1.00  0.00     0.198 A 
ATOM     85  F   UNL     1      -5.029  -9.200   7.624  1.00  0.00    -0.203 F 
ATOM     86  F   UNL     1      -5.471 -13.478  10.961  1.00  0.00    -0.200 F 
ATOM     87  C   UNL     1      -4.128 -11.911   9.825  1.00  0.00     0.200 A 
ATOM     88  F   UNL     1      -2.834 -10.358   8.611  1.00  0.00    -0.200 F 
ATOM     89  F   UNL     1      -3.016 -12.537  10.238  1.00  0.00    -0.200 F 
ENDBRANCH  55  79
BRANCH  67  90
ATOM     90  C   UNL     1     -12.584 -10.214   7.463  1.00  0.00     0.064 A 
ATOM     91  C   UNL     1     -12.123  -9.033   8.072  1.00  0.00     0.173 A 
ATOM     92  C   UNL     1     -13.880 -10.639   7.784  1.00  0.00     0.173 A 
ATOM     93  F   UNL     1     -10.936  -8.505   7.750  1.00  0.00    -0.203 F 
ATOM     94  C   UNL     1     -12.907  -8.345   8.997  1.00  0.00     0.198 A 
ATOM     95  C   UNL     1     -14.675  -9.928   8.676  1.00  0.00     0.198 A 
ATOM     96  F   UNL     1     -14.392 -11.732   7.196  1.00  0.00    -0.203 F 
ATOM     97  F   UNL     1     -12.435  -7.234   9.583  1.00  0.00    -0.200 F 
ATOM     98  C   UNL     1     -14.184  -8.789   9.293  1.00  0.00     0.200 A 
ATOM     99  F   UNL     1     -15.928 -10.336   8.922  1.00  0.00    -0.200 F 
ATOM    100  F   UNL     1     -14.952  -8.108  10.155  1.00  0.00    -0.200 F 
ENDBRANCH  67  90
ENDBRANCH  41  42
ENDBRANCH  33  36
ENDBRANCH  31  32
ENDBRANCH  30  31
ENDBRANCH  29  30
ENDBRANCH   1  29
TORSDOF 15
