REMARK SMILES CC1(C)C(NC(=O)N[C@]2(C(=O)NCCCCNC(=O)c3ccc(-c4c5nc(c(-c6c(F)c(F)c(F)c(F)c6F)c6ccc([nH]6)c(-c6c(F)c(F)c(F)c(F)c6F)c6nc(c(-c7c(F)c(F)c(F)c(F)c7F)c7ccc4[nH]7)C=C6)C=C5)cc3)CC[C@@H](C)CC2)C1(C)C
REMARK SMILES IDX 14 1 13 2 12 3 10 4 11 5 9 7 86 8 85 9 87 10 84 11 88 12
REMARK SMILES IDX 83 13 8 14 6 15 7 17 5 18 4 20 2 21 89 22 1 23 3 24 90 25
REMARK SMILES IDX 91 26 15 27 16 28 17 29 18 30 19 32 20 33 21 34 82 35 22 36
REMARK SMILES IDX 81 37 23 38 24 39 25 40 75 41 26 42 80 43 74 44 76 45 27 46
REMARK SMILES IDX 79 47 73 48 72 49 28 51 60 52 40 53 59 54 41 55 44 56 58 57
REMARK SMILES IDX 77 58 42 59 43 60 57 62 78 63 45 64 29 65 30 66 38 67 31 68
REMARK SMILES IDX 32 69 36 70 39 71 33 72 34 73 37 74 35 75 61 76 62 77 70 78
REMARK SMILES IDX 63 79 64 80 68 81 71 82 65 83 66 84 69 85 67 86 46 87 47 88
REMARK SMILES IDX 55 89 48 90 49 91 53 92 56 93 50 94 51 95 54 96 52 97
REMARK H PARENT 12 6 8 16 5 19 17 31 76 50 44 61
REMARK Flexibility Score: inf
ROOT
ATOM      1  C   UNL     1      -2.582   4.434  -1.755  1.00  0.00     0.023 C 
ENDROOT
BRANCH   1   2
ATOM      2  C   UNL     1      -2.729   2.952  -1.426  1.00  0.00     0.116 C 
BRANCH   2   3
ATOM      3  N   UNL     1      -1.583   2.209  -1.912  1.00  0.00    -0.354 N 
ATOM      4  C   UNL     1      -1.047   1.026  -1.501  1.00  0.00     0.245 C 
ATOM      5  O   UNL     1      -0.006   0.684  -2.069  1.00  0.00    -0.272 OA
ATOM      6  H   UNL     1      -1.111   2.632  -2.666  1.00  0.00     0.163 HD
BRANCH   4   7
ATOM      7  C   UNL     1      -1.598   0.274  -0.257  1.00  0.00     0.120 C 
ATOM      8  C   UNL     1       2.579  -0.015   0.306  1.00  0.00     0.007 C 
ATOM      9  C   UNL     1       1.160  -0.192   0.863  1.00  0.00    -0.014 C 
ATOM     10  C   UNL     1       0.436  -1.279   0.048  1.00  0.00     0.006 C 
ATOM     11  C   UNL     1       0.459   1.174   0.944  1.00  0.00     0.006 C 
ATOM     12  C   UNL     1      -1.083  -1.159  -0.020  1.00  0.00     0.039 C 
ATOM     13  C   UNL     1      -1.071   1.084   0.964  1.00  0.00     0.039 C 
BRANCH   7  14
ATOM     14  N   UNL     1      -3.073   0.257  -0.288  1.00  0.00    -0.324 N 
ATOM     15  C   UNL     1      -3.995  -0.177  -1.163  1.00  0.00     0.315 C 
ATOM     16  H   UNL     1      -3.474   0.656   0.518  1.00  0.00     0.166 HD
ATOM     17  O   UNL     1      -5.169  -0.163  -0.780  1.00  0.00    -0.249 OA
ATOM     18  N   UNL     1      -3.762  -0.568  -2.433  1.00  0.00    -0.334 N 
ATOM     19  H   UNL     1      -4.593  -0.783  -2.917  1.00  0.00     0.165 HD
BRANCH  18  20
ATOM     20  C   UNL     1      -2.599  -0.746  -3.246  1.00  0.00     0.096 C 
ATOM     21  C   UNL     1      -2.624  -1.528  -4.556  1.00  0.00    -0.007 C 
ATOM     22  C   UNL     1      -2.379  -0.015  -4.575  1.00  0.00    -0.007 C 
ATOM     23  C   UNL     1      -1.459  -2.474  -4.783  1.00  0.00     0.014 C 
ATOM     24  C   UNL     1      -3.902  -2.055  -5.164  1.00  0.00     0.014 C 
ATOM     25  C   UNL     1      -3.447   0.898  -5.130  1.00  0.00     0.014 C 
ATOM     26  C   UNL     1      -0.994   0.476  -4.951  1.00  0.00     0.014 C 
ENDBRANCH  18  20
ENDBRANCH   7  14
ENDBRANCH   4   7
ENDBRANCH   2   3
ENDBRANCH   1   2
BRANCH   1  27
ATOM     27  C   UNL     1      -2.682   4.736  -3.251  1.00  0.00     0.023 C 
BRANCH  27  28
ATOM     28  C   UNL     1      -4.052   4.437  -3.847  1.00  0.00     0.116 C 
BRANCH  28  29
ATOM     29  N   UNL     1      -5.063   5.364  -3.373  1.00  0.00    -0.352 N 
ATOM     30  C   UNL     1      -5.809   6.258  -4.090  1.00  0.00     0.251 C 
ATOM     31  H   UNL     1      -5.235   5.347  -2.404  1.00  0.00     0.163 HD
ATOM     32  O   UNL     1      -6.473   7.119  -3.511  1.00  0.00    -0.269 OA
BRANCH  30  33
ATOM     33  C   UNL     1      -5.802   6.208  -5.565  1.00  0.00     0.039 A 
ATOM     34  C   UNL     1      -5.637   7.398  -6.276  1.00  0.00     0.014 A 
ATOM     35  C   UNL     1      -5.971   4.997  -6.246  1.00  0.00     0.014 A 
ATOM     36  C   UNL     1      -5.604   7.371  -7.670  1.00  0.00     0.010 A 
ATOM     37  C   UNL     1      -5.867   4.962  -7.635  1.00  0.00     0.010 A 
ATOM     38  C   UNL     1      -5.697   6.151  -8.361  1.00  0.00    -0.014 A 
BRANCH  38  39
ATOM     39  C   UNL     1      -5.640   6.117  -9.844  1.00  0.00     0.031 A 
ATOM     40  C   UNL     1      -6.844   5.696 -10.639  1.00  0.00     0.074 A 
ATOM     41  C   UNL     1      -4.495   6.443 -10.475  1.00  0.00     0.049 A 
ATOM     42  N   UNL     1      -6.985   5.592 -11.937  1.00  0.00    -0.248 NA
ATOM     43  C   UNL     1      -8.044   5.322  -9.874  1.00  0.00     0.031 C 
ATOM     44  C   UNL     1      -3.249   6.833  -9.815  1.00  0.00     0.029 A 
ATOM     45  N   UNL     1      -4.195   6.498 -11.813  1.00  0.00    -0.354 N 
ATOM     46  C   UNL     1      -8.281   5.138 -12.142  1.00  0.00     0.074 A 
ATOM     47  C   UNL     1      -8.868   4.932 -10.835  1.00  0.00     0.031 C 
ATOM     48  C   UNL     1      -2.326   7.111 -10.749  1.00  0.00     0.029 A 
ATOM     49  C   UNL     1      -2.902   6.885 -12.071  1.00  0.00     0.049 A 
ATOM     50  H   UNL     1      -4.844   6.281 -12.521  1.00  0.00     0.167 HD
ATOM     51  C   UNL     1      -8.931   4.936 -13.313  1.00  0.00     0.037 A 
ATOM     52  C   UNL     1      -2.255   7.034 -13.242  1.00  0.00     0.037 A 
ATOM     53  C   UNL     1      -8.350   5.159 -14.611  1.00  0.00     0.049 A 
ATOM     54  C   UNL     1      -2.994   6.782 -14.529  1.00  0.00     0.074 A 
ATOM     55  C   UNL     1      -8.944   5.033 -15.855  1.00  0.00     0.029 A 
ATOM     56  N   UNL     1      -7.037   5.548 -14.833  1.00  0.00    -0.354 N 
ATOM     57  N   UNL     1      -4.241   6.421 -14.711  1.00  0.00    -0.248 NA
ATOM     58  C   UNL     1      -2.236   6.965 -15.775  1.00  0.00     0.031 C 
ATOM     59  C   UNL     1      -7.976   5.294 -16.830  1.00  0.00     0.029 A 
ATOM     60  C   UNL     1      -6.795   5.641 -16.194  1.00  0.00     0.049 A 
ATOM     61  H   UNL     1      -6.375   5.732 -14.127  1.00  0.00     0.167 HD
ATOM     62  C   UNL     1      -4.425   6.363 -16.086  1.00  0.00     0.074 A 
ATOM     63  C   UNL     1      -3.166   6.741 -16.692  1.00  0.00     0.031 C 
ATOM     64  C   UNL     1      -5.538   6.026 -16.784  1.00  0.00     0.037 A 
BRANCH  51  65
ATOM     65  C   UNL     1     -10.349   4.446 -13.245  1.00  0.00     0.064 A 
ATOM     66  C   UNL     1     -11.390   5.263 -12.777  1.00  0.00     0.173 A 
ATOM     67  C   UNL     1     -10.679   3.157 -13.691  1.00  0.00     0.173 A 
ATOM     68  F   UNL     1     -11.127   6.500 -12.329  1.00  0.00    -0.203 F 
ATOM     69  C   UNL     1     -12.702   4.798 -12.732  1.00  0.00     0.198 A 
ATOM     70  C   UNL     1     -11.997   2.707 -13.675  1.00  0.00     0.198 A 
ATOM     71  F   UNL     1      -9.724   2.336 -14.154  1.00  0.00    -0.203 F 
ATOM     72  F   UNL     1     -13.671   5.580 -12.236  1.00  0.00    -0.200 F 
ATOM     73  C   UNL     1     -13.005   3.525 -13.188  1.00  0.00     0.200 A 
ATOM     74  F   UNL     1     -12.290   1.481 -14.129  1.00  0.00    -0.200 F 
ATOM     75  F   UNL     1     -14.270   3.082 -13.152  1.00  0.00    -0.200 F 
ENDBRANCH  51  65
BRANCH  52  76
ATOM     76  C   UNL     1      -0.832   7.464 -13.254  1.00  0.00     0.064 A 
ATOM     77  C   UNL     1      -0.462   8.724 -13.743  1.00  0.00     0.173 A 
ATOM     78  C   UNL     1       0.188   6.621 -12.787  1.00  0.00     0.173 A 
ATOM     79  F   UNL     1      -1.398   9.558 -14.220  1.00  0.00    -0.203 F 
ATOM     80  C   UNL     1       0.874   9.117 -13.786  1.00  0.00     0.198 A 
ATOM     81  C   UNL     1       1.520   7.026 -12.802  1.00  0.00     0.198 A 
ATOM     82  F   UNL     1      -0.113   5.406 -12.305  1.00  0.00    -0.203 F 
ATOM     83  F   UNL     1       1.204  10.307 -14.305  1.00  0.00    -0.200 F 
ATOM     84  C   UNL     1       1.864   8.270 -13.310  1.00  0.00     0.200 A 
ATOM     85  F   UNL     1       2.471   6.211 -12.327  1.00  0.00    -0.200 F 
ATOM     86  F   UNL     1       3.148   8.649 -13.348  1.00  0.00    -0.200 F 
ENDBRANCH  52  76
BRANCH  64  87
ATOM     87  C   UNL     1      -5.457   6.086 -18.283  1.00  0.00     0.064 A 
ATOM     88  C   UNL     1      -4.710   5.155 -19.020  1.00  0.00     0.173 A 
ATOM     89  C   UNL     1      -6.168   7.066 -18.992  1.00  0.00     0.173 A 
ATOM     90  F   UNL     1      -4.000   4.208 -18.389  1.00  0.00    -0.203 F 
ATOM     91  C   UNL     1      -4.657   5.221 -20.410  1.00  0.00     0.198 A 
ATOM     92  C   UNL     1      -6.139   7.108 -20.383  1.00  0.00     0.198 A 
ATOM     93  F   UNL     1      -6.904   7.976 -18.336  1.00  0.00    -0.203 F 
ATOM     94  F   UNL     1      -3.897   4.352 -21.091  1.00  0.00    -0.200 F 
ATOM     95  C   UNL     1      -5.378   6.191 -21.090  1.00  0.00     0.200 A 
ATOM     96  F   UNL     1      -6.848   8.037 -21.039  1.00  0.00    -0.200 F 
ATOM     97  F   UNL     1      -5.331   6.247 -22.428  1.00  0.00    -0.200 F 
ENDBRANCH  64  87
ENDBRANCH  38  39
ENDBRANCH  30  33
ENDBRANCH  28  29
ENDBRANCH  27  28
ENDBRANCH   1  27
TORSDOF 13
