REMARK SMILES O=C(NCCCCNC(=O)[C@H]1CC[C@@H](CNC(=O)c2ccc(CO)cc2)O1)c1ccc(-c2c3nc(c(-c4c(F)c(F)c(F)c(F)c4F)c4ccc([nH]4)c(-c4c(F)c(F)c(F)c(F)c4F)c4nc(c(-c5c(F)c(F)c(F)c(F)c5F)c5ccc2[nH]5)C=C4)C=C3)cc1
REMARK SMILES IDX 7 1 6 2 5 3 4 4 3 5 1 6 2 7 28 9 29 10 90 11 30 12 89 13
REMARK SMILES IDX 31 14 32 15 33 16 83 17 34 18 88 19 82 20 84 21 35 22 87 23
REMARK SMILES IDX 81 24 80 25 36 27 68 28 48 29 67 30 49 31 52 32 66 33 85 34
REMARK SMILES IDX 50 35 51 36 65 38 86 39 53 40 37 41 38 42 46 43 39 44 40 45
REMARK SMILES IDX 44 46 47 47 41 48 42 49 45 50 43 51 69 52 70 53 78 54 71 55
REMARK SMILES IDX 72 56 76 57 79 58 73 59 74 60 77 61 75 62 54 63 55 64 63 65
REMARK SMILES IDX 56 66 57 67 61 68 64 69 58 70 59 71 62 72 60 73 8 74 9 75
REMARK SMILES IDX 10 77 11 78 12 79 27 80 13 81 14 82 15 83 16 84 17 85 18 87
REMARK SMILES IDX 19 88 20 89 26 90 21 91 25 92 22 93 23 94 24 95
REMARK H PARENT 3 8 84 26 52 37 8 76 16 86 24 96
REMARK Flexibility Score: inf
ROOT
ATOM      1  C   UNL     1       9.207   2.913   5.768  1.00  0.00     0.116 C 
ENDROOT
BRANCH   1   2
ATOM      2  C   UNL     1      10.400   3.717   6.275  1.00  0.00     0.023 C 
BRANCH   2   3
ATOM      3  C   UNL     1      11.109   3.125   7.493  1.00  0.00     0.023 C 
BRANCH   3   4
ATOM      4  C   UNL     1      11.563   1.680   7.334  1.00  0.00     0.116 C 
BRANCH   4   5
ATOM      5  N   UNL     1      12.575   1.520   6.302  1.00  0.00    -0.352 N 
ATOM      6  O   UNL     1      14.625   1.057   5.473  1.00  0.00    -0.269 OA
ATOM      7  C   UNL     1      13.831   0.974   6.407  1.00  0.00     0.251 C 
ATOM      8  H   UNL     1      12.326   1.847   5.408  1.00  0.00     0.163 HD
BRANCH   7   9
ATOM      9  C   UNL     1      14.231   0.295   7.657  1.00  0.00     0.039 A 
ATOM     10  C   UNL     1      13.371  -0.618   8.272  1.00  0.00     0.014 A 
ATOM     11  C   UNL     1      15.486   0.563   8.209  1.00  0.00     0.014 A 
ATOM     12  C   UNL     1      13.715  -1.176   9.497  1.00  0.00     0.010 A 
ATOM     13  C   UNL     1      15.868  -0.066   9.397  1.00  0.00     0.010 A 
ATOM     14  C   UNL     1      14.981  -0.934  10.054  1.00  0.00    -0.014 A 
BRANCH  14  15
ATOM     15  C   UNL     1      15.409  -1.704  11.247  1.00  0.00     0.031 A 
ATOM     16  C   UNL     1      15.699  -1.029  12.555  1.00  0.00     0.074 A 
ATOM     17  C   UNL     1      15.552  -3.038  11.119  1.00  0.00     0.049 A 
ATOM     18  N   UNL     1      16.128  -1.557  13.674  1.00  0.00    -0.248 NA
ATOM     19  C   UNL     1      15.489   0.425  12.621  1.00  0.00     0.031 C 
ATOM     20  C   UNL     1      15.314  -3.794   9.886  1.00  0.00     0.029 A 
ATOM     21  N   UNL     1      15.936  -3.996  12.023  1.00  0.00    -0.354 N 
ATOM     22  C   UNL     1      16.261  -0.503  14.568  1.00  0.00     0.074 A 
ATOM     23  C   UNL     1      15.877   0.700  13.861  1.00  0.00     0.031 C 
ATOM     24  C   UNL     1      15.539  -5.095  10.114  1.00  0.00     0.029 A 
ATOM     25  C   UNL     1      16.009  -5.257  11.483  1.00  0.00     0.049 A 
ATOM     26  H   UNL     1      16.140  -3.798  12.966  1.00  0.00     0.167 HD
ATOM     27  C   UNL     1      16.668  -0.548  15.859  1.00  0.00     0.037 A 
ATOM     28  C   UNL     1      16.450  -6.411  12.015  1.00  0.00     0.037 A 
ATOM     29  C   UNL     1      17.025  -1.760  16.555  1.00  0.00     0.049 A 
ATOM     30  C   UNL     1      16.935  -6.414  13.437  1.00  0.00     0.074 A 
ATOM     31  C   UNL     1      17.365  -1.917  17.887  1.00  0.00     0.029 A 
ATOM     32  N   UNL     1      17.108  -3.015  15.970  1.00  0.00    -0.354 N 
ATOM     33  N   UNL     1      16.976  -5.426  14.296  1.00  0.00    -0.248 NA
ATOM     34  C   UNL     1      17.442  -7.689  13.961  1.00  0.00     0.031 C 
ATOM     35  C   UNL     1      17.723  -3.253  18.092  1.00  0.00     0.029 A 
ATOM     36  C   UNL     1      17.547  -3.941  16.904  1.00  0.00     0.049 A 
ATOM     37  H   UNL     1      16.888  -3.217  15.032  1.00  0.00     0.167 HD
ATOM     38  C   UNL     1      17.502  -5.959  15.463  1.00  0.00     0.074 A 
ATOM     39  C   UNL     1      17.735  -7.366  15.213  1.00  0.00     0.031 C 
ATOM     40  C   UNL     1      17.777  -5.338  16.635  1.00  0.00     0.037 A 
BRANCH  27  41
ATOM     41  C   UNL     1      16.780   0.741  16.620  1.00  0.00     0.064 A 
ATOM     42  C   UNL     1      15.650   1.444  17.060  1.00  0.00     0.173 A 
ATOM     43  C   UNL     1      18.043   1.220  17.008  1.00  0.00     0.173 A 
ATOM     44  F   UNL     1      14.421   1.032  16.715  1.00  0.00    -0.203 F 
ATOM     45  C   UNL     1      15.779   2.581  17.855  1.00  0.00     0.198 A 
ATOM     46  C   UNL     1      18.167   2.341  17.823  1.00  0.00     0.198 A 
ATOM     47  F   UNL     1      19.156   0.579  16.621  1.00  0.00    -0.203 F 
ATOM     48  F   UNL     1      14.686   3.249  18.250  1.00  0.00    -0.200 F 
ATOM     49  C   UNL     1      17.036   3.021  18.245  1.00  0.00     0.200 A 
ATOM     50  F   UNL     1      19.381   2.753  18.213  1.00  0.00    -0.200 F 
ATOM     51  F   UNL     1      17.156   4.101  19.030  1.00  0.00    -0.200 F 
ENDBRANCH  27  41
BRANCH  28  52
ATOM     52  C   UNL     1      16.505  -7.642  11.183  1.00  0.00     0.064 A 
ATOM     53  C   UNL     1      15.709  -8.756  11.480  1.00  0.00     0.173 A 
ATOM     54  C   UNL     1      17.373  -7.735  10.083  1.00  0.00     0.173 A 
ATOM     55  F   UNL     1      14.876  -8.723  12.531  1.00  0.00    -0.203 F 
ATOM     56  C   UNL     1      15.802  -9.926  10.729  1.00  0.00     0.198 A 
ATOM     57  C   UNL     1      17.436  -8.891   9.310  1.00  0.00     0.198 A 
ATOM     58  F   UNL     1      18.152  -6.695   9.751  1.00  0.00    -0.203 F 
ATOM     59  F   UNL     1      15.075 -10.998  11.072  1.00  0.00    -0.200 F 
ATOM     60  C   UNL     1      16.661  -9.991   9.642  1.00  0.00     0.200 A 
ATOM     61  F   UNL     1      18.253  -8.941   8.249  1.00  0.00    -0.200 F 
ATOM     62  F   UNL     1      16.750 -11.117   8.921  1.00  0.00    -0.200 F 
ENDBRANCH  28  52
BRANCH  40  63
ATOM     63  C   UNL     1      18.352  -6.177  17.738  1.00  0.00     0.064 A 
ATOM     64  C   UNL     1      19.670  -6.653  17.682  1.00  0.00     0.173 A 
ATOM     65  C   UNL     1      17.593  -6.470  18.881  1.00  0.00     0.173 A 
ATOM     66  F   UNL     1      20.428  -6.417  16.601  1.00  0.00    -0.203 F 
ATOM     67  C   UNL     1      20.202  -7.407  18.724  1.00  0.00     0.198 A 
ATOM     68  C   UNL     1      18.139  -7.196  19.935  1.00  0.00     0.198 A 
ATOM     69  F   UNL     1      16.328  -6.035  18.984  1.00  0.00    -0.203 F 
ATOM     70  F   UNL     1      21.448  -7.890  18.630  1.00  0.00    -0.200 F 
ATOM     71  C   UNL     1      19.440  -7.669  19.853  1.00  0.00     0.200 A 
ATOM     72  F   UNL     1      17.407  -7.436  21.032  1.00  0.00    -0.200 F 
ATOM     73  F   UNL     1      19.959  -8.384  20.861  1.00  0.00    -0.200 F 
ENDBRANCH  40  63
ENDBRANCH  14  15
ENDBRANCH   7   9
ENDBRANCH   4   5
ENDBRANCH   3   4
ENDBRANCH   2   3
ENDBRANCH   1   2
BRANCH   1  74
ATOM     74  N   UNL     1       8.177   2.758   6.778  1.00  0.00    -0.354 N 
ATOM     75  C   UNL     1       6.847   3.062   6.685  1.00  0.00     0.249 C 
ATOM     76  H   UNL     1       8.473   2.385   7.640  1.00  0.00     0.163 HD
ATOM     77  O   UNL     1       6.129   2.844   7.663  1.00  0.00    -0.272 OA
BRANCH  75  78
ATOM     78  C   UNL     1       6.316   3.669   5.373  1.00  0.00     0.207 C 
ATOM     79  C   UNL     1       4.807   3.574   5.245  1.00  0.00     0.045 C 
ATOM     80  O   UNL     1       6.653   5.067   5.321  1.00  0.00    -0.363 OA
ATOM     81  C   UNL     1       4.345   4.860   5.873  1.00  0.00     0.037 C 
ATOM     82  C   UNL     1       5.443   5.838   5.482  1.00  0.00     0.138 C 
BRANCH  82  83
ATOM     83  C   UNL     1       5.621   6.923   6.550  1.00  0.00     0.148 C 
BRANCH  83  84
ATOM     84  N   UNL     1       6.198   8.153   6.020  1.00  0.00    -0.349 N 
ATOM     85  C   UNL     1       5.654   9.414   5.943  1.00  0.00     0.251 C 
ATOM     86  H   UNL     1       7.112   8.069   5.665  1.00  0.00     0.163 HD
ATOM     87  O   UNL     1       6.237  10.300   5.325  1.00  0.00    -0.269 OA
BRANCH  85  88
ATOM     88  C   UNL     1       4.339   9.704   6.565  1.00  0.00     0.039 A 
ATOM     89  C   UNL     1       3.370  10.361   5.802  1.00  0.00     0.014 A 
ATOM     90  C   UNL     1       4.060   9.352   7.889  1.00  0.00     0.014 A 
ATOM     91  C   UNL     1       2.095  10.577   6.331  1.00  0.00     0.007 A 
ATOM     92  C   UNL     1       2.779   9.550   8.410  1.00  0.00     0.007 A 
ATOM     93  C   UNL     1       1.778  10.139   7.626  1.00  0.00    -0.023 A 
BRANCH  93  94
ATOM     94  C   UNL     1       0.384  10.319   8.166  1.00  0.00     0.191 C 
BRANCH  94  95
ATOM     95  O   UNL     1       0.145  11.677   8.503  1.00  0.00    -0.392 OA
ATOM     96  H   UNL     1       0.774  11.956   9.187  1.00  0.00     0.211 HD
ENDBRANCH  94  95
ENDBRANCH  93  94
ENDBRANCH  85  88
ENDBRANCH  83  84
ENDBRANCH  82  83
ENDBRANCH  75  78
ENDBRANCH   1  74
TORSDOF 16
