REMARK SMILES C[C@@H](NC(=O)[C@@H]([NH3+])CC(=O)NCCCCNC(=O)c1ccc(-c2c3nc(c(-c4c(F)c(F)c(F)c(F)c4F)c4ccc([nH]4)c(-c4c(F)c(F)c(F)c(F)c4F)c4nc(c(-c5c(F)c(F)c(F)c(F)c5F)c5ccc2[nH]5)C=C4)C=C3)cc1)C(=O)NC1C(C)(C)SC1(C)C
REMARK SMILES IDX 12 1 11 2 9 3 10 4 8 6 6 7 4 8 3 9 5 11 2 12 1 13 82 14
REMARK SMILES IDX 83 15 84 16 85 18 86 19 90 20 87 21 88 22 89 23 91 24 92 25
REMARK SMILES IDX 7 26 13 30 14 31 15 32 16 33 17 34 18 36 19 37 20 38 81 39
REMARK SMILES IDX 21 40 80 41 22 42 23 43 24 44 74 45 25 46 79 47 73 48 75 49
REMARK SMILES IDX 26 50 78 51 72 52 71 53 27 55 59 56 39 57 58 58 40 59 43 60
REMARK SMILES IDX 57 61 76 62 41 63 42 64 56 66 77 67 44 68 28 69 29 70 37 71
REMARK SMILES IDX 30 72 31 73 35 74 38 75 32 76 33 77 36 78 34 79 60 80 61 81
REMARK SMILES IDX 69 82 62 83 63 84 67 85 70 86 64 87 65 88 68 89 66 90 45 91
REMARK SMILES IDX 46 92 54 93 47 94 48 95 52 96 55 97 49 98 50 99 53 100
REMARK SMILES IDX 51 101
REMARK H PARENT 11 5 3 10 84 17 7 27 7 28 7 29 16 35 75 54 43 65
REMARK Flexibility Score: inf
ROOT
ATOM      1  C   UNL     1       0.949  -1.585   5.630  1.00  0.00     0.116 C 
ENDROOT
BRANCH   1   2
ATOM      2  N   UNL     1      -0.396  -1.808   6.122  1.00  0.00    -0.356 N 
ATOM      3  C   UNL     1      -1.569  -1.897   5.436  1.00  0.00     0.226 C 
ATOM      4  O   UNL     1      -2.612  -2.039   6.077  1.00  0.00    -0.275 OA
ATOM      5  H   UNL     1      -0.473  -1.911   7.098  1.00  0.00     0.163 HD
BRANCH   3   6
ATOM      6  C   UNL     1      -1.598  -1.778   3.924  1.00  0.00     0.175 C 
BRANCH   6   7
ATOM      7  C   UNL     1      -1.643  -0.306   3.534  1.00  0.00     0.280 C 
BRANCH   7   8
ATOM      8  C   UNL     1      -0.298   0.187   2.971  1.00  0.00     0.279 C 
ATOM      9  N   UNL     1       0.219   0.004   1.746  1.00  0.00    -0.339 N 
ATOM     10  H   UNL     1       1.172   0.241   1.682  1.00  0.00     0.164 HD
ATOM     11  O   UNL     1       0.439   0.870   3.687  1.00  0.00    -0.268 OA
BRANCH   9  12
ATOM     12  C   UNL     1      -0.340  -0.473   0.502  1.00  0.00     0.168 C 
ATOM     13  C   UNL     1       0.728  -0.368  -0.589  1.00  0.00     0.041 C 
BRANCH  12  14
ATOM     14  C   UNL     1      -1.570   0.325   0.066  1.00  0.00     0.242 C 
ATOM     15  O   UNL     1      -2.386  -0.164  -0.724  1.00  0.00    -0.273 OA
ATOM     16  N   UNL     1      -1.798   1.613   0.488  1.00  0.00    -0.349 N 
ATOM     17  H   UNL     1      -2.680   1.769   0.897  1.00  0.00     0.163 HD
BRANCH  16  18
ATOM     18  C   UNL     1      -0.907   2.815   0.421  1.00  0.00     0.113 C 
ATOM     19  C   UNL     1      -1.820   4.120   0.334  1.00  0.00     0.032 C 
ATOM     20  C   UNL     1      -0.072   3.413   1.662  1.00  0.00     0.032 C 
ATOM     21  C   UNL     1      -2.212   4.485  -1.092  1.00  0.00     0.025 C 
ATOM     22  C   UNL     1      -3.043   4.190   1.261  1.00  0.00     0.025 C 
ATOM     23  S   UNL     1      -0.419   5.129   0.927  1.00  0.00    -0.145 SA
ATOM     24  C   UNL     1      -0.545   3.454   3.122  1.00  0.00     0.025 C 
ATOM     25  C   UNL     1       1.447   3.191   1.565  1.00  0.00     0.025 C 
ENDBRANCH  16  18
ENDBRANCH  12  14
ENDBRANCH   9  12
ENDBRANCH   7   8
BRANCH   7  26
ATOM     26  N   UNL     1      -2.766  -0.012   2.632  1.00  0.00    -0.347 N 
ATOM     27  H   UNL     1      -2.642  -0.522   1.758  1.00  0.00     0.345 HD
ATOM     28  H   UNL     1      -2.795   0.989   2.441  1.00  0.00     0.345 HD
ATOM     29  H   UNL     1      -3.640  -0.300   3.073  1.00  0.00     0.345 HD
ENDBRANCH   7  26
ENDBRANCH   6   7
ENDBRANCH   3   6
ENDBRANCH   1   2
BRANCH   1  30
ATOM     30  C   UNL     1       1.409  -0.150   5.886  1.00  0.00     0.023 C 
BRANCH  30  31
ATOM     31  C   UNL     1       2.302   0.094   7.084  1.00  0.00     0.023 C 
BRANCH  31  32
ATOM     32  C   UNL     1       3.654  -0.578   6.954  1.00  0.00     0.116 C 
BRANCH  32  33
ATOM     33  N   UNL     1       4.453  -0.166   5.803  1.00  0.00    -0.352 N 
ATOM     34  C   UNL     1       5.820  -0.313   5.647  1.00  0.00     0.251 C 
ATOM     35  H   UNL     1       3.968   0.260   5.060  1.00  0.00     0.163 HD
ATOM     36  O   UNL     1       6.406   0.094   4.664  1.00  0.00    -0.269 OA
BRANCH  34  37
ATOM     37  C   UNL     1       6.554  -0.923   6.776  1.00  0.00     0.039 A 
ATOM     38  C   UNL     1       7.544  -0.175   7.412  1.00  0.00     0.014 A 
ATOM     39  C   UNL     1       6.107  -2.129   7.315  1.00  0.00     0.014 A 
ATOM     40  C   UNL     1       8.015  -0.596   8.655  1.00  0.00     0.010 A 
ATOM     41  C   UNL     1       6.480  -2.471   8.606  1.00  0.00     0.010 A 
ATOM     42  C   UNL     1       7.443  -1.713   9.288  1.00  0.00    -0.014 A 
BRANCH  42  43
ATOM     43  C   UNL     1       7.852  -2.118  10.655  1.00  0.00     0.031 A 
ATOM     44  C   UNL     1       8.447  -3.481  10.879  1.00  0.00     0.074 A 
ATOM     45  C   UNL     1       7.638  -1.290  11.697  1.00  0.00     0.049 A 
ATOM     46  N   UNL     1       8.834  -4.044  11.995  1.00  0.00    -0.248 NA
ATOM     47  C   UNL     1       8.588  -4.347   9.695  1.00  0.00     0.031 C 
ATOM     48  C   UNL     1       6.992   0.023  11.623  1.00  0.00     0.029 A 
ATOM     49  N   UNL     1       7.945  -1.430  13.027  1.00  0.00    -0.354 N 
ATOM     50  C   UNL     1       9.249  -5.321  11.646  1.00  0.00     0.074 A 
ATOM     51  C   UNL     1       8.985  -5.487  10.236  1.00  0.00     0.031 C 
ATOM     52  C   UNL     1       6.994   0.586  12.843  1.00  0.00     0.029 A 
ATOM     53  C   UNL     1       7.615  -0.335  13.789  1.00  0.00     0.049 A 
ATOM     54  H   UNL     1       8.364  -2.239  13.401  1.00  0.00     0.167 HD
ATOM     55  C   UNL     1       9.845  -6.258  12.419  1.00  0.00     0.037 A 
ATOM     56  C   UNL     1       7.808  -0.101  15.101  1.00  0.00     0.037 A 
ATOM     57  C   UNL     1      10.145  -6.078  13.813  1.00  0.00     0.049 A 
ATOM     58  C   UNL     1       8.502  -1.148  15.933  1.00  0.00     0.074 A 
ATOM     59  C   UNL     1      10.779  -6.947  14.681  1.00  0.00     0.029 A 
ATOM     60  N   UNL     1       9.839  -4.936  14.538  1.00  0.00    -0.354 N 
ATOM     61  N   UNL     1       8.957  -2.324  15.574  1.00  0.00    -0.248 NA
ATOM     62  C   UNL     1       8.724  -0.826  17.349  1.00  0.00     0.031 C 
ATOM     63  C   UNL     1      10.836  -6.340  15.940  1.00  0.00     0.029 A 
ATOM     64  C   UNL     1      10.272  -5.077  15.845  1.00  0.00     0.049 A 
ATOM     65  H   UNL     1       9.381  -4.142  14.177  1.00  0.00     0.167 HD
ATOM     66  C   UNL     1       9.545  -2.867  16.708  1.00  0.00     0.074 A 
ATOM     67  C   UNL     1       9.408  -1.883  17.761  1.00  0.00     0.031 C 
ATOM     68  C   UNL     1      10.142  -4.073  16.868  1.00  0.00     0.037 A 
BRANCH  55  69
ATOM     69  C   UNL     1      10.243  -7.544  11.756  1.00  0.00     0.064 A 
ATOM     70  C   UNL     1      11.286  -7.585  10.816  1.00  0.00     0.173 A 
ATOM     71  C   UNL     1       9.591  -8.745  12.065  1.00  0.00     0.173 A 
ATOM     72  F   UNL     1      11.929  -6.459  10.471  1.00  0.00    -0.203 F 
ATOM     73  C   UNL     1      11.640  -8.776  10.189  1.00  0.00     0.198 A 
ATOM     74  C   UNL     1       9.968  -9.941  11.459  1.00  0.00     0.198 A 
ATOM     75  F   UNL     1       8.587  -8.761  12.955  1.00  0.00    -0.203 F 
ATOM     76  F   UNL     1      12.600  -8.779   9.254  1.00  0.00    -0.200 F 
ATOM     77  C   UNL     1      10.986  -9.954  10.516  1.00  0.00     0.200 A 
ATOM     78  F   UNL     1       9.342 -11.081  11.781  1.00  0.00    -0.200 F 
ATOM     79  F   UNL     1      11.330 -11.101   9.915  1.00  0.00    -0.200 F 
ENDBRANCH  55  69
BRANCH  56  80
ATOM     80  C   UNL     1       7.391   1.192  15.706  1.00  0.00     0.064 A 
ATOM     81  C   UNL     1       8.348   2.118  16.150  1.00  0.00     0.173 A 
ATOM     82  C   UNL     1       6.040   1.516  15.886  1.00  0.00     0.173 A 
ATOM     83  F   UNL     1       9.654   1.845  16.017  1.00  0.00    -0.203 F 
ATOM     84  C   UNL     1       7.969   3.301  16.780  1.00  0.00     0.198 A 
ATOM     85  C   UNL     1       5.661   2.714  16.492  1.00  0.00     0.198 A 
ATOM     86  F   UNL     1       5.085   0.670  15.474  1.00  0.00    -0.203 F 
ATOM     87  F   UNL     1       8.905   4.138  17.247  1.00  0.00    -0.200 F 
ATOM     88  C   UNL     1       6.626   3.599  16.949  1.00  0.00     0.200 A 
ATOM     89  F   UNL     1       4.362   3.005  16.642  1.00  0.00    -0.200 F 
ATOM     90  F   UNL     1       6.261   4.734  17.562  1.00  0.00    -0.200 F 
ENDBRANCH  56  80
BRANCH  68  91
ATOM     91  C   UNL     1      10.727  -4.373  18.215  1.00  0.00     0.064 A 
ATOM     92  C   UNL     1       9.915  -4.641  19.326  1.00  0.00     0.173 A 
ATOM     93  C   UNL     1      12.119  -4.421  18.388  1.00  0.00     0.173 A 
ATOM     94  F   UNL     1       8.579  -4.594  19.213  1.00  0.00    -0.203 F 
ATOM     95  C   UNL     1      10.475  -4.915  20.570  1.00  0.00     0.198 A 
ATOM     96  C   UNL     1      12.675  -4.724  19.626  1.00  0.00     0.198 A 
ATOM     97  F   UNL     1      12.938  -4.180  17.353  1.00  0.00    -0.203 F 
ATOM     98  F   UNL     1       9.681  -5.117  21.630  1.00  0.00    -0.200 F 
ATOM     99  C   UNL     1      11.854  -4.963  20.718  1.00  0.00     0.200 A 
ATOM    100  F   UNL     1      14.007  -4.782  19.765  1.00  0.00    -0.200 F 
ATOM    101  F   UNL     1      12.391  -5.229  21.916  1.00  0.00    -0.200 F 
ENDBRANCH  68  91
ENDBRANCH  42  43
ENDBRANCH  34  37
ENDBRANCH  32  33
ENDBRANCH  31  32
ENDBRANCH  30  31
ENDBRANCH   1  30
TORSDOF 17
