REMARK SMILES C=CCOc1cccc(NC(=O)c2ccccc2C(=O)NCCCCNC(=O)c2ccc(-c3c4nc(c(-c5c(F)c(F)c(F)c(F)c5F)c5ccc([nH]5)c(-c5c(F)c(F)c(F)c(F)c5F)c5nc(c(-c6c(F)c(F)c(F)c(F)c6F)c6ccc3[nH]6)C=C5)C=C4)cc2)c1
REMARK SMILES IDX 22 1 21 2 19 3 20 4 18 6 13 7 14 8 15 9 17 10 16 11 11 12
REMARK SMILES IDX 10 13 12 15 9 16 5 17 6 18 92 19 7 20 8 21 4 22 3 23 2 24
REMARK SMILES IDX 1 25 23 26 24 27 25 28 26 29 27 30 28 32 29 33 30 34 91 35
REMARK SMILES IDX 31 36 90 37 32 38 33 39 34 40 84 41 35 42 89 43 83 44 85 45
REMARK SMILES IDX 36 46 88 47 82 48 81 49 37 51 69 52 49 53 68 54 50 55 53 56
REMARK SMILES IDX 67 57 86 58 51 59 52 60 66 62 87 63 54 64 38 65 39 66 47 67
REMARK SMILES IDX 40 68 41 69 45 70 48 71 42 72 43 73 46 74 44 75 70 76 71 77
REMARK SMILES IDX 79 78 72 79 73 80 77 81 80 82 74 83 75 84 78 85 76 86 55 87
REMARK SMILES IDX 56 88 64 89 57 90 58 91 62 92 65 93 59 94 60 95 63 96 61 97
REMARK H PARENT 21 5 10 14 26 31 85 50 53 61
REMARK Flexibility Score: inf
ROOT
ATOM      1  C   UNL     1       2.514  -4.311   2.078  1.00  0.00     0.116 C 
ENDROOT
BRANCH   1   2
ATOM      2  N   UNL     1       1.095  -4.384   1.798  1.00  0.00    -0.352 N 
ATOM      3  C   UNL     1       0.058  -4.885   2.544  1.00  0.00     0.252 C 
ATOM      4  O   UNL     1      -1.068  -4.866   2.043  1.00  0.00    -0.269 OA
ATOM      5  H   UNL     1       0.829  -4.013   0.925  1.00  0.00     0.163 HD
BRANCH   3   6
ATOM      6  C   UNL     1       0.225  -5.516   3.881  1.00  0.00     0.052 A 
ATOM      7  C   UNL     1       0.976  -5.023   4.957  1.00  0.00     0.052 A 
ATOM      8  C   UNL     1       1.059  -5.760   6.155  1.00  0.00     0.014 A 
ATOM      9  C   UNL     1       0.324  -6.930   6.327  1.00  0.00     0.001 A 
ATOM     10  C   UNL     1      -0.542  -6.682   4.089  1.00  0.00     0.014 A 
ATOM     11  C   UNL     1      -0.498  -7.378   5.302  1.00  0.00     0.001 A 
BRANCH   7  12
ATOM     12  C   UNL     1       1.733  -3.763   4.969  1.00  0.00     0.256 C 
ATOM     13  N   UNL     1       1.192  -2.548   4.636  1.00  0.00    -0.322 N 
ATOM     14  H   UNL     1       1.859  -1.827   4.571  1.00  0.00     0.170 HD
ATOM     15  O   UNL     1       2.934  -3.825   5.243  1.00  0.00    -0.269 OA
BRANCH  13  16
ATOM     16  C   UNL     1      -0.116  -2.123   4.368  1.00  0.00     0.045 A 
ATOM     17  C   UNL     1      -1.494  -0.483   3.247  1.00  0.00     0.121 A 
ATOM     18  C   UNL     1      -2.646  -1.165   3.624  1.00  0.00     0.046 A 
ATOM     19  C   UNL     1      -0.239  -0.935   3.641  1.00  0.00     0.072 A 
ATOM     20  C   UNL     1      -2.531  -2.320   4.396  1.00  0.00     0.006 A 
ATOM     21  C   UNL     1      -1.270  -2.791   4.778  1.00  0.00     0.026 A 
BRANCH  17  22
ATOM     22  O   UNL     1      -1.573   0.692   2.554  1.00  0.00    -0.489 OA
BRANCH  22  23
ATOM     23  C   UNL     1      -1.740   0.475   1.147  1.00  0.00     0.257 C 
BRANCH  23  24
ATOM     24  C   UNL     1      -0.422   0.684   0.455  1.00  0.00     0.006 C 
ATOM     25  C   UNL     1       0.011  -0.058  -0.573  1.00  0.00     0.007 C 
ENDBRANCH  23  24
ENDBRANCH  22  23
ENDBRANCH  17  22
ENDBRANCH  13  16
ENDBRANCH   7  12
ENDBRANCH   3   6
ENDBRANCH   1   2
BRANCH   1  26
ATOM     26  C   UNL     1       3.391  -4.273   0.830  1.00  0.00     0.023 C 
BRANCH  26  27
ATOM     27  C   UNL     1       3.180  -3.081  -0.108  1.00  0.00     0.023 C 
BRANCH  27  28
ATOM     28  C   UNL     1       3.129  -1.693   0.530  1.00  0.00     0.116 C 
BRANCH  28  29
ATOM     29  N   UNL     1       4.351  -1.295   1.215  1.00  0.00    -0.352 N 
ATOM     30  C   UNL     1       5.195  -0.235   0.965  1.00  0.00     0.251 C 
ATOM     31  H   UNL     1       4.614  -1.870   1.970  1.00  0.00     0.163 HD
ATOM     32  O   UNL     1       6.210  -0.072   1.635  1.00  0.00    -0.269 OA
BRANCH  30  33
ATOM     33  C   UNL     1       4.912   0.682  -0.161  1.00  0.00     0.039 A 
ATOM     34  C   UNL     1       5.883   0.844  -1.152  1.00  0.00     0.014 A 
ATOM     35  C   UNL     1       3.678   1.323  -0.276  1.00  0.00     0.014 A 
ATOM     36  C   UNL     1       5.566   1.536  -2.324  1.00  0.00     0.010 A 
ATOM     37  C   UNL     1       3.341   1.954  -1.474  1.00  0.00     0.010 A 
ATOM     38  C   UNL     1       4.266   2.029  -2.528  1.00  0.00    -0.014 A 
BRANCH  38  39
ATOM     39  C   UNL     1       3.833   2.533  -3.861  1.00  0.00     0.031 A 
ATOM     40  C   UNL     1       3.359   3.947  -4.039  1.00  0.00     0.074 A 
ATOM     41  C   UNL     1       3.775   1.678  -4.903  1.00  0.00     0.049 A 
ATOM     42  N   UNL     1       2.870   4.527  -5.108  1.00  0.00    -0.248 NA
ATOM     43  C   UNL     1       3.416   4.817  -2.857  1.00  0.00     0.031 C 
ATOM     44  C   UNL     1       4.151   0.263  -4.860  1.00  0.00     0.029 A 
ATOM     45  N   UNL     1       3.368   1.870  -6.202  1.00  0.00    -0.354 N 
ATOM     46  C   UNL     1       2.543   5.819  -4.722  1.00  0.00     0.074 A 
ATOM     47  C   UNL     1       2.848   5.925  -3.310  1.00  0.00     0.031 C 
ATOM     48  C   UNL     1       3.993  -0.273  -6.080  1.00  0.00     0.029 A 
ATOM     49  C   UNL     1       3.460   0.742  -6.982  1.00  0.00     0.049 A 
ATOM     50  H   UNL     1       3.041   2.734  -6.541  1.00  0.00     0.167 HD
ATOM     51  C   UNL     1       2.051   6.830  -5.478  1.00  0.00     0.037 A 
ATOM     52  C   UNL     1       3.145   0.543  -8.277  1.00  0.00     0.037 A 
ATOM     53  C   UNL     1       1.782   6.740  -6.890  1.00  0.00     0.049 A 
ATOM     54  C   UNL     1       2.579   1.676  -9.087  1.00  0.00     0.074 A 
ATOM     55  C   UNL     1       1.384   7.742  -7.758  1.00  0.00     0.029 A 
ATOM     56  N   UNL     1       1.874   5.577  -7.640  1.00  0.00    -0.354 N 
ATOM     57  N   UNL     1       2.358   2.917  -8.731  1.00  0.00    -0.248 NA
ATOM     58  C   UNL     1       2.211   1.376 -10.478  1.00  0.00     0.031 C 
ATOM     59  C   UNL     1       1.187   7.177  -9.022  1.00  0.00     0.029 A 
ATOM     60  C   UNL     1       1.503   5.830  -8.952  1.00  0.00     0.049 A 
ATOM     61  H   UNL     1       2.159   4.702  -7.293  1.00  0.00     0.167 HD
ATOM     62  C   UNL     1       1.851   3.551  -9.856  1.00  0.00     0.074 A 
ATOM     63  C   UNL     1       1.805   2.561 -10.912  1.00  0.00     0.031 C 
ATOM     64  C   UNL     1       1.461   4.841  -9.998  1.00  0.00     0.037 A 
BRANCH  51  65
ATOM     65  C   UNL     1       1.772   8.134  -4.791  1.00  0.00     0.064 A 
ATOM     66  C   UNL     1       2.807   8.964  -4.337  1.00  0.00     0.173 A 
ATOM     67  C   UNL     1       0.451   8.574  -4.612  1.00  0.00     0.173 A 
ATOM     68  F   UNL     1       4.087   8.586  -4.478  1.00  0.00    -0.203 F 
ATOM     69  C   UNL     1       2.531  10.171  -3.700  1.00  0.00     0.198 A 
ATOM     70  C   UNL     1       0.179   9.794  -4.000  1.00  0.00     0.198 A 
ATOM     71  F   UNL     1      -0.576   7.822  -5.036  1.00  0.00    -0.203 F 
ATOM     72  F   UNL     1       3.535  10.923  -3.229  1.00  0.00    -0.200 F 
ATOM     73  C   UNL     1       1.218  10.587  -3.536  1.00  0.00     0.200 A 
ATOM     74  F   UNL     1      -1.089  10.202  -3.854  1.00  0.00    -0.200 F 
ATOM     75  F   UNL     1       0.954  11.750  -2.924  1.00  0.00    -0.200 F 
ENDBRANCH  51  65
BRANCH  52  76
ATOM     76  C   UNL     1       3.384  -0.784  -8.902  1.00  0.00     0.064 A 
ATOM     77  C   UNL     1       4.406  -0.952  -9.847  1.00  0.00     0.173 A 
ATOM     78  C   UNL     1       2.603  -1.902  -8.577  1.00  0.00     0.173 A 
ATOM     79  F   UNL     1       5.162   0.096 -10.206  1.00  0.00    -0.203 F 
ATOM     80  C   UNL     1       4.630  -2.185 -10.453  1.00  0.00     0.198 A 
ATOM     81  C   UNL     1       2.844  -3.141  -9.166  1.00  0.00     0.198 A 
ATOM     82  F   UNL     1       1.613  -1.792  -7.679  1.00  0.00    -0.203 F 
ATOM     83  F   UNL     1       5.589  -2.309 -11.380  1.00  0.00    -0.200 F 
ATOM     84  C   UNL     1       3.853  -3.281 -10.108  1.00  0.00     0.200 A 
ATOM     85  F   UNL     1       2.098  -4.200  -8.823  1.00  0.00    -0.200 F 
ATOM     86  F   UNL     1       4.071  -4.469 -10.688  1.00  0.00    -0.200 F 
ENDBRANCH  52  76
BRANCH  64  87
ATOM     87  C   UNL     1       0.969   5.269 -11.350  1.00  0.00     0.064 A 
ATOM     88  C   UNL     1      -0.291   4.883 -11.827  1.00  0.00     0.173 A 
ATOM     89  C   UNL     1       1.747   6.115 -12.155  1.00  0.00     0.173 A 
ATOM     90  F   UNL     1      -1.064   4.059 -11.103  1.00  0.00    -0.203 F 
ATOM     91  C   UNL     1      -0.750   5.317 -13.068  1.00  0.00     0.198 A 
ATOM     92  C   UNL     1       1.275   6.568 -13.384  1.00  0.00     0.198 A 
ATOM     93  F   UNL     1       2.959   6.515 -11.743  1.00  0.00    -0.203 F 
ATOM     94  F   UNL     1      -1.943   4.906 -13.521  1.00  0.00    -0.200 F 
ATOM     95  C   UNL     1       0.029   6.166 -13.841  1.00  0.00     0.200 A 
ATOM     96  F   UNL     1       2.024   7.396 -14.124  1.00  0.00    -0.200 F 
ATOM     97  F   UNL     1      -0.419   6.591 -15.030  1.00  0.00    -0.200 F 
ENDBRANCH  64  87
ENDBRANCH  38  39
ENDBRANCH  30  33
ENDBRANCH  28  29
ENDBRANCH  27  28
ENDBRANCH  26  27
ENDBRANCH   1  26
TORSDOF 16
