REMARK SMILES COCCC(=O)N1[C@@H](C(=O)NCCCCNC(=O)c2ccc(-c3c4nc(c(-c5c(F)c(F)c(F)c(F)c5F)c5ccc([nH]5)c(-c5c(F)c(F)c(F)c(F)c5F)c5nc(c(-c6c(F)c(F)c(F)c(F)c6F)c6ccc3[nH]6)C=C5)C=C4)cc2)CC[C@H]2CCCC[C@@H]21
REMARK SMILES IDX 12 1 11 2 9 3 10 4 8 6 7 7 89 8 82 9 84 10 88 11 83 12 85 13
REMARK SMILES IDX 87 14 86 15 5 16 6 17 4 18 3 19 2 20 1 21 13 22 14 23 15 24
REMARK SMILES IDX 16 25 17 26 18 28 19 29 20 30 81 31 21 32 80 33 22 34 23 35
REMARK SMILES IDX 24 36 74 37 25 38 79 39 73 40 75 41 26 42 78 43 72 44 71 45
REMARK SMILES IDX 27 47 59 48 39 49 58 50 40 51 43 52 57 53 76 54 41 55 42 56
REMARK SMILES IDX 56 58 77 59 44 60 28 61 29 62 37 63 30 64 31 65 35 66 38 67
REMARK SMILES IDX 32 68 33 69 36 70 34 71 60 72 61 73 69 74 62 75 63 76 67 77
REMARK SMILES IDX 70 78 64 79 65 80 68 81 66 82 45 83 46 84 54 85 47 86 48 87
REMARK SMILES IDX 52 88 55 89 49 90 50 91 53 92 51 93
REMARK H PARENT 11 5 16 27 75 46 43 57
REMARK Flexibility Score: inf
ROOT
ATOM      1  C   UNL     1       2.395   3.008   2.066  1.00  0.00     0.116 C 
ENDROOT
BRANCH   1   2
ATOM      2  N   UNL     1       1.391   3.150   3.096  1.00  0.00    -0.354 N 
ATOM      3  C   UNL     1       0.343   2.327   3.414  1.00  0.00     0.242 C 
ATOM      4  O   UNL     1      -0.279   2.598   4.446  1.00  0.00    -0.273 OA
ATOM      5  H   UNL     1       1.472   3.958   3.652  1.00  0.00     0.163 HD
BRANCH   3   6
ATOM      6  C   UNL     1       0.137   0.980   2.668  1.00  0.00     0.174 C 
ATOM      7  N   UNL     1       0.274   0.921   1.198  1.00  0.00    -0.327 N 
ATOM      8  C   UNL     1       0.526  -0.441   0.691  1.00  0.00     0.089 C 
ATOM      9  C   UNL     1      -1.183   0.270   3.056  1.00  0.00     0.036 C 
ATOM     10  C   UNL     1      -0.149  -1.502   1.604  1.00  0.00     0.012 C 
ATOM     11  C   UNL     1       2.003  -0.850   0.578  1.00  0.00     0.025 C 
ATOM     12  C   UNL     1      -1.467  -0.962   2.160  1.00  0.00     0.008 C 
ATOM     13  C   UNL     1      -0.229  -2.816   0.834  1.00  0.00     0.006 C 
ATOM     14  C   UNL     1       2.133  -2.256  -0.039  1.00  0.00     0.002 C 
ATOM     15  C   UNL     1       1.194  -3.317   0.553  1.00  0.00     0.000 C 
BRANCH   7  16
ATOM     16  C   UNL     1      -0.496   1.856   0.497  1.00  0.00     0.225 C 
ATOM     17  O   UNL     1      -1.183   2.686   1.105  1.00  0.00    -0.275 OA
BRANCH  16  18
ATOM     18  C   UNL     1      -0.534   1.900  -1.023  1.00  0.00     0.128 C 
BRANCH  18  19
ATOM     19  C   UNL     1       0.794   1.905  -1.764  1.00  0.00     0.169 C 
BRANCH  19  20
ATOM     20  O   UNL     1       0.697   1.236  -3.025  1.00  0.00    -0.384 OA
ATOM     21  C   UNL     1       0.674  -0.178  -2.913  1.00  0.00     0.194 C 
ENDBRANCH  19  20
ENDBRANCH  18  19
ENDBRANCH  16  18
ENDBRANCH   7  16
ENDBRANCH   3   6
ENDBRANCH   1   2
BRANCH   1  22
ATOM     22  C   UNL     1       2.081   3.847   0.830  1.00  0.00     0.023 C 
BRANCH  22  23
ATOM     23  C   UNL     1       2.163   5.354   1.021  1.00  0.00     0.023 C 
BRANCH  23  24
ATOM     24  C   UNL     1       3.536   5.857   1.419  1.00  0.00     0.116 C 
BRANCH  24  25
ATOM     25  N   UNL     1       4.579   5.473   0.478  1.00  0.00    -0.352 N 
ATOM     26  C   UNL     1       5.584   6.238  -0.065  1.00  0.00     0.251 C 
ATOM     27  H   UNL     1       4.561   4.532   0.190  1.00  0.00     0.163 HD
ATOM     28  O   UNL     1       6.296   5.788  -0.949  1.00  0.00    -0.269 OA
BRANCH  26  29
ATOM     29  C   UNL     1       5.765   7.625   0.411  1.00  0.00     0.039 A 
ATOM     30  C   UNL     1       5.974   8.637  -0.528  1.00  0.00     0.014 A 
ATOM     31  C   UNL     1       5.676   7.929   1.771  1.00  0.00     0.014 A 
ATOM     32  C   UNL     1       6.019   9.964  -0.103  1.00  0.00     0.010 A 
ATOM     33  C   UNL     1       5.605   9.255   2.176  1.00  0.00     0.010 A 
ATOM     34  C   UNL     1       5.789  10.286   1.246  1.00  0.00    -0.014 A 
BRANCH  34  35
ATOM     35  C   UNL     1       5.738  11.698   1.695  1.00  0.00     0.031 A 
ATOM     36  C   UNL     1       6.721  12.205   2.713  1.00  0.00     0.074 A 
ATOM     37  C   UNL     1       4.769  12.507   1.225  1.00  0.00     0.049 A 
ATOM     38  N   UNL     1       6.833  13.402   3.231  1.00  0.00    -0.248 NA
ATOM     39  C   UNL     1       7.685  11.230   3.250  1.00  0.00     0.031 C 
ATOM     40  C   UNL     1       3.708  12.104   0.299  1.00  0.00     0.029 A 
ATOM     41  N   UNL     1       4.516  13.834   1.462  1.00  0.00    -0.354 N 
ATOM     42  C   UNL     1       7.864  13.317   4.157  1.00  0.00     0.074 A 
ATOM     43  C   UNL     1       8.297  11.939   4.185  1.00  0.00     0.031 C 
ATOM     44  C   UNL     1       2.946  13.171   0.013  1.00  0.00     0.029 A 
ATOM     45  C   UNL     1       3.439  14.322   0.763  1.00  0.00     0.049 A 
ATOM     46  H   UNL     1       5.056  14.385   2.074  1.00  0.00     0.167 HD
ATOM     47  C   UNL     1       8.420  14.307   4.895  1.00  0.00     0.037 A 
ATOM     48  C   UNL     1       2.912  15.560   0.730  1.00  0.00     0.037 A 
ATOM     49  C   UNL     1       7.997  15.681   4.841  1.00  0.00     0.049 A 
ATOM     50  C   UNL     1       3.560  16.648   1.542  1.00  0.00     0.074 A 
ATOM     51  C   UNL     1       8.543  16.778   5.483  1.00  0.00     0.029 A 
ATOM     52  N   UNL     1       6.914  16.145   4.107  1.00  0.00    -0.354 N 
ATOM     53  N   UNL     1       4.601  16.579   2.337  1.00  0.00    -0.248 NA
ATOM     54  C   UNL     1       2.968  17.988   1.441  1.00  0.00     0.031 C 
ATOM     55  C   UNL     1       7.753  17.895   5.186  1.00  0.00     0.029 A 
ATOM     56  C   UNL     1       6.754  17.507   4.307  1.00  0.00     0.049 A 
ATOM     57  H   UNL     1       6.343  15.588   3.530  1.00  0.00     0.167 HD
ATOM     58  C   UNL     1       4.799  17.866   2.818  1.00  0.00     0.074 A 
ATOM     59  C   UNL     1       3.787  18.700   2.201  1.00  0.00     0.031 C 
ATOM     60  C   UNL     1       5.732  18.318   3.693  1.00  0.00     0.037 A 
BRANCH  47  61
ATOM     61  C   UNL     1       9.545  13.935   5.819  1.00  0.00     0.064 A 
ATOM     62  C   UNL     1      10.791  13.505   5.334  1.00  0.00     0.173 A 
ATOM     63  C   UNL     1       9.383  14.027   7.210  1.00  0.00     0.173 A 
ATOM     64  F   UNL     1      10.998  13.387   4.014  1.00  0.00    -0.203 F 
ATOM     65  C   UNL     1      11.816  13.144   6.206  1.00  0.00     0.198 A 
ATOM     66  C   UNL     1      10.421  13.700   8.078  1.00  0.00     0.198 A 
ATOM     67  F   UNL     1       8.215  14.435   7.730  1.00  0.00    -0.203 F 
ATOM     68  F   UNL     1      12.973  12.676   5.719  1.00  0.00    -0.200 F 
ATOM     69  C   UNL     1      11.633  13.248   7.576  1.00  0.00     0.200 A 
ATOM     70  F   UNL     1      10.248  13.814   9.402  1.00  0.00    -0.200 F 
ATOM     71  F   UNL     1      12.621  12.905   8.413  1.00  0.00    -0.200 F 
ENDBRANCH  47  61
BRANCH  48  72
ATOM     72  C   UNL     1       1.730  15.837  -0.128  1.00  0.00     0.064 A 
ATOM     73  C   UNL     1       1.840  16.641  -1.271  1.00  0.00     0.173 A 
ATOM     74  C   UNL     1       0.471  15.295   0.169  1.00  0.00     0.173 A 
ATOM     75  F   UNL     1       3.018  17.198  -1.588  1.00  0.00    -0.203 F 
ATOM     76  C   UNL     1       0.732  16.906  -2.074  1.00  0.00     0.198 A 
ATOM     77  C   UNL     1      -0.629  15.535  -0.652  1.00  0.00     0.198 A 
ATOM     78  F   UNL     1       0.314  14.513   1.247  1.00  0.00    -0.203 F 
ATOM     79  F   UNL     1       0.856  17.713  -3.137  1.00  0.00    -0.200 F 
ATOM     80  C   UNL     1      -0.499  16.347  -1.769  1.00  0.00     0.200 A 
ATOM     81  F   UNL     1      -1.813  14.979  -0.362  1.00  0.00    -0.200 F 
ATOM     82  F   UNL     1      -1.562  16.595  -2.546  1.00  0.00    -0.200 F 
ENDBRANCH  48  72
BRANCH  60  83
ATOM     83  C   UNL     1       5.707  19.783   4.023  1.00  0.00     0.064 A 
ATOM     84  C   UNL     1       4.671  20.350   4.780  1.00  0.00     0.173 A 
ATOM     85  C   UNL     1       6.744  20.626   3.595  1.00  0.00     0.173 A 
ATOM     86  F   UNL     1       3.649  19.590   5.202  1.00  0.00    -0.203 F 
ATOM     87  C   UNL     1       4.655  21.712   5.065  1.00  0.00     0.198 A 
ATOM     88  C   UNL     1       6.743  21.981   3.913  1.00  0.00     0.198 A 
ATOM     89  F   UNL     1       7.763  20.134   2.876  1.00  0.00    -0.203 F 
ATOM     90  F   UNL     1       3.624  22.242   5.737  1.00  0.00    -0.200 F 
ATOM     91  C   UNL     1       5.694  22.525   4.638  1.00  0.00     0.200 A 
ATOM     92  F   UNL     1       7.757  22.762   3.514  1.00  0.00    -0.200 F 
ATOM     93  F   UNL     1       5.679  23.836   4.916  1.00  0.00    -0.200 F 
ENDBRANCH  60  83
ENDBRANCH  34  35
ENDBRANCH  26  29
ENDBRANCH  24  25
ENDBRANCH  23  24
ENDBRANCH  22  23
ENDBRANCH   1  22
TORSDOF 15
