REMARK SMILES Cc1c(CC(=O)NCCCCNC(=O)c2ccc(-c3c4nc(c(-c5c(F)c(F)c(F)c(F)c5F)c5ccc([nH]5)c(-c5c(F)c(F)c(F)c(F)c5F)c5nc(c(-c6c(F)c(F)c(F)c(F)c6F)c6ccc3[nH]6)C=C5)C=C4)cc2)cc(-c2ccc(S(C)(=O)=O)cc2)n1-c1cccc(F)c1
REMARK SMILES IDX 9 1 8 2 7 3 5 4 6 5 4 7 3 8 1 9 2 10 90 11 78 12 79 13 91 14
REMARK SMILES IDX 92 15 97 16 93 17 95 18 94 19 96 20 80 21 81 22 89 23 82 24
REMARK SMILES IDX 88 25 83 26 84 27 85 28 86 29 87 30 10 31 11 32 12 33 13 34
REMARK SMILES IDX 14 36 15 37 16 38 77 39 17 40 76 41 18 42 19 43 20 44 70 45
REMARK SMILES IDX 21 46 75 47 69 48 71 49 22 50 74 51 68 52 67 53 23 55 55 56
REMARK SMILES IDX 35 57 54 58 36 59 39 60 53 61 72 62 37 63 38 64 52 66 73 67
REMARK SMILES IDX 40 68 24 69 25 70 33 71 26 72 27 73 31 74 34 75 28 76 29 77
REMARK SMILES IDX 32 78 30 79 56 80 57 81 65 82 58 83 59 84 63 85 66 86 60 87
REMARK SMILES IDX 61 88 64 89 62 90 41 91 42 92 50 93 43 94 44 95 48 96 51 97
REMARK SMILES IDX 45 98 46 99 49 100 47 101
REMARK H PARENT 7 6 12 35 71 54 39 65
REMARK Flexibility Score: inf
ROOT
ATOM      1  C   UNL     1       3.446   0.389  -4.451  1.00  0.00     0.023 C 
ENDROOT
BRANCH   1   2
ATOM      2  C   UNL     1       2.105  -0.326  -4.648  1.00  0.00     0.116 C 
BRANCH   2   3
ATOM      3  N   UNL     1       1.875  -1.377  -3.676  1.00  0.00    -0.356 N 
ATOM      4  C   UNL     1       0.824  -1.583  -2.829  1.00  0.00     0.224 C 
ATOM      5  O   UNL     1       0.833  -2.618  -2.156  1.00  0.00    -0.275 OA
ATOM      6  H   UNL     1       2.592  -2.049  -3.616  1.00  0.00     0.163 HD
BRANCH   4   7
ATOM      7  C   UNL     1      -0.338  -0.604  -2.744  1.00  0.00     0.137 C 
BRANCH   7   8
ATOM      8  C   UNL     1       0.038   0.731  -2.173  1.00  0.00    -0.017 A 
ATOM      9  C   UNL     1       1.031   0.040   0.122  1.00  0.00     0.065 C 
ATOM     10  C   UNL     1       0.668   1.002  -0.965  1.00  0.00     0.024 A 
ATOM     11  N   UNL     1       0.859   2.379  -0.867  1.00  0.00    -0.313 N 
ATOM     12  C   UNL     1      -0.240   1.984  -2.776  1.00  0.00     0.033 A 
ATOM     13  C   UNL     1       0.308   2.987  -1.997  1.00  0.00     0.053 A 
BRANCH  11  14
ATOM     14  C   UNL     1       1.524   3.061   0.191  1.00  0.00     0.049 A 
ATOM     15  C   UNL     1       0.951   4.214   0.748  1.00  0.00     0.027 A 
ATOM     16  C   UNL     1       2.789   2.634   0.604  1.00  0.00     0.065 A 
ATOM     17  C   UNL     1       1.653   4.951   1.703  1.00  0.00     0.005 A 
ATOM     18  C   UNL     1       3.478   3.387   1.548  1.00  0.00     0.125 A 
ATOM     19  C   UNL     1       2.925   4.540   2.097  1.00  0.00     0.039 A 
ATOM     20  F   UNL     1       4.710   3.012   1.913  1.00  0.00    -0.207 F 
ENDBRANCH  11  14
BRANCH  13  21
ATOM     21  C   UNL     1       0.408   4.413  -2.334  1.00  0.00    -0.001 A 
ATOM     22  C   UNL     1       1.656   5.056  -2.386  1.00  0.00     0.011 A 
ATOM     23  C   UNL     1      -0.749   5.149  -2.623  1.00  0.00     0.011 A 
ATOM     24  C   UNL     1       1.745   6.419  -2.675  1.00  0.00     0.021 A 
ATOM     25  C   UNL     1      -0.668   6.513  -2.917  1.00  0.00     0.021 A 
ATOM     26  C   UNL     1       0.580   7.144  -2.926  1.00  0.00     0.067 A 
BRANCH  26  27
ATOM     27  S   UNL     1       0.682   8.874  -3.321  1.00  0.00     0.175 S 
ATOM     28  C   UNL     1       1.306   9.627  -1.841  1.00  0.00     0.163 C 
ATOM     29  O   UNL     1       1.721   8.998  -4.356  1.00  0.00    -0.224 OA
ATOM     30  O   UNL     1      -0.641   9.363  -3.543  1.00  0.00    -0.224 OA
ENDBRANCH  26  27
ENDBRANCH  13  21
ENDBRANCH   7   8
ENDBRANCH   4   7
ENDBRANCH   2   3
ENDBRANCH   1   2
BRANCH   1  31
ATOM     31  C   UNL     1       4.758  -0.452  -4.439  1.00  0.00     0.023 C 
BRANCH  31  32
ATOM     32  C   UNL     1       4.978  -1.611  -5.459  1.00  0.00     0.116 C 
BRANCH  32  33
ATOM     33  N   UNL     1       6.032  -1.357  -6.452  1.00  0.00    -0.352 N 
ATOM     34  C   UNL     1       7.118  -2.065  -6.969  1.00  0.00     0.251 C 
ATOM     35  H   UNL     1       5.951  -0.462  -6.853  1.00  0.00     0.163 HD
ATOM     36  O   UNL     1       7.756  -1.474  -7.848  1.00  0.00    -0.269 OA
BRANCH  34  37
ATOM     37  C   UNL     1       7.610  -3.460  -6.573  1.00  0.00     0.039 A 
ATOM     38  C   UNL     1       8.984  -3.738  -6.404  1.00  0.00     0.014 A 
ATOM     39  C   UNL     1       6.865  -4.611  -6.710  1.00  0.00     0.014 A 
ATOM     40  C   UNL     1       9.577  -5.098  -6.222  1.00  0.00     0.010 A 
ATOM     41  C   UNL     1       7.475  -5.958  -6.581  1.00  0.00     0.010 A 
ATOM     42  C   UNL     1       8.863  -6.339  -6.243  1.00  0.00    -0.014 A 
BRANCH  42  43
ATOM     43  C   UNL     1       9.772  -7.844  -6.693  1.00  0.00     0.031 A 
ATOM     44  C   UNL     1      10.434  -7.295  -7.938  1.00  0.00     0.074 A 
ATOM     45  C   UNL     1       9.954  -9.338  -6.598  1.00  0.00     0.049 A 
ATOM     46  N   UNL     1       9.645  -6.632  -8.734  1.00  0.00    -0.248 NA
ATOM     47  C   UNL     1      11.594  -7.835  -8.611  1.00  0.00     0.031 C 
ATOM     48  C   UNL     1      10.520 -10.206  -7.719  1.00  0.00     0.029 A 
ATOM     49  N   UNL     1       9.555 -10.522  -5.801  1.00  0.00    -0.354 N 
ATOM     50  C   UNL     1       9.608  -7.485  -9.790  1.00  0.00     0.074 A 
ATOM     51  C   UNL     1      10.973  -8.055  -9.784  1.00  0.00     0.031 C 
ATOM     52  C   UNL     1      10.689 -11.528  -7.489  1.00  0.00     0.029 A 
ATOM     53  C   UNL     1      10.186 -11.919  -6.166  1.00  0.00     0.049 A 
ATOM     54  H   UNL     1       8.911 -10.438  -5.061  1.00  0.00     0.167 HD
ATOM     55  C   UNL     1       8.390  -8.079 -10.003  1.00  0.00     0.037 A 
ATOM     56  C   UNL     1       9.723 -13.271  -6.113  1.00  0.00     0.037 A 
ATOM     57  C   UNL     1       7.575  -8.783  -8.958  1.00  0.00     0.049 A 
ATOM     58  C   UNL     1       8.275 -13.233  -6.312  1.00  0.00     0.074 A 
ATOM     59  C   UNL     1       7.220  -8.757  -7.615  1.00  0.00     0.029 A 
ATOM     60  N   UNL     1       6.726  -9.792  -9.375  1.00  0.00    -0.354 N 
ATOM     61  N   UNL     1       7.639 -13.545  -7.396  1.00  0.00    -0.248 NA
ATOM     62  C   UNL     1       7.504 -12.658  -5.227  1.00  0.00     0.031 C 
ATOM     63  C   UNL     1       6.223  -9.680  -7.257  1.00  0.00     0.029 A 
ATOM     64  C   UNL     1       6.293 -10.557  -8.294  1.00  0.00     0.049 A 
ATOM     65  H   UNL     1       6.462  -9.949 -10.310  1.00  0.00     0.167 HD
ATOM     66  C   UNL     1       6.525 -12.730  -7.302  1.00  0.00     0.074 A 
ATOM     67  C   UNL     1       6.406 -12.351  -5.900  1.00  0.00     0.031 C 
ATOM     68  C   UNL     1       6.243 -11.980  -8.399  1.00  0.00     0.037 A 
BRANCH  55  69
ATOM     69  C   UNL     1       7.659  -7.184 -10.989  1.00  0.00     0.064 A 
ATOM     70  C   UNL     1       8.347  -6.485 -12.010  1.00  0.00     0.173 A 
ATOM     71  C   UNL     1       6.262  -7.025 -10.959  1.00  0.00     0.173 A 
ATOM     72  F   UNL     1       9.685  -6.544 -12.122  1.00  0.00    -0.203 F 
ATOM     73  C   UNL     1       7.674  -5.727 -12.957  1.00  0.00     0.198 A 
ATOM     74  C   UNL     1       5.592  -6.314 -11.945  1.00  0.00     0.198 A 
ATOM     75  F   UNL     1       5.502  -7.564  -9.996  1.00  0.00    -0.203 F 
ATOM     76  F   UNL     1       8.368  -5.086 -13.907  1.00  0.00    -0.200 F 
ATOM     77  C   UNL     1       6.295  -5.674 -12.947  1.00  0.00     0.200 A 
ATOM     78  F   UNL     1       4.252  -6.287 -11.936  1.00  0.00    -0.200 F 
ATOM     79  F   UNL     1       5.638  -5.027 -13.917  1.00  0.00    -0.200 F 
ENDBRANCH  55  69
BRANCH  56  80
ATOM     80  C   UNL     1      10.125 -14.750  -5.639  1.00  0.00     0.064 A 
ATOM     81  C   UNL     1      10.691 -15.823  -6.389  1.00  0.00     0.173 A 
ATOM     82  C   UNL     1       9.531 -15.222  -4.429  1.00  0.00     0.173 A 
ATOM     83  F   UNL     1      11.150 -15.620  -7.633  1.00  0.00    -0.203 F 
ATOM     84  C   UNL     1      10.736 -17.184  -5.913  1.00  0.00     0.198 A 
ATOM     85  C   UNL     1       9.543 -16.564  -3.977  1.00  0.00     0.198 A 
ATOM     86  F   UNL     1       8.836 -14.376  -3.660  1.00  0.00    -0.203 F 
ATOM     87  F   UNL     1      11.286 -18.159  -6.661  1.00  0.00    -0.200 F 
ATOM     88  C   UNL     1      10.172 -17.546  -4.702  1.00  0.00     0.200 A 
ATOM     89  F   UNL     1       8.891 -16.892  -2.850  1.00  0.00    -0.200 F 
ATOM     90  F   UNL     1      10.198 -18.815  -4.258  1.00  0.00    -0.200 F 
ENDBRANCH  56  80
BRANCH  68  91
ATOM     91  C   UNL     1       6.408 -12.638  -9.710  1.00  0.00     0.064 A 
ATOM     92  C   UNL     1       5.359 -13.442 -10.143  1.00  0.00     0.173 A 
ATOM     93  C   UNL     1       7.431 -12.300 -10.611  1.00  0.00     0.173 A 
ATOM     94  F   UNL     1       4.381 -13.792  -9.292  1.00  0.00    -0.203 F 
ATOM     95  C   UNL     1       5.267 -13.797 -11.477  1.00  0.00     0.198 A 
ATOM     96  C   UNL     1       7.296 -12.594 -11.955  1.00  0.00     0.198 A 
ATOM     97  F   UNL     1       8.469 -11.536 -10.230  1.00  0.00    -0.203 F 
ATOM     98  F   UNL     1       4.221 -14.520 -11.895  1.00  0.00    -0.200 F 
ATOM     99  C   UNL     1       6.209 -13.336 -12.388  1.00  0.00     0.200 A 
ATOM    100  F   UNL     1       8.160 -12.072 -12.836  1.00  0.00    -0.200 F 
ATOM    101  F   UNL     1       6.047 -13.572 -13.695  1.00  0.00    -0.200 F 
ENDBRANCH  68  91
ENDBRANCH  42  43
ENDBRANCH  34  37
ENDBRANCH  32  33
ENDBRANCH  31  32
ENDBRANCH   1  31
TORSDOF 15
