REMARK SMILES Cc1ccsc1[C@@H]1[NH2+][C@@H](C(=O)NCCCCNC(=O)c2ccc(-c3c4nc(c(-c5c(F)c(F)c(F)c(F)c5F)c5ccc([nH]5)c(-c5c(F)c(F)c(F)c(F)c5F)c5nc(c(-c6c(F)c(F)c(F)c(F)c6F)c6ccc3[nH]6)C=C5)C=C4)cc2)CS1
REMARK SMILES IDX 15 1 14 2 13 3 12 4 10 5 11 6 9 8 7 9 8 10 84 11 83 14 6 15
REMARK SMILES IDX 1 16 2 17 3 18 4 19 5 20 16 21 17 22 18 23 19 25 20 26 21 27
REMARK SMILES IDX 82 28 22 29 81 30 23 31 24 32 25 33 75 34 26 35 80 36 74 37
REMARK SMILES IDX 76 38 27 39 79 40 73 41 72 42 28 44 60 45 40 46 59 47 41 48
REMARK SMILES IDX 44 49 58 50 77 51 42 52 43 53 57 55 78 56 45 57 29 58 30 59
REMARK SMILES IDX 38 60 31 61 32 62 36 63 39 64 33 65 34 66 37 67 35 68 61 69
REMARK SMILES IDX 62 70 70 71 63 72 64 73 68 74 71 75 65 76 66 77 69 78 67 79
REMARK SMILES IDX 46 80 47 81 55 82 48 83 49 84 53 85 56 86 50 87 51 88 54 89
REMARK SMILES IDX 52 90
REMARK H PARENT 12 7 8 12 8 13 17 24 76 43 44 54
REMARK Flexibility Score: inf
ROOT
ATOM      1  C   UNL     1       2.038  -0.179   5.513  1.00  0.00     0.023 C 
ENDROOT
BRANCH   1   2
ATOM      2  C   UNL     1       2.050  -0.057   3.981  1.00  0.00     0.023 C 
BRANCH   2   3
ATOM      3  C   UNL     1       2.983  -1.029   3.254  1.00  0.00     0.116 C 
BRANCH   3   4
ATOM      4  N   UNL     1       2.638  -2.396   3.579  1.00  0.00    -0.351 N 
ATOM      5  C   UNL     1       2.302  -3.459   2.806  1.00  0.00     0.279 C 
ATOM      6  O   UNL     1       2.055  -4.497   3.426  1.00  0.00    -0.268 OA
ATOM      7  H   UNL     1       2.650  -2.591   4.544  1.00  0.00     0.163 HD
BRANCH   5   8
ATOM      8  C   UNL     1       2.321  -3.384   1.258  1.00  0.00     0.283 C 
ATOM      9  C   UNL     1       0.172  -3.159   0.115  1.00  0.00     0.284 C 
ATOM     10  N   UNL     1       1.317  -2.425   0.691  1.00  0.00    -0.320 N 
ATOM     11  S   UNL     1       0.291  -4.887   0.628  1.00  0.00    -0.087 SA
ATOM     12  H   UNL     1       0.983  -1.810   1.434  1.00  0.00     0.348 HD
ATOM     13  H   UNL     1       1.762  -1.877  -0.044  1.00  0.00     0.348 HD
ATOM     14  C   UNL     1       2.091  -4.785   0.693  1.00  0.00     0.151 C 
BRANCH   9  15
ATOM     15  C   UNL     1       0.039  -2.982  -1.403  1.00  0.00     0.075 A 
ATOM     16  C   UNL     1      -1.266  -0.755  -1.546  1.00  0.00     0.046 C 
ATOM     17  C   UNL     1      -0.647  -1.991  -2.111  1.00  0.00    -0.030 A 
ATOM     18  C   UNL     1      -0.765  -2.320  -3.507  1.00  0.00     0.015 A 
ATOM     19  C   UNL     1      -0.097  -3.470  -3.843  1.00  0.00     0.065 A 
ATOM     20  S   UNL     1       0.739  -4.112  -2.516  1.00  0.00    -0.141 S 
ENDBRANCH   9  15
ENDBRANCH   5   8
ENDBRANCH   3   4
ENDBRANCH   2   3
ENDBRANCH   1   2
BRANCH   1  21
ATOM     21  C   UNL     1       3.389  -0.001   6.202  1.00  0.00     0.116 C 
BRANCH  21  22
ATOM     22  N   UNL     1       3.947   1.326   6.001  1.00  0.00    -0.352 N 
ATOM     23  C   UNL     1       4.397   2.238   6.923  1.00  0.00     0.251 C 
ATOM     24  H   UNL     1       4.013   1.614   5.061  1.00  0.00     0.163 HD
ATOM     25  O   UNL     1       4.683   3.379   6.562  1.00  0.00    -0.269 OA
BRANCH  23  26
ATOM     26  C   UNL     1       4.515   1.872   8.352  1.00  0.00     0.039 A 
ATOM     27  C   UNL     1       4.076   2.782   9.319  1.00  0.00     0.014 A 
ATOM     28  C   UNL     1       5.068   0.651   8.746  1.00  0.00     0.014 A 
ATOM     29  C   UNL     1       4.128   2.440  10.673  1.00  0.00     0.010 A 
ATOM     30  C   UNL     1       5.052   0.282  10.090  1.00  0.00     0.010 A 
ATOM     31  C   UNL     1       4.580   1.170  11.069  1.00  0.00    -0.014 A 
BRANCH  31  32
ATOM     32  C   UNL     1       4.563   0.756  12.498  1.00  0.00     0.031 A 
ATOM     33  C   UNL     1       5.850   0.439  13.210  1.00  0.00     0.074 A 
ATOM     34  C   UNL     1       3.387   0.614  13.141  1.00  0.00     0.049 A 
ATOM     35  N   UNL     1       6.036  -0.017  14.425  1.00  0.00    -0.248 NA
ATOM     36  C   UNL     1       7.095   0.643  12.451  1.00  0.00     0.031 C 
ATOM     37  C   UNL     1       2.068   0.861  12.557  1.00  0.00     0.029 A 
ATOM     38  N   UNL     1       3.109   0.217  14.426  1.00  0.00    -0.354 N 
ATOM     39  C   UNL     1       7.410  -0.151  14.573  1.00  0.00     0.074 A 
ATOM     40  C   UNL     1       8.009   0.207  13.305  1.00  0.00     0.031 C 
ATOM     41  C   UNL     1       1.124   0.632  13.484  1.00  0.00     0.029 A 
ATOM     42  C   UNL     1       1.765   0.176  14.714  1.00  0.00     0.049 A 
ATOM     43  H   UNL     1       3.807  -0.017  15.080  1.00  0.00     0.167 HD
ATOM     44  C   UNL     1       8.113  -0.509  15.675  1.00  0.00     0.037 A 
ATOM     45  C   UNL     1       1.123  -0.201  15.837  1.00  0.00     0.037 A 
ATOM     46  C   UNL     1       7.519  -0.860  16.939  1.00  0.00     0.049 A 
ATOM     47  C   UNL     1       1.931  -0.653  17.027  1.00  0.00     0.074 A 
ATOM     48  C   UNL     1       8.148  -1.225  18.116  1.00  0.00     0.029 A 
ATOM     49  N   UNL     1       6.155  -0.888  17.189  1.00  0.00    -0.354 N 
ATOM     50  N   UNL     1       3.232  -0.726  17.169  1.00  0.00    -0.248 NA
ATOM     51  C   UNL     1       1.176  -1.071  18.217  1.00  0.00     0.031 C 
ATOM     52  C   UNL     1       7.164  -1.517  19.066  1.00  0.00     0.029 A 
ATOM     53  C   UNL     1       5.924  -1.278  18.499  1.00  0.00     0.049 A 
ATOM     54  H   UNL     1       5.455  -0.664  16.534  1.00  0.00     0.167 HD
ATOM     55  C   UNL     1       3.450  -1.153  18.472  1.00  0.00     0.074 A 
ATOM     56  C   UNL     1       2.148  -1.309  19.085  1.00  0.00     0.031 C 
ATOM     57  C   UNL     1       4.623  -1.398  19.105  1.00  0.00     0.037 A 
BRANCH  44  58
ATOM     58  C   UNL     1       9.612  -0.521  15.572  1.00  0.00     0.064 A 
ATOM     59  C   UNL     1      10.344   0.670  15.451  1.00  0.00     0.173 A 
ATOM     60  C   UNL     1      10.328  -1.725  15.652  1.00  0.00     0.173 A 
ATOM     61  F   UNL     1       9.708   1.848  15.360  1.00  0.00    -0.203 F 
ATOM     62  C   UNL     1      11.735   0.655  15.391  1.00  0.00     0.198 A 
ATOM     63  C   UNL     1      11.721  -1.733  15.624  1.00  0.00     0.198 A 
ATOM     64  F   UNL     1       9.679  -2.892  15.775  1.00  0.00    -0.203 F 
ATOM     65  F   UNL     1      12.409   1.802  15.231  1.00  0.00    -0.200 F 
ATOM     66  C   UNL     1      12.422  -0.545  15.487  1.00  0.00     0.200 A 
ATOM     67  F   UNL     1      12.384  -2.893  15.734  1.00  0.00    -0.200 F 
ATOM     68  F   UNL     1      13.762  -0.557  15.444  1.00  0.00    -0.200 F 
ENDBRANCH  44  58
BRANCH  45  69
ATOM     69  C   UNL     1      -0.363  -0.168  15.908  1.00  0.00     0.064 A 
ATOM     70  C   UNL     1      -1.024   0.698  16.792  1.00  0.00     0.173 A 
ATOM     71  C   UNL     1      -1.153  -1.039  15.142  1.00  0.00     0.173 A 
ATOM     72  F   UNL     1      -0.314   1.536  17.562  1.00  0.00    -0.203 F 
ATOM     73  C   UNL     1      -2.409   0.662  16.939  1.00  0.00     0.198 A 
ATOM     74  C   UNL     1      -2.541  -1.048  15.262  1.00  0.00     0.198 A 
ATOM     75  F   UNL     1      -0.575  -1.885  14.276  1.00  0.00    -0.203 F 
ATOM     76  F   UNL     1      -3.005   1.448  17.846  1.00  0.00    -0.200 F 
ATOM     77  C   UNL     1      -3.167  -0.210  16.172  1.00  0.00     0.200 A 
ATOM     78  F   UNL     1      -3.271  -1.881  14.508  1.00  0.00    -0.200 F 
ATOM     79  F   UNL     1      -4.498  -0.253  16.321  1.00  0.00    -0.200 F 
ENDBRANCH  45  69
BRANCH  57  80
ATOM     80  C   UNL     1       4.559  -1.795  20.553  1.00  0.00     0.064 A 
ATOM     81  C   UNL     1       4.068  -3.044  20.959  1.00  0.00     0.173 A 
ATOM     82  C   UNL     1       5.034  -0.923  21.546  1.00  0.00     0.173 A 
ATOM     83  F   UNL     1       3.589  -3.909  20.052  1.00  0.00    -0.203 F 
ATOM     84  C   UNL     1       4.024  -3.392  22.307  1.00  0.00     0.198 A 
ATOM     85  C   UNL     1       5.021  -1.288  22.889  1.00  0.00     0.198 A 
ATOM     86  F   UNL     1       5.522   0.281  21.211  1.00  0.00    -0.203 F 
ATOM     87  F   UNL     1       3.498  -4.569  22.676  1.00  0.00    -0.200 F 
ATOM     88  C   UNL     1       4.508  -2.519  23.269  1.00  0.00     0.200 A 
ATOM     89  F   UNL     1       5.506  -0.449  23.814  1.00  0.00    -0.200 F 
ATOM     90  F   UNL     1       4.473  -2.860  24.565  1.00  0.00    -0.200 F 
ENDBRANCH  57  80
ENDBRANCH  31  32
ENDBRANCH  23  26
ENDBRANCH  21  22
ENDBRANCH   1  21
TORSDOF 12
