REMARK SMILES CC[C@@](C)(Nc1nccs1)C(=O)NCCCCNC(=O)c1ccc(-c2c3nc(c(-c4c(F)c(F)c(F)c(F)c4F)c4ccc([nH]4)c(-c4c(F)c(F)c(F)c(F)c4F)c4nc(c(-c5c(F)c(F)c(F)c(F)c5F)c5ccc2[nH]5)C=C4)C=C3)cc1
REMARK SMILES IDX 15 1 14 2 13 3 11 4 12 5 3 7 4 8 2 9 1 10 5 11 6 13 7 14
REMARK SMILES IDX 10 15 8 16 9 17 16 18 17 19 18 20 19 21 20 23 21 24 22 25
REMARK SMILES IDX 83 26 23 27 82 28 24 29 25 30 26 31 76 32 27 33 81 34 75 35
REMARK SMILES IDX 77 36 28 37 80 38 74 39 73 40 29 42 61 43 41 44 60 45 42 46
REMARK SMILES IDX 45 47 59 48 78 49 43 50 44 51 58 53 79 54 46 55 30 56 31 57
REMARK SMILES IDX 39 58 32 59 33 60 37 61 40 62 34 63 35 64 38 65 36 66 62 67
REMARK SMILES IDX 63 68 71 69 64 70 65 71 69 72 72 73 66 74 67 75 70 76 68 77
REMARK SMILES IDX 47 78 48 79 56 80 49 81 50 82 54 83 57 84 51 85 52 86 55 87
REMARK SMILES IDX 53 88
REMARK H PARENT 13 6 5 12 18 22 77 41 45 52
REMARK Flexibility Score: inf
ROOT
ATOM      1  C   UNL     1       2.693   5.646   2.463  1.00  0.00     0.023 C 
ENDROOT
BRANCH   1   2
ATOM      2  C   UNL     1       2.240   4.904   1.208  1.00  0.00     0.116 C 
BRANCH   2   3
ATOM      3  N   UNL     1       2.928   3.650   0.968  1.00  0.00    -0.354 N 
ATOM      4  C   UNL     1       2.488   2.354   1.014  1.00  0.00     0.245 C 
ATOM      5  O   UNL     1       3.331   1.492   0.739  1.00  0.00    -0.272 OA
ATOM      6  H   UNL     1       3.879   3.748   0.732  1.00  0.00     0.163 HD
BRANCH   4   7
ATOM      7  C   UNL     1       0.993   1.996   1.317  1.00  0.00     0.115 C 
ATOM      8  C   UNL     1       0.107   2.550   0.177  1.00  0.00     0.045 C 
BRANCH   7   9
ATOM      9  C   UNL     1       0.774   0.455   1.403  1.00  0.00     0.035 C 
ATOM     10  C   UNL     1       0.964  -0.337   0.109  1.00  0.00     0.007 C 
ENDBRANCH   7   9
BRANCH   7  11
ATOM     11  N   UNL     1       0.510   2.561   2.596  1.00  0.00    -0.347 N 
ATOM     12  H   UNL     1      -0.422   2.875   2.642  1.00  0.00     0.164 HD
BRANCH  11  13
ATOM     13  C   UNL     1       1.275   2.671   3.706  1.00  0.00     0.183 A 
ATOM     14  N   UNL     1       2.572   2.480   3.774  1.00  0.00    -0.229 NA
ATOM     15  S   UNL     1       0.561   3.191   5.193  1.00  0.00    -0.106 S 
ATOM     16  C   UNL     1       3.062   2.854   5.008  1.00  0.00     0.125 A 
ATOM     17  C   UNL     1       2.115   3.275   5.913  1.00  0.00     0.088 A 
ENDBRANCH  11  13
ENDBRANCH   7  11
ENDBRANCH   4   7
ENDBRANCH   2   3
ENDBRANCH   1   2
BRANCH   1  18
ATOM     18  C   UNL     1       4.196   5.856   2.595  1.00  0.00     0.023 C 
BRANCH  18  19
ATOM     19  C   UNL     1       4.821   6.585   1.416  1.00  0.00     0.116 C 
BRANCH  19  20
ATOM     20  N   UNL     1       4.230   7.900   1.207  1.00  0.00    -0.352 N 
ATOM     21  C   UNL     1       4.830   9.133   1.196  1.00  0.00     0.251 C 
ATOM     22  H   UNL     1       3.257   7.903   1.051  1.00  0.00     0.163 HD
ATOM     23  O   UNL     1       4.153  10.154   1.218  1.00  0.00    -0.269 OA
BRANCH  21  24
ATOM     24  C   UNL     1       6.303   9.220   1.171  1.00  0.00     0.039 A 
ATOM     25  C   UNL     1       6.944  10.144   1.999  1.00  0.00     0.014 A 
ATOM     26  C   UNL     1       7.046   8.381   0.338  1.00  0.00     0.014 A 
ATOM     27  C   UNL     1       8.338  10.182   2.034  1.00  0.00     0.010 A 
ATOM     28  C   UNL     1       8.430   8.354   0.445  1.00  0.00     0.010 A 
ATOM     29  C   UNL     1       9.090   9.263   1.283  1.00  0.00    -0.014 A 
BRANCH  29  30
ATOM     30  C   UNL     1      10.572   9.248   1.340  1.00  0.00     0.031 A 
ATOM     31  C   UNL     1      11.370   9.532   0.097  1.00  0.00     0.074 A 
ATOM     32  C   UNL     1      11.191   8.911   2.487  1.00  0.00     0.049 A 
ATOM     33  N   UNL     1      12.666   9.495  -0.082  1.00  0.00    -0.248 NA
ATOM     34  C   UNL     1      10.608   9.873  -1.116  1.00  0.00     0.031 C 
ATOM     35  C   UNL     1      10.520   8.563   3.741  1.00  0.00     0.029 A 
ATOM     36  N   UNL     1      12.526   8.795   2.782  1.00  0.00    -0.354 N 
ATOM     37  C   UNL     1      12.868   9.786  -1.425  1.00  0.00     0.074 A 
ATOM     38  C   UNL     1      11.564   9.938  -2.029  1.00  0.00     0.031 C 
ATOM     39  C   UNL     1      11.446   8.303   4.678  1.00  0.00     0.029 A 
ATOM     40  C   UNL     1      12.772   8.421   4.081  1.00  0.00     0.049 A 
ATOM     41  H   UNL     1      13.240   8.964   2.126  1.00  0.00     0.167 HD
ATOM     42  C   UNL     1      14.039   9.938  -2.087  1.00  0.00     0.037 A 
ATOM     43  C   UNL     1      13.939   8.193   4.713  1.00  0.00     0.037 A 
ATOM     44  C   UNL     1      15.333   9.815  -1.469  1.00  0.00     0.049 A 
ATOM     45  C   UNL     1      15.226   8.366   3.951  1.00  0.00     0.074 A 
ATOM     46  C   UNL     1      16.580  10.017  -2.032  1.00  0.00     0.029 A 
ATOM     47  N   UNL     1      15.543   9.452  -0.146  1.00  0.00    -0.354 N 
ATOM     48  N   UNL     1      15.408   8.718   2.702  1.00  0.00    -0.248 NA
ATOM     49  C   UNL     1      16.470   8.114   4.691  1.00  0.00     0.031 C 
ATOM     50  C   UNL     1      17.547   9.723  -1.065  1.00  0.00     0.029 A 
ATOM     51  C   UNL     1      16.902   9.399   0.118  1.00  0.00     0.049 A 
ATOM     52  H   UNL     1      14.832   9.261   0.507  1.00  0.00     0.167 HD
ATOM     53  C   UNL     1      16.783   8.763   2.514  1.00  0.00     0.074 A 
ATOM     54  C   UNL     1      17.387   8.417   3.784  1.00  0.00     0.031 C 
ATOM     55  C   UNL     1      17.483   9.063   1.393  1.00  0.00     0.037 A 
BRANCH  42  56
ATOM     56  C   UNL     1      13.976  10.259  -3.553  1.00  0.00     0.064 A 
ATOM     57  C   UNL     1      13.502  11.495  -4.019  1.00  0.00     0.173 A 
ATOM     58  C   UNL     1      14.428   9.332  -4.504  1.00  0.00     0.173 A 
ATOM     59  F   UNL     1      13.046  12.414  -3.154  1.00  0.00    -0.203 F 
ATOM     60  C   UNL     1      13.457  11.780  -5.381  1.00  0.00     0.198 A 
ATOM     61  C   UNL     1      14.414   9.632  -5.863  1.00  0.00     0.198 A 
ATOM     62  F   UNL     1      14.895   8.136  -4.114  1.00  0.00    -0.203 F 
ATOM     63  F   UNL     1      12.952  12.947  -5.804  1.00  0.00    -0.200 F 
ATOM     64  C   UNL     1      13.920  10.852  -6.301  1.00  0.00     0.200 A 
ATOM     65  F   UNL     1      14.876   8.740  -6.750  1.00  0.00    -0.200 F 
ATOM     66  F   UNL     1      13.886  11.131  -7.612  1.00  0.00    -0.200 F 
ENDBRANCH  42  56
BRANCH  43  67
ATOM     67  C   UNL     1      13.947   7.805   6.149  1.00  0.00     0.064 A 
ATOM     68  C   UNL     1      14.454   8.674   7.125  1.00  0.00     0.173 A 
ATOM     69  C   UNL     1      13.465   6.559   6.574  1.00  0.00     0.173 A 
ATOM     70  F   UNL     1      14.943   9.871   6.768  1.00  0.00    -0.203 F 
ATOM     71  C   UNL     1      14.502   8.302   8.467  1.00  0.00     0.198 A 
ATOM     72  C   UNL     1      13.484   6.200   7.920  1.00  0.00     0.198 A 
ATOM     73  F   UNL     1      12.963   5.692   5.682  1.00  0.00    -0.203 F 
ATOM     74  F   UNL     1      15.040   9.132   9.371  1.00  0.00    -0.200 F 
ATOM     75  C   UNL     1      14.012   7.067   8.864  1.00  0.00     0.200 A 
ATOM     76  F   UNL     1      12.995   5.012   8.302  1.00  0.00    -0.200 F 
ATOM     77  F   UNL     1      14.057   6.710  10.155  1.00  0.00    -0.200 F 
ENDBRANCH  43  67
BRANCH  55  78
ATOM     78  C   UNL     1      18.981   9.074   1.499  1.00  0.00     0.064 A 
ATOM     79  C   UNL     1      19.720   7.892   1.651  1.00  0.00     0.173 A 
ATOM     80  C   UNL     1      19.688  10.283   1.405  1.00  0.00     0.173 A 
ATOM     81  F   UNL     1      19.091   6.712   1.760  1.00  0.00    -0.203 F 
ATOM     82  C   UNL     1      21.109   7.923   1.734  1.00  0.00     0.198 A 
ATOM     83  C   UNL     1      21.078  10.307   1.452  1.00  0.00     0.198 A 
ATOM     84  F   UNL     1      19.029  11.442   1.250  1.00  0.00    -0.203 F 
ATOM     85  F   UNL     1      21.792   6.787   1.932  1.00  0.00    -0.200 F 
ATOM     86  C   UNL     1      21.787   9.128   1.626  1.00  0.00     0.200 A 
ATOM     87  F   UNL     1      21.732  11.470   1.331  1.00  0.00    -0.200 F 
ATOM     88  F   UNL     1      23.125   9.154   1.696  1.00  0.00    -0.200 F 
ENDBRANCH  55  78
ENDBRANCH  29  30
ENDBRANCH  21  24
ENDBRANCH  19  20
ENDBRANCH  18  19
ENDBRANCH   1  18
TORSDOF 14
