REMARK SMILES O=C1C[C@H](C(=O)NCCCCNC(=O)c2ccc(-c3c4nc(c(-c5c(F)c(F)c(F)c(F)c5F)c5ccc([nH]5)c(-c5c(F)c(F)c(F)c(F)c5F)c5nc(c(-c6c(F)c(F)c(F)c(F)c6F)c6ccc3[nH]6)C=C5)C=C4)cc2)c2c(nc(N3CCSCC3)[nH]c2=O)N1
REMARK SMILES IDX 10 1 9 2 8 3 7 4 5 5 6 6 4 8 1 9 2 10 3 11 91 12 79 13 78 15
REMARK SMILES IDX 80 16 89 17 81 18 88 19 90 20 82 22 83 23 87 24 84 25 86 26
REMARK SMILES IDX 85 27 11 28 12 29 13 30 14 32 15 33 16 34 77 35 17 36 76 37
REMARK SMILES IDX 18 38 19 39 20 40 70 41 21 42 75 43 69 44 71 45 22 46 74 47
REMARK SMILES IDX 68 48 67 49 23 51 55 52 35 53 54 54 36 55 39 56 53 57 72 58
REMARK SMILES IDX 37 59 38 60 52 62 73 63 40 64 24 65 25 66 33 67 26 68 27 69
REMARK SMILES IDX 31 70 34 71 28 72 29 73 32 74 30 75 56 76 57 77 65 78 58 79
REMARK SMILES IDX 59 80 63 81 66 82 60 83 61 84 64 85 62 86 41 87 42 88 50 89
REMARK SMILES IDX 43 90 44 91 48 92 51 93 45 94 46 95 49 96 47 97
REMARK H PARENT 7 7 91 14 88 21 12 31 71 50 39 61
REMARK Flexibility Score: inf
ROOT
ATOM      1  C   UNL     1       7.030  -2.114   2.790  1.00  0.00     0.023 C 
ENDROOT
BRANCH   1   2
ATOM      2  C   UNL     1       5.926  -1.212   2.240  1.00  0.00     0.023 C 
BRANCH   2   3
ATOM      3  C   UNL     1       5.965  -1.003   0.730  1.00  0.00     0.116 C 
BRANCH   3   4
ATOM      4  N   UNL     1       5.710  -2.234   0.006  1.00  0.00    -0.356 N 
ATOM      5  C   UNL     1       4.749  -2.555  -0.904  1.00  0.00     0.228 C 
ATOM      6  O   UNL     1       4.695  -3.732  -1.274  1.00  0.00    -0.274 OA
ATOM      7  H   UNL     1       6.341  -2.963   0.208  1.00  0.00     0.163 HD
BRANCH   5   8
ATOM      8  C   UNL     1       3.726  -1.531  -1.409  1.00  0.00     0.127 C 
ATOM      9  O   UNL     1       1.558   0.617   0.713  1.00  0.00    -0.275 OA
ATOM     10  C   UNL     1       2.432   0.254  -0.073  1.00  0.00     0.226 C 
ATOM     11  C   UNL     1       2.729  -1.212  -0.291  1.00  0.00     0.119 C 
ATOM     12  N   UNL     1       3.196   1.170  -0.730  1.00  0.00    -0.310 N 
ATOM     13  C   UNL     1       4.157   0.913  -1.656  1.00  0.00     0.146 A 
ATOM     14  H   UNL     1       3.037   2.116  -0.511  1.00  0.00     0.171 HD
ATOM     15  C   UNL     1       4.401  -0.348  -2.026  1.00  0.00     0.073 A 
ATOM     16  N   UNL     1       4.818   2.018  -2.111  1.00  0.00    -0.196 NA
ATOM     17  C   UNL     1       5.394  -0.532  -3.096  1.00  0.00     0.258 A 
ATOM     18  C   UNL     1       5.697   1.849  -3.048  1.00  0.00     0.207 A 
ATOM     19  N   UNL     1       5.966   0.613  -3.558  1.00  0.00    -0.292 N 
ATOM     20  O   UNL     1       5.697  -1.631  -3.539  1.00  0.00    -0.269 OA
ATOM     21  H   UNL     1       6.609   0.545  -4.301  1.00  0.00     0.173 HD
BRANCH  18  22
ATOM     22  N   UNL     1       6.447   2.876  -3.559  1.00  0.00    -0.341 N 
ATOM     23  C   UNL     1       6.476   3.189  -4.991  1.00  0.00     0.130 C 
ATOM     24  C   UNL     1       7.110   3.838  -2.670  1.00  0.00     0.130 C 
ATOM     25  C   UNL     1       5.770   4.516  -5.291  1.00  0.00     0.091 C 
ATOM     26  C   UNL     1       6.498   5.235  -2.746  1.00  0.00     0.091 C 
ATOM     27  S   UNL     1       6.565   5.918  -4.438  1.00  0.00    -0.158 SA
ENDBRANCH  18  22
ENDBRANCH   5   8
ENDBRANCH   3   4
ENDBRANCH   2   3
ENDBRANCH   1   2
BRANCH   1  28
ATOM     28  C   UNL     1       8.449  -1.675   2.447  1.00  0.00     0.116 C 
BRANCH  28  29
ATOM     29  N   UNL     1       8.766  -0.350   2.960  1.00  0.00    -0.352 N 
ATOM     30  C   UNL     1       9.840   0.035   3.723  1.00  0.00     0.251 C 
ATOM     31  H   UNL     1       8.128   0.363   2.729  1.00  0.00     0.163 HD
ATOM     32  O   UNL     1       9.912   1.167   4.189  1.00  0.00    -0.269 OA
BRANCH  30  33
ATOM     33  C   UNL     1      10.903  -0.948   3.998  1.00  0.00     0.039 A 
ATOM     34  C   UNL     1      11.240  -1.230   5.324  1.00  0.00     0.014 A 
ATOM     35  C   UNL     1      11.524  -1.621   2.941  1.00  0.00     0.014 A 
ATOM     36  C   UNL     1      12.165  -2.238   5.595  1.00  0.00     0.010 A 
ATOM     37  C   UNL     1      12.406  -2.660   3.215  1.00  0.00     0.010 A 
ATOM     38  C   UNL     1      12.733  -2.974   4.543  1.00  0.00    -0.014 A 
BRANCH  38  39
ATOM     39  C   UNL     1      13.701  -4.062   4.811  1.00  0.00     0.031 A 
ATOM     40  C   UNL     1      15.146  -3.869   4.460  1.00  0.00     0.074 A 
ATOM     41  C   UNL     1      13.274  -5.227   5.330  1.00  0.00     0.049 A 
ATOM     42  N   UNL     1      16.145  -4.705   4.576  1.00  0.00    -0.248 NA
ATOM     43  C   UNL     1      15.515  -2.565   3.886  1.00  0.00     0.031 C 
ATOM     44  C   UNL     1      11.890  -5.535   5.691  1.00  0.00     0.029 A 
ATOM     45  N   UNL     1      13.963  -6.372   5.642  1.00  0.00    -0.354 N 
ATOM     46  C   UNL     1      17.257  -4.029   4.099  1.00  0.00     0.074 A 
ATOM     47  C   UNL     1      16.804  -2.736   3.634  1.00  0.00     0.031 C 
ATOM     48  C   UNL     1      11.836  -6.777   6.199  1.00  0.00     0.029 A 
ATOM     49  C   UNL     1      13.174  -7.362   6.172  1.00  0.00     0.049 A 
ATOM     50  H   UNL     1      14.932  -6.473   5.499  1.00  0.00     0.167 HD
ATOM     51  C   UNL     1      18.547  -4.438   4.079  1.00  0.00     0.037 A 
ATOM     52  C   UNL     1      13.500  -8.599   6.592  1.00  0.00     0.037 A 
ATOM     53  C   UNL     1      18.995  -5.721   4.546  1.00  0.00     0.049 A 
ATOM     54  C   UNL     1      14.932  -9.050   6.510  1.00  0.00     0.074 A 
ATOM     55  C   UNL     1      20.283  -6.223   4.588  1.00  0.00     0.029 A 
ATOM     56  N   UNL     1      18.163  -6.707   5.056  1.00  0.00    -0.354 N 
ATOM     57  N   UNL     1      15.985  -8.389   6.094  1.00  0.00    -0.248 NA
ATOM     58  C   UNL     1      15.223 -10.420   6.957  1.00  0.00     0.031 C 
ATOM     59  C   UNL     1      20.227  -7.526   5.091  1.00  0.00     0.029 A 
ATOM     60  C   UNL     1      18.909  -7.822   5.400  1.00  0.00     0.049 A 
ATOM     61  H   UNL     1      17.187  -6.627   5.158  1.00  0.00     0.167 HD
ATOM     62  C   UNL     1      17.063  -9.247   6.252  1.00  0.00     0.074 A 
ATOM     63  C   UNL     1      16.540 -10.478   6.809  1.00  0.00     0.031 C 
ATOM     64  C   UNL     1      18.370  -9.034   5.963  1.00  0.00     0.037 A 
BRANCH  51  65
ATOM     65  C   UNL     1      19.565  -3.476   3.547  1.00  0.00     0.064 A 
ATOM     66  C   UNL     1      19.936  -2.336   4.276  1.00  0.00     0.173 A 
ATOM     67  C   UNL     1      20.197  -3.705   2.317  1.00  0.00     0.173 A 
ATOM     68  F   UNL     1      19.348  -2.065   5.451  1.00  0.00    -0.203 F 
ATOM     69  C   UNL     1      20.888  -1.449   3.782  1.00  0.00     0.198 A 
ATOM     70  C   UNL     1      21.167  -2.830   1.838  1.00  0.00     0.198 A 
ATOM     71  F   UNL     1      19.877  -4.781   1.582  1.00  0.00    -0.203 F 
ATOM     72  F   UNL     1      21.196  -0.344   4.476  1.00  0.00    -0.200 F 
ATOM     73  C   UNL     1      21.508  -1.700   2.567  1.00  0.00     0.200 A 
ATOM     74  F   UNL     1      21.771  -3.077   0.667  1.00  0.00    -0.200 F 
ATOM     75  F   UNL     1      22.428  -0.848   2.095  1.00  0.00    -0.200 F 
ENDBRANCH  51  65
BRANCH  52  76
ATOM     76  C   UNL     1      12.455  -9.480   7.173  1.00  0.00     0.064 A 
ATOM     77  C   UNL     1      12.428  -9.741   8.550  1.00  0.00     0.173 A 
ATOM     78  C   UNL     1      11.458 -10.061   6.377  1.00  0.00     0.173 A 
ATOM     79  F   UNL     1      13.374  -9.222   9.347  1.00  0.00    -0.203 F 
ATOM     80  C   UNL     1      11.447 -10.557   9.108  1.00  0.00     0.198 A 
ATOM     81  C   UNL     1      10.465 -10.861   6.940  1.00  0.00     0.198 A 
ATOM     82  F   UNL     1      11.441  -9.840   5.054  1.00  0.00    -0.203 F 
ATOM     83  F   UNL     1      11.461 -10.813  10.423  1.00  0.00    -0.200 F 
ATOM     84  C   UNL     1      10.463 -11.111   8.304  1.00  0.00     0.200 A 
ATOM     85  F   UNL     1       9.510 -11.387   6.161  1.00  0.00    -0.200 F 
ATOM     86  F   UNL     1       9.515 -11.889   8.843  1.00  0.00    -0.200 F 
ENDBRANCH  52  76
BRANCH  64  87
ATOM     87  C   UNL     1      19.336 -10.140   6.262  1.00  0.00     0.064 A 
ATOM     88  C   UNL     1      19.417 -11.279   5.450  1.00  0.00     0.173 A 
ATOM     89  C   UNL     1      20.244 -10.020   7.325  1.00  0.00     0.173 A 
ATOM     90  F   UNL     1      18.561 -11.444   4.431  1.00  0.00    -0.203 F 
ATOM     91  C   UNL     1      20.370 -12.264   5.696  1.00  0.00     0.198 A 
ATOM     92  C   UNL     1      21.211 -10.995   7.553  1.00  0.00     0.198 A 
ATOM     93  F   UNL     1      20.210  -8.944   8.126  1.00  0.00    -0.203 F 
ATOM     94  F   UNL     1      20.415 -13.358   4.923  1.00  0.00    -0.200 F 
ATOM     95  C   UNL     1      21.271 -12.117   6.740  1.00  0.00     0.200 A 
ATOM     96  F   UNL     1      22.090 -10.844   8.554  1.00  0.00    -0.200 F 
ATOM     97  F   UNL     1      22.199 -13.057   6.964  1.00  0.00    -0.200 F 
ENDBRANCH  64  87
ENDBRANCH  38  39
ENDBRANCH  30  33
ENDBRANCH  28  29
ENDBRANCH   1  28
TORSDOF 12
