REMARK SMILES C[C@H](CC(=O)NCCCCNC(=O)c1ccc(-c2c3nc(c(-c4c(F)c(F)c(F)c(F)c4F)c4ccc([nH]4)c(-c4c(F)c(F)c(F)c(F)c4F)c4nc(c(-c5c(F)c(F)c(F)c(F)c5F)c5ccc2[nH]5)C=C4)C=C3)cc1)NC(=O)Cn1nc2ccccn2c1=O
REMARK SMILES IDX 7 1 6 2 4 3 5 4 3 6 2 7 1 8 77 9 78 10 79 12 80 13 81 14
REMARK SMILES IDX 82 15 89 16 83 17 88 18 90 19 84 20 87 21 85 22 86 23 8 24
REMARK SMILES IDX 9 25 10 26 11 27 12 28 13 30 14 31 15 32 76 33 16 34 75 35
REMARK SMILES IDX 17 36 18 37 19 38 69 39 20 40 74 41 68 42 70 43 21 44 73 45
REMARK SMILES IDX 67 46 66 47 22 49 54 50 34 51 53 52 35 53 38 54 52 55 71 56
REMARK SMILES IDX 36 57 37 58 51 60 72 61 39 62 23 63 24 64 32 65 25 66 26 67
REMARK SMILES IDX 30 68 33 69 27 70 28 71 31 72 29 73 55 74 56 75 64 76 57 77
REMARK SMILES IDX 58 78 62 79 65 80 59 81 60 82 63 83 61 84 40 85 41 86 49 87
REMARK SMILES IDX 42 88 43 89 47 90 50 91 44 92 45 93 48 94 46 95
REMARK H PARENT 6 5 77 11 11 29 70 48 38 59
REMARK Flexibility Score: inf
ROOT
ATOM      1  C   UNL     1       2.057   0.084   3.218  1.00  0.00     0.116 C 
ENDROOT
BRANCH   1   2
ATOM      2  N   UNL     1       2.672  -0.126   1.923  1.00  0.00    -0.356 N 
ATOM      3  C   UNL     1       2.084  -0.244   0.699  1.00  0.00     0.222 C 
ATOM      4  O   UNL     1       2.806  -0.408  -0.286  1.00  0.00    -0.275 OA
ATOM      5  H   UNL     1       3.654  -0.193   1.928  1.00  0.00     0.163 HD
BRANCH   3   6
ATOM      6  C   UNL     1       0.576  -0.190   0.574  1.00  0.00     0.124 C 
BRANCH   6   7
ATOM      7  C   UNL     1      -0.034  -1.592   0.523  1.00  0.00     0.088 C 
ATOM      8  C   UNL     1       0.076  -2.398   1.803  1.00  0.00     0.031 C 
BRANCH   7   9
ATOM      9  N   UNL     1      -1.450  -1.539   0.176  1.00  0.00    -0.352 N 
ATOM     10  C   UNL     1      -2.109  -2.415  -0.650  1.00  0.00     0.242 C 
ATOM     11  H   UNL     1      -1.982  -0.809   0.570  1.00  0.00     0.163 HD
ATOM     12  O   UNL     1      -3.341  -2.429  -0.629  1.00  0.00    -0.273 OA
BRANCH  10  13
ATOM     13  C   UNL     1      -1.299  -3.407  -1.488  1.00  0.00     0.249 C 
BRANCH  13  14
ATOM     14  N   UNL     1      -0.443  -2.778  -2.470  1.00  0.00    -0.203 N 
ATOM     15  N   UNL     1      -0.081  -1.445  -2.434  1.00  0.00    -0.149 NA
ATOM     16  C   UNL     1       0.192  -3.419  -3.543  1.00  0.00     0.350 A 
ATOM     17  C   UNL     1       0.703  -1.310  -3.451  1.00  0.00     0.161 A 
ATOM     18  N   UNL     1       0.864  -2.422  -4.202  1.00  0.00    -0.250 N 
ATOM     19  O   UNL     1       0.144  -4.612  -3.826  1.00  0.00    -0.246 OA
ATOM     20  C   UNL     1       1.403  -0.097  -3.889  1.00  0.00     0.050 A 
ATOM     21  C   UNL     1       1.517  -2.433  -5.402  1.00  0.00     0.098 A 
ATOM     22  C   UNL     1       1.637  -0.020  -5.208  1.00  0.00     0.005 A 
ATOM     23  C   UNL     1       1.880  -1.256  -5.940  1.00  0.00     0.019 A 
ENDBRANCH  13  14
ENDBRANCH  10  13
ENDBRANCH   7   9
ENDBRANCH   6   7
ENDBRANCH   3   6
ENDBRANCH   1   2
BRANCH   1  24
ATOM     24  C   UNL     1       2.124  -1.161   4.098  1.00  0.00     0.023 C 
BRANCH  24  25
ATOM     25  C   UNL     1       3.506  -1.498   4.627  1.00  0.00     0.023 C 
BRANCH  25  26
ATOM     26  C   UNL     1       4.113  -0.395   5.467  1.00  0.00     0.116 C 
BRANCH  26  27
ATOM     27  N   UNL     1       3.206   0.073   6.510  1.00  0.00    -0.352 N 
ATOM     28  C   UNL     1       3.428   0.191   7.857  1.00  0.00     0.251 C 
ATOM     29  H   UNL     1       2.310   0.343   6.203  1.00  0.00     0.163 HD
ATOM     30  O   UNL     1       2.502   0.412   8.628  1.00  0.00    -0.269 OA
BRANCH  28  31
ATOM     31  C   UNL     1       4.801   0.025   8.358  1.00  0.00     0.039 A 
ATOM     32  C   UNL     1       5.025  -0.754   9.492  1.00  0.00     0.014 A 
ATOM     33  C   UNL     1       5.867   0.598   7.658  1.00  0.00     0.014 A 
ATOM     34  C   UNL     1       6.335  -1.002   9.891  1.00  0.00     0.010 A 
ATOM     35  C   UNL     1       7.164   0.242   7.979  1.00  0.00     0.010 A 
ATOM     36  C   UNL     1       7.411  -0.533   9.117  1.00  0.00    -0.014 A 
BRANCH  36  37
ATOM     37  C   UNL     1       8.809  -0.810   9.511  1.00  0.00     0.031 A 
ATOM     38  C   UNL     1       9.726   0.332   9.848  1.00  0.00     0.074 A 
ATOM     39  C   UNL     1       9.253  -2.080   9.519  1.00  0.00     0.049 A 
ATOM     40  N   UNL     1      10.978   0.302  10.225  1.00  0.00    -0.248 NA
ATOM     41  C   UNL     1       9.180   1.693   9.703  1.00  0.00     0.031 C 
ATOM     42  C   UNL     1       8.472  -3.253   9.120  1.00  0.00     0.029 A 
ATOM     43  N   UNL     1      10.468  -2.598   9.881  1.00  0.00    -0.354 N 
ATOM     44  C   UNL     1      11.365   1.630  10.346  1.00  0.00     0.074 A 
ATOM     45  C   UNL     1      10.247   2.442   9.925  1.00  0.00     0.031 C 
ATOM     46  C   UNL     1       9.210  -4.358   9.311  1.00  0.00     0.029 A 
ATOM     47  C   UNL     1      10.521  -3.968   9.818  1.00  0.00     0.049 A 
ATOM     48  H   UNL     1      11.230  -2.041  10.161  1.00  0.00     0.167 HD
ATOM     49  C   UNL     1      12.535   2.128  10.808  1.00  0.00     0.037 A 
ATOM     50  C   UNL     1      11.515  -4.810  10.155  1.00  0.00     0.037 A 
ATOM     51  C   UNL     1      13.623   1.308  11.264  1.00  0.00     0.049 A 
ATOM     52  C   UNL     1      12.787  -4.234  10.714  1.00  0.00     0.074 A 
ATOM     53  C   UNL     1      14.828   1.698  11.816  1.00  0.00     0.029 A 
ATOM     54  N   UNL     1      13.629  -0.080  11.222  1.00  0.00    -0.354 N 
ATOM     55  N   UNL     1      13.111  -2.979  10.912  1.00  0.00    -0.248 NA
ATOM     56  C   UNL     1      13.824  -5.193  11.115  1.00  0.00     0.031 C 
ATOM     57  C   UNL     1      15.581   0.547  12.072  1.00  0.00     0.029 A 
ATOM     58  C   UNL     1      14.825  -0.562  11.725  1.00  0.00     0.049 A 
ATOM     59  H   UNL     1      12.892  -0.638  10.884  1.00  0.00     0.167 HD
ATOM     60  C   UNL     1      14.377  -2.996  11.479  1.00  0.00     0.074 A 
ATOM     61  C   UNL     1      14.750  -4.390  11.618  1.00  0.00     0.031 C 
ATOM     62  C   UNL     1      15.165  -1.956  11.850  1.00  0.00     0.037 A 
BRANCH  49  63
ATOM     63  C   UNL     1      12.681   3.622  10.857  1.00  0.00     0.064 A 
ATOM     64  C   UNL     1      11.932   4.406  11.750  1.00  0.00     0.173 A 
ATOM     65  C   UNL     1      13.586   4.278  10.011  1.00  0.00     0.173 A 
ATOM     66  F   UNL     1      11.037   3.830  12.568  1.00  0.00    -0.203 F 
ATOM     67  C   UNL     1      12.061   5.792  11.771  1.00  0.00     0.198 A 
ATOM     68  C   UNL     1      13.736   5.662  10.058  1.00  0.00     0.198 A 
ATOM     69  F   UNL     1      14.325   3.579   9.137  1.00  0.00    -0.203 F 
ATOM     70  F   UNL     1      11.292   6.522  12.591  1.00  0.00    -0.200 F 
ATOM     71  C   UNL     1      12.968   6.418  10.930  1.00  0.00     0.200 A 
ATOM     72  F   UNL     1      14.619   6.266   9.251  1.00  0.00    -0.200 F 
ATOM     73  F   UNL     1      13.094   7.752  10.954  1.00  0.00    -0.200 F 
ENDBRANCH  49  63
BRANCH  50  74
ATOM     74  C   UNL     1      11.320  -6.277  10.032  1.00  0.00     0.064 A 
ATOM     75  C   UNL     1      11.206  -7.086  11.172  1.00  0.00     0.173 A 
ATOM     76  C   UNL     1      11.236  -6.902   8.779  1.00  0.00     0.173 A 
ATOM     77  F   UNL     1      11.294  -6.537  12.392  1.00  0.00    -0.203 F 
ATOM     78  C   UNL     1      11.040  -8.465  11.064  1.00  0.00     0.198 A 
ATOM     79  C   UNL     1      11.041  -8.277   8.672  1.00  0.00     0.198 A 
ATOM     80  F   UNL     1      11.327  -6.172   7.658  1.00  0.00    -0.203 F 
ATOM     81  F   UNL     1      10.978  -9.218  12.170  1.00  0.00    -0.200 F 
ATOM     82  C   UNL     1      10.952  -9.059   9.814  1.00  0.00     0.200 A 
ATOM     83  F   UNL     1      10.940  -8.845   7.463  1.00  0.00    -0.200 F 
ATOM     84  F   UNL     1      10.787 -10.385   9.711  1.00  0.00    -0.200 F 
ENDBRANCH  50  74
BRANCH  62  85
ATOM     85  C   UNL     1      16.494  -2.296  12.458  1.00  0.00     0.064 A 
ATOM     86  C   UNL     1      17.538  -2.829  11.689  1.00  0.00     0.173 A 
ATOM     87  C   UNL     1      16.730  -2.063  13.821  1.00  0.00     0.173 A 
ATOM     88  F   UNL     1      17.355  -3.081  10.384  1.00  0.00    -0.203 F 
ATOM     89  C   UNL     1      18.760  -3.152  12.271  1.00  0.00     0.198 A 
ATOM     90  C   UNL     1      17.963  -2.357  14.393  1.00  0.00     0.198 A 
ATOM     91  F   UNL     1      15.765  -1.545  14.596  1.00  0.00    -0.203 F 
ATOM     92  F   UNL     1      19.724  -3.716  11.531  1.00  0.00    -0.200 F 
ATOM     93  C   UNL     1      18.973  -2.911  13.620  1.00  0.00     0.200 A 
ATOM     94  F   UNL     1      18.174  -2.109  15.693  1.00  0.00    -0.200 F 
ATOM     95  F   UNL     1      20.151  -3.221  14.179  1.00  0.00    -0.200 F 
ENDBRANCH  62  85
ENDBRANCH  36  37
ENDBRANCH  28  31
ENDBRANCH  26  27
ENDBRANCH  25  26
ENDBRANCH  24  25
ENDBRANCH   1  24
TORSDOF 15
