REMARK SMILES C/C=C/C(=O)N1CC[C@H](C(=O)NCCCCNC(=O)c2ccc(-c3c4nc(c(-c5c(F)c(F)c(F)c(F)c5F)c5ccc([nH]5)c(-c5c(F)c(F)c(F)c(F)c5F)c5nc(c(-c6c(F)c(F)c(F)c(F)c6F)c6ccc3[nH]6)C=C5)C=C4)cc2)[C@H]1C
REMARK SMILES IDX 14 1 13 2 12 3 10 4 11 5 9 7 6 8 7 9 83 10 8 11 84 12 4 13
REMARK SMILES IDX 5 14 3 15 1 16 2 17 15 18 16 19 17 20 18 21 19 23 20 24
REMARK SMILES IDX 21 25 82 26 22 27 81 28 23 29 24 30 25 31 75 32 26 33 80 34
REMARK SMILES IDX 74 35 76 36 27 37 79 38 73 39 72 40 28 42 60 43 40 44 59 45
REMARK SMILES IDX 41 46 44 47 58 48 77 49 42 50 43 51 57 53 78 54 45 55 29 56
REMARK SMILES IDX 30 57 38 58 31 59 32 60 36 61 39 62 33 63 34 64 37 65 35 66
REMARK SMILES IDX 61 67 62 68 70 69 63 70 64 71 68 72 71 73 65 74 66 75 69 76
REMARK SMILES IDX 67 77 46 78 47 79 55 80 48 81 49 82 53 83 56 84 50 85 51 86
REMARK SMILES IDX 54 87 52 88
REMARK H PARENT 12 6 17 22 76 41 44 52
REMARK Flexibility Score: inf
ROOT
ATOM      1  C   UNL     1      -2.209   7.284   0.682  1.00  0.00     0.023 C 
ENDROOT
BRANCH   1   2
ATOM      2  C   UNL     1      -0.840   6.721   0.304  1.00  0.00     0.116 C 
BRANCH   2   3
ATOM      3  N   UNL     1       0.204   7.164   1.202  1.00  0.00    -0.356 N 
ATOM      4  C   UNL     1       0.804   6.562   2.258  1.00  0.00     0.225 C 
ATOM      5  O   UNL     1       1.729   7.190   2.788  1.00  0.00    -0.275 OA
ATOM      6  H   UNL     1       0.542   8.069   1.010  1.00  0.00     0.163 HD
BRANCH   4   7
ATOM      7  C   UNL     1       0.417   5.197   2.817  1.00  0.00     0.102 C 
ATOM      8  N   UNL     1      -0.717   3.539   1.537  1.00  0.00    -0.336 N 
ATOM      9  C   UNL     1      -1.730   4.158   2.369  1.00  0.00     0.121 C 
ATOM     10  C   UNL     1       0.638   4.007   1.870  1.00  0.00     0.094 C 
ATOM     11  C   UNL     1      -1.007   5.065   3.343  1.00  0.00     0.037 C 
ATOM     12  C   UNL     1       1.485   2.938   2.565  1.00  0.00     0.032 C 
BRANCH   8  13
ATOM     13  C   UNL     1      -1.118   2.907   0.379  1.00  0.00     0.246 C 
ATOM     14  O   UNL     1      -2.232   3.060  -0.118  1.00  0.00    -0.270 OA
BRANCH  13  15
ATOM     15  C   UNL     1      -0.171   1.990  -0.286  1.00  0.00     0.067 C 
ATOM     16  C   UNL     1       0.950  -0.253  -0.272  1.00  0.00     0.036 C 
ATOM     17  C   UNL     1       0.165   0.854   0.344  1.00  0.00    -0.025 C 
ENDBRANCH  13  15
ENDBRANCH   8  13
ENDBRANCH   4   7
ENDBRANCH   2   3
ENDBRANCH   1   2
BRANCH   1  18
ATOM     18  C   UNL     1      -2.474   8.704   0.181  1.00  0.00     0.023 C 
BRANCH  18  19
ATOM     19  C   UNL     1      -2.439   8.870  -1.335  1.00  0.00     0.116 C 
BRANCH  19  20
ATOM     20  N   UNL     1      -3.376   8.014  -2.045  1.00  0.00    -0.352 N 
ATOM     21  C   UNL     1      -4.005   8.255  -3.247  1.00  0.00     0.251 C 
ATOM     22  H   UNL     1      -3.587   7.155  -1.613  1.00  0.00     0.163 HD
ATOM     23  O   UNL     1      -4.843   7.487  -3.686  1.00  0.00    -0.269 OA
BRANCH  21  24
ATOM     24  C   UNL     1      -3.679   9.497  -3.982  1.00  0.00     0.039 A 
ATOM     25  C   UNL     1      -4.724  10.329  -4.389  1.00  0.00     0.014 A 
ATOM     26  C   UNL     1      -2.350   9.857  -4.218  1.00  0.00     0.014 A 
ATOM     27  C   UNL     1      -4.432  11.565  -4.968  1.00  0.00     0.010 A 
ATOM     28  C   UNL     1      -2.061  11.117  -4.730  1.00  0.00     0.010 A 
ATOM     29  C   UNL     1      -3.098  11.985  -5.104  1.00  0.00    -0.014 A 
BRANCH  29  30
ATOM     30  C   UNL     1      -2.766  13.333  -5.625  1.00  0.00     0.031 A 
ATOM     31  C   UNL     1      -2.023  13.477  -6.922  1.00  0.00     0.074 A 
ATOM     32  C   UNL     1      -3.066  14.422  -4.891  1.00  0.00     0.049 A 
ATOM     33  N   UNL     1      -1.575  14.560  -7.504  1.00  0.00    -0.248 NA
ATOM     34  C   UNL     1      -1.717  12.234  -7.647  1.00  0.00     0.031 C 
ATOM     35  C   UNL     1      -3.735  14.407  -3.589  1.00  0.00     0.029 A 
ATOM     36  N   UNL     1      -2.834  15.753  -5.130  1.00  0.00    -0.354 N 
ATOM     37  C   UNL     1      -0.921  14.129  -8.649  1.00  0.00     0.074 A 
ATOM     38  C   UNL     1      -0.985  12.684  -8.656  1.00  0.00     0.031 C 
ATOM     39  C   UNL     1      -3.879  15.669  -3.154  1.00  0.00     0.029 A 
ATOM     40  C   UNL     1      -3.284  16.579  -4.128  1.00  0.00     0.049 A 
ATOM     41  H   UNL     1      -2.387  16.085  -5.942  1.00  0.00     0.167 HD
ATOM     42  C   UNL     1      -0.341  14.873  -9.620  1.00  0.00     0.037 A 
ATOM     43  C   UNL     1      -3.220  17.918  -4.010  1.00  0.00     0.037 A 
ATOM     44  C   UNL     1      -0.307  16.312  -9.626  1.00  0.00     0.049 A 
ATOM     45  C   UNL     1      -2.582  18.723  -5.110  1.00  0.00     0.074 A 
ATOM     46  C   UNL     1       0.198  17.160 -10.596  1.00  0.00     0.029 A 
ATOM     47  N   UNL     1      -0.801  17.116  -8.609  1.00  0.00    -0.354 N 
ATOM     48  N   UNL     1      -2.030  18.309  -6.224  1.00  0.00    -0.248 NA
ATOM     49  C   UNL     1      -2.566  20.182  -4.938  1.00  0.00     0.031 C 
ATOM     50  C   UNL     1       0.043  18.477 -10.149  1.00  0.00     0.029 A 
ATOM     51  C   UNL     1      -0.597  18.451  -8.921  1.00  0.00     0.049 A 
ATOM     52  H   UNL     1      -1.232  16.787  -7.788  1.00  0.00     0.167 HD
ATOM     53  C   UNL     1      -1.625  19.453  -6.897  1.00  0.00     0.074 A 
ATOM     54  C   UNL     1      -2.007  20.580  -6.073  1.00  0.00     0.031 C 
ATOM     55  C   UNL     1      -0.993  19.560  -8.092  1.00  0.00     0.037 A 
BRANCH  42  56
ATOM     56  C   UNL     1       0.299  14.141 -10.763  1.00  0.00     0.064 A 
ATOM     57  C   UNL     1      -0.469  13.460 -11.720  1.00  0.00     0.173 A 
ATOM     58  C   UNL     1       1.693  14.143 -10.920  1.00  0.00     0.173 A 
ATOM     59  F   UNL     1      -1.805  13.417 -11.607  1.00  0.00    -0.203 F 
ATOM     60  C   UNL     1       0.137  12.782 -12.774  1.00  0.00     0.198 A 
ATOM     61  C   UNL     1       2.294  13.488 -11.992  1.00  0.00     0.198 A 
ATOM     62  F   UNL     1       2.473  14.783 -10.036  1.00  0.00    -0.203 F 
ATOM     63  F   UNL     1      -0.614  12.096 -13.647  1.00  0.00    -0.200 F 
ATOM     64  C   UNL     1       1.516  12.802 -12.913  1.00  0.00     0.200 A 
ATOM     65  F   UNL     1       3.626  13.517 -12.132  1.00  0.00    -0.200 F 
ATOM     66  F   UNL     1       2.098  12.153 -13.931  1.00  0.00    -0.200 F 
ENDBRANCH  42  56
BRANCH  43  67
ATOM     67  C   UNL     1      -3.806  18.586  -2.820  1.00  0.00     0.064 A 
ATOM     68  C   UNL     1      -4.977  19.349  -2.931  1.00  0.00     0.173 A 
ATOM     69  C   UNL     1      -3.214  18.479  -1.554  1.00  0.00     0.173 A 
ATOM     70  F   UNL     1      -5.568  19.498  -4.126  1.00  0.00    -0.203 F 
ATOM     71  C   UNL     1      -5.523  19.995  -1.824  1.00  0.00     0.198 A 
ATOM     72  C   UNL     1      -3.775  19.104  -0.442  1.00  0.00     0.198 A 
ATOM     73  F   UNL     1      -2.095  17.756  -1.395  1.00  0.00    -0.203 F 
ATOM     74  F   UNL     1      -6.619  20.752  -1.966  1.00  0.00    -0.200 F 
ATOM     75  C   UNL     1      -4.925  19.867  -0.579  1.00  0.00     0.200 A 
ATOM     76  F   UNL     1      -3.201  18.968   0.761  1.00  0.00    -0.200 F 
ATOM     77  F   UNL     1      -5.452  20.485   0.486  1.00  0.00    -0.200 F 
ENDBRANCH  43  67
BRANCH  55  78
ATOM     78  C   UNL     1      -0.705  20.943  -8.594  1.00  0.00     0.064 A 
ATOM     79  C   UNL     1       0.302  21.736  -8.027  1.00  0.00     0.173 A 
ATOM     80  C   UNL     1      -1.419  21.464  -9.684  1.00  0.00     0.173 A 
ATOM     81  F   UNL     1       1.001  21.288  -6.973  1.00  0.00    -0.203 F 
ATOM     82  C   UNL     1       0.570  23.011  -8.518  1.00  0.00     0.198 A 
ATOM     83  C   UNL     1      -1.130  22.728 -10.190  1.00  0.00     0.198 A 
ATOM     84  F   UNL     1      -2.388  20.742 -10.265  1.00  0.00    -0.203 F 
ATOM     85  F   UNL     1       1.508  23.769  -7.934  1.00  0.00    -0.200 F 
ATOM     86  C   UNL     1      -0.140  23.503  -9.603  1.00  0.00     0.200 A 
ATOM     87  F   UNL     1      -1.809  23.197 -11.246  1.00  0.00    -0.200 F 
ATOM     88  F   UNL     1       0.124  24.727 -10.080  1.00  0.00    -0.200 F 
ENDBRANCH  55  78
ENDBRANCH  29  30
ENDBRANCH  21  24
ENDBRANCH  19  20
ENDBRANCH  18  19
ENDBRANCH   1  18
TORSDOF 13
