REMARK SMILES O=C(NCCCCNC(=O)[C@H]1[C@@H](C(=O)NNC(=O)c2ccccc2Cl)[C@H]2C=C[C@@H]1C2)c1ccc(-c2c3nc(c(-c4c(F)c(F)c(F)c(F)c4F)c4ccc([nH]4)c(-c4c(F)c(F)c(F)c(F)c4F)c4nc(c(-c5c(F)c(F)c(F)c(F)c5F)c5ccc2[nH]5)C=C4)C=C3)cc1
REMARK SMILES IDX 6 1 5 2 4 3 3 4 1 5 2 6 31 8 32 9 93 10 33 11 92 12 34 13
REMARK SMILES IDX 35 14 36 15 86 16 37 17 91 18 85 19 87 20 38 21 90 22 84 23
REMARK SMILES IDX 83 24 39 26 71 27 51 28 70 29 52 30 55 31 69 32 88 33 53 34
REMARK SMILES IDX 54 35 68 37 89 38 56 39 40 40 41 41 49 42 42 43 43 44 47 45
REMARK SMILES IDX 50 46 44 47 45 48 48 49 46 50 72 51 73 52 81 53 74 54 75 55
REMARK SMILES IDX 79 56 82 57 76 58 77 59 80 60 78 61 57 62 58 63 66 64 59 65
REMARK SMILES IDX 60 66 64 67 67 68 61 69 62 70 65 71 63 72 7 73 8 74 9 75
REMARK SMILES IDX 10 77 11 78 12 79 29 80 26 81 28 82 30 83 27 84 13 85 14 86
REMARK SMILES IDX 15 87 16 89 17 90 18 92 19 93 20 94 24 95 21 96 23 97 25 98
REMARK SMILES IDX 22 99
REMARK H PARENT 3 7 87 25 55 36 8 76 15 88 16 91
REMARK Flexibility Score: inf
ROOT
ATOM      1  C   UNL     1       7.939   7.226  -7.275  1.00  0.00     0.023 C 
ENDROOT
BRANCH   1   2
ATOM      2  C   UNL     1       7.946   6.949  -8.761  1.00  0.00     0.023 C 
BRANCH   2   3
ATOM      3  C   UNL     1       7.262   8.048  -9.544  1.00  0.00     0.116 C 
BRANCH   3   4
ATOM      4  N   UNL     1       8.055   9.279  -9.593  1.00  0.00    -0.352 N 
ATOM      5  O   UNL     1       9.560  10.777 -10.377  1.00  0.00    -0.269 OA
ATOM      6  C   UNL     1       8.819   9.821 -10.601  1.00  0.00     0.251 C 
ATOM      7  H   UNL     1       8.039   9.808  -8.763  1.00  0.00     0.163 HD
BRANCH   6   8
ATOM      8  C   UNL     1       8.778   9.229 -11.953  1.00  0.00     0.039 A 
ATOM      9  C   UNL     1       7.585   8.708 -12.428  1.00  0.00     0.014 A 
ATOM     10  C   UNL     1       9.930   9.153 -12.743  1.00  0.00     0.014 A 
ATOM     11  C   UNL     1       7.601   7.851 -13.507  1.00  0.00     0.010 A 
ATOM     12  C   UNL     1       9.886   8.473 -13.968  1.00  0.00     0.010 A 
ATOM     13  C   UNL     1       8.727   7.779 -14.340  1.00  0.00    -0.014 A 
BRANCH  13  14
ATOM     14  C   UNL     1       8.565   7.049 -15.624  1.00  0.00     0.031 A 
ATOM     15  C   UNL     1       9.425   5.874 -15.985  1.00  0.00     0.074 A 
ATOM     16  C   UNL     1       7.523   7.404 -16.406  1.00  0.00     0.049 A 
ATOM     17  N   UNL     1       9.344   5.097 -17.036  1.00  0.00    -0.248 NA
ATOM     18  C   UNL     1      10.524   5.529 -15.072  1.00  0.00     0.031 C 
ATOM     19  C   UNL     1       6.636   8.548 -16.151  1.00  0.00     0.029 A 
ATOM     20  N   UNL     1       6.974   6.813 -17.513  1.00  0.00    -0.354 N 
ATOM     21  C   UNL     1      10.398   4.200 -16.932  1.00  0.00     0.074 A 
ATOM     22  C   UNL     1      11.113   4.530 -15.718  1.00  0.00     0.031 C 
ATOM     23  C   UNL     1       5.588   8.491 -16.978  1.00  0.00     0.029 A 
ATOM     24  C   UNL     1       5.795   7.396 -17.913  1.00  0.00     0.049 A 
ATOM     25  H   UNL     1       7.384   6.046 -17.976  1.00  0.00     0.167 HD
ATOM     26  C   UNL     1      10.731   3.200 -17.782  1.00  0.00     0.037 A 
ATOM     27  C   UNL     1       4.978   7.105 -18.941  1.00  0.00     0.037 A 
ATOM     28  C   UNL     1       9.988   2.874 -18.974  1.00  0.00     0.049 A 
ATOM     29  C   UNL     1       5.365   5.977 -19.846  1.00  0.00     0.074 A 
ATOM     30  C   UNL     1      10.248   1.892 -19.915  1.00  0.00     0.029 A 
ATOM     31  N   UNL     1       8.827   3.518 -19.382  1.00  0.00    -0.354 N 
ATOM     32  N   UNL     1       6.390   5.164 -19.754  1.00  0.00    -0.248 NA
ATOM     33  C   UNL     1       4.505   5.742 -21.009  1.00  0.00     0.031 C 
ATOM     34  C   UNL     1       9.264   1.964 -20.908  1.00  0.00     0.029 A 
ATOM     35  C   UNL     1       8.364   2.960 -20.564  1.00  0.00     0.049 A 
ATOM     36  H   UNL     1       8.397   4.263 -18.903  1.00  0.00     0.167 HD
ATOM     37  C   UNL     1       6.310   4.332 -20.858  1.00  0.00     0.074 A 
ATOM     38  C   UNL     1       5.105   4.704 -21.573  1.00  0.00     0.031 C 
ATOM     39  C   UNL     1       7.169   3.364 -21.259  1.00  0.00     0.037 A 
BRANCH  26  40
ATOM     40  C   UNL     1      11.964   2.399 -17.476  1.00  0.00     0.064 A 
ATOM     41  C   UNL     1      11.999   1.462 -16.433  1.00  0.00     0.173 A 
ATOM     42  C   UNL     1      13.110   2.528 -18.278  1.00  0.00     0.173 A 
ATOM     43  F   UNL     1      10.938   1.311 -15.627  1.00  0.00    -0.203 F 
ATOM     44  C   UNL     1      13.136   0.692 -16.198  1.00  0.00     0.198 A 
ATOM     45  C   UNL     1      14.237   1.740 -18.055  1.00  0.00     0.198 A 
ATOM     46  F   UNL     1      13.131   3.409 -19.290  1.00  0.00    -0.203 F 
ATOM     47  F   UNL     1      13.157  -0.174 -15.175  1.00  0.00    -0.200 F 
ATOM     48  C   UNL     1      14.250   0.825 -17.014  1.00  0.00     0.200 A 
ATOM     49  F   UNL     1      15.308   1.863 -18.851  1.00  0.00    -0.200 F 
ATOM     50  F   UNL     1      15.339   0.074 -16.793  1.00  0.00    -0.200 F 
ENDBRANCH  26  40
BRANCH  27  51
ATOM     51  C   UNL     1       3.766   7.930 -19.186  1.00  0.00     0.064 A 
ATOM     52  C   UNL     1       2.479   7.388 -19.076  1.00  0.00     0.173 A 
ATOM     53  C   UNL     1       3.872   9.292 -19.513  1.00  0.00     0.173 A 
ATOM     54  F   UNL     1       2.322   6.088 -18.784  1.00  0.00    -0.203 F 
ATOM     55  C   UNL     1       1.347   8.172 -19.296  1.00  0.00     0.198 A 
ATOM     56  C   UNL     1       2.741  10.083 -19.691  1.00  0.00     0.198 A 
ATOM     57  F   UNL     1       5.080   9.865 -19.624  1.00  0.00    -0.203 F 
ATOM     58  F   UNL     1       0.129   7.619 -19.228  1.00  0.00    -0.200 F 
ATOM     59  C   UNL     1       1.479   9.521 -19.592  1.00  0.00     0.200 A 
ATOM     60  F   UNL     1       2.876  11.391 -19.949  1.00  0.00    -0.200 F 
ATOM     61  F   UNL     1       0.390  10.277 -19.785  1.00  0.00    -0.200 F 
ENDBRANCH  27  51
BRANCH  39  62
ATOM     62  C   UNL     1       6.817   2.655 -22.532  1.00  0.00     0.064 A 
ATOM     63  C   UNL     1       6.933   3.292 -23.776  1.00  0.00     0.173 A 
ATOM     64  C   UNL     1       6.345   1.336 -22.505  1.00  0.00     0.173 A 
ATOM     65  F   UNL     1       7.360   4.562 -23.847  1.00  0.00    -0.203 F 
ATOM     66  C   UNL     1       6.552   2.645 -24.947  1.00  0.00     0.198 A 
ATOM     67  C   UNL     1       5.992   0.682 -23.680  1.00  0.00     0.198 A 
ATOM     68  F   UNL     1       6.219   0.686 -21.338  1.00  0.00    -0.203 F 
ATOM     69  F   UNL     1       6.609   3.294 -26.118  1.00  0.00    -0.200 F 
ATOM     70  C   UNL     1       6.085   1.340 -24.898  1.00  0.00     0.200 A 
ATOM     71  F   UNL     1       5.547  -0.582 -23.634  1.00  0.00    -0.200 F 
ATOM     72  F   UNL     1       5.709   0.720 -26.025  1.00  0.00    -0.200 F 
ENDBRANCH  39  62
ENDBRANCH  13  14
ENDBRANCH   6   8
ENDBRANCH   3   4
ENDBRANCH   2   3
ENDBRANCH   1   2
BRANCH   1  73
ATOM     73  C   UNL     1       6.581   7.005  -6.626  1.00  0.00     0.116 C 
BRANCH  73  74
ATOM     74  N   UNL     1       6.306   5.598  -6.412  1.00  0.00    -0.356 N 
ATOM     75  C   UNL     1       6.196   4.834  -5.303  1.00  0.00     0.224 C 
ATOM     76  H   UNL     1       6.173   5.095  -7.247  1.00  0.00     0.163 HD
ATOM     77  O   UNL     1       5.996   3.629  -5.507  1.00  0.00    -0.275 OA
BRANCH  75  78
ATOM     78  C   UNL     1       6.237   5.320  -3.858  1.00  0.00     0.098 C 
ATOM     79  C   UNL     1       7.299   6.304  -3.312  1.00  0.00     0.100 C 
ATOM     80  C   UNL     1       4.902   5.922  -3.330  1.00  0.00     0.025 C 
ATOM     81  C   UNL     1       6.425   7.458  -2.729  1.00  0.00     0.025 C 
ATOM     82  C   UNL     1       4.565   7.180  -4.078  1.00  0.00    -0.027 C 
ATOM     83  C   UNL     1       5.364   6.595  -2.022  1.00  0.00     0.017 C 
ATOM     84  C   UNL     1       5.480   8.097  -3.727  1.00  0.00    -0.027 C 
BRANCH  79  85
ATOM     85  C   UNL     1       8.532   6.652  -4.117  1.00  0.00     0.242 C 
ATOM     86  O   UNL     1       8.884   7.812  -4.320  1.00  0.00    -0.273 OA
ATOM     87  N   UNL     1       9.294   5.545  -4.479  1.00  0.00    -0.267 N 
ATOM     88  H   UNL     1       8.993   4.636  -4.250  1.00  0.00     0.191 HD
BRANCH  87  89
ATOM     89  N   UNL     1      10.499   5.741  -5.173  1.00  0.00    -0.263 N 
ATOM     90  C   UNL     1      10.869   4.821  -6.130  1.00  0.00     0.271 C 
ATOM     91  H   UNL     1      11.068   6.521  -4.981  1.00  0.00     0.191 HD
ATOM     92  O   UNL     1      10.728   3.614  -5.935  1.00  0.00    -0.267 OA
BRANCH  90  93
ATOM     93  C   UNL     1      11.248   5.328  -7.490  1.00  0.00     0.060 A 
ATOM     94  C   UNL     1      11.008   4.424  -8.549  1.00  0.00     0.015 A 
ATOM     95  C   UNL     1      11.667   6.626  -7.812  1.00  0.00     0.053 A 
ATOM     96  C   UNL     1      11.153   4.805  -9.886  1.00  0.00     0.001 A 
ATOM     97  C   UNL     1      11.806   7.007  -9.161  1.00  0.00     0.021 A 
ATOM     98  Cl  UNL     1      12.052   7.829  -6.635  1.00  0.00    -0.083 Cl
ATOM     99  C   UNL     1      11.544   6.103 -10.193  1.00  0.00     0.002 A 
ENDBRANCH  90  93
ENDBRANCH  87  89
ENDBRANCH  79  85
ENDBRANCH  75  78
ENDBRANCH  73  74
ENDBRANCH   1  73
TORSDOF 14
