REMARK SMILES Cc1cscc1C(=O)NC1(C(=O)NCCCCNC(=O)c2ccc(-c3c4nc(c(-c5c(F)c(F)c(F)c(F)c5F)c5ccc([nH]5)c(-c5c(F)c(F)c(F)c(F)c5F)c5nc(c(-c6c(F)c(F)c(F)c(F)c6F)c6ccc3[nH]6)C=C5)C=C4)cc2)CCCC1
REMARK SMILES IDX 15 1 14 2 13 3 11 4 12 5 10 7 84 8 87 9 85 10 86 11 9 12
REMARK SMILES IDX 7 13 8 14 6 16 1 17 2 18 3 19 4 20 5 21 16 22 17 23 18 24
REMARK SMILES IDX 19 25 20 27 21 28 22 29 83 30 23 31 82 32 24 33 25 34 26 35
REMARK SMILES IDX 76 36 27 37 81 38 75 39 77 40 28 41 80 42 74 43 73 44 29 46
REMARK SMILES IDX 61 47 41 48 60 49 42 50 45 51 59 52 78 53 43 54 44 55 58 57
REMARK SMILES IDX 79 58 46 59 30 60 31 61 39 62 32 63 33 64 37 65 40 66 34 67
REMARK SMILES IDX 35 68 38 69 36 70 62 71 63 72 71 73 64 74 65 75 69 76 72 77
REMARK SMILES IDX 66 78 67 79 70 80 68 81 47 82 48 83 56 84 49 85 50 86 54 87
REMARK SMILES IDX 57 88 51 89 52 90 55 91 53 92
REMARK H PARENT 13 6 9 15 18 26 77 45 45 56
REMARK Flexibility Score: inf
ROOT
ATOM      1  C   UNL     1       7.226  -0.983   0.625  1.00  0.00     0.023 C 
ENDROOT
BRANCH   1   2
ATOM      2  C   UNL     1       5.764  -0.837   1.033  1.00  0.00     0.116 C 
BRANCH   2   3
ATOM      3  N   UNL     1       5.404   0.528   1.323  1.00  0.00    -0.354 N 
ATOM      4  C   UNL     1       4.462   1.361   0.817  1.00  0.00     0.245 C 
ATOM      5  O   UNL     1       4.432   2.480   1.353  1.00  0.00    -0.272 OA
ATOM      6  H   UNL     1       5.952   0.938   2.031  1.00  0.00     0.163 HD
BRANCH   4   7
ATOM      7  C   UNL     1       3.567   1.091  -0.451  1.00  0.00     0.119 C 
ATOM      8  C   UNL     1       3.140  -0.318  -0.824  1.00  0.00     0.038 C 
ATOM      9  C   UNL     1       4.382   1.549  -1.683  1.00  0.00     0.038 C 
ATOM     10  C   UNL     1       3.998  -0.803  -1.992  1.00  0.00     0.003 C 
ATOM     11  C   UNL     1       5.015   0.288  -2.251  1.00  0.00     0.003 C 
BRANCH   7  12
ATOM     12  N   UNL     1       2.416   2.018  -0.256  1.00  0.00    -0.338 N 
ATOM     13  C   UNL     1       1.290   1.927   0.536  1.00  0.00     0.253 C 
ATOM     14  O   UNL     1       1.084   2.874   1.298  1.00  0.00    -0.269 OA
ATOM     15  H   UNL     1       2.468   2.843  -0.790  1.00  0.00     0.164 HD
BRANCH  13  16
ATOM     16  C   UNL     1       0.194   0.992   0.239  1.00  0.00     0.053 A 
ATOM     17  C   UNL     1       0.938  -1.412   1.096  1.00  0.00     0.046 C 
ATOM     18  C   UNL     1      -0.001  -0.432   0.480  1.00  0.00    -0.028 A 
ATOM     19  C   UNL     1      -1.264  -0.844   0.079  1.00  0.00     0.069 A 
ATOM     20  S   UNL     1      -2.254   0.429  -0.452  1.00  0.00    -0.151 S 
ATOM     21  C   UNL     1      -1.003   1.552  -0.200  1.00  0.00     0.079 A 
ENDBRANCH  13  16
ENDBRANCH   7  12
ENDBRANCH   4   7
ENDBRANCH   2   3
ENDBRANCH   1   2
BRANCH   1  22
ATOM     22  C   UNL     1       8.183  -1.252   1.780  1.00  0.00     0.023 C 
BRANCH  22  23
ATOM     23  C   UNL     1       7.827  -2.450   2.652  1.00  0.00     0.116 C 
BRANCH  23  24
ATOM     24  N   UNL     1       7.662  -3.694   1.912  1.00  0.00    -0.352 N 
ATOM     25  C   UNL     1       8.148  -4.948   2.224  1.00  0.00     0.251 C 
ATOM     26  H   UNL     1       7.137  -3.632   1.081  1.00  0.00     0.163 HD
ATOM     27  O   UNL     1       8.003  -5.887   1.465  1.00  0.00    -0.269 OA
BRANCH  25  28
ATOM     28  C   UNL     1       8.895  -5.107   3.489  1.00  0.00     0.039 A 
ATOM     29  C   UNL     1      10.185  -5.636   3.449  1.00  0.00     0.014 A 
ATOM     30  C   UNL     1       8.357  -4.620   4.682  1.00  0.00     0.014 A 
ATOM     31  C   UNL     1      10.976  -5.592   4.598  1.00  0.00     0.010 A 
ATOM     32  C   UNL     1       9.179  -4.487   5.793  1.00  0.00     0.010 A 
ATOM     33  C   UNL     1      10.497  -4.970   5.763  1.00  0.00    -0.014 A 
BRANCH  33  34
ATOM     34  C   UNL     1      11.357  -4.807   6.962  1.00  0.00     0.031 A 
ATOM     35  C   UNL     1      10.952  -5.439   8.264  1.00  0.00     0.074 A 
ATOM     36  C   UNL     1      12.449  -4.020   6.903  1.00  0.00     0.049 A 
ATOM     37  N   UNL     1      11.519  -5.349   9.440  1.00  0.00    -0.248 NA
ATOM     38  C   UNL     1       9.723  -6.247   8.251  1.00  0.00     0.031 C 
ATOM     39  C   UNL     1      12.905  -3.290   5.719  1.00  0.00     0.029 A 
ATOM     40  N   UNL     1      13.367  -3.690   7.869  1.00  0.00    -0.354 N 
ATOM     41  C   UNL     1      10.702  -6.063  10.306  1.00  0.00     0.074 A 
ATOM     42  C   UNL     1       9.569  -6.527   9.536  1.00  0.00     0.031 C 
ATOM     43  C   UNL     1      14.027  -2.618   6.021  1.00  0.00     0.029 A 
ATOM     44  C   UNL     1      14.351  -2.839   7.427  1.00  0.00     0.049 A 
ATOM     45  H   UNL     1      13.324  -4.030   8.791  1.00  0.00     0.167 HD
ATOM     46  C   UNL     1      10.892  -6.332  11.619  1.00  0.00     0.037 A 
ATOM     47  C   UNL     1      15.394  -2.296   8.083  1.00  0.00     0.037 A 
ATOM     48  C   UNL     1      12.041  -5.903  12.370  1.00  0.00     0.049 A 
ATOM     49  C   UNL     1      15.604  -2.636   9.534  1.00  0.00     0.074 A 
ATOM     50  C   UNL     1      12.377  -6.201  13.678  1.00  0.00     0.029 A 
ATOM     51  N   UNL     1      13.042  -5.078  11.877  1.00  0.00    -0.354 N 
ATOM     52  N   UNL     1      14.876  -3.391  10.320  1.00  0.00    -0.248 NA
ATOM     53  C   UNL     1      16.787  -2.057  10.186  1.00  0.00     0.031 C 
ATOM     54  C   UNL     1      13.555  -5.516  13.993  1.00  0.00     0.029 A 
ATOM     55  C   UNL     1      13.983  -4.835  12.864  1.00  0.00     0.049 A 
ATOM     56  H   UNL     1      13.079  -4.719  10.961  1.00  0.00     0.167 HD
ATOM     57  C   UNL     1      15.522  -3.398  11.549  1.00  0.00     0.074 A 
ATOM     58  C   UNL     1      16.711  -2.585  11.399  1.00  0.00     0.031 C 
ATOM     59  C   UNL     1      15.162  -4.022  12.698  1.00  0.00     0.037 A 
BRANCH  46  60
ATOM     60  C   UNL     1       9.832  -7.130  12.322  1.00  0.00     0.064 A 
ATOM     61  C   UNL     1       9.604  -8.483  12.024  1.00  0.00     0.173 A 
ATOM     62  C   UNL     1       9.042  -6.538  13.319  1.00  0.00     0.173 A 
ATOM     63  F   UNL     1      10.322  -9.094  11.070  1.00  0.00    -0.203 F 
ATOM     64  C   UNL     1       8.599  -9.200  12.667  1.00  0.00     0.198 A 
ATOM     65  C   UNL     1       8.061  -7.268  13.985  1.00  0.00     0.198 A 
ATOM     66  F   UNL     1       9.221  -5.249  13.648  1.00  0.00    -0.203 F 
ATOM     67  F   UNL     1       8.358 -10.471  12.319  1.00  0.00    -0.200 F 
ATOM     68  C   UNL     1       7.833  -8.594  13.651  1.00  0.00     0.200 A 
ATOM     69  F   UNL     1       7.330  -6.684  14.945  1.00  0.00    -0.200 F 
ATOM     70  F   UNL     1       6.867  -9.286  14.271  1.00  0.00    -0.200 F 
ENDBRANCH  46  60
BRANCH  47  71
ATOM     71  C   UNL     1      16.334  -1.398   7.362  1.00  0.00     0.064 A 
ATOM     72  C   UNL     1      17.639  -1.812   7.063  1.00  0.00     0.173 A 
ATOM     73  C   UNL     1      15.944  -0.116   6.946  1.00  0.00     0.173 A 
ATOM     74  F   UNL     1      18.064  -3.021   7.457  1.00  0.00    -0.203 F 
ATOM     75  C   UNL     1      18.524  -0.973   6.388  1.00  0.00     0.198 A 
ATOM     76  C   UNL     1      16.821   0.711   6.247  1.00  0.00     0.198 A 
ATOM     77  F   UNL     1      14.704   0.324   7.202  1.00  0.00    -0.203 F 
ATOM     78  F   UNL     1      19.778  -1.379   6.148  1.00  0.00    -0.200 F 
ATOM     79  C   UNL     1      18.112   0.285   5.974  1.00  0.00     0.200 A 
ATOM     80  F   UNL     1      16.413   1.919   5.835  1.00  0.00    -0.200 F 
ATOM     81  F   UNL     1      18.960   1.088   5.317  1.00  0.00    -0.200 F 
ENDBRANCH  47  71
BRANCH  59  82
ATOM     82  C   UNL     1      16.077  -3.873  13.879  1.00  0.00     0.064 A 
ATOM     83  C   UNL     1      16.183  -2.664  14.580  1.00  0.00     0.173 A 
ATOM     84  C   UNL     1      16.821  -4.970  14.342  1.00  0.00     0.173 A 
ATOM     85  F   UNL     1      15.503  -1.583  14.168  1.00  0.00    -0.203 F 
ATOM     86  C   UNL     1      17.019  -2.551  15.688  1.00  0.00     0.198 A 
ATOM     87  C   UNL     1      17.631  -4.861  15.468  1.00  0.00     0.198 A 
ATOM     88  F   UNL     1      16.749  -6.151  13.710  1.00  0.00    -0.203 F 
ATOM     89  F   UNL     1      17.140  -1.373  16.315  1.00  0.00    -0.200 F 
ATOM     90  C   UNL     1      17.735  -3.651  16.135  1.00  0.00     0.200 A 
ATOM     91  F   UNL     1      18.311  -5.929  15.908  1.00  0.00    -0.200 F 
ATOM     92  F   UNL     1      18.532  -3.542  17.208  1.00  0.00    -0.200 F 
ENDBRANCH  59  82
ENDBRANCH  33  34
ENDBRANCH  25  28
ENDBRANCH  23  24
ENDBRANCH  22  23
ENDBRANCH   1  22
TORSDOF 13
