REMARK SMILES CC(=O)c1c[nH]c(C(=O)N[C@H]2C=C[C@H](C(=O)NCCCCNC(=O)c3ccc(-c4c5nc(c(-c6c(F)c(F)c(F)c(F)c6F)c6ccc([nH]6)c(-c6c(F)c(F)c(F)c(F)c6F)c6nc(c(-c7c(F)c(F)c(F)c(F)c7F)c7ccc4[nH]7)C=C6)C=C5)cc3)C2)c1
REMARK SMILES IDX 19 1 18 2 17 3 15 4 16 5 14 7 11 8 12 9 88 10 13 11 10 12
REMARK SMILES IDX 8 13 9 14 7 16 4 17 5 18 89 19 6 20 2 22 1 23 3 24 20 25
REMARK SMILES IDX 21 26 22 27 23 28 24 30 25 31 26 32 87 33 27 34 86 35 28 36
REMARK SMILES IDX 29 37 30 38 80 39 31 40 85 41 79 42 81 43 32 44 84 45 78 46
REMARK SMILES IDX 77 47 33 49 65 50 45 51 64 52 46 53 49 54 63 55 82 56 47 57
REMARK SMILES IDX 48 58 62 60 83 61 50 62 34 63 35 64 43 65 36 66 37 67 41 68
REMARK SMILES IDX 44 69 38 70 39 71 42 72 40 73 66 74 67 75 75 76 68 77 69 78
REMARK SMILES IDX 73 79 76 80 70 81 71 82 74 83 72 84 51 85 52 86 60 87 53 88
REMARK SMILES IDX 54 89 58 90 61 91 55 92 56 93 59 94 57 95
REMARK H PARENT 17 6 10 15 6 21 22 29 81 48 49 59
REMARK Flexibility Score: inf
ROOT
ATOM      1  C   UNL     1      -2.400   0.558  -1.263  1.00  0.00     0.023 C 
ENDROOT
BRANCH   1   2
ATOM      2  C   UNL     1      -2.368  -0.402  -0.075  1.00  0.00     0.116 C 
BRANCH   2   3
ATOM      3  N   UNL     1      -3.535  -1.268  -0.026  1.00  0.00    -0.356 N 
ATOM      4  C   UNL     1      -3.615  -2.631   0.059  1.00  0.00     0.227 C 
ATOM      5  O   UNL     1      -4.735  -3.143   0.107  1.00  0.00    -0.274 OA
ATOM      6  H   UNL     1      -4.401  -0.801  -0.060  1.00  0.00     0.163 HD
BRANCH   4   7
ATOM      7  C   UNL     1      -2.331  -3.457   0.058  1.00  0.00     0.103 C 
ATOM      8  C   UNL     1      -1.822  -5.587  -1.059  1.00  0.00     0.106 C 
ATOM      9  C   UNL     1      -2.027  -5.769   0.402  1.00  0.00    -0.006 C 
ATOM     10  C   UNL     1      -2.055  -4.093  -1.318  1.00  0.00     0.047 C 
ATOM     11  C   UNL     1      -2.370  -4.624   1.001  1.00  0.00    -0.016 C 
BRANCH   8  12
ATOM     12  N   UNL     1      -0.585  -6.201  -1.507  1.00  0.00    -0.345 N 
ATOM     13  C   UNL     1       0.738  -5.859  -1.570  1.00  0.00     0.268 C 
ATOM     14  O   UNL     1       1.478  -6.623  -2.183  1.00  0.00    -0.268 OA
ATOM     15  H   UNL     1      -0.740  -7.107  -1.861  1.00  0.00     0.164 HD
BRANCH  13  16
ATOM     16  C   UNL     1       1.232  -4.609  -1.050  1.00  0.00     0.105 A 
ATOM     17  C   UNL     1       1.528  -2.582  -0.064  1.00  0.00     0.035 A 
ATOM     18  C   UNL     1       2.383  -2.674  -1.145  1.00  0.00     0.094 A 
ATOM     19  C   UNL     1       0.949  -3.877   0.085  1.00  0.00     0.045 A 
ATOM     20  N   UNL     1       2.259  -3.932  -1.676  1.00  0.00    -0.356 N 
ATOM     21  H   UNL     1       2.819  -4.299  -2.398  1.00  0.00     0.166 HD
BRANCH  17  22
ATOM     22  C   UNL     1       1.232  -1.396   0.736  1.00  0.00     0.161 C 
ATOM     23  C   UNL     1       1.603  -0.047   0.173  1.00  0.00     0.093 C 
ATOM     24  O   UNL     1       0.594  -1.477   1.786  1.00  0.00    -0.294 OA
ENDBRANCH  17  22
ENDBRANCH  13  16
ENDBRANCH   8  12
ENDBRANCH   4   7
ENDBRANCH   2   3
ENDBRANCH   1   2
BRANCH   1  25
ATOM     25  C   UNL     1      -3.575   1.544  -1.276  1.00  0.00     0.023 C 
BRANCH  25  26
ATOM     26  C   UNL     1      -3.600   2.523  -0.097  1.00  0.00     0.116 C 
BRANCH  26  27
ATOM     27  N   UNL     1      -2.496   3.465  -0.177  1.00  0.00    -0.352 N 
ATOM     28  C   UNL     1      -2.272   4.626   0.516  1.00  0.00     0.251 C 
ATOM     29  H   UNL     1      -1.800   3.233  -0.833  1.00  0.00     0.163 HD
ATOM     30  O   UNL     1      -1.511   5.461   0.033  1.00  0.00    -0.269 OA
BRANCH  28  31
ATOM     31  C   UNL     1      -2.913   4.912   1.820  1.00  0.00     0.039 A 
ATOM     32  C   UNL     1      -3.249   6.246   2.102  1.00  0.00     0.014 A 
ATOM     33  C   UNL     1      -3.080   3.930   2.802  1.00  0.00     0.014 A 
ATOM     34  C   UNL     1      -3.808   6.587   3.331  1.00  0.00     0.010 A 
ATOM     35  C   UNL     1      -3.644   4.265   4.034  1.00  0.00     0.010 A 
ATOM     36  C   UNL     1      -4.038   5.588   4.284  1.00  0.00    -0.014 A 
BRANCH  36  37
ATOM     37  C   UNL     1      -4.953   5.880   5.417  1.00  0.00     0.031 A 
ATOM     38  C   UNL     1      -6.450   5.757   4.962  1.00  0.00     0.074 A 
ATOM     39  C   UNL     1      -4.364   6.177   6.619  1.00  0.00     0.049 A 
ATOM     40  N   UNL     1      -7.558   6.168   5.512  1.00  0.00    -0.248 NA
ATOM     41  C   UNL     1      -6.741   5.086   3.656  1.00  0.00     0.031 C 
ATOM     42  C   UNL     1      -2.905   6.236   6.873  1.00  0.00     0.029 A 
ATOM     43  N   UNL     1      -4.851   6.497   7.869  1.00  0.00    -0.354 N 
ATOM     44  C   UNL     1      -8.638   5.643   4.751  1.00  0.00     0.074 A 
ATOM     45  C   UNL     1      -8.071   5.070   3.573  1.00  0.00     0.031 C 
ATOM     46  C   UNL     1      -2.638   6.650   8.134  1.00  0.00     0.029 A 
ATOM     47  C   UNL     1      -3.879   6.882   8.843  1.00  0.00     0.049 A 
ATOM     48  H   UNL     1      -5.813   6.461   8.078  1.00  0.00     0.167 HD
ATOM     49  C   UNL     1      -9.922   5.563   5.212  1.00  0.00     0.037 A 
ATOM     50  C   UNL     1      -4.083   7.415  10.096  1.00  0.00     0.037 A 
ATOM     51  C   UNL     1     -10.028   6.162   6.493  1.00  0.00     0.049 A 
ATOM     52  C   UNL     1      -5.539   7.367  10.252  1.00  0.00     0.074 A 
ATOM     53  C   UNL     1     -10.371   7.386   7.002  1.00  0.00     0.029 A 
ATOM     54  N   UNL     1      -9.672   5.345   7.528  1.00  0.00    -0.354 N 
ATOM     55  N   UNL     1      -6.231   6.290  10.447  1.00  0.00    -0.248 NA
ATOM     56  C   UNL     1      -6.262   8.577   9.882  1.00  0.00     0.031 C 
ATOM     57  C   UNL     1     -10.077   7.314   8.386  1.00  0.00     0.029 A 
ATOM     58  C   UNL     1      -9.350   6.143   8.585  1.00  0.00     0.049 A 
ATOM     59  H   UNL     1      -9.652   4.361   7.513  1.00  0.00     0.167 HD
ATOM     60  C   UNL     1      -7.470   6.618   9.951  1.00  0.00     0.074 A 
ATOM     61  C   UNL     1      -7.463   8.051   9.694  1.00  0.00     0.031 C 
ATOM     62  C   UNL     1      -8.306   5.680   9.447  1.00  0.00     0.037 A 
BRANCH  49  63
ATOM     63  C   UNL     1     -11.110   4.687   4.826  1.00  0.00     0.064 A 
ATOM     64  C   UNL     1     -12.363   4.989   5.431  1.00  0.00     0.173 A 
ATOM     65  C   UNL     1     -10.977   3.379   4.340  1.00  0.00     0.173 A 
ATOM     66  F   UNL     1     -12.647   6.235   5.840  1.00  0.00    -0.203 F 
ATOM     67  C   UNL     1     -13.302   4.004   5.735  1.00  0.00     0.198 A 
ATOM     68  C   UNL     1     -11.960   2.407   4.580  1.00  0.00     0.198 A 
ATOM     69  F   UNL     1      -9.861   2.980   3.718  1.00  0.00    -0.203 F 
ATOM     70  F   UNL     1     -14.370   4.306   6.489  1.00  0.00    -0.200 F 
ATOM     71  C   UNL     1     -13.088   2.704   5.330  1.00  0.00     0.200 A 
ATOM     72  F   UNL     1     -11.768   1.151   4.155  1.00  0.00    -0.200 F 
ATOM     73  F   UNL     1     -13.945   1.737   5.683  1.00  0.00    -0.200 F 
ENDBRANCH  49  63
BRANCH  50  74
ATOM     74  C   UNL     1      -3.320   8.154  11.179  1.00  0.00     0.064 A 
ATOM     75  C   UNL     1      -1.931   8.273  11.274  1.00  0.00     0.173 A 
ATOM     76  C   UNL     1      -4.035   8.914  12.157  1.00  0.00     0.173 A 
ATOM     77  F   UNL     1      -1.125   7.518  10.520  1.00  0.00    -0.203 F 
ATOM     78  C   UNL     1      -1.319   9.179  12.167  1.00  0.00     0.198 A 
ATOM     79  C   UNL     1      -3.436   9.849  13.003  1.00  0.00     0.198 A 
ATOM     80  F   UNL     1      -5.361   8.788  12.312  1.00  0.00    -0.203 F 
ATOM     81  F   UNL     1       0.018   9.273  12.208  1.00  0.00    -0.200 F 
ATOM     82  C   UNL     1      -2.072  10.000  12.992  1.00  0.00     0.200 A 
ATOM     83  F   UNL     1      -4.197  10.616  13.798  1.00  0.00    -0.200 F 
ATOM     84  F   UNL     1      -1.489  10.919  13.774  1.00  0.00    -0.200 F 
ENDBRANCH  50  74
BRANCH  62  85
ATOM     85  C   UNL     1      -7.763   4.264   9.491  1.00  0.00     0.064 A 
ATOM     86  C   UNL     1      -7.810   3.512  10.666  1.00  0.00     0.173 A 
ATOM     87  C   UNL     1      -7.094   3.670   8.399  1.00  0.00     0.173 A 
ATOM     88  F   UNL     1      -8.427   4.004  11.749  1.00  0.00    -0.203 F 
ATOM     89  C   UNL     1      -7.230   2.239  10.738  1.00  0.00     0.198 A 
ATOM     90  C   UNL     1      -6.520   2.401   8.465  1.00  0.00     0.198 A 
ATOM     91  F   UNL     1      -7.017   4.303   7.228  1.00  0.00    -0.203 F 
ATOM     92  F   UNL     1      -7.304   1.538  11.878  1.00  0.00    -0.200 F 
ATOM     93  C   UNL     1      -6.587   1.684   9.640  1.00  0.00     0.200 A 
ATOM     94  F   UNL     1      -5.923   1.876   7.383  1.00  0.00    -0.200 F 
ATOM     95  F   UNL     1      -6.051   0.458   9.710  1.00  0.00    -0.200 F 
ENDBRANCH  62  85
ENDBRANCH  36  37
ENDBRANCH  28  31
ENDBRANCH  26  27
ENDBRANCH  25  26
ENDBRANCH   1  25
TORSDOF 14
