REMARK SMILES Cc1cccc(Nc2ccccc2C(=O)NCCCCNC(=O)c2ccc(-c3c4nc(c(-c5c(F)c(F)c(F)c(F)c5F)c5ccc([nH]5)c(-c5c(F)c(F)c(F)c(F)c5F)c5nc(c(-c6c(F)c(F)c(F)c(F)c6F)c6ccc3[nH]6)C=C5)C=C4)cc2)c1C
REMARK SMILES IDX 18 1 17 2 16 3 14 4 15 5 13 7 8 8 9 9 10 10 12 11 11 12 7 13
REMARK SMILES IDX 6 15 1 16 2 17 3 18 87 19 4 20 88 21 5 22 19 23 20 24 21 25
REMARK SMILES IDX 22 26 23 28 24 29 25 30 86 31 26 32 85 33 27 34 28 35 29 36
REMARK SMILES IDX 79 37 30 38 84 39 78 40 80 41 31 42 83 43 77 44 76 45 32 47
REMARK SMILES IDX 64 48 44 49 63 50 45 51 48 52 62 53 81 54 46 55 47 56 61 58
REMARK SMILES IDX 82 59 49 60 33 61 34 62 42 63 35 64 36 65 40 66 43 67 37 68
REMARK SMILES IDX 38 69 41 70 39 71 65 72 66 73 74 74 67 75 68 76 72 77 75 78
REMARK SMILES IDX 69 79 70 80 73 81 71 82 50 83 51 84 59 85 52 86 53 87 57 88
REMARK SMILES IDX 60 89 54 90 55 91 58 92 56 93
REMARK H PARENT 16 6 7 14 21 27 80 46 48 57
REMARK Flexibility Score: inf
ROOT
ATOM      1  C   UNL     1      -2.751  -2.451   2.446  1.00  0.00     0.023 C 
ENDROOT
BRANCH   1   2
ATOM      2  C   UNL     1      -1.486  -2.315   1.609  1.00  0.00     0.116 C 
BRANCH   2   3
ATOM      3  N   UNL     1      -0.259  -2.179   2.353  1.00  0.00    -0.352 N 
ATOM      4  C   UNL     1       1.018  -2.567   2.018  1.00  0.00     0.253 C 
ATOM      5  O   UNL     1       1.929  -2.177   2.755  1.00  0.00    -0.269 OA
ATOM      6  H   UNL     1      -0.348  -1.743   3.232  1.00  0.00     0.163 HD
BRANCH   4   7
ATOM      7  C   UNL     1       1.354  -3.531   0.920  1.00  0.00     0.063 A 
ATOM      8  C   UNL     1       0.854  -3.582  -0.398  1.00  0.00     0.051 A 
ATOM      9  C   UNL     1       1.269  -4.657  -1.226  1.00  0.00     0.027 A 
ATOM     10  C   UNL     1       2.201  -5.606  -0.809  1.00  0.00     0.002 A 
ATOM     11  C   UNL     1       2.319  -4.493   1.313  1.00  0.00     0.016 A 
ATOM     12  C   UNL     1       2.747  -5.510   0.458  1.00  0.00     0.001 A 
BRANCH   8  13
ATOM     13  N   UNL     1       0.070  -2.614  -1.060  1.00  0.00    -0.355 N 
ATOM     14  H   UNL     1      -0.620  -3.010  -1.640  1.00  0.00     0.167 HD
BRANCH  13  15
ATOM     15  C   UNL     1       0.057  -1.204  -1.077  1.00  0.00     0.042 A 
ATOM     16  C   UNL     1       2.022   1.933  -0.092  1.00  0.00     0.044 C 
ATOM     17  C   UNL     1       0.918   1.016  -0.549  1.00  0.00    -0.046 A 
ATOM     18  C   UNL     1      -0.344   1.568  -0.817  1.00  0.00     0.004 A 
ATOM     19  C   UNL     1       1.142  -0.374  -0.734  1.00  0.00    -0.025 A 
ATOM     20  C   UNL     1      -1.386   0.765  -1.257  1.00  0.00     0.002 A 
ATOM     21  C   UNL     1       2.549  -0.907  -0.616  1.00  0.00     0.047 C 
ATOM     22  C   UNL     1      -1.184  -0.605  -1.382  1.00  0.00     0.026 A 
ENDBRANCH  13  15
ENDBRANCH   8  13
ENDBRANCH   4   7
ENDBRANCH   2   3
ENDBRANCH   1   2
BRANCH   1  23
ATOM     23  C   UNL     1      -3.256  -1.184   3.143  1.00  0.00     0.023 C 
BRANCH  23  24
ATOM     24  C   UNL     1      -3.380   0.092   2.307  1.00  0.00     0.116 C 
BRANCH  24  25
ATOM     25  N   UNL     1      -4.132  -0.052   1.070  1.00  0.00    -0.352 N 
ATOM     26  C   UNL     1      -4.968   0.847   0.443  1.00  0.00     0.251 C 
ATOM     27  H   UNL     1      -4.028  -0.918   0.614  1.00  0.00     0.163 HD
ATOM     28  O   UNL     1      -5.493   0.556  -0.623  1.00  0.00    -0.269 OA
BRANCH  26  29
ATOM     29  C   UNL     1      -5.278   2.148   1.083  1.00  0.00     0.039 A 
ATOM     30  C   UNL     1      -6.619   2.532   1.191  1.00  0.00     0.014 A 
ATOM     31  C   UNL     1      -4.275   2.971   1.599  1.00  0.00     0.014 A 
ATOM     32  C   UNL     1      -6.957   3.684   1.907  1.00  0.00     0.010 A 
ATOM     33  C   UNL     1      -4.617   4.086   2.368  1.00  0.00     0.010 A 
ATOM     34  C   UNL     1      -5.963   4.442   2.547  1.00  0.00    -0.014 A 
BRANCH  34  35
ATOM     35  C   UNL     1      -6.335   5.561   3.455  1.00  0.00     0.031 A 
ATOM     36  C   UNL     1      -5.959   6.981   3.132  1.00  0.00     0.074 A 
ATOM     37  C   UNL     1      -6.969   5.284   4.613  1.00  0.00     0.049 A 
ATOM     38  N   UNL     1      -6.216   8.076   3.803  1.00  0.00    -0.248 NA
ATOM     39  C   UNL     1      -5.168   7.199   1.912  1.00  0.00     0.031 C 
ATOM     40  C   UNL     1      -7.311   3.942   5.088  1.00  0.00     0.029 A 
ATOM     41  N   UNL     1      -7.432   6.113   5.606  1.00  0.00    -0.354 N 
ATOM     42  C   UNL     1      -5.612   9.107   3.096  1.00  0.00     0.074 A 
ATOM     43  C   UNL     1      -4.937   8.504   1.967  1.00  0.00     0.031 C 
ATOM     44  C   UNL     1      -7.948   4.040   6.266  1.00  0.00     0.029 A 
ATOM     45  C   UNL     1      -8.042   5.447   6.641  1.00  0.00     0.049 A 
ATOM     46  H   UNL     1      -7.336   7.092   5.578  1.00  0.00     0.167 HD
ATOM     47  C   UNL     1      -5.637  10.437   3.354  1.00  0.00     0.037 A 
ATOM     48  C   UNL     1      -8.619   5.916   7.764  1.00  0.00     0.037 A 
ATOM     49  C   UNL     1      -6.337  11.041   4.459  1.00  0.00     0.049 A 
ATOM     50  C   UNL     1      -8.682   7.403   7.991  1.00  0.00     0.074 A 
ATOM     51  C   UNL     1      -6.494  12.385   4.750  1.00  0.00     0.029 A 
ATOM     52  N   UNL     1      -6.993  10.338   5.458  1.00  0.00    -0.354 N 
ATOM     53  N   UNL     1      -8.206   8.374   7.251  1.00  0.00    -0.248 NA
ATOM     54  C   UNL     1      -9.383   7.859   9.200  1.00  0.00     0.031 C 
ATOM     55  C   UNL     1      -7.207  12.495   5.948  1.00  0.00     0.029 A 
ATOM     56  C   UNL     1      -7.538  11.221   6.378  1.00  0.00     0.049 A 
ATOM     57  H   UNL     1      -7.061   9.357   5.507  1.00  0.00     0.167 HD
ATOM     58  C   UNL     1      -8.571   9.553   7.888  1.00  0.00     0.074 A 
ATOM     59  C   UNL     1      -9.332   9.175   9.061  1.00  0.00     0.031 C 
ATOM     60  C   UNL     1      -8.297  10.833   7.537  1.00  0.00     0.037 A 
BRANCH  47  61
ATOM     61  C   UNL     1      -4.897  11.347   2.418  1.00  0.00     0.064 A 
ATOM     62  C   UNL     1      -5.366  11.605   1.121  1.00  0.00     0.173 A 
ATOM     63  C   UNL     1      -3.747  12.027   2.848  1.00  0.00     0.173 A 
ATOM     64  F   UNL     1      -6.455  10.974   0.659  1.00  0.00    -0.203 F 
ATOM     65  C   UNL     1      -4.702  12.499   0.284  1.00  0.00     0.198 A 
ATOM     66  C   UNL     1      -3.102  12.940   2.018  1.00  0.00     0.198 A 
ATOM     67  F   UNL     1      -3.261  11.822   4.081  1.00  0.00    -0.203 F 
ATOM     68  F   UNL     1      -5.150  12.706  -0.962  1.00  0.00    -0.200 F 
ATOM     69  C   UNL     1      -3.577  13.173   0.736  1.00  0.00     0.200 A 
ATOM     70  F   UNL     1      -2.023  13.601   2.461  1.00  0.00    -0.200 F 
ATOM     71  F   UNL     1      -2.950  14.045  -0.065  1.00  0.00    -0.200 F 
ENDBRANCH  47  61
BRANCH  48  72
ATOM     72  C   UNL     1      -9.214   4.977   8.752  1.00  0.00     0.064 A 
ATOM     73  C   UNL     1     -10.601   4.921   8.953  1.00  0.00     0.173 A 
ATOM     74  C   UNL     1      -8.408   4.143   9.540  1.00  0.00     0.173 A 
ATOM     75  F   UNL     1     -11.412   5.714   8.237  1.00  0.00    -0.203 F 
ATOM     76  C   UNL     1     -11.155   4.095   9.928  1.00  0.00     0.198 A 
ATOM     77  C   UNL     1      -8.966   3.294  10.494  1.00  0.00     0.198 A 
ATOM     78  F   UNL     1      -7.076   4.152   9.383  1.00  0.00    -0.203 F 
ATOM     79  F   UNL     1     -12.478   4.109  10.141  1.00  0.00    -0.200 F 
ATOM     80  C   UNL     1     -10.338   3.280  10.696  1.00  0.00     0.200 A 
ATOM     81  F   UNL     1      -8.174   2.498  11.225  1.00  0.00    -0.200 F 
ATOM     82  F   UNL     1     -10.870   2.491  11.639  1.00  0.00    -0.200 F 
ENDBRANCH  48  72
BRANCH  60  83
ATOM     83  C   UNL     1      -8.852  11.916   8.417  1.00  0.00     0.064 A 
ATOM     84  C   UNL     1      -8.355  12.142   9.710  1.00  0.00     0.173 A 
ATOM     85  C   UNL     1      -9.889  12.743   7.958  1.00  0.00     0.173 A 
ATOM     86  F   UNL     1      -7.375  11.369  10.200  1.00  0.00    -0.203 F 
ATOM     87  C   UNL     1      -8.904  13.128  10.525  1.00  0.00     0.198 A 
ATOM     88  C   UNL     1     -10.412  13.749   8.764  1.00  0.00     0.198 A 
ATOM     89  F   UNL     1     -10.394  12.575   6.727  1.00  0.00    -0.203 F 
ATOM     90  F   UNL     1      -8.457  13.283  11.778  1.00  0.00    -0.200 F 
ATOM     91  C   UNL     1      -9.928  13.934  10.050  1.00  0.00     0.200 A 
ATOM     92  F   UNL     1     -11.393  14.536   8.299  1.00  0.00    -0.200 F 
ATOM     93  F   UNL     1     -10.457  14.881  10.837  1.00  0.00    -0.200 F 
ENDBRANCH  60  83
ENDBRANCH  34  35
ENDBRANCH  26  29
ENDBRANCH  24  25
ENDBRANCH  23  24
ENDBRANCH   1  23
TORSDOF 13
