REMARK SMILES Cc1ccc(-c2cc3cccnc3n2CCC(=O)NCCCCNC(=O)c2ccc(-c3c4nc(c(-c5c(F)c(F)c(F)c(F)c5F)c5ccc([nH]5)c(-c5c(F)c(F)c(F)c(F)c5F)c5nc(c(-c6c(F)c(F)c(F)c(F)c6F)c6ccc3[nH]6)C=C5)C=C4)cc2)cn1
REMARK SMILES IDX 21 1 20 2 19 3 17 4 18 5 16 7 15 8 14 9 6 10 7 11 8 12 13 13
REMARK SMILES IDX 9 14 12 15 10 16 11 17 5 18 1 19 2 20 3 21 91 22 4 23 90 24
REMARK SMILES IDX 22 25 23 26 24 27 25 28 26 30 27 31 28 32 89 33 29 34 88 35
REMARK SMILES IDX 30 36 31 37 32 38 82 39 33 40 87 41 81 42 83 43 34 44 86 45
REMARK SMILES IDX 80 46 79 47 35 49 67 50 47 51 66 52 48 53 51 54 65 55 84 56
REMARK SMILES IDX 49 57 50 58 64 60 85 61 52 62 36 63 37 64 45 65 38 66 39 67
REMARK SMILES IDX 43 68 46 69 40 70 41 71 44 72 42 73 68 74 69 75 77 76 70 77
REMARK SMILES IDX 71 78 75 79 78 80 72 81 73 82 76 83 74 84 53 85 54 86 62 87
REMARK SMILES IDX 55 88 56 89 60 90 63 91 57 92 58 93 61 94 59 95
REMARK H PARENT 19 6 24 29 83 48 51 59
REMARK Flexibility Score: inf
ROOT
ATOM      1  C   UNL     1      -3.399  -0.146  -1.615  1.00  0.00     0.023 C 
ENDROOT
BRANCH   1   2
ATOM      2  C   UNL     1      -3.552  -1.655  -1.708  1.00  0.00     0.116 C 
BRANCH   2   3
ATOM      3  N   UNL     1      -2.629  -2.375  -0.838  1.00  0.00    -0.356 N 
ATOM      4  C   UNL     1      -2.730  -2.767   0.466  1.00  0.00     0.221 C 
ATOM      5  O   UNL     1      -1.783  -3.406   0.938  1.00  0.00    -0.275 OA
ATOM      6  H   UNL     1      -1.780  -2.624  -1.269  1.00  0.00     0.163 HD
BRANCH   4   7
ATOM      7  C   UNL     1      -3.934  -2.455   1.337  1.00  0.00     0.122 C 
BRANCH   7   8
ATOM      8  C   UNL     1      -3.777  -1.294   2.343  1.00  0.00     0.134 C 
BRANCH   8   9
ATOM      9  N   UNL     1      -4.003   0.037   1.792  1.00  0.00    -0.325 N 
ATOM     10  C   UNL     1      -3.088   1.050   1.461  1.00  0.00     0.052 A 
ATOM     11  C   UNL     1      -3.877   2.053   0.863  1.00  0.00     0.039 A 
ATOM     12  C   UNL     1      -5.198   1.564   0.661  1.00  0.00     0.020 A 
ATOM     13  C   UNL     1      -5.275   0.365   1.346  1.00  0.00     0.140 A 
ATOM     14  C   UNL     1      -6.313   1.941  -0.111  1.00  0.00     0.013 A 
ATOM     15  N   UNL     1      -6.354  -0.444   1.435  1.00  0.00    -0.238 NA
ATOM     16  C   UNL     1      -7.432   1.105  -0.094  1.00  0.00     0.021 A 
ATOM     17  C   UNL     1      -7.408  -0.027   0.704  1.00  0.00     0.113 A 
BRANCH  10  18
ATOM     18  C   UNL     1      -1.592   0.950   1.345  1.00  0.00     0.017 A 
ATOM     19  C   UNL     1       2.508   0.662   0.038  1.00  0.00     0.066 C 
ATOM     20  C   UNL     1       1.091   0.761   0.519  1.00  0.00     0.037 A 
ATOM     21  C   UNL     1       0.443  -0.361   0.990  1.00  0.00     0.024 A 
ATOM     22  N   UNL     1       0.486   1.969   0.501  1.00  0.00    -0.261 NA
ATOM     23  C   UNL     1      -0.882  -0.248   1.415  1.00  0.00     0.014 A 
ATOM     24  C   UNL     1      -0.817   2.030   0.913  1.00  0.00     0.121 A 
ENDBRANCH  10  18
ENDBRANCH   8   9
ENDBRANCH   7   8
ENDBRANCH   4   7
ENDBRANCH   2   3
ENDBRANCH   1   2
BRANCH   1  25
ATOM     25  C   UNL     1      -2.188   0.597  -2.182  1.00  0.00     0.023 C 
BRANCH  25  26
ATOM     26  C   UNL     1      -2.280   0.902  -3.661  1.00  0.00     0.116 C 
BRANCH  26  27
ATOM     27  N   UNL     1      -3.496   1.644  -4.036  1.00  0.00    -0.352 N 
ATOM     28  C   UNL     1      -4.063   1.774  -5.292  1.00  0.00     0.251 C 
ATOM     29  H   UNL     1      -3.964   2.104  -3.302  1.00  0.00     0.163 HD
ATOM     30  O   UNL     1      -4.889   2.641  -5.556  1.00  0.00    -0.269 OA
BRANCH  28  31
ATOM     31  C   UNL     1      -3.646   0.800  -6.307  1.00  0.00     0.039 A 
ATOM     32  C   UNL     1      -3.129   1.182  -7.546  1.00  0.00     0.014 A 
ATOM     33  C   UNL     1      -3.576  -0.511  -5.856  1.00  0.00     0.014 A 
ATOM     34  C   UNL     1      -2.421   0.231  -8.274  1.00  0.00     0.010 A 
ATOM     35  C   UNL     1      -2.651  -1.331  -6.430  1.00  0.00     0.010 A 
ATOM     36  C   UNL     1      -2.146  -1.012  -7.678  1.00  0.00    -0.014 A 
BRANCH  36  37
ATOM     37  C   UNL     1      -1.269  -1.991  -8.293  1.00  0.00     0.031 A 
ATOM     38  C   UNL     1       0.046  -1.458  -8.708  1.00  0.00     0.074 A 
ATOM     39  C   UNL     1      -1.572  -3.307  -8.356  1.00  0.00     0.049 A 
ATOM     40  N   UNL     1       0.360  -1.043  -9.887  1.00  0.00    -0.248 NA
ATOM     41  C   UNL     1       1.074  -1.188  -7.692  1.00  0.00     0.031 C 
ATOM     42  C   UNL     1      -2.673  -4.030  -7.699  1.00  0.00     0.029 A 
ATOM     43  N   UNL     1      -0.913  -4.302  -9.011  1.00  0.00    -0.354 N 
ATOM     44  C   UNL     1       1.709  -0.719  -9.827  1.00  0.00     0.074 A 
ATOM     45  C   UNL     1       2.027  -0.605  -8.429  1.00  0.00     0.031 C 
ATOM     46  C   UNL     1      -2.490  -5.362  -7.820  1.00  0.00     0.029 A 
ATOM     47  C   UNL     1      -1.392  -5.577  -8.737  1.00  0.00     0.049 A 
ATOM     48  H   UNL     1      -0.163  -4.133  -9.625  1.00  0.00     0.167 HD
ATOM     49  C   UNL     1       2.490  -0.905 -10.928  1.00  0.00     0.037 A 
ATOM     50  C   UNL     1      -0.969  -6.736  -9.291  1.00  0.00     0.037 A 
ATOM     51  C   UNL     1       1.665  -1.200 -12.077  1.00  0.00     0.049 A 
ATOM     52  C   UNL     1      -0.374  -6.386 -10.601  1.00  0.00     0.074 A 
ATOM     53  C   UNL     1       0.871  -0.489 -12.949  1.00  0.00     0.029 A 
ATOM     54  N   UNL     1       1.269  -2.512 -12.143  1.00  0.00    -0.354 N 
ATOM     55  N   UNL     1      -1.068  -5.901 -11.594  1.00  0.00    -0.248 NA
ATOM     56  C   UNL     1       1.071  -6.221 -10.703  1.00  0.00     0.031 C 
ATOM     57  C   UNL     1      -0.116  -1.403 -13.431  1.00  0.00     0.029 A 
ATOM     58  C   UNL     1       0.128  -2.660 -12.885  1.00  0.00     0.049 A 
ATOM     59  H   UNL     1       1.746  -3.255 -11.709  1.00  0.00     0.167 HD
ATOM     60  C   UNL     1      -0.204  -5.019 -12.211  1.00  0.00     0.074 A 
ATOM     61  C   UNL     1       1.127  -5.385 -11.743  1.00  0.00     0.031 C 
ATOM     62  C   UNL     1      -0.661  -3.868 -12.779  1.00  0.00     0.037 A 
BRANCH  49  63
ATOM     63  C   UNL     1       3.948  -1.308 -10.918  1.00  0.00     0.064 A 
ATOM     64  C   UNL     1       4.655  -1.340 -12.140  1.00  0.00     0.173 A 
ATOM     65  C   UNL     1       4.589  -1.942  -9.834  1.00  0.00     0.173 A 
ATOM     66  F   UNL     1       4.131  -0.793 -13.247  1.00  0.00    -0.203 F 
ATOM     67  C   UNL     1       5.879  -2.004 -12.272  1.00  0.00     0.198 A 
ATOM     68  C   UNL     1       5.834  -2.559  -9.957  1.00  0.00     0.198 A 
ATOM     69  F   UNL     1       3.996  -2.095  -8.645  1.00  0.00    -0.203 F 
ATOM     70  F   UNL     1       6.458  -2.102 -13.476  1.00  0.00    -0.200 F 
ATOM     71  C   UNL     1       6.467  -2.614 -11.180  1.00  0.00     0.200 A 
ATOM     72  F   UNL     1       6.373  -3.170  -8.892  1.00  0.00    -0.200 F 
ATOM     73  F   UNL     1       7.614  -3.293 -11.313  1.00  0.00    -0.200 F 
ENDBRANCH  49  63
BRANCH  50  74
ATOM     74  C   UNL     1      -0.724  -8.033  -8.624  1.00  0.00     0.064 A 
ATOM     75  C   UNL     1      -0.464  -9.181  -9.390  1.00  0.00     0.173 A 
ATOM     76  C   UNL     1      -0.406  -8.101  -7.255  1.00  0.00     0.173 A 
ATOM     77  F   UNL     1      -0.727  -9.187 -10.705  1.00  0.00    -0.203 F 
ATOM     78  C   UNL     1       0.160 -10.302  -8.837  1.00  0.00     0.198 A 
ATOM     79  C   UNL     1       0.214  -9.223  -6.703  1.00  0.00     0.198 A 
ATOM     80  F   UNL     1      -0.591  -7.042  -6.453  1.00  0.00    -0.203 F 
ATOM     81  F   UNL     1       0.481 -11.341  -9.620  1.00  0.00    -0.200 F 
ATOM     82  C   UNL     1       0.520 -10.312  -7.500  1.00  0.00     0.200 A 
ATOM     83  F   UNL     1       0.586  -9.210  -5.415  1.00  0.00    -0.200 F 
ATOM     84  F   UNL     1       1.202 -11.348  -6.990  1.00  0.00    -0.200 F 
ENDBRANCH  50  74
BRANCH  62  85
ATOM     85  C   UNL     1      -2.101  -3.819 -13.187  1.00  0.00     0.064 A 
ATOM     86  C   UNL     1      -3.187  -3.799 -12.298  1.00  0.00     0.173 A 
ATOM     87  C   UNL     1      -2.382  -3.709 -14.555  1.00  0.00     0.173 A 
ATOM     88  F   UNL     1      -2.996  -3.843 -10.974  1.00  0.00    -0.203 F 
ATOM     89  C   UNL     1      -4.498  -3.692 -12.765  1.00  0.00     0.198 A 
ATOM     90  C   UNL     1      -3.687  -3.571 -15.017  1.00  0.00     0.198 A 
ATOM     91  F   UNL     1      -1.379  -3.696 -15.446  1.00  0.00    -0.203 F 
ATOM     92  F   UNL     1      -5.523  -3.683 -11.900  1.00  0.00    -0.200 F 
ATOM     93  C   UNL     1      -4.745  -3.569 -14.123  1.00  0.00     0.200 A 
ATOM     94  F   UNL     1      -3.914  -3.417 -16.328  1.00  0.00    -0.200 F 
ATOM     95  F   UNL     1      -6.000  -3.429 -14.571  1.00  0.00    -0.200 F 
ENDBRANCH  62  85
ENDBRANCH  36  37
ENDBRANCH  28  31
ENDBRANCH  26  27
ENDBRANCH  25  26
ENDBRANCH   1  25
TORSDOF 14
