REMARK SMILES CC[N@@H+]1CCO[C@@H](c2ncc(C(=O)NCCCCNC(=O)c3ccc(-c4c5nc(c(-c6c(F)c(F)c(F)c(F)c6F)c6ccc([nH]6)c(-c6c(F)c(F)c(F)c(F)c6F)c6nc(c(-c7c(F)c(F)c(F)c(F)c7F)c7ccc4[nH]7)C=C6)C=C5)cc3)s2)C1
REMARK SMILES IDX 16 1 15 2 14 3 12 4 13 5 11 7 8 8 9 9 85 10 10 11 7 12 3 13
REMARK SMILES IDX 4 14 86 15 5 17 6 18 2 19 1 20 17 21 18 22 19 23 20 24 21 26
REMARK SMILES IDX 22 27 23 28 84 29 24 30 83 31 25 32 26 33 27 34 77 35 28 36
REMARK SMILES IDX 82 37 76 38 78 39 29 40 81 41 75 42 74 43 30 45 62 46 42 47
REMARK SMILES IDX 61 48 43 49 46 50 60 51 79 52 44 53 45 54 59 56 80 57 47 58
REMARK SMILES IDX 31 59 32 60 40 61 33 62 34 63 38 64 41 65 35 66 36 67 39 68
REMARK SMILES IDX 37 69 63 70 64 71 72 72 65 73 66 74 70 75 73 76 67 77 68 78
REMARK SMILES IDX 71 79 69 80 48 81 49 82 57 83 50 84 51 85 55 86 58 87 52 88
REMARK SMILES IDX 53 89 56 90 54 91
REMARK H PARENT 14 6 3 16 19 25 78 44 46 55
REMARK Flexibility Score: inf
ROOT
ATOM      1  C   UNL     1      -3.454  -9.636  -1.986  1.00  0.00     0.023 C 
ENDROOT
BRANCH   1   2
ATOM      2  C   UNL     1      -2.592  -9.677  -0.724  1.00  0.00     0.116 C 
BRANCH   2   3
ATOM      3  N   UNL     1      -1.221 -10.027  -1.030  1.00  0.00    -0.351 N 
ATOM      4  C   UNL     1      -0.096  -9.245  -1.165  1.00  0.00     0.263 C 
ATOM      5  O   UNL     1       0.958  -9.867  -1.320  1.00  0.00    -0.268 OA
ATOM      6  H   UNL     1      -1.067 -10.990  -1.165  1.00  0.00     0.163 HD
BRANCH   4   7
ATOM      7  C   UNL     1      -0.171  -7.799  -1.117  1.00  0.00     0.112 A 
ATOM      8  C   UNL     1       0.388  -5.426  -0.921  1.00  0.00     0.128 A 
ATOM      9  N   UNL     1      -0.876  -5.566  -1.271  1.00  0.00    -0.246 NA
ATOM     10  S   UNL     1       1.235  -6.902  -0.681  1.00  0.00    -0.111 S 
ATOM     11  C   UNL     1      -1.181  -6.904  -1.407  1.00  0.00     0.137 A 
BRANCH   8  12
ATOM     12  C   UNL     1       1.034  -4.072  -0.761  1.00  0.00     0.232 C 
ATOM     13  N   UNL     1       1.193  -2.054   0.774  1.00  0.00    -0.331 N 
ATOM     14  C   UNL     1       2.658  -2.182   0.598  1.00  0.00     0.291 C 
ATOM     15  C   UNL     1       0.596  -3.402   0.562  1.00  0.00     0.302 C 
ATOM     16  H   UNL     1       1.013  -1.706   1.716  1.00  0.00     0.348 HD
ATOM     17  C   UNL     1       3.081  -2.898  -0.698  1.00  0.00     0.222 C 
ATOM     18  O   UNL     1       2.468  -4.188  -0.820  1.00  0.00    -0.359 OA
BRANCH  13  19
ATOM     19  C   UNL     1       0.572  -1.066  -0.124  1.00  0.00     0.258 C 
ATOM     20  C   UNL     1       0.980   0.370   0.184  1.00  0.00     0.071 C 
ENDBRANCH  13  19
ENDBRANCH   8  12
ENDBRANCH   4   7
ENDBRANCH   2   3
ENDBRANCH   1   2
BRANCH   1  21
ATOM     21  C   UNL     1      -3.827 -11.012  -2.546  1.00  0.00     0.023 C 
BRANCH  21  22
ATOM     22  C   UNL     1      -4.611 -11.912  -1.596  1.00  0.00     0.116 C 
BRANCH  22  23
ATOM     23  N   UNL     1      -5.836 -11.306  -1.101  1.00  0.00    -0.352 N 
ATOM     24  C   UNL     1      -7.022 -11.918  -0.762  1.00  0.00     0.251 C 
ATOM     25  H   UNL     1      -5.815 -10.328  -0.994  1.00  0.00     0.163 HD
ATOM     26  O   UNL     1      -7.997 -11.255  -0.449  1.00  0.00    -0.269 OA
BRANCH  24  27
ATOM     27  C   UNL     1      -7.113 -13.393  -0.825  1.00  0.00     0.039 A 
ATOM     28  C   UNL     1      -8.180 -13.968  -1.519  1.00  0.00     0.014 A 
ATOM     29  C   UNL     1      -6.137 -14.197  -0.233  1.00  0.00     0.014 A 
ATOM     30  C   UNL     1      -8.228 -15.353  -1.683  1.00  0.00     0.010 A 
ATOM     31  C   UNL     1      -6.151 -15.570  -0.452  1.00  0.00     0.010 A 
ATOM     32  C   UNL     1      -7.193 -16.160  -1.184  1.00  0.00    -0.014 A 
BRANCH  32  33
ATOM     33  C   UNL     1      -7.171 -17.622  -1.430  1.00  0.00     0.031 A 
ATOM     34  C   UNL     1      -7.291 -18.583  -0.283  1.00  0.00     0.074 A 
ATOM     35  C   UNL     1      -6.963 -18.081  -2.679  1.00  0.00     0.049 A 
ATOM     36  N   UNL     1      -7.213 -19.890  -0.285  1.00  0.00    -0.248 NA
ATOM     37  C   UNL     1      -7.496 -17.994   1.050  1.00  0.00     0.031 C 
ATOM     38  C   UNL     1      -6.778 -17.246  -3.866  1.00  0.00     0.029 A 
ATOM     39  N   UNL     1      -6.857 -19.364  -3.155  1.00  0.00    -0.354 N 
ATOM     40  C   UNL     1      -7.342 -20.276   1.042  1.00  0.00     0.074 A 
ATOM     41  C   UNL     1      -7.452 -19.066   1.827  1.00  0.00     0.031 C 
ATOM     42  C   UNL     1      -6.598 -18.037  -4.936  1.00  0.00     0.029 A 
ATOM     43  C   UNL     1      -6.621 -19.431  -4.506  1.00  0.00     0.049 A 
ATOM     44  H   UNL     1      -6.942 -20.160  -2.582  1.00  0.00     0.167 HD
ATOM     45  C   UNL     1      -7.387 -21.529   1.556  1.00  0.00     0.037 A 
ATOM     46  C   UNL     1      -6.437 -20.499  -5.306  1.00  0.00     0.037 A 
ATOM     47  C   UNL     1      -7.303 -22.730   0.767  1.00  0.00     0.049 A 
ATOM     48  C   UNL     1      -6.499 -21.880  -4.713  1.00  0.00     0.074 A 
ATOM     49  C   UNL     1      -7.408 -24.045   1.183  1.00  0.00     0.029 A 
ATOM     50  N   UNL     1      -7.091 -22.760  -0.604  1.00  0.00    -0.354 N 
ATOM     51  N   UNL     1      -6.694 -22.237  -3.467  1.00  0.00    -0.248 NA
ATOM     52  C   UNL     1      -6.322 -23.006  -5.639  1.00  0.00     0.031 C 
ATOM     53  C   UNL     1      -7.216 -24.872   0.071  1.00  0.00     0.029 A 
ATOM     54  C   UNL     1      -7.039 -24.072  -1.046  1.00  0.00     0.049 A 
ATOM     55  H   UNL     1      -6.992 -21.966  -1.178  1.00  0.00     0.167 HD
ATOM     56  C   UNL     1      -6.687 -23.624  -3.462  1.00  0.00     0.074 A 
ATOM     57  C   UNL     1      -6.483 -24.046  -4.833  1.00  0.00     0.031 C 
ATOM     58  C   UNL     1      -6.837 -24.473  -2.416  1.00  0.00     0.037 A 
BRANCH  45  59
ATOM     59  C   UNL     1      -7.536 -21.659   3.044  1.00  0.00     0.064 A 
ATOM     60  C   UNL     1      -8.730 -21.316   3.696  1.00  0.00     0.173 A 
ATOM     61  C   UNL     1      -6.480 -22.152   3.825  1.00  0.00     0.173 A 
ATOM     62  F   UNL     1      -9.766 -20.828   2.997  1.00  0.00    -0.203 F 
ATOM     63  C   UNL     1      -8.848 -21.427   5.079  1.00  0.00     0.198 A 
ATOM     64  C   UNL     1      -6.613 -22.291   5.204  1.00  0.00     0.198 A 
ATOM     65  F   UNL     1      -5.319 -22.500   3.251  1.00  0.00    -0.203 F 
ATOM     66  F   UNL     1      -9.979 -21.040   5.686  1.00  0.00    -0.200 F 
ATOM     67  C   UNL     1      -7.793 -21.920   5.831  1.00  0.00     0.200 A 
ATOM     68  F   UNL     1      -5.596 -22.779   5.928  1.00  0.00    -0.200 F 
ATOM     69  F   UNL     1      -7.909 -22.029   7.162  1.00  0.00    -0.200 F 
ENDBRANCH  45  59
BRANCH  46  70
ATOM     70  C   UNL     1      -6.208 -20.300  -6.760  1.00  0.00     0.064 A 
ATOM     71  C   UNL     1      -7.198 -20.636  -7.694  1.00  0.00     0.173 A 
ATOM     72  C   UNL     1      -5.008 -19.761  -7.244  1.00  0.00     0.173 A 
ATOM     73  F   UNL     1      -8.355 -21.172  -7.279  1.00  0.00    -0.203 F 
ATOM     74  C   UNL     1      -6.990 -20.453  -9.059  1.00  0.00     0.198 A 
ATOM     75  C   UNL     1      -4.811 -19.555  -8.607  1.00  0.00     0.198 A 
ATOM     76  F   UNL     1      -4.033 -19.418  -6.389  1.00  0.00    -0.203 F 
ATOM     77  F   UNL     1      -7.938 -20.816  -9.933  1.00  0.00    -0.200 F 
ATOM     78  C   UNL     1      -5.799 -19.907  -9.514  1.00  0.00     0.200 A 
ATOM     79  F   UNL     1      -3.665 -19.014  -9.043  1.00  0.00    -0.200 F 
ATOM     80  F   UNL     1      -5.603 -19.724 -10.827  1.00  0.00    -0.200 F 
ENDBRANCH  46  70
BRANCH  58  81
ATOM     81  C   UNL     1      -6.813 -25.943  -2.716  1.00  0.00     0.064 A 
ATOM     82  C   UNL     1      -5.623 -26.605  -3.051  1.00  0.00     0.173 A 
ATOM     83  C   UNL     1      -7.988 -26.705  -2.627  1.00  0.00     0.173 A 
ATOM     84  F   UNL     1      -4.477 -25.918  -3.164  1.00  0.00    -0.203 F 
ATOM     85  C   UNL     1      -5.615 -27.974  -3.309  1.00  0.00     0.198 A 
ATOM     86  C   UNL     1      -7.971 -28.077  -2.858  1.00  0.00     0.198 A 
ATOM     87  F   UNL     1      -9.151 -26.119  -2.305  1.00  0.00    -0.203 F 
ATOM     88  F   UNL     1      -4.475 -28.578  -3.671  1.00  0.00    -0.200 F 
ATOM     89  C   UNL     1      -6.787 -28.709  -3.205  1.00  0.00     0.200 A 
ATOM     90  F   UNL     1      -9.101 -28.789  -2.745  1.00  0.00    -0.200 F 
ATOM     91  F   UNL     1      -6.775 -30.027  -3.446  1.00  0.00    -0.200 F 
ENDBRANCH  58  81
ENDBRANCH  32  33
ENDBRANCH  24  27
ENDBRANCH  22  23
ENDBRANCH  21  22
ENDBRANCH   1  21
TORSDOF 13
