REMARK SMILES COCc1cc(N2CCCC[C@H]2C(=O)NCCCCNC(=O)c2ccc(-c3c4nc(c(-c5c(F)c(F)c(F)c(F)c5F)c5ccc([nH]5)c(-c5c(F)c(F)c(F)c(F)c5F)c5nc(c(-c6c(F)c(F)c(F)c(F)c6F)c6ccc3[nH]6)C=C5)C=C4)cc2)nc(-c2ccc(Cl)cc2)n1
REMARK SMILES IDX 17 1 16 2 15 3 13 4 14 5 12 7 7 8 8 9 9 10 11 11 10 12 6 13
REMARK SMILES IDX 4 14 5 15 95 16 87 17 86 18 3 19 2 20 1 21 88 22 89 23 94 24
REMARK SMILES IDX 90 25 93 26 91 27 92 28 18 29 19 30 20 31 21 32 22 34 23 35
REMARK SMILES IDX 24 36 85 37 25 38 84 39 26 40 27 41 28 42 78 43 29 44 83 45
REMARK SMILES IDX 77 46 79 47 30 48 82 49 76 50 75 51 31 53 63 54 43 55 62 56
REMARK SMILES IDX 44 57 47 58 61 59 80 60 45 61 46 62 60 64 81 65 48 66 32 67
REMARK SMILES IDX 33 68 41 69 34 70 35 71 39 72 42 73 36 74 37 75 40 76 38 77
REMARK SMILES IDX 64 78 65 79 73 80 66 81 67 82 71 83 74 84 68 85 69 86 72 87
REMARK SMILES IDX 70 88 49 89 50 90 58 91 51 92 52 93 56 94 59 95 53 96 54 97
REMARK SMILES IDX 57 98 55 99
REMARK H PARENT 15 6 20 33 79 52 47 63
REMARK Flexibility Score: inf
ROOT
ATOM      1  C   UNL     1       1.125  -5.509   5.954  1.00  0.00     0.023 C 
ENDROOT
BRANCH   1   2
ATOM      2  C   UNL     1       2.080  -4.644   5.136  1.00  0.00     0.116 C 
BRANCH   2   3
ATOM      3  N   UNL     1       1.456  -4.149   3.932  1.00  0.00    -0.354 N 
ATOM      4  C   UNL     1       1.016  -2.933   3.529  1.00  0.00     0.242 C 
ATOM      5  O   UNL     1       0.607  -2.918   2.355  1.00  0.00    -0.273 OA
ATOM      6  H   UNL     1       1.320  -4.850   3.255  1.00  0.00     0.163 HD
BRANCH   4   7
ATOM      7  C   UNL     1       1.060  -1.603   4.350  1.00  0.00     0.173 C 
ATOM      8  N   UNL     1      -0.174  -0.843   4.057  1.00  0.00    -0.344 N 
ATOM      9  C   UNL     1      -1.409  -1.244   4.714  1.00  0.00     0.119 C 
ATOM     10  C   UNL     1      -1.236  -1.253   6.228  1.00  0.00     0.022 C 
ATOM     11  C   UNL     1       1.238  -1.553   5.873  1.00  0.00     0.035 C 
ATOM     12  C   UNL     1       0.007  -2.039   6.633  1.00  0.00     0.004 C 
BRANCH   8  13
ATOM     13  C   UNL     1      -0.070   0.435   3.552  1.00  0.00     0.133 A 
ATOM     14  C   UNL     1       0.488   1.897   1.778  1.00  0.00     0.072 A 
ATOM     15  C   UNL     1       0.492   0.624   2.305  1.00  0.00     0.073 A 
ATOM     16  N   UNL     1       0.034   2.950   2.490  1.00  0.00    -0.230 NA
ATOM     17  C   UNL     1      -0.434   2.685   3.724  1.00  0.00     0.161 A 
ATOM     18  N   UNL     1      -0.525   1.464   4.277  1.00  0.00    -0.211 NA
BRANCH  14  19
ATOM     19  C   UNL     1       1.060   2.169   0.403  1.00  0.00     0.216 C 
BRANCH  19  20
ATOM     20  O   UNL     1       0.365   1.527  -0.671  1.00  0.00    -0.378 OA
ATOM     21  C   UNL     1       0.772   0.189  -0.921  1.00  0.00     0.195 C 
ENDBRANCH  19  20
ENDBRANCH  14  19
BRANCH  17  22
ATOM     22  C   UNL     1      -0.741   3.836   4.579  1.00  0.00     0.019 A 
ATOM     23  C   UNL     1      -1.583   4.871   4.140  1.00  0.00     0.013 A 
ATOM     24  C   UNL     1      -0.156   3.953   5.855  1.00  0.00     0.013 A 
ATOM     25  C   UNL     1      -1.829   5.988   4.946  1.00  0.00     0.021 A 
ATOM     26  C   UNL     1      -0.385   5.076   6.655  1.00  0.00     0.021 A 
ATOM     27  C   UNL     1      -1.222   6.089   6.195  1.00  0.00     0.041 A 
ATOM     28  Cl  UNL     1      -1.498   7.478   7.173  1.00  0.00    -0.084 Cl
ENDBRANCH  17  22
ENDBRANCH   8  13
ENDBRANCH   4   7
ENDBRANCH   2   3
ENDBRANCH   1   2
BRANCH   1  29
ATOM     29  C   UNL     1       0.918  -6.921   5.413  1.00  0.00     0.023 C 
BRANCH  29  30
ATOM     30  C   UNL     1       2.187  -7.741   5.244  1.00  0.00     0.116 C 
BRANCH  30  31
ATOM     31  N   UNL     1       3.003  -7.809   6.448  1.00  0.00    -0.352 N 
ATOM     32  C   UNL     1       3.686  -8.889   6.957  1.00  0.00     0.251 C 
ATOM     33  H   UNL     1       3.074  -6.974   6.965  1.00  0.00     0.163 HD
ATOM     34  O   UNL     1       4.262  -8.822   8.031  1.00  0.00    -0.269 OA
BRANCH  32  35
ATOM     35  C   UNL     1       3.671 -10.151   6.191  1.00  0.00     0.039 A 
ATOM     36  C   UNL     1       3.264 -11.324   6.829  1.00  0.00     0.014 A 
ATOM     37  C   UNL     1       3.975 -10.145   4.828  1.00  0.00     0.014 A 
ATOM     38  C   UNL     1       3.085 -12.484   6.075  1.00  0.00     0.010 A 
ATOM     39  C   UNL     1       3.716 -11.276   4.067  1.00  0.00     0.010 A 
ATOM     40  C   UNL     1       3.269 -12.456   4.683  1.00  0.00    -0.014 A 
BRANCH  40  41
ATOM     41  C   UNL     1       3.028 -13.653   3.842  1.00  0.00     0.031 A 
ATOM     42  C   UNL     1       4.173 -14.262   3.083  1.00  0.00     0.074 A 
ATOM     43  C   UNL     1       1.779 -14.135   3.697  1.00  0.00     0.049 A 
ATOM     44  N   UNL     1       4.161 -15.218   2.191  1.00  0.00    -0.248 NA
ATOM     45  C   UNL     1       5.506 -13.691   3.335  1.00  0.00     0.031 C 
ATOM     46  C   UNL     1       0.581 -13.603   4.349  1.00  0.00     0.029 A 
ATOM     47  N   UNL     1       1.308 -15.178   2.940  1.00  0.00    -0.354 N 
ATOM     48  C   UNL     1       5.475 -15.345   1.762  1.00  0.00     0.074 A 
ATOM     49  C   UNL     1       6.248 -14.332   2.446  1.00  0.00     0.031 C 
ATOM     50  C   UNL     1      -0.482 -14.337   3.983  1.00  0.00     0.029 A 
ATOM     51  C   UNL     1      -0.050 -15.364   3.042  1.00  0.00     0.049 A 
ATOM     52  H   UNL     1       1.888 -15.739   2.376  1.00  0.00     0.167 HD
ATOM     53  C   UNL     1       5.996 -16.245   0.895  1.00  0.00     0.037 A 
ATOM     54  C   UNL     1      -0.850 -16.262   2.437  1.00  0.00     0.037 A 
ATOM     55  C   UNL     1       5.232 -17.276   0.249  1.00  0.00     0.049 A 
ATOM     56  C   UNL     1      -0.243 -17.257   1.483  1.00  0.00     0.074 A 
ATOM     57  C   UNL     1       5.669 -18.264  -0.615  1.00  0.00     0.029 A 
ATOM     58  N   UNL     1       3.866 -17.458   0.409  1.00  0.00    -0.354 N 
ATOM     59  N   UNL     1       1.008 -17.396   1.117  1.00  0.00    -0.248 NA
ATOM     60  C   UNL     1      -1.160 -18.224   0.862  1.00  0.00     0.031 C 
ATOM     61  C   UNL     1       4.563 -19.030  -0.997  1.00  0.00     0.029 A 
ATOM     62  C   UNL     1       3.444 -18.541  -0.342  1.00  0.00     0.049 A 
ATOM     63  H   UNL     1       3.284 -16.900   0.974  1.00  0.00     0.167 HD
ATOM     64  C   UNL     1       1.035 -18.483   0.255  1.00  0.00     0.074 A 
ATOM     65  C   UNL     1      -0.324 -18.973   0.157  1.00  0.00     0.031 C 
ATOM     66  C   UNL     1       2.090 -19.027  -0.399  1.00  0.00     0.037 A 
BRANCH  53  67
ATOM     67  C   UNL     1       7.467 -16.160   0.615  1.00  0.00     0.064 A 
ATOM     68  C   UNL     1       8.418 -16.511   1.585  1.00  0.00     0.173 A 
ATOM     69  C   UNL     1       7.933 -15.746  -0.641  1.00  0.00     0.173 A 
ATOM     70  F   UNL     1       8.023 -16.897   2.808  1.00  0.00    -0.203 F 
ATOM     71  C   UNL     1       9.781 -16.422   1.319  1.00  0.00     0.198 A 
ATOM     72  C   UNL     1       9.297 -15.686  -0.914  1.00  0.00     0.198 A 
ATOM     73  F   UNL     1       7.066 -15.401  -1.605  1.00  0.00    -0.203 F 
ATOM     74  F   UNL     1      10.670 -16.712   2.279  1.00  0.00    -0.200 F 
ATOM     75  C   UNL     1      10.220 -16.016   0.067  1.00  0.00     0.200 A 
ATOM     76  F   UNL     1       9.720 -15.303  -2.127  1.00  0.00    -0.200 F 
ATOM     77  F   UNL     1      11.532 -15.934  -0.190  1.00  0.00    -0.200 F 
ENDBRANCH  53  67
BRANCH  54  78
ATOM     78  C   UNL     1      -2.305 -16.291   2.736  1.00  0.00     0.064 A 
ATOM     79  C   UNL     1      -2.864 -17.351   3.463  1.00  0.00     0.173 A 
ATOM     80  C   UNL     1      -3.167 -15.279   2.290  1.00  0.00     0.173 A 
ATOM     81  F   UNL     1      -2.083 -18.353   3.893  1.00  0.00    -0.203 F 
ATOM     82  C   UNL     1      -4.234 -17.412   3.711  1.00  0.00     0.198 A 
ATOM     83  C   UNL     1      -4.533 -15.327   2.562  1.00  0.00     0.198 A 
ATOM     84  F   UNL     1      -2.681 -14.240   1.595  1.00  0.00    -0.203 F 
ATOM     85  F   UNL     1      -4.748 -18.462   4.366  1.00  0.00    -0.200 F 
ATOM     86  C   UNL     1      -5.067 -16.398   3.263  1.00  0.00     0.200 A 
ATOM     87  F   UNL     1      -5.334 -14.340   2.138  1.00  0.00    -0.200 F 
ATOM     88  F   UNL     1      -6.384 -16.458   3.500  1.00  0.00    -0.200 F 
ENDBRANCH  54  78
BRANCH  66  89
ATOM     89  C   UNL     1       1.828 -20.246  -1.231  1.00  0.00     0.064 A 
ATOM     90  C   UNL     1       1.174 -20.166  -2.468  1.00  0.00     0.173 A 
ATOM     91  C   UNL     1       2.287 -21.502  -0.806  1.00  0.00     0.173 A 
ATOM     92  F   UNL     1       0.705 -18.989  -2.909  1.00  0.00    -0.203 F 
ATOM     93  C   UNL     1       0.972 -21.305  -3.243  1.00  0.00     0.198 A 
ATOM     94  C   UNL     1       2.107 -22.634  -1.595  1.00  0.00     0.198 A 
ATOM     95  F   UNL     1       2.924 -21.627   0.368  1.00  0.00    -0.203 F 
ATOM     96  F   UNL     1       0.311 -21.213  -4.405  1.00  0.00    -0.200 F 
ATOM     97  C   UNL     1       1.445 -22.535  -2.810  1.00  0.00     0.200 A 
ATOM     98  F   UNL     1       2.574 -23.820  -1.181  1.00  0.00    -0.200 F 
ATOM     99  F   UNL     1       1.258 -23.628  -3.562  1.00  0.00    -0.200 F 
ENDBRANCH  66  89
ENDBRANCH  40  41
ENDBRANCH  32  35
ENDBRANCH  30  31
ENDBRANCH  29  30
ENDBRANCH   1  29
TORSDOF 15
