REMARK SMILES O=C(/C=C/c1ccc(S(=O)(=O)Nc2ccc3c(c2)OCCO3)cc1)NCCCCNC(=O)c1ccc(-c2c3nc(c(-c4c(F)c(F)c(F)c(F)c4F)c4ccc([nH]4)c(-c4c(F)c(F)c(F)c(F)c4F)c4nc(c(-c5c(F)c(F)c(F)c(F)c5F)c5ccc2[nH]5)C=C4)C=C3)cc1
REMARK SMILES IDX 26 1 25 2 1 3 2 4 3 6 4 7 5 8 6 9 24 10 7 11 23 12 8 13 9 14
REMARK SMILES IDX 10 15 11 16 12 17 13 19 14 20 18 21 15 22 17 23 16 24 19 25
REMARK SMILES IDX 22 26 20 27 21 28 27 29 28 30 29 31 30 32 31 33 32 35 33 36
REMARK SMILES IDX 34 37 95 38 35 39 94 40 36 41 37 42 38 43 88 44 39 45 93 46
REMARK SMILES IDX 87 47 89 48 40 49 92 50 86 51 85 52 41 54 73 55 53 56 72 57
REMARK SMILES IDX 54 58 57 59 71 60 90 61 55 62 56 63 70 65 91 66 58 67 42 68
REMARK SMILES IDX 43 69 51 70 44 71 45 72 49 73 52 74 46 75 47 76 50 77 48 78
REMARK SMILES IDX 74 79 75 80 83 81 76 82 77 83 81 84 84 85 78 86 79 87 82 88
REMARK SMILES IDX 80 89 59 90 60 91 68 92 61 93 62 94 66 95 69 96 63 97 64 98
REMARK SMILES IDX 67 99 65 100
REMARK H PARENT 25 5 12 18 30 34 89 53 57 64
REMARK Flexibility Score: inf
ROOT
ATOM      1  C   UNL     1       2.264  -1.576   1.737  1.00  0.00     0.116 C 
ENDROOT
BRANCH   1   2
ATOM      2  N   UNL     1       2.923  -0.727   0.759  1.00  0.00    -0.353 N 
ATOM      3  O   UNL     1       1.018  -0.321  -0.445  1.00  0.00    -0.270 OA
ATOM      4  C   UNL     1       2.222  -0.165  -0.274  1.00  0.00     0.243 C 
ATOM      5  H   UNL     1       3.889  -0.554   0.840  1.00  0.00     0.163 HD
BRANCH   4   6
ATOM      6  C   UNL     1       2.962   0.735  -1.200  1.00  0.00     0.072 C 
ATOM      7  C   UNL     1       4.288   0.855  -1.382  1.00  0.00     0.014 C 
BRANCH   7   8
ATOM      8  C   UNL     1       4.923   1.775  -2.358  1.00  0.00    -0.025 A 
ATOM      9  C   UNL     1       6.311   1.713  -2.557  1.00  0.00     0.009 A 
ATOM     10  C   UNL     1       4.204   2.729  -3.097  1.00  0.00     0.009 A 
ATOM     11  C   UNL     1       6.962   2.608  -3.423  1.00  0.00     0.023 A 
ATOM     12  C   UNL     1       4.841   3.584  -4.008  1.00  0.00     0.023 A 
ATOM     13  C   UNL     1       6.226   3.561  -4.136  1.00  0.00     0.087 A 
BRANCH  13  14
ATOM     14  S   UNL     1       7.095   4.733  -5.167  1.00  0.00     0.261 S 
ATOM     15  O   UNL     1       8.368   5.000  -4.516  1.00  0.00    -0.201 OA
ATOM     16  O   UNL     1       7.057   4.234  -6.519  1.00  0.00    -0.201 OA
BRANCH  14  17
ATOM     17  N   UNL     1       6.264   6.249  -5.155  1.00  0.00    -0.279 N 
ATOM     18  H   UNL     1       6.218   6.819  -5.956  1.00  0.00     0.180 HD
BRANCH  17  19
ATOM     19  C   UNL     1       5.644   6.635  -3.920  1.00  0.00     0.053 A 
ATOM     20  C   UNL     1       4.262   6.851  -3.939  1.00  0.00     0.031 A 
ATOM     21  C   UNL     1       6.351   6.646  -2.722  1.00  0.00     0.077 A 
ATOM     22  C   UNL     1       3.548   6.849  -2.743  1.00  0.00     0.052 A 
ATOM     23  C   UNL     1       5.635   6.573  -1.536  1.00  0.00     0.163 A 
ATOM     24  C   UNL     1       4.236   6.612  -1.558  1.00  0.00     0.161 A 
ATOM     25  O   UNL     1       6.369   6.321  -0.407  1.00  0.00    -0.486 OA
ATOM     26  O   UNL     1       3.488   6.298  -0.450  1.00  0.00    -0.486 OA
ATOM     27  C   UNL     1       5.564   5.971   0.727  1.00  0.00     0.271 C 
ATOM     28  C   UNL     1       4.235   5.349   0.324  1.00  0.00     0.271 C 
ENDBRANCH  17  19
ENDBRANCH  14  17
ENDBRANCH  13  14
ENDBRANCH   7   8
ENDBRANCH   4   6
ENDBRANCH   1   2
BRANCH   1  29
ATOM     29  C   UNL     1       2.515  -3.062   1.488  1.00  0.00     0.023 C 
BRANCH  29  30
ATOM     30  C   UNL     1       3.977  -3.495   1.615  1.00  0.00     0.023 C 
BRANCH  30  31
ATOM     31  C   UNL     1       4.635  -3.198   2.960  1.00  0.00     0.116 C 
BRANCH  31  32
ATOM     32  N   UNL     1       4.016  -3.901   4.071  1.00  0.00    -0.352 N 
ATOM     33  C   UNL     1       4.607  -4.595   5.100  1.00  0.00     0.251 C 
ATOM     34  H   UNL     1       3.032  -3.877   4.089  1.00  0.00     0.163 HD
ATOM     35  O   UNL     1       3.917  -5.232   5.890  1.00  0.00    -0.269 OA
BRANCH  33  36
ATOM     36  C   UNL     1       6.080  -4.607   5.241  1.00  0.00     0.039 A 
ATOM     37  C   UNL     1       6.722  -5.824   5.489  1.00  0.00     0.014 A 
ATOM     38  C   UNL     1       6.829  -3.432   5.133  1.00  0.00     0.014 A 
ATOM     39  C   UNL     1       8.116  -5.875   5.556  1.00  0.00     0.010 A 
ATOM     40  C   UNL     1       8.221  -3.493   5.134  1.00  0.00     0.010 A 
ATOM     41  C   UNL     1       8.879  -4.715   5.341  1.00  0.00    -0.014 A 
BRANCH  41  42
ATOM     42  C   UNL     1      10.364  -4.764   5.317  1.00  0.00     0.031 A 
ATOM     43  C   UNL     1      11.165  -4.035   6.359  1.00  0.00     0.074 A 
ATOM     44  C   UNL     1      10.994  -5.408   4.315  1.00  0.00     0.049 A 
ATOM     45  N   UNL     1      12.463  -3.889   6.455  1.00  0.00    -0.248 NA
ATOM     46  C   UNL     1      10.404  -3.355   7.418  1.00  0.00     0.031 C 
ATOM     47  C   UNL     1      10.332  -6.116   3.218  1.00  0.00     0.029 A 
ATOM     48  N   UNL     1      12.332  -5.559   4.049  1.00  0.00    -0.354 N 
ATOM     49  C   UNL     1      12.672  -3.094   7.574  1.00  0.00     0.074 A 
ATOM     50  C   UNL     1      11.367  -2.745   8.094  1.00  0.00     0.031 C 
ATOM     51  C   UNL     1      11.266  -6.638   2.406  1.00  0.00     0.029 A 
ATOM     52  C   UNL     1      12.589  -6.273   2.903  1.00  0.00     0.049 A 
ATOM     53  H   UNL     1      13.041  -5.191   4.624  1.00  0.00     0.167 HD
ATOM     54  C   UNL     1      13.846  -2.709   8.130  1.00  0.00     0.037 A 
ATOM     55  C   UNL     1      13.758  -6.589   2.315  1.00  0.00     0.037 A 
ATOM     56  C   UNL     1      15.144  -3.076   7.627  1.00  0.00     0.049 A 
ATOM     57  C   UNL     1      15.048  -6.150   2.953  1.00  0.00     0.074 A 
ATOM     58  C   UNL     1      16.389  -2.780   8.152  1.00  0.00     0.029 A 
ATOM     59  N   UNL     1      15.363  -3.823   6.478  1.00  0.00    -0.354 N 
ATOM     60  N   UNL     1      15.233  -5.448   4.044  1.00  0.00    -0.248 NA
ATOM     61  C   UNL     1      16.291  -6.553   2.280  1.00  0.00     0.031 C 
ATOM     62  C   UNL     1      17.363  -3.313   7.301  1.00  0.00     0.029 A 
ATOM     63  C   UNL     1      16.724  -3.981   6.269  1.00  0.00     0.049 A 
ATOM     64  H   UNL     1      14.656  -4.186   5.897  1.00  0.00     0.167 HD
ATOM     65  C   UNL     1      16.609  -5.347   4.204  1.00  0.00     0.074 A 
ATOM     66  C   UNL     1      17.211  -6.072   3.104  1.00  0.00     0.031 C 
ATOM     67  C   UNL     1      17.309  -4.710   5.174  1.00  0.00     0.037 A 
BRANCH  54  68
ATOM     68  C   UNL     1      13.779  -1.845   9.356  1.00  0.00     0.064 A 
ATOM     69  C   UNL     1      13.343  -2.353  10.589  1.00  0.00     0.173 A 
ATOM     70  C   UNL     1      14.188  -0.503   9.307  1.00  0.00     0.173 A 
ATOM     71  F   UNL     1      12.931  -3.626  10.686  1.00  0.00    -0.203 F 
ATOM     72  C   UNL     1      13.290  -1.543  11.720  1.00  0.00     0.198 A 
ATOM     73  C   UNL     1      14.162   0.296  10.447  1.00  0.00     0.198 A 
ATOM     74  F   UNL     1      14.619   0.031   8.154  1.00  0.00    -0.203 F 
ATOM     75  F   UNL     1      12.823  -2.037  12.875  1.00  0.00    -0.200 F 
ATOM     76  C   UNL     1      13.706  -0.222  11.650  1.00  0.00     0.200 A 
ATOM     77  F   UNL     1      14.574   1.569  10.380  1.00  0.00    -0.200 F 
ATOM     78  F   UNL     1      13.658   0.556  12.740  1.00  0.00    -0.200 F 
ENDBRANCH  54  68
BRANCH  55  79
ATOM     79  C   UNL     1      13.763  -7.383   1.060  1.00  0.00     0.064 A 
ATOM     80  C   UNL     1      14.207  -8.713   1.051  1.00  0.00     0.173 A 
ATOM     81  C   UNL     1      13.323  -6.834  -0.153  1.00  0.00     0.173 A 
ATOM     82  F   UNL     1      14.657  -9.275   2.183  1.00  0.00    -0.203 F 
ATOM     83  C   UNL     1      14.230  -9.457  -0.127  1.00  0.00     0.198 A 
ATOM     84  C   UNL     1      13.320  -7.587  -1.325  1.00  0.00     0.198 A 
ATOM     85  F   UNL     1      12.883  -5.567  -0.196  1.00  0.00    -0.203 F 
ATOM     86  F   UNL     1      14.699 -10.711  -0.115  1.00  0.00    -0.200 F 
ATOM     87  C   UNL     1      13.781  -8.895  -1.312  1.00  0.00     0.200 A 
ATOM     88  F   UNL     1      12.873  -7.045  -2.466  1.00  0.00    -0.200 F 
ATOM     89  F   UNL     1      13.797  -9.613  -2.444  1.00  0.00    -0.200 F 
ENDBRANCH  55  79
BRANCH  67  90
ATOM     90  C   UNL     1      18.806  -4.794   5.109  1.00  0.00     0.064 A 
ATOM     91  C   UNL     1      19.541  -4.084   4.149  1.00  0.00     0.173 A 
ATOM     92  C   UNL     1      19.515  -5.563   6.045  1.00  0.00     0.173 A 
ATOM     93  F   UNL     1      18.908  -3.348   3.223  1.00  0.00    -0.203 F 
ATOM     94  C   UNL     1      20.931  -4.159   4.113  1.00  0.00     0.198 A 
ATOM     95  C   UNL     1      20.906  -5.613   6.023  1.00  0.00     0.198 A 
ATOM     96  F   UNL     1      18.858  -6.256   6.987  1.00  0.00    -0.203 F 
ATOM     97  F   UNL     1      21.611  -3.508   3.160  1.00  0.00    -0.200 F 
ATOM     98  C   UNL     1      21.612  -4.917   5.054  1.00  0.00     0.200 A 
ATOM     99  F   UNL     1      21.562  -6.337   6.941  1.00  0.00    -0.200 F 
ATOM    100  F   UNL     1      22.950  -4.983   5.023  1.00  0.00    -0.200 F 
ENDBRANCH  67  90
ENDBRANCH  41  42
ENDBRANCH  33  36
ENDBRANCH  31  32
ENDBRANCH  30  31
ENDBRANCH  29  30
ENDBRANCH   1  29
TORSDOF 15
