REMARK SMILES CC(C)Oc1ccc([C@@H]2CC(=O)Nc3c(C(=O)NCCCCNC(=O)c4ccc(-c5c6nc(c(-c7c(F)c(F)c(F)c(F)c7F)c7ccc([nH]7)c(-c7c(F)c(F)c(F)c(F)c7F)c7nc(c(-c8c(F)c(F)c(F)c(F)c8F)c8ccc5[nH]8)C=C7)C=C6)cc4)nsc32)cc1
REMARK SMILES IDX 20 1 19 2 18 3 16 4 17 5 15 7 9 8 10 9 91 10 11 11 14 12
REMARK SMILES IDX 90 13 12 14 13 15 89 16 8 18 5 19 6 20 93 21 7 22 92 23 4 24
REMARK SMILES IDX 2 25 1 26 3 27 21 28 22 29 23 30 24 31 25 33 26 34 27 35
REMARK SMILES IDX 88 36 28 37 87 38 29 39 30 40 31 41 81 42 32 43 86 44 80 45
REMARK SMILES IDX 82 46 33 47 85 48 79 49 78 50 34 52 66 53 46 54 65 55 47 56
REMARK SMILES IDX 50 57 64 58 83 59 48 60 49 61 63 63 84 64 51 65 35 66 36 67
REMARK SMILES IDX 44 68 37 69 38 70 42 71 45 72 39 73 40 74 43 75 41 76 67 77
REMARK SMILES IDX 68 78 76 79 69 80 70 81 74 82 77 83 71 84 72 85 75 86 73 87
REMARK SMILES IDX 52 88 53 89 61 90 54 91 55 92 59 93 62 94 56 95 57 96 60 97
REMARK SMILES IDX 58 98
REMARK H PARENT 18 6 13 17 23 32 82 51 50 62
REMARK Flexibility Score: inf
ROOT
ATOM      1  C   UNL     1      -5.234  -1.294  -9.774  1.00  0.00     0.023 C 
ENDROOT
BRANCH   1   2
ATOM      2  C   UNL     1      -4.091  -1.173  -8.775  1.00  0.00     0.116 C 
BRANCH   2   3
ATOM      3  N   UNL     1      -2.788  -0.784  -9.278  1.00  0.00    -0.351 N 
ATOM      4  C   UNL     1      -1.789  -0.042  -8.653  1.00  0.00     0.273 C 
ATOM      5  O   UNL     1      -0.727   0.087  -9.267  1.00  0.00    -0.267 OA
ATOM      6  H   UNL     1      -2.580  -1.087 -10.191  1.00  0.00     0.163 HD
BRANCH   4   7
ATOM      7  C   UNL     1      -2.030   0.604  -7.341  1.00  0.00     0.165 A 
ATOM      8  C   UNL     1      -3.842   0.911  -4.053  1.00  0.00     0.073 C 
ATOM      9  C   UNL     1      -4.667  -0.393  -4.102  1.00  0.00     0.114 C 
ATOM     10  C   UNL     1      -3.005   1.067  -5.279  1.00  0.00     0.058 A 
ATOM     11  C   UNL     1      -4.256  -1.439  -5.124  1.00  0.00     0.225 C 
ATOM     12  C   UNL     1      -2.731   0.082  -6.192  1.00  0.00     0.089 A 
ATOM     13  S   UNL     1      -2.204   2.484  -5.754  1.00  0.00    -0.038 S 
ATOM     14  O   UNL     1      -4.875  -2.497  -5.245  1.00  0.00    -0.275 OA
ATOM     15  N   UNL     1      -3.220  -1.187  -5.975  1.00  0.00    -0.323 N 
ATOM     16  N   UNL     1      -1.614   1.871  -7.176  1.00  0.00    -0.185 NA
ATOM     17  H   UNL     1      -2.805  -1.942  -6.452  1.00  0.00     0.170 HD
BRANCH   8  18
ATOM     18  C   UNL     1      -3.019   0.955  -2.779  1.00  0.00    -0.039 A 
ATOM     19  C   UNL     1      -1.518   0.999  -0.414  1.00  0.00     0.119 A 
ATOM     20  C   UNL     1      -2.551   1.916  -0.600  1.00  0.00     0.047 A 
ATOM     21  C   UNL     1      -1.280   0.021  -1.372  1.00  0.00     0.047 A 
ATOM     22  C   UNL     1      -3.298   1.900  -1.780  1.00  0.00     0.008 A 
ATOM     23  C   UNL     1      -2.004   0.014  -2.558  1.00  0.00     0.008 A 
BRANCH  19  24
ATOM     24  O   UNL     1      -0.833   1.052   0.765  1.00  0.00    -0.491 OA
BRANCH  24  25
ATOM     25  C   UNL     1       0.589   1.271   0.687  1.00  0.00     0.167 C 
ATOM     26  C   UNL     1       1.381   0.017   0.323  1.00  0.00     0.052 C 
ATOM     27  C   UNL     1       0.985   2.478  -0.164  1.00  0.00     0.052 C 
ENDBRANCH  24  25
ENDBRANCH  19  24
ENDBRANCH   8  18
ENDBRANCH   4   7
ENDBRANCH   2   3
ENDBRANCH   1   2
BRANCH   1  28
ATOM     28  C   UNL     1      -5.148  -2.404 -10.821  1.00  0.00     0.023 C 
BRANCH  28  29
ATOM     29  C   UNL     1      -4.803  -3.796 -10.304  1.00  0.00     0.116 C 
BRANCH  29  30
ATOM     30  N   UNL     1      -5.815  -4.395  -9.444  1.00  0.00    -0.352 N 
ATOM     31  C   UNL     1      -5.898  -5.728  -9.063  1.00  0.00     0.251 C 
ATOM     32  H   UNL     1      -6.512  -3.793  -9.097  1.00  0.00     0.163 HD
ATOM     33  O   UNL     1      -6.922  -6.199  -8.611  1.00  0.00    -0.269 OA
BRANCH  31  34
ATOM     34  C   UNL     1      -4.700  -6.578  -9.244  1.00  0.00     0.039 A 
ATOM     35  C   UNL     1      -4.806  -7.828  -9.858  1.00  0.00     0.014 A 
ATOM     36  C   UNL     1      -3.459  -6.083  -8.842  1.00  0.00     0.014 A 
ATOM     37  C   UNL     1      -3.641  -8.529 -10.161  1.00  0.00     0.010 A 
ATOM     38  C   UNL     1      -2.304  -6.732  -9.226  1.00  0.00     0.010 A 
ATOM     39  C   UNL     1      -2.386  -7.960  -9.880  1.00  0.00    -0.014 A 
BRANCH  39  40
ATOM     40  C   UNL     1      -1.178  -8.565 -10.449  1.00  0.00     0.031 A 
ATOM     41  C   UNL     1      -1.234  -8.765 -11.926  1.00  0.00     0.074 A 
ATOM     42  C   UNL     1      -0.019  -8.738  -9.776  1.00  0.00     0.049 A 
ATOM     43  N   UNL     1      -1.189  -9.882 -12.573  1.00  0.00    -0.248 NA
ATOM     44  C   UNL     1      -1.488  -7.595 -12.784  1.00  0.00     0.031 C 
ATOM     45  C   UNL     1       0.291  -8.301  -8.411  1.00  0.00     0.029 A 
ATOM     46  N   UNL     1       1.176  -9.243 -10.210  1.00  0.00    -0.354 N 
ATOM     47  C   UNL     1      -1.217  -9.550 -13.927  1.00  0.00     0.074 A 
ATOM     48  C   UNL     1      -1.564  -8.156 -13.993  1.00  0.00     0.031 C 
ATOM     49  C   UNL     1       1.626  -8.345  -8.214  1.00  0.00     0.029 A 
ATOM     50  C   UNL     1       2.249  -8.963  -9.371  1.00  0.00     0.049 A 
ATOM     51  H   UNL     1       1.268  -9.760 -11.043  1.00  0.00     0.167 HD
ATOM     52  C   UNL     1      -0.685 -10.393 -14.855  1.00  0.00     0.037 A 
ATOM     53  C   UNL     1       3.562  -9.203  -9.605  1.00  0.00     0.037 A 
ATOM     54  C   UNL     1      -0.495 -11.707 -14.292  1.00  0.00     0.049 A 
ATOM     55  C   UNL     1       3.643 -10.258 -10.638  1.00  0.00     0.074 A 
ATOM     56  C   UNL     1      -1.300 -12.729 -13.840  1.00  0.00     0.029 A 
ATOM     57  N   UNL     1       0.758 -11.934 -13.793  1.00  0.00    -0.354 N 
ATOM     58  N   UNL     1       3.297 -11.497 -10.438  1.00  0.00    -0.248 NA
ATOM     59  C   UNL     1       3.820  -9.876 -12.032  1.00  0.00     0.031 C 
ATOM     60  C   UNL     1      -0.550 -13.387 -12.818  1.00  0.00     0.029 A 
ATOM     61  C   UNL     1       0.699 -12.774 -12.718  1.00  0.00     0.049 A 
ATOM     62  H   UNL     1       1.587 -11.547 -14.159  1.00  0.00     0.167 HD
ATOM     63  C   UNL     1       2.769 -11.900 -11.648  1.00  0.00     0.074 A 
ATOM     64  C   UNL     1       3.296 -10.953 -12.622  1.00  0.00     0.031 C 
ATOM     65  C   UNL     1       1.707 -12.758 -11.682  1.00  0.00     0.037 A 
BRANCH  52  66
ATOM     66  C   UNL     1       0.130  -9.950 -16.062  1.00  0.00     0.064 A 
ATOM     67  C   UNL     1       0.639 -10.941 -16.934  1.00  0.00     0.173 A 
ATOM     68  C   UNL     1       0.721  -8.675 -16.195  1.00  0.00     0.173 A 
ATOM     69  F   UNL     1       0.163 -12.195 -16.896  1.00  0.00    -0.203 F 
ATOM     70  C   UNL     1       1.723 -10.698 -17.784  1.00  0.00     0.198 A 
ATOM     71  C   UNL     1       1.770  -8.425 -17.082  1.00  0.00     0.198 A 
ATOM     72  F   UNL     1       0.399  -7.649 -15.402  1.00  0.00    -0.203 F 
ATOM     73  F   UNL     1       2.262 -11.707 -18.482  1.00  0.00    -0.200 F 
ATOM     74  C   UNL     1       2.295  -9.443 -17.848  1.00  0.00     0.200 A 
ATOM     75  F   UNL     1       2.325  -7.205 -17.114  1.00  0.00    -0.200 F 
ATOM     76  F   UNL     1       3.379  -9.224 -18.604  1.00  0.00    -0.200 F 
ENDBRANCH  52  66
BRANCH  53  77
ATOM     77  C   UNL     1       4.763  -8.475  -9.135  1.00  0.00     0.064 A 
ATOM     78  C   UNL     1       6.041  -9.056  -9.211  1.00  0.00     0.173 A 
ATOM     79  C   UNL     1       4.721  -7.092  -8.878  1.00  0.00     0.173 A 
ATOM     80  F   UNL     1       6.175 -10.362  -9.484  1.00  0.00    -0.203 F 
ATOM     81  C   UNL     1       7.205  -8.291  -9.087  1.00  0.00     0.198 A 
ATOM     82  C   UNL     1       5.883  -6.331  -8.746  1.00  0.00     0.198 A 
ATOM     83  F   UNL     1       3.552  -6.435  -8.849  1.00  0.00    -0.203 F 
ATOM     84  F   UNL     1       8.405  -8.870  -9.243  1.00  0.00    -0.200 F 
ATOM     85  C   UNL     1       7.125  -6.927  -8.869  1.00  0.00     0.200 A 
ATOM     86  F   UNL     1       5.793  -5.005  -8.567  1.00  0.00    -0.200 F 
ATOM     87  F   UNL     1       8.238  -6.181  -8.822  1.00  0.00    -0.200 F 
ENDBRANCH  53  77
BRANCH  65  88
ATOM     88  C   UNL     1       1.485 -13.615 -10.471  1.00  0.00     0.064 A 
ATOM     89  C   UNL     1       1.186 -13.132  -9.186  1.00  0.00     0.173 A 
ATOM     90  C   UNL     1       1.525 -15.006 -10.645  1.00  0.00     0.173 A 
ATOM     91  F   UNL     1       1.036 -11.821  -8.956  1.00  0.00    -0.203 F 
ATOM     92  C   UNL     1       1.003 -14.004  -8.114  1.00  0.00     0.198 A 
ATOM     93  C   UNL     1       1.297 -15.874  -9.583  1.00  0.00     0.198 A 
ATOM     94  F   UNL     1       1.760 -15.526 -11.860  1.00  0.00    -0.203 F 
ATOM     95  F   UNL     1       0.759 -13.518  -6.888  1.00  0.00    -0.200 F 
ATOM     96  C   UNL     1       1.054 -15.373  -8.315  1.00  0.00     0.200 A 
ATOM     97  F   UNL     1       1.302 -17.197  -9.793  1.00  0.00    -0.200 F 
ATOM     98  F   UNL     1       0.851 -16.212  -7.290  1.00  0.00    -0.200 F 
ENDBRANCH  65  88
ENDBRANCH  39  40
ENDBRANCH  31  34
ENDBRANCH  29  30
ENDBRANCH  28  29
ENDBRANCH   1  28
TORSDOF 14
