REMARK SMILES O=C(NCCCCNC(=O)[C@H]1C[C@@H]2CCCC[C@H]2N1C(=O)CN1CSCC1=O)c1ccc(-c2c3nc(c(-c4c(F)c(F)c(F)c(F)c4F)c4ccc([nH]4)c(-c4c(F)c(F)c(F)c(F)c4F)c4nc(c(-c5c(F)c(F)c(F)c(F)c5F)c5ccc2[nH]5)C=C4)C=C3)cc1
REMARK SMILES IDX 6 1 5 2 4 3 3 4 1 5 2 6 29 8 30 9 91 10 31 11 90 12 32 13
REMARK SMILES IDX 33 14 34 15 84 16 35 17 89 18 83 19 85 20 36 21 88 22 82 23
REMARK SMILES IDX 81 24 37 26 69 27 49 28 68 29 50 30 53 31 67 32 86 33 51 34
REMARK SMILES IDX 52 35 66 37 87 38 54 39 38 40 39 41 47 42 40 43 41 44 45 45
REMARK SMILES IDX 48 46 42 47 43 48 46 49 44 50 70 51 71 52 79 53 72 54 73 55
REMARK SMILES IDX 77 56 80 57 74 58 75 59 78 60 76 61 55 62 56 63 64 64 57 65
REMARK SMILES IDX 58 66 62 67 65 68 59 69 60 70 63 71 61 72 7 73 8 74 9 75
REMARK SMILES IDX 10 77 11 78 12 79 19 80 13 81 18 82 14 83 17 84 15 85 16 86
REMARK SMILES IDX 20 87 21 88 22 89 23 90 24 91 27 92 25 93 26 94 28 95
REMARK H PARENT 3 7 85 25 53 36 8 76
REMARK Flexibility Score: inf
ROOT
ATOM      1  C   UNL     1       4.310   0.800  -3.929  1.00  0.00     0.023 C 
ENDROOT
BRANCH   1   2
ATOM      2  C   UNL     1       4.729  -0.248  -2.897  1.00  0.00     0.023 C 
BRANCH   2   3
ATOM      3  C   UNL     1       4.426   0.108  -1.449  1.00  0.00     0.116 C 
BRANCH   3   4
ATOM      4  N   UNL     1       3.008   0.291  -1.174  1.00  0.00    -0.352 N 
ATOM      5  O   UNL     1       1.085   0.048  -0.004  1.00  0.00    -0.269 OA
ATOM      6  C   UNL     1       2.303  -0.085  -0.053  1.00  0.00     0.251 C 
ATOM      7  H   UNL     1       2.488   0.742  -1.879  1.00  0.00     0.163 HD
BRANCH   6   8
ATOM      8  C   UNL     1       3.031  -0.691   1.083  1.00  0.00     0.039 A 
ATOM      9  C   UNL     1       4.209  -0.108   1.550  1.00  0.00     0.014 A 
ATOM     10  C   UNL     1       2.556  -1.875   1.653  1.00  0.00     0.014 A 
ATOM     11  C   UNL     1       4.994  -0.791   2.468  1.00  0.00     0.010 A 
ATOM     12  C   UNL     1       3.302  -2.513   2.649  1.00  0.00     0.010 A 
ATOM     13  C   UNL     1       4.546  -1.995   3.039  1.00  0.00    -0.014 A 
BRANCH  13  14
ATOM     14  C   UNL     1       5.382  -2.639   4.084  1.00  0.00     0.031 A 
ATOM     15  C   UNL     1       6.014  -3.985   3.870  1.00  0.00     0.074 A 
ATOM     16  C   UNL     1       5.624  -1.949   5.217  1.00  0.00     0.049 A 
ATOM     17  N   UNL     1       6.831  -4.644   4.655  1.00  0.00    -0.248 NA
ATOM     18  C   UNL     1       5.687  -4.690   2.622  1.00  0.00     0.031 C 
ATOM     19  C   UNL     1       5.044  -0.644   5.542  1.00  0.00     0.029 A 
ATOM     20  N   UNL     1       6.438  -2.226   6.284  1.00  0.00    -0.354 N 
ATOM     21  C   UNL     1       7.109  -5.839   4.003  1.00  0.00     0.074 A 
ATOM     22  C   UNL     1       6.347  -5.831   2.772  1.00  0.00     0.031 C 
ATOM     23  C   UNL     1       5.565  -0.206   6.696  1.00  0.00     0.029 A 
ATOM     24  C   UNL     1       6.465  -1.224   7.223  1.00  0.00     0.049 A 
ATOM     25  H   UNL     1       6.953  -3.061   6.369  1.00  0.00     0.167 HD
ATOM     26  C   UNL     1       7.933  -6.841   4.394  1.00  0.00     0.037 A 
ATOM     27  C   UNL     1       7.133  -1.137   8.388  1.00  0.00     0.037 A 
ATOM     28  C   UNL     1       8.693  -6.840   5.619  1.00  0.00     0.049 A 
ATOM     29  C   UNL     1       8.038  -2.264   8.791  1.00  0.00     0.074 A 
ATOM     30  C   UNL     1       9.559  -7.807   6.102  1.00  0.00     0.029 A 
ATOM     31  N   UNL     1       8.680  -5.816   6.556  1.00  0.00    -0.354 N 
ATOM     32  N   UNL     1       8.305  -3.377   8.154  1.00  0.00    -0.248 NA
ATOM     33  C   UNL     1       8.736  -2.121  10.075  1.00  0.00     0.031 C 
ATOM     34  C   UNL     1      10.040  -7.386   7.347  1.00  0.00     0.029 A 
ATOM     35  C   UNL     1       9.512  -6.135   7.619  1.00  0.00     0.049 A 
ATOM     36  H   UNL     1       8.156  -4.986   6.479  1.00  0.00     0.167 HD
ATOM     37  C   UNL     1       9.203  -4.067   8.955  1.00  0.00     0.074 A 
ATOM     38  C   UNL     1       9.464  -3.228  10.106  1.00  0.00     0.031 C 
ATOM     39  C   UNL     1       9.753  -5.290   8.761  1.00  0.00     0.037 A 
BRANCH  26  40
ATOM     40  C   UNL     1       8.060  -8.035   3.490  1.00  0.00     0.064 A 
ATOM     41  C   UNL     1       8.758  -7.965   2.276  1.00  0.00     0.173 A 
ATOM     42  C   UNL     1       7.536  -9.280   3.873  1.00  0.00     0.173 A 
ATOM     43  F   UNL     1       9.270  -6.797   1.858  1.00  0.00    -0.203 F 
ATOM     44  C   UNL     1       8.912  -9.091   1.470  1.00  0.00     0.198 A 
ATOM     45  C   UNL     1       7.714 -10.409   3.078  1.00  0.00     0.198 A 
ATOM     46  F   UNL     1       6.866  -9.405   5.029  1.00  0.00    -0.203 F 
ATOM     47  F   UNL     1       9.554  -8.992   0.298  1.00  0.00    -0.200 F 
ATOM     48  C   UNL     1       8.398 -10.314   1.876  1.00  0.00     0.200 A 
ATOM     49  F   UNL     1       7.228 -11.593   3.478  1.00  0.00    -0.200 F 
ATOM     50  F   UNL     1       8.558 -11.399   1.106  1.00  0.00    -0.200 F 
ENDBRANCH  26  40
BRANCH  27  51
ATOM     51  C   UNL     1       6.955   0.059   9.250  1.00  0.00     0.064 A 
ATOM     52  C   UNL     1       8.001   0.967   9.459  1.00  0.00     0.173 A 
ATOM     53  C   UNL     1       5.727   0.322   9.876  1.00  0.00     0.173 A 
ATOM     54  F   UNL     1       9.199   0.751   8.896  1.00  0.00    -0.203 F 
ATOM     55  C   UNL     1       7.831   2.083  10.276  1.00  0.00     0.198 A 
ATOM     56  C   UNL     1       5.548   1.454  10.664  1.00  0.00     0.198 A 
ATOM     57  F   UNL     1       4.692  -0.513   9.700  1.00  0.00    -0.203 F 
ATOM     58  F   UNL     1       8.860   2.912  10.497  1.00  0.00    -0.200 F 
ATOM     59  C   UNL     1       6.603   2.329  10.872  1.00  0.00     0.200 A 
ATOM     60  F   UNL     1       4.353   1.699  11.220  1.00  0.00    -0.200 F 
ATOM     61  F   UNL     1       6.437   3.407  11.650  1.00  0.00    -0.200 F 
ENDBRANCH  27  51
BRANCH  39  62
ATOM     62  C   UNL     1      10.699  -5.780   9.818  1.00  0.00     0.064 A 
ATOM     63  C   UNL     1      10.241  -6.172  11.085  1.00  0.00     0.173 A 
ATOM     64  C   UNL     1      12.075  -5.857   9.562  1.00  0.00     0.173 A 
ATOM     65  F   UNL     1       8.935  -6.099  11.383  1.00  0.00    -0.203 F 
ATOM     66  C   UNL     1      11.132  -6.590  12.069  1.00  0.00     0.198 A 
ATOM     67  C   UNL     1      12.960  -6.304  10.539  1.00  0.00     0.198 A 
ATOM     68  F   UNL     1      12.562  -5.498   8.365  1.00  0.00    -0.203 F 
ATOM     69  F   UNL     1      10.679  -6.903  13.291  1.00  0.00    -0.200 F 
ATOM     70  C   UNL     1      12.490  -6.660  11.794  1.00  0.00     0.200 A 
ATOM     71  F   UNL     1      14.271  -6.380  10.269  1.00  0.00    -0.200 F 
ATOM     72  F   UNL     1      13.347  -7.058  12.744  1.00  0.00    -0.200 F 
ENDBRANCH  39  62
ENDBRANCH  13  14
ENDBRANCH   6   8
ENDBRANCH   3   4
ENDBRANCH   2   3
ENDBRANCH   1   2
BRANCH   1  73
ATOM     73  C   UNL     1       4.857   2.203  -3.667  1.00  0.00     0.116 C 
BRANCH  73  74
ATOM     74  N   UNL     1       6.304   2.247  -3.769  1.00  0.00    -0.354 N 
ATOM     75  C   UNL     1       7.066   2.609  -4.852  1.00  0.00     0.242 C 
ATOM     76  H   UNL     1       6.802   1.985  -2.961  1.00  0.00     0.163 HD
ATOM     77  O   UNL     1       8.293   2.534  -4.758  1.00  0.00    -0.273 OA
BRANCH  75  78
ATOM     78  C   UNL     1       6.349   3.200  -6.082  1.00  0.00     0.175 C 
ATOM     79  C   UNL     1       6.101   4.702  -5.881  1.00  0.00     0.041 C 
ATOM     80  N   UNL     1       7.117   3.079  -7.333  1.00  0.00    -0.326 N 
ATOM     81  C   UNL     1       7.252   5.328  -6.649  1.00  0.00     0.014 C 
ATOM     82  C   UNL     1       7.387   4.412  -7.877  1.00  0.00     0.089 C 
ATOM     83  C   UNL     1       7.068   6.779  -7.071  1.00  0.00     0.006 C 
ATOM     84  C   UNL     1       8.706   4.792  -8.552  1.00  0.00     0.025 C 
ATOM     85  C   UNL     1       8.257   7.234  -7.923  1.00  0.00     0.000 C 
ATOM     86  C   UNL     1       8.606   6.248  -9.040  1.00  0.00     0.002 C 
BRANCH  80  87
ATOM     87  C   UNL     1       7.060   1.859  -7.986  1.00  0.00     0.243 C 
ATOM     88  O   UNL     1       6.373   0.931  -7.536  1.00  0.00    -0.273 OA
BRANCH  87  89
ATOM     89  C   UNL     1       7.812   1.637  -9.296  1.00  0.00     0.220 C 
BRANCH  89  90
ATOM     90  N   UNL     1       6.965   1.608 -10.482  1.00  0.00    -0.323 N 
ATOM     91  C   UNL     1       6.372   0.368 -10.906  1.00  0.00     0.190 C 
ATOM     92  C   UNL     1       6.646   2.738 -11.206  1.00  0.00     0.233 C 
ATOM     93  S   UNL     1       5.728   0.635 -12.564  1.00  0.00    -0.130 SA
ATOM     94  C   UNL     1       5.847   2.431 -12.449  1.00  0.00     0.171 C 
ATOM     95  O   UNL     1       6.970   3.881 -10.901  1.00  0.00    -0.274 OA
ENDBRANCH  89  90
ENDBRANCH  87  89
ENDBRANCH  80  87
ENDBRANCH  75  78
ENDBRANCH  73  74
ENDBRANCH   1  73
TORSDOF 14
