REMARK SMILES Cc1ccccc1OC1(C(=O)NCCCCNC(=O)c2ccc(-c3c4nc(c(-c5c(F)c(F)c(F)c(F)c5F)c5ccc([nH]5)c(-c5c(F)c(F)c(F)c(F)c5F)c5nc(c(-c6c(F)c(F)c(F)c(F)c6F)c6ccc3[nH]6)C=C5)C=C4)cc2)CCN(C(=O)[C@H]2CCCCO2)CC1
REMARK SMILES IDX 14 1 13 2 12 3 10 4 11 5 9 7 83 8 95 9 84 10 94 11 85 12
REMARK SMILES IDX 86 13 87 14 8 15 7 16 1 17 2 18 3 19 4 20 6 21 5 22 88 23
REMARK SMILES IDX 89 24 93 25 90 26 92 27 91 28 15 29 16 30 17 31 18 32 19 34
REMARK SMILES IDX 20 35 21 36 82 37 22 38 81 39 23 40 24 41 25 42 75 43 26 44
REMARK SMILES IDX 80 45 74 46 76 47 27 48 79 49 73 50 72 51 28 53 60 54 40 55
REMARK SMILES IDX 59 56 41 57 44 58 58 59 77 60 42 61 43 62 57 64 78 65 45 66
REMARK SMILES IDX 29 67 30 68 38 69 31 70 32 71 36 72 39 73 33 74 34 75 37 76
REMARK SMILES IDX 35 77 61 78 62 79 70 80 63 81 64 82 68 83 71 84 65 85 66 86
REMARK SMILES IDX 69 87 67 88 46 89 47 90 55 91 48 92 49 93 53 94 56 95 50 96
REMARK SMILES IDX 51 97 54 98 52 99
REMARK H PARENT 12 6 17 33 76 52 44 63
REMARK Flexibility Score: inf
ROOT
ATOM      1  C   UNL     1       9.134  -4.421  -2.402  1.00  0.00     0.023 C 
ENDROOT
BRANCH   1   2
ATOM      2  C   UNL     1       7.746  -4.312  -3.051  1.00  0.00     0.116 C 
BRANCH   2   3
ATOM      3  N   UNL     1       7.149  -5.599  -3.358  1.00  0.00    -0.353 N 
ATOM      4  C   UNL     1       6.163  -6.348  -2.775  1.00  0.00     0.264 C 
ATOM      5  O   UNL     1       5.868  -7.367  -3.414  1.00  0.00    -0.270 OA
ATOM      6  H   UNL     1       7.537  -6.024  -4.157  1.00  0.00     0.163 HD
BRANCH   4   7
ATOM      7  C   UNL     1       5.444  -5.968  -1.417  1.00  0.00     0.190 C 
ATOM      8  C   UNL     1       6.499  -5.964  -0.319  1.00  0.00     0.080 C 
ATOM      9  C   UNL     1       4.603  -4.713  -1.666  1.00  0.00     0.080 C 
ATOM     10  C   UNL     1       6.900  -4.603   0.214  1.00  0.00     0.124 C 
ATOM     11  C   UNL     1       4.951  -3.451  -0.884  1.00  0.00     0.124 C 
ATOM     12  N   UNL     1       5.856  -3.592   0.251  1.00  0.00    -0.340 N 
ATOM     13  C   UNL     1       5.990  -2.619   1.253  1.00  0.00     0.251 C 
ATOM     14  O   UNL     1       6.946  -2.652   2.034  1.00  0.00    -0.272 OA
BRANCH   7  15
ATOM     15  O   UNL     1       4.562  -7.115  -1.240  1.00  0.00    -0.477 OA
BRANCH  15  16
ATOM     16  C   UNL     1       3.638  -7.454  -0.299  1.00  0.00     0.123 A 
ATOM     17  C   UNL     1       3.965  -5.787   1.662  1.00  0.00     0.048 C 
ATOM     18  C   UNL     1       3.317  -6.932   0.964  1.00  0.00    -0.009 A 
ATOM     19  C   UNL     1       2.314  -7.560   1.747  1.00  0.00     0.007 A 
ATOM     20  C   UNL     1       1.614  -8.668   1.295  1.00  0.00     0.001 A 
ATOM     21  C   UNL     1       2.909  -8.582  -0.729  1.00  0.00     0.047 A 
ATOM     22  C   UNL     1       1.911  -9.182   0.047  1.00  0.00     0.004 A 
ENDBRANCH  15  16
ENDBRANCH   7  15
BRANCH  13  23
ATOM     23  C   UNL     1       4.889  -1.542   1.392  1.00  0.00     0.207 C 
ATOM     24  C   UNL     1       3.699  -2.162   2.139  1.00  0.00     0.042 C 
ATOM     25  O   UNL     1       5.436  -0.436   2.119  1.00  0.00    -0.368 OA
ATOM     26  C   UNL     1       2.686  -1.118   2.590  1.00  0.00     0.006 C 
ATOM     27  C   UNL     1       4.491   0.581   2.419  1.00  0.00     0.161 C 
ATOM     28  C   UNL     1       3.387   0.027   3.303  1.00  0.00     0.029 C 
ENDBRANCH  13  23
ENDBRANCH   4   7
ENDBRANCH   2   3
ENDBRANCH   1   2
BRANCH   1  29
ATOM     29  C   UNL     1      10.269  -4.811  -3.342  1.00  0.00     0.023 C 
BRANCH  29  30
ATOM     30  C   UNL     1      10.690  -3.703  -4.297  1.00  0.00     0.116 C 
BRANCH  30  31
ATOM     31  N   UNL     1      11.690  -2.779  -3.775  1.00  0.00    -0.352 N 
ATOM     32  C   UNL     1      12.233  -1.641  -4.360  1.00  0.00     0.251 C 
ATOM     33  H   UNL     1      12.030  -2.992  -2.876  1.00  0.00     0.163 HD
ATOM     34  O   UNL     1      13.133  -1.035  -3.806  1.00  0.00    -0.269 OA
BRANCH  32  35
ATOM     35  C   UNL     1      11.602  -1.073  -5.582  1.00  0.00     0.039 A 
ATOM     36  C   UNL     1      11.345   0.305  -5.599  1.00  0.00     0.014 A 
ATOM     37  C   UNL     1      11.036  -1.897  -6.546  1.00  0.00     0.014 A 
ATOM     38  C   UNL     1      10.296   0.791  -6.373  1.00  0.00     0.010 A 
ATOM     39  C   UNL     1       9.915  -1.449  -7.211  1.00  0.00     0.010 A 
ATOM     40  C   UNL     1       9.498  -0.124  -7.054  1.00  0.00    -0.014 A 
BRANCH  40  41
ATOM     41  C   UNL     1       8.143   0.166  -7.504  1.00  0.00     0.031 A 
ATOM     42  C   UNL     1       7.833   0.226  -8.944  1.00  0.00     0.074 A 
ATOM     43  C   UNL     1       7.154   0.208  -6.582  1.00  0.00     0.049 A 
ATOM     44  N   UNL     1       6.752   0.726  -9.439  1.00  0.00    -0.248 NA
ATOM     45  C   UNL     1       8.770  -0.227  -9.963  1.00  0.00     0.031 C 
ATOM     46  C   UNL     1       5.715   0.124  -6.814  1.00  0.00     0.029 A 
ATOM     47  N   UNL     1       7.267   0.532  -5.218  1.00  0.00    -0.354 N 
ATOM     48  C   UNL     1       6.713   0.410 -10.780  1.00  0.00     0.074 A 
ATOM     49  C   UNL     1       8.035  -0.088 -11.069  1.00  0.00     0.031 C 
ATOM     50  C   UNL     1       5.074   0.657  -5.761  1.00  0.00     0.029 A 
ATOM     51  C   UNL     1       6.086   1.241  -4.900  1.00  0.00     0.049 A 
ATOM     52  H   UNL     1       8.012   0.313  -4.613  1.00  0.00     0.167 HD
ATOM     53  C   UNL     1       5.515   0.489 -11.431  1.00  0.00     0.037 A 
ATOM     54  C   UNL     1       6.131   2.557  -4.541  1.00  0.00     0.037 A 
ATOM     55  C   UNL     1       4.519   1.157 -10.585  1.00  0.00     0.049 A 
ATOM     56  C   UNL     1       5.365   3.473  -5.469  1.00  0.00     0.074 A 
ATOM     57  C   UNL     1       3.469   0.692  -9.809  1.00  0.00     0.029 A 
ATOM     58  N   UNL     1       4.724   2.483 -10.210  1.00  0.00    -0.354 N 
ATOM     59  N   UNL     1       5.009   3.147  -6.681  1.00  0.00    -0.248 NA
ATOM     60  C   UNL     1       4.965   4.832  -5.116  1.00  0.00     0.031 C 
ATOM     61  C   UNL     1       3.096   1.725  -8.910  1.00  0.00     0.029 A 
ATOM     62  C   UNL     1       3.897   2.826  -9.158  1.00  0.00     0.049 A 
ATOM     63  H   UNL     1       5.371   3.091 -10.636  1.00  0.00     0.167 HD
ATOM     64  C   UNL     1       4.380   4.209  -7.275  1.00  0.00     0.074 A 
ATOM     65  C   UNL     1       4.356   5.232  -6.246  1.00  0.00     0.031 C 
ATOM     66  C   UNL     1       3.948   4.159  -8.570  1.00  0.00     0.037 A 
BRANCH  53  67
ATOM     67  C   UNL     1       5.150  -0.278 -12.698  1.00  0.00     0.064 A 
ATOM     68  C   UNL     1       3.793  -0.500 -13.033  1.00  0.00     0.173 A 
ATOM     69  C   UNL     1       6.059  -0.907 -13.573  1.00  0.00     0.173 A 
ATOM     70  F   UNL     1       2.800   0.105 -12.369  1.00  0.00    -0.203 F 
ATOM     71  C   UNL     1       3.393  -1.359 -14.066  1.00  0.00     0.198 A 
ATOM     72  C   UNL     1       5.663  -1.788 -14.587  1.00  0.00     0.198 A 
ATOM     73  F   UNL     1       7.369  -0.668 -13.531  1.00  0.00    -0.203 F 
ATOM     74  F   UNL     1       2.088  -1.546 -14.309  1.00  0.00    -0.200 F 
ATOM     75  C   UNL     1       4.330  -2.027 -14.824  1.00  0.00     0.200 A 
ATOM     76  F   UNL     1       6.596  -2.399 -15.331  1.00  0.00    -0.200 F 
ATOM     77  F   UNL     1       3.953  -2.874 -15.791  1.00  0.00    -0.200 F 
ENDBRANCH  53  67
BRANCH  54  78
ATOM     78  C   UNL     1       7.374   2.920  -3.810  1.00  0.00     0.064 A 
ATOM     79  C   UNL     1       7.607   2.314  -2.559  1.00  0.00     0.173 A 
ATOM     80  C   UNL     1       8.468   3.499  -4.462  1.00  0.00     0.173 A 
ATOM     81  F   UNL     1       6.591   1.737  -1.898  1.00  0.00    -0.203 F 
ATOM     82  C   UNL     1       8.895   2.187  -2.044  1.00  0.00     0.198 A 
ATOM     83  C   UNL     1       9.757   3.382  -3.934  1.00  0.00     0.198 A 
ATOM     84  F   UNL     1       8.317   4.067  -5.667  1.00  0.00    -0.203 F 
ATOM     85  F   UNL     1       9.096   1.500  -0.911  1.00  0.00    -0.200 F 
ATOM     86  C   UNL     1       9.973   2.696  -2.747  1.00  0.00     0.200 A 
ATOM     87  F   UNL     1      10.806   3.842  -4.632  1.00  0.00    -0.200 F 
ATOM     88  F   UNL     1      11.222   2.487  -2.308  1.00  0.00    -0.200 F 
ENDBRANCH  54  78
BRANCH  66  89
ATOM     89  C   UNL     1       3.459   5.332  -9.387  1.00  0.00     0.064 A 
ATOM     90  C   UNL     1       3.890   6.655  -9.196  1.00  0.00     0.173 A 
ATOM     91  C   UNL     1       2.632   5.118 -10.517  1.00  0.00     0.173 A 
ATOM     92  F   UNL     1       4.768   6.972  -8.236  1.00  0.00    -0.203 F 
ATOM     93  C   UNL     1       3.475   7.696 -10.034  1.00  0.00     0.198 A 
ATOM     94  C   UNL     1       2.270   6.147 -11.385  1.00  0.00     0.198 A 
ATOM     95  F   UNL     1       2.172   3.897 -10.827  1.00  0.00    -0.203 F 
ATOM     96  F   UNL     1       3.881   8.949  -9.784  1.00  0.00    -0.200 F 
ATOM     97  C   UNL     1       2.678   7.440 -11.134  1.00  0.00     0.200 A 
ATOM     98  F   UNL     1       1.542   5.873 -12.476  1.00  0.00    -0.200 F 
ATOM     99  F   UNL     1       2.325   8.433 -11.961  1.00  0.00    -0.200 F 
ENDBRANCH  66  89
ENDBRANCH  40  41
ENDBRANCH  32  35
ENDBRANCH  30  31
ENDBRANCH  29  30
ENDBRANCH   1  29
TORSDOF 14
