REMARK SMILES O=C(NCCCCNC(=O)[C@@H]1CCCC[C@H]1C(=O)Nc1cccc(O)c1)c1ccc(-c2c3nc(c(-c4c(F)c(F)c(F)c(F)c4F)c4ccc([nH]4)c(-c4c(F)c(F)c(F)c(F)c4F)c4nc(c(-c5c(F)c(F)c(F)c(F)c5F)c5ccc2[nH]5)C=C4)C=C3)cc1
REMARK SMILES IDX 6 1 5 2 4 3 3 4 1 5 2 6 27 8 28 9 89 10 29 11 88 12 30 13
REMARK SMILES IDX 31 14 32 15 82 16 33 17 87 18 81 19 83 20 34 21 86 22 80 23
REMARK SMILES IDX 79 24 35 26 67 27 47 28 66 29 48 30 51 31 65 32 84 33 49 34
REMARK SMILES IDX 50 35 64 37 85 38 52 39 36 40 37 41 45 42 38 43 39 44 43 45
REMARK SMILES IDX 46 46 40 47 41 48 44 49 42 50 68 51 69 52 77 53 70 54 71 55
REMARK SMILES IDX 75 56 78 57 72 58 73 59 76 60 74 61 53 62 54 63 62 64 55 65
REMARK SMILES IDX 56 66 60 67 63 68 57 69 58 70 61 71 59 72 7 73 8 74 9 75
REMARK SMILES IDX 10 77 11 78 12 79 16 80 13 81 15 82 14 83 17 84 18 85 19 86
REMARK SMILES IDX 20 88 21 89 26 90 22 91 24 92 23 93 25 94
REMARK H PARENT 3 7 83 25 51 36 8 76 19 87 25 95
REMARK Flexibility Score: inf
ROOT
ATOM      1  C   UNL     1       4.888  -1.616   3.341  1.00  0.00     0.023 C 
ENDROOT
BRANCH   1   2
ATOM      2  C   UNL     1       5.196  -0.392   2.477  1.00  0.00     0.023 C 
BRANCH   2   3
ATOM      3  C   UNL     1       4.751  -0.498   1.022  1.00  0.00     0.116 C 
BRANCH   3   4
ATOM      4  N   UNL     1       3.319  -0.706   0.871  1.00  0.00    -0.352 N 
ATOM      5  O   UNL     1       1.254  -0.320   0.037  1.00  0.00    -0.269 OA
ATOM      6  C   UNL     1       2.459  -0.126  -0.033  1.00  0.00     0.251 C 
ATOM      7  H   UNL     1       2.912  -1.347   1.498  1.00  0.00     0.163 HD
BRANCH   6   8
ATOM      8  C   UNL     1       3.008   0.771  -1.070  1.00  0.00     0.039 A 
ATOM      9  C   UNL     1       4.101   0.377  -1.848  1.00  0.00     0.014 A 
ATOM     10  C   UNL     1       2.435   2.033  -1.238  1.00  0.00     0.014 A 
ATOM     11  C   UNL     1       4.702   1.293  -2.704  1.00  0.00     0.010 A 
ATOM     12  C   UNL     1       2.999   2.928  -2.148  1.00  0.00     0.010 A 
ATOM     13  C   UNL     1       4.155   2.575  -2.863  1.00  0.00    -0.014 A 
BRANCH  13  14
ATOM     14  C   UNL     1       4.770   3.538  -3.808  1.00  0.00     0.031 A 
ATOM     15  C   UNL     1       5.399   4.805  -3.309  1.00  0.00     0.074 A 
ATOM     16  C   UNL     1       4.725   3.275  -5.126  1.00  0.00     0.049 A 
ATOM     17  N   UNL     1       5.886   5.811  -3.990  1.00  0.00    -0.248 NA
ATOM     18  C   UNL     1       5.481   4.970  -1.850  1.00  0.00     0.031 C 
ATOM     19  C   UNL     1       4.140   2.074  -5.723  1.00  0.00     0.029 A 
ATOM     20  N   UNL     1       5.161   4.006  -6.201  1.00  0.00    -0.354 N 
ATOM     21  C   UNL     1       6.307   6.739  -3.047  1.00  0.00     0.074 A 
ATOM     22  C   UNL     1       6.002   6.185  -1.745  1.00  0.00     0.031 C 
ATOM     23  C   UNL     1       4.253   2.149  -7.057  1.00  0.00     0.029 A 
ATOM     24  C   UNL     1       4.861   3.428  -7.408  1.00  0.00     0.049 A 
ATOM     25  H   UNL     1       5.641   4.861  -6.115  1.00  0.00     0.167 HD
ATOM     26  C   UNL     1       6.894   7.942  -3.256  1.00  0.00     0.037 A 
ATOM     27  C   UNL     1       5.019   3.892  -8.661  1.00  0.00     0.037 A 
ATOM     28  C   UNL     1       7.205   8.475  -4.557  1.00  0.00     0.049 A 
ATOM     29  C   UNL     1       5.644   5.240  -8.869  1.00  0.00     0.074 A 
ATOM     30  C   UNL     1       7.845   9.661  -4.875  1.00  0.00     0.029 A 
ATOM     31  N   UNL     1       6.890   7.857  -5.760  1.00  0.00    -0.354 N 
ATOM     32  N   UNL     1       6.067   6.098  -7.973  1.00  0.00    -0.248 NA
ATOM     33  C   UNL     1       5.813   5.686 -10.258  1.00  0.00     0.031 C 
ATOM     34  C   UNL     1       7.871   9.783  -6.269  1.00  0.00     0.029 A 
ATOM     35  C   UNL     1       7.296   8.649  -6.821  1.00  0.00     0.049 A 
ATOM     36  H   UNL     1       6.444   6.983  -5.845  1.00  0.00     0.167 HD
ATOM     37  C   UNL     1       6.572   7.176  -8.685  1.00  0.00     0.074 A 
ATOM     38  C   UNL     1       6.405   6.862 -10.090  1.00  0.00     0.031 C 
ATOM     39  C   UNL     1       7.127   8.319  -8.214  1.00  0.00     0.037 A 
BRANCH  26  40
ATOM     40  C   UNL     1       7.207   8.781  -2.049  1.00  0.00     0.064 A 
ATOM     41  C   UNL     1       8.225   8.436  -1.149  1.00  0.00     0.173 A 
ATOM     42  C   UNL     1       6.487   9.961  -1.803  1.00  0.00     0.173 A 
ATOM     43  F   UNL     1       8.937   7.313  -1.332  1.00  0.00    -0.203 F 
ATOM     44  C   UNL     1       8.489   9.222  -0.029  1.00  0.00     0.198 A 
ATOM     45  C   UNL     1       6.773  10.760  -0.699  1.00  0.00     0.198 A 
ATOM     46  F   UNL     1       5.508  10.343  -2.637  1.00  0.00    -0.203 F 
ATOM     47  F   UNL     1       9.431   8.844   0.846  1.00  0.00    -0.200 F 
ATOM     48  C   UNL     1       7.766  10.385   0.192  1.00  0.00     0.200 A 
ATOM     49  F   UNL     1       6.082  11.890  -0.494  1.00  0.00    -0.200 F 
ATOM     50  F   UNL     1       8.021  11.139   1.271  1.00  0.00    -0.200 F 
ENDBRANCH  26  40
BRANCH  27  51
ATOM     51  C   UNL     1       4.555   3.060  -9.799  1.00  0.00     0.064 A 
ATOM     52  C   UNL     1       5.468   2.403 -10.632  1.00  0.00     0.173 A 
ATOM     53  C   UNL     1       3.186   2.849 -10.027  1.00  0.00     0.173 A 
ATOM     54  F   UNL     1       6.785   2.587 -10.459  1.00  0.00    -0.203 F 
ATOM     55  C   UNL     1       5.029   1.561 -11.651  1.00  0.00     0.198 A 
ATOM     56  C   UNL     1       2.750   1.987 -11.030  1.00  0.00     0.198 A 
ATOM     57  F   UNL     1       2.275   3.449  -9.248  1.00  0.00    -0.203 F 
ATOM     58  F   UNL     1       5.921   0.955 -12.447  1.00  0.00    -0.200 F 
ATOM     59  C   UNL     1       3.672   1.345 -11.842  1.00  0.00     0.200 A 
ATOM     60  F   UNL     1       1.439   1.766 -11.197  1.00  0.00    -0.200 F 
ATOM     61  F   UNL     1       3.252   0.516 -12.808  1.00  0.00    -0.200 F 
ENDBRANCH  27  51
BRANCH  39  62
ATOM     62  C   UNL     1       7.632   9.306  -9.224  1.00  0.00     0.064 A 
ATOM     63  C   UNL     1       6.758  10.118  -9.959  1.00  0.00     0.173 A 
ATOM     64  C   UNL     1       9.011   9.487  -9.406  1.00  0.00     0.173 A 
ATOM     65  F   UNL     1       5.430   9.970  -9.831  1.00  0.00    -0.203 F 
ATOM     66  C   UNL     1       7.247  11.072 -10.848  1.00  0.00     0.198 A 
ATOM     67  C   UNL     1       9.497  10.457 -10.277  1.00  0.00     0.198 A 
ATOM     68  F   UNL     1       9.888   8.735  -8.722  1.00  0.00    -0.203 F 
ATOM     69  F   UNL     1       6.394  11.819 -11.562  1.00  0.00    -0.200 F 
ATOM     70  C   UNL     1       8.615  11.247 -10.998  1.00  0.00     0.200 A 
ATOM     71  F   UNL     1      10.819  10.633 -10.412  1.00  0.00    -0.200 F 
ATOM     72  F   UNL     1       9.084  12.177 -11.842  1.00  0.00    -0.200 F 
ENDBRANCH  39  62
ENDBRANCH  13  14
ENDBRANCH   6   8
ENDBRANCH   3   4
ENDBRANCH   2   3
ENDBRANCH   1   2
BRANCH   1  73
ATOM     73  C   UNL     1       5.506  -2.916   2.830  1.00  0.00     0.116 C 
BRANCH  73  74
ATOM     74  N   UNL     1       6.933  -2.980   3.076  1.00  0.00    -0.356 N 
ATOM     75  C   UNL     1       7.618  -3.629   4.062  1.00  0.00     0.223 C 
ATOM     76  H   UNL     1       7.491  -2.480   2.437  1.00  0.00     0.163 HD
ATOM     77  O   UNL     1       8.848  -3.570   4.056  1.00  0.00    -0.275 OA
BRANCH  75  78
ATOM     78  C   UNL     1       6.847  -4.399   5.135  1.00  0.00     0.091 C 
ATOM     79  C   UNL     1       7.491  -4.128   6.505  1.00  0.00     0.014 C 
ATOM     80  C   UNL     1       6.802  -5.903   4.794  1.00  0.00     0.091 C 
ATOM     81  C   UNL     1       6.886  -5.003   7.593  1.00  0.00     0.001 C 
ATOM     82  C   UNL     1       6.503  -6.864   5.961  1.00  0.00     0.014 C 
ATOM     83  C   UNL     1       7.149  -6.467   7.280  1.00  0.00     0.001 C 
BRANCH  80  84
ATOM     84  C   UNL     1       5.975  -6.246   3.546  1.00  0.00     0.228 C 
ATOM     85  O   UNL     1       6.537  -6.272   2.443  1.00  0.00    -0.274 OA
ATOM     86  N   UNL     1       4.662  -6.618   3.561  1.00  0.00    -0.326 N 
ATOM     87  H   UNL     1       4.398  -7.106   2.748  1.00  0.00     0.169 HD
BRANCH  86  88
ATOM     88  C   UNL     1       3.600  -6.466   4.468  1.00  0.00     0.044 A 
ATOM     89  C   UNL     1       3.434  -5.359   5.298  1.00  0.00     0.026 A 
ATOM     90  C   UNL     1       2.611  -7.453   4.475  1.00  0.00     0.072 A 
ATOM     91  C   UNL     1       2.341  -5.256   6.162  1.00  0.00     0.006 A 
ATOM     92  C   UNL     1       1.531  -7.357   5.353  1.00  0.00     0.117 A 
ATOM     93  C   UNL     1       1.389  -6.267   6.202  1.00  0.00     0.046 A 
BRANCH  92  94
ATOM     94  O   UNL     1       0.621  -8.372   5.353  1.00  0.00    -0.508 OA
ATOM     95  H   UNL     1      -0.117  -8.340   5.931  1.00  0.00     0.293 HD
ENDBRANCH  92  94
ENDBRANCH  86  88
ENDBRANCH  80  84
ENDBRANCH  75  78
ENDBRANCH  73  74
ENDBRANCH   1  73
TORSDOF 14
