REMARK SMILES CC(C)[C@@H]([NH2+][C@@H]1CSCC(C)(C)C1)C(=O)NCCCCNC(=O)c1ccc(-c2c3nc(c(-c4c(F)c(F)c(F)c(F)c4F)c4ccc([nH]4)c(-c4c(F)c(F)c(F)c(F)c4F)c4nc(c(-c5c(F)c(F)c(F)c(F)c5F)c5ccc2[nH]5)C=C4)C=C3)cc1
REMARK SMILES IDX 18 1 17 2 16 3 14 4 15 5 4 7 2 8 1 9 3 10 5 11 6 14 7 15
REMARK SMILES IDX 13 16 8 17 10 18 9 19 11 20 12 21 19 22 20 23 21 24 22 25
REMARK SMILES IDX 23 27 24 28 25 29 86 30 26 31 85 32 27 33 28 34 29 35 79 36
REMARK SMILES IDX 30 37 84 38 78 39 80 40 31 41 83 42 77 43 76 44 32 46 64 47
REMARK SMILES IDX 44 48 63 49 45 50 48 51 62 52 81 53 46 54 47 55 61 57 82 58
REMARK SMILES IDX 49 59 33 60 34 61 42 62 35 63 36 64 40 65 43 66 37 67 38 68
REMARK SMILES IDX 41 69 39 70 65 71 66 72 74 73 67 74 68 75 72 76 75 77 69 78
REMARK SMILES IDX 70 79 73 80 71 81 50 82 51 83 59 84 52 85 53 86 57 87 60 88
REMARK SMILES IDX 54 89 55 90 58 91 56 92
REMARK H PARENT 16 6 5 12 5 13 21 26 80 45 48 56
REMARK Flexibility Score: inf
ROOT
ATOM      1  C   UNL     1       1.334  -2.488  -4.097  1.00  0.00     0.023 C 
ENDROOT
BRANCH   1   2
ATOM      2  C   UNL     1       0.068  -1.987  -3.418  1.00  0.00     0.116 C 
BRANCH   2   3
ATOM      3  N   UNL     1      -0.459  -2.929  -2.454  1.00  0.00    -0.351 N 
ATOM      4  C   UNL     1      -1.024  -2.667  -1.236  1.00  0.00     0.278 C 
ATOM      5  O   UNL     1      -1.546  -3.604  -0.623  1.00  0.00    -0.268 OA
ATOM      6  H   UNL     1      -0.405  -3.879  -2.708  1.00  0.00     0.163 HD
BRANCH   4   7
ATOM      7  C   UNL     1      -0.932  -1.260  -0.591  1.00  0.00     0.275 C 
BRANCH   7   8
ATOM      8  C   UNL     1       0.560  -0.962  -0.222  1.00  0.00     0.051 C 
ATOM      9  C   UNL     1       0.715   0.308   0.621  1.00  0.00     0.014 C 
ATOM     10  C   UNL     1       1.211  -2.133   0.535  1.00  0.00     0.014 C 
ENDBRANCH   7   8
BRANCH   7  11
ATOM     11  N   UNL     1      -1.542  -0.221  -1.472  1.00  0.00    -0.333 N 
ATOM     12  H   UNL     1      -1.295  -0.446  -2.435  1.00  0.00     0.347 HD
ATOM     13  H   UNL     1      -1.170   0.669  -1.139  1.00  0.00     0.347 HD
BRANCH  11  14
ATOM     14  C   UNL     1      -3.015  -0.083  -1.403  1.00  0.00     0.193 C 
ATOM     15  C   UNL     1      -3.878  -1.342  -1.599  1.00  0.00     0.134 C 
ATOM     16  C   UNL     1      -3.510   1.013  -2.390  1.00  0.00     0.073 C 
ATOM     17  S   UNL     1      -3.673  -2.100  -3.238  1.00  0.00    -0.155 SA
ATOM     18  C   UNL     1      -3.464   0.695  -3.913  1.00  0.00    -0.021 C 
ATOM     19  C   UNL     1      -4.076  -0.678  -4.277  1.00  0.00     0.076 C 
ATOM     20  C   UNL     1      -2.032   0.844  -4.461  1.00  0.00     0.012 C 
ATOM     21  C   UNL     1      -4.309   1.754  -4.664  1.00  0.00     0.012 C 
ENDBRANCH  11  14
ENDBRANCH   7  11
ENDBRANCH   4   7
ENDBRANCH   2   3
ENDBRANCH   1   2
BRANCH   1  22
ATOM     22  C   UNL     1       1.077  -3.503  -5.207  1.00  0.00     0.023 C 
BRANCH  22  23
ATOM     23  C   UNL     1       0.225  -2.992  -6.366  1.00  0.00     0.116 C 
BRANCH  23  24
ATOM     24  N   UNL     1       0.815  -1.860  -7.069  1.00  0.00    -0.352 N 
ATOM     25  C   UNL     1       0.914  -1.663  -8.428  1.00  0.00     0.251 C 
ATOM     26  H   UNL     1       1.190  -1.148  -6.501  1.00  0.00     0.163 HD
ATOM     27  O   UNL     1       1.515  -0.706  -8.894  1.00  0.00    -0.269 OA
BRANCH  25  28
ATOM     28  C   UNL     1       0.300  -2.666  -9.320  1.00  0.00     0.039 A 
ATOM     29  C   UNL     1       1.106  -3.342 -10.239  1.00  0.00     0.014 A 
ATOM     30  C   UNL     1      -1.047  -2.999  -9.163  1.00  0.00     0.014 A 
ATOM     31  C   UNL     1       0.577  -4.422 -10.947  1.00  0.00     0.010 A 
ATOM     32  C   UNL     1      -1.552  -4.113  -9.822  1.00  0.00     0.010 A 
ATOM     33  C   UNL     1      -0.742  -4.842 -10.710  1.00  0.00    -0.014 A 
BRANCH  33  34
ATOM     34  C   UNL     1      -1.318  -6.036 -11.376  1.00  0.00     0.031 A 
ATOM     35  C   UNL     1      -2.478  -5.866 -12.313  1.00  0.00     0.074 A 
ATOM     36  C   UNL     1      -0.871  -7.267 -11.064  1.00  0.00     0.049 A 
ATOM     37  N   UNL     1      -3.252  -6.774 -12.850  1.00  0.00    -0.248 NA
ATOM     38  C   UNL     1      -2.833  -4.483 -12.669  1.00  0.00     0.031 C 
ATOM     39  C   UNL     1       0.235  -7.565 -10.152  1.00  0.00     0.029 A 
ATOM     40  N   UNL     1      -1.310  -8.504 -11.466  1.00  0.00    -0.354 N 
ATOM     41  C   UNL     1      -4.201  -6.072 -13.580  1.00  0.00     0.074 A 
ATOM     42  C   UNL     1      -3.930  -4.664 -13.389  1.00  0.00     0.031 C 
ATOM     43  C   UNL     1       0.393  -8.897 -10.072  1.00  0.00     0.029 A 
ATOM     44  C   UNL     1      -0.626  -9.547 -10.890  1.00  0.00     0.049 A 
ATOM     45  H   UNL     1      -2.047  -8.632 -12.107  1.00  0.00     0.167 HD
ATOM     46  C   UNL     1      -5.199  -6.561 -14.353  1.00  0.00     0.037 A 
ATOM     47  C   UNL     1      -0.816 -10.876 -10.998  1.00  0.00     0.037 A 
ATOM     48  C   UNL     1      -5.445  -7.961 -14.568  1.00  0.00     0.049 A 
ATOM     49  C   UNL     1      -1.935 -11.392 -11.863  1.00  0.00     0.074 A 
ATOM     50  C   UNL     1      -6.418  -8.558 -15.350  1.00  0.00     0.029 A 
ATOM     51  N   UNL     1      -4.699  -8.985 -14.003  1.00  0.00    -0.354 N 
ATOM     52  N   UNL     1      -2.814 -10.721 -12.566  1.00  0.00    -0.248 NA
ATOM     53  C   UNL     1      -2.087 -12.852 -11.950  1.00  0.00     0.031 C 
ATOM     54  C   UNL     1      -6.273  -9.945 -15.243  1.00  0.00     0.029 A 
ATOM     55  C   UNL     1      -5.188 -10.210 -14.424  1.00  0.00     0.049 A 
ATOM     56  H   UNL     1      -3.936  -8.859 -13.394  1.00  0.00     0.167 HD
ATOM     57  C   UNL     1      -3.595 -11.672 -13.208  1.00  0.00     0.074 A 
ATOM     58  C   UNL     1      -3.087 -12.969 -12.813  1.00  0.00     0.031 C 
ATOM     59  C   UNL     1      -4.640 -11.488 -14.050  1.00  0.00     0.037 A 
BRANCH  46  60
ATOM     60  C   UNL     1      -6.094  -5.568 -15.031  1.00  0.00     0.064 A 
ATOM     61  C   UNL     1      -5.641  -4.792 -16.108  1.00  0.00     0.173 A 
ATOM     62  C   UNL     1      -7.425  -5.409 -14.619  1.00  0.00     0.173 A 
ATOM     63  F   UNL     1      -4.371  -4.896 -16.528  1.00  0.00    -0.203 F 
ATOM     64  C   UNL     1      -6.481  -3.874 -16.732  1.00  0.00     0.198 A 
ATOM     65  C   UNL     1      -8.271  -4.510 -15.264  1.00  0.00     0.198 A 
ATOM     66  F   UNL     1      -7.908  -6.129 -13.596  1.00  0.00    -0.203 F 
ATOM     67  F   UNL     1      -6.013  -3.110 -17.729  1.00  0.00    -0.200 F 
ATOM     68  C   UNL     1      -7.796  -3.738 -16.314  1.00  0.00     0.200 A 
ATOM     69  F   UNL     1      -9.544  -4.386 -14.866  1.00  0.00    -0.200 F 
ATOM     70  F   UNL     1      -8.605  -2.858 -16.920  1.00  0.00    -0.200 F 
ENDBRANCH  46  60
BRANCH  47  71
ATOM     71  C   UNL     1       0.084 -11.821 -10.286  1.00  0.00     0.064 A 
ATOM     72  C   UNL     1       0.995 -12.613 -10.999  1.00  0.00     0.173 A 
ATOM     73  C   UNL     1       0.038 -11.972  -8.893  1.00  0.00     0.173 A 
ATOM     74  F   UNL     1       1.058 -12.520 -12.336  1.00  0.00    -0.203 F 
ATOM     75  C   UNL     1       1.810 -13.537 -10.349  1.00  0.00     0.198 A 
ATOM     76  C   UNL     1       0.872 -12.879  -8.241  1.00  0.00     0.198 A 
ATOM     77  F   UNL     1      -0.815 -11.236  -8.165  1.00  0.00    -0.203 F 
ATOM     78  F   UNL     1       2.636 -14.315 -11.061  1.00  0.00    -0.200 F 
ATOM     79  C   UNL     1       1.750 -13.666  -8.970  1.00  0.00     0.200 A 
ATOM     80  F   UNL     1       0.819 -12.995  -6.907  1.00  0.00    -0.200 F 
ATOM     81  F   UNL     1       2.531 -14.558  -8.345  1.00  0.00    -0.200 F 
ENDBRANCH  47  71
BRANCH  59  82
ATOM     82  C   UNL     1      -5.259 -12.707 -14.662  1.00  0.00     0.064 A 
ATOM     83  C   UNL     1      -6.106 -13.550 -13.930  1.00  0.00     0.173 A 
ATOM     84  C   UNL     1      -5.048 -12.997 -16.019  1.00  0.00     0.173 A 
ATOM     85  F   UNL     1      -6.325 -13.321 -12.627  1.00  0.00    -0.203 F 
ATOM     86  C   UNL     1      -6.711 -14.650 -14.533  1.00  0.00     0.198 A 
ATOM     87  C   UNL     1      -5.673 -14.083 -16.623  1.00  0.00     0.198 A 
ATOM     88  F   UNL     1      -4.249 -12.216 -16.761  1.00  0.00    -0.203 F 
ATOM     89  F   UNL     1      -7.494 -15.462 -13.809  1.00  0.00    -0.200 F 
ATOM     90  C   UNL     1      -6.501 -14.910 -15.880  1.00  0.00     0.200 A 
ATOM     91  F   UNL     1      -5.477 -14.327 -17.927  1.00  0.00    -0.200 F 
ATOM     92  F   UNL     1      -7.095 -15.962 -16.461  1.00  0.00    -0.200 F 
ENDBRANCH  59  82
ENDBRANCH  33  34
ENDBRANCH  25  28
ENDBRANCH  23  24
ENDBRANCH  22  23
ENDBRANCH   1  22
TORSDOF 14
