REMARK SMILES C[C@@H](C(=O)NCCCCNC(=O)c1ccc(-c2c3nc(c(-c4c(F)c(F)c(F)c(F)c4F)c4ccc([nH]4)c(-c4c(F)c(F)c(F)c(F)c4F)c4nc(c(-c5c(F)c(F)c(F)c(F)c5F)c5ccc2[nH]5)C=C4)C=C3)cc1)c1cc(C(=O)c2ccccc2)ccc1O
REMARK SMILES IDX 7 1 6 2 5 3 3 4 4 5 2 7 1 8 76 9 77 10 89 11 78 12 88 13
REMARK SMILES IDX 87 14 90 15 79 17 80 18 81 19 82 20 86 21 83 22 85 23 84 24
REMARK SMILES IDX 8 25 9 26 10 27 11 28 12 30 13 31 14 32 75 33 15 34 74 35
REMARK SMILES IDX 16 36 17 37 18 38 68 39 19 40 73 41 67 42 69 43 20 44 72 45
REMARK SMILES IDX 66 46 65 47 21 49 53 50 33 51 52 52 34 53 37 54 51 55 70 56
REMARK SMILES IDX 35 57 36 58 50 60 71 61 38 62 22 63 23 64 31 65 24 66 25 67
REMARK SMILES IDX 29 68 32 69 26 70 27 71 30 72 28 73 54 74 55 75 63 76 56 77
REMARK SMILES IDX 57 78 61 79 64 80 58 81 59 82 62 83 60 84 39 85 40 86 48 87
REMARK SMILES IDX 41 88 42 89 46 90 49 91 43 92 44 93 47 94 45 95
REMARK H PARENT 5 6 90 16 10 29 69 48 37 59
REMARK Flexibility Score: inf
ROOT
ATOM      1  C   UNL     1       4.093   1.030  -0.718  1.00  0.00     0.023 C 
ENDROOT
BRANCH   1   2
ATOM      2  C   UNL     1       3.219   2.006   0.081  1.00  0.00     0.116 C 
BRANCH   2   3
ATOM      3  N   UNL     1       2.098   2.466  -0.716  1.00  0.00    -0.356 N 
ATOM      4  C   UNL     1       0.807   2.014  -0.766  1.00  0.00     0.227 C 
ATOM      5  O   UNL     1       0.111   2.433  -1.693  1.00  0.00    -0.274 OA
ATOM      6  H   UNL     1       2.296   3.222  -1.315  1.00  0.00     0.163 HD
BRANCH   4   7
ATOM      7  C   UNL     1       0.274   1.047   0.315  1.00  0.00     0.109 C 
ATOM      8  C   UNL     1       0.902  -0.335   0.108  1.00  0.00     0.023 C 
BRANCH   7   9
ATOM      9  C   UNL     1      -1.264   1.063   0.400  1.00  0.00     0.007 A 
ATOM     10  C   UNL     1      -1.911   2.300   0.638  1.00  0.00     0.020 A 
ATOM     11  C   UNL     1      -2.091  -0.061   0.269  1.00  0.00     0.119 A 
ATOM     12  C   UNL     1      -3.312   2.400   0.716  1.00  0.00     0.023 A 
ATOM     13  C   UNL     1      -3.480   0.023   0.349  1.00  0.00     0.047 A 
ATOM     14  C   UNL     1      -4.093   1.253   0.551  1.00  0.00     0.016 A 
BRANCH  11  15
ATOM     15  O   UNL     1      -1.599  -1.312   0.046  1.00  0.00    -0.508 OA
ATOM     16  H   UNL     1      -0.674  -1.447  -0.020  1.00  0.00     0.293 HD
ENDBRANCH  11  15
BRANCH  12  17
ATOM     17  C   UNL     1      -3.943   3.736   0.933  1.00  0.00     0.193 C 
ATOM     18  O   UNL     1      -3.318   4.768   0.707  1.00  0.00    -0.289 OA
BRANCH  17  19
ATOM     19  C   UNL     1      -5.347   3.838   1.399  1.00  0.00     0.022 A 
ATOM     20  C   UNL     1      -6.242   4.637   0.680  1.00  0.00     0.012 A 
ATOM     21  C   UNL     1      -5.782   3.129   2.525  1.00  0.00     0.012 A 
ATOM     22  C   UNL     1      -7.584   4.685   1.060  1.00  0.00     0.001 A 
ATOM     23  C   UNL     1      -7.125   3.178   2.898  1.00  0.00     0.001 A 
ATOM     24  C   UNL     1      -8.026   3.948   2.161  1.00  0.00     0.000 A 
ENDBRANCH  17  19
ENDBRANCH  12  17
ENDBRANCH   7   9
ENDBRANCH   4   7
ENDBRANCH   2   3
ENDBRANCH   1   2
BRANCH   1  25
ATOM     25  C   UNL     1       4.897   1.667  -1.851  1.00  0.00     0.023 C 
BRANCH  25  26
ATOM     26  C   UNL     1       5.943   2.676  -1.402  1.00  0.00     0.116 C 
BRANCH  26  27
ATOM     27  N   UNL     1       6.968   2.099  -0.544  1.00  0.00    -0.352 N 
ATOM     28  C   UNL     1       8.317   2.375  -0.526  1.00  0.00     0.251 C 
ATOM     29  H   UNL     1       6.658   1.427   0.105  1.00  0.00     0.163 HD
ATOM     30  O   UNL     1       9.082   1.740   0.182  1.00  0.00    -0.269 OA
BRANCH  28  31
ATOM     31  C   UNL     1       8.829   3.434  -1.419  1.00  0.00     0.039 A 
ATOM     32  C   UNL     1       9.872   3.134  -2.299  1.00  0.00     0.014 A 
ATOM     33  C   UNL     1       8.219   4.690  -1.437  1.00  0.00     0.014 A 
ATOM     34  C   UNL     1      10.250   4.072  -3.261  1.00  0.00     0.010 A 
ATOM     35  C   UNL     1       8.546   5.592  -2.440  1.00  0.00     0.010 A 
ATOM     36  C   UNL     1       9.559   5.289  -3.365  1.00  0.00    -0.014 A 
BRANCH  36  37
ATOM     37  C   UNL     1       9.856   6.275  -4.432  1.00  0.00     0.031 A 
ATOM     38  C   UNL     1      10.353   7.639  -4.056  1.00  0.00     0.074 A 
ATOM     39  C   UNL     1       9.549   5.992  -5.712  1.00  0.00     0.049 A 
ATOM     40  N   UNL     1      10.480   8.710  -4.796  1.00  0.00    -0.248 NA
ATOM     41  C   UNL     1      10.714   7.834  -2.644  1.00  0.00     0.031 C 
ATOM     42  C   UNL     1       9.011   4.720  -6.193  1.00  0.00     0.029 A 
ATOM     43  N   UNL     1       9.611   6.775  -6.838  1.00  0.00    -0.354 N 
ATOM     44  C   UNL     1      10.894   9.714  -3.933  1.00  0.00     0.074 A 
ATOM     45  C   UNL     1      10.962   9.135  -2.608  1.00  0.00     0.031 C 
ATOM     46  C   UNL     1       8.786   4.810  -7.513  1.00  0.00     0.029 A 
ATOM     47  C   UNL     1       9.126   6.157  -7.963  1.00  0.00     0.049 A 
ATOM     48  H   UNL     1       9.970   7.692  -6.838  1.00  0.00     0.167 HD
ATOM     49  C   UNL     1      11.201  11.001  -4.222  1.00  0.00     0.037 A 
ATOM     50  C   UNL     1       8.950   6.631  -9.211  1.00  0.00     0.037 A 
ATOM     51  C   UNL     1      11.172  11.557  -5.548  1.00  0.00     0.049 A 
ATOM     52  C   UNL     1       9.332   8.051  -9.520  1.00  0.00     0.074 A 
ATOM     53  C   UNL     1      11.549  12.822  -5.962  1.00  0.00     0.029 A 
ATOM     54  N   UNL     1      10.739  10.877  -6.678  1.00  0.00    -0.354 N 
ATOM     55  N   UNL     1       9.785   8.978  -8.711  1.00  0.00    -0.248 NA
ATOM     56  C   UNL     1       9.185   8.492 -10.914  1.00  0.00     0.031 C 
ATOM     57  C   UNL     1      11.309  12.920  -7.337  1.00  0.00     0.029 A 
ATOM     58  C   UNL     1      10.824  11.702  -7.787  1.00  0.00     0.049 A 
ATOM     59  H   UNL     1      10.420   9.946  -6.689  1.00  0.00     0.167 HD
ATOM     60  C   UNL     1      10.000  10.101  -9.497  1.00  0.00     0.074 A 
ATOM     61  C   UNL     1       9.632   9.739 -10.851  1.00  0.00     0.031 C 
ATOM     62  C   UNL     1      10.463  11.321  -9.129  1.00  0.00     0.037 A 
BRANCH  49  63
ATOM     63  C   UNL     1      11.582  11.891  -3.076  1.00  0.00     0.064 A 
ATOM     64  C   UNL     1      12.790  11.724  -2.381  1.00  0.00     0.173 A 
ATOM     65  C   UNL     1      10.726  12.923  -2.665  1.00  0.00     0.173 A 
ATOM     66  F   UNL     1      13.637  10.742  -2.725  1.00  0.00    -0.203 F 
ATOM     67  C   UNL     1      13.106  12.529  -1.290  1.00  0.00     0.198 A 
ATOM     68  C   UNL     1      11.060  13.748  -1.594  1.00  0.00     0.198 A 
ATOM     69  F   UNL     1       9.562  13.130  -3.299  1.00  0.00    -0.203 F 
ATOM     70  F   UNL     1      14.234  12.308  -0.601  1.00  0.00    -0.200 F 
ATOM     71  C   UNL     1      12.243  13.543  -0.900  1.00  0.00     0.200 A 
ATOM     72  F   UNL     1      10.231  14.733  -1.225  1.00  0.00    -0.200 F 
ATOM     73  F   UNL     1      12.547  14.314   0.152  1.00  0.00    -0.200 F 
ENDBRANCH  49  63
BRANCH  50  74
ATOM     74  C   UNL     1       8.398   5.736 -10.259  1.00  0.00     0.064 A 
ATOM     75  C   UNL     1       9.224   5.212 -11.262  1.00  0.00     0.173 A 
ATOM     76  C   UNL     1       7.049   5.355 -10.256  1.00  0.00     0.173 A 
ATOM     77  F   UNL     1      10.517   5.564 -11.315  1.00  0.00    -0.203 F 
ATOM     78  C   UNL     1       8.720   4.343 -12.227  1.00  0.00     0.198 A 
ATOM     79  C   UNL     1       6.551   4.468 -11.209  1.00  0.00     0.198 A 
ATOM     80  F   UNL     1       6.220   5.825  -9.312  1.00  0.00    -0.203 F 
ATOM     81  F   UNL     1       9.526   3.874 -13.190  1.00  0.00    -0.200 F 
ATOM     82  C   UNL     1       7.386   3.965 -12.195  1.00  0.00     0.200 A 
ATOM     83  F   UNL     1       5.265   4.094 -11.165  1.00  0.00    -0.200 F 
ATOM     84  F   UNL     1       6.905   3.117 -13.114  1.00  0.00    -0.200 F 
ENDBRANCH  50  74
BRANCH  62  85
ATOM     85  C   UNL     1      10.636  12.348 -10.208  1.00  0.00     0.064 A 
ATOM     86  C   UNL     1       9.539  13.015 -10.771  1.00  0.00     0.173 A 
ATOM     87  C   UNL     1      11.921  12.716 -10.633  1.00  0.00     0.173 A 
ATOM     88  F   UNL     1       8.290  12.686 -10.407  1.00  0.00    -0.203 F 
ATOM     89  C   UNL     1       9.723  14.008 -11.729  1.00  0.00     0.198 A 
ATOM     90  C   UNL     1      12.102  13.725 -11.574  1.00  0.00     0.198 A 
ATOM     91  F   UNL     1      13.002  12.109 -10.120  1.00  0.00    -0.203 F 
ATOM     92  F   UNL     1       8.660  14.613 -12.277  1.00  0.00    -0.200 F 
ATOM     93  C   UNL     1      11.003  14.368 -12.123  1.00  0.00     0.200 A 
ATOM     94  F   UNL     1      13.340  14.080 -11.944  1.00  0.00    -0.200 F 
ATOM     95  F   UNL     1      11.178  15.334 -13.036  1.00  0.00    -0.200 F 
ENDBRANCH  62  85
ENDBRANCH  36  37
ENDBRANCH  28  31
ENDBRANCH  26  27
ENDBRANCH  25  26
ENDBRANCH   1  25
TORSDOF 15
