REMARK SMILES CCN(C(=O)Cc1c(C(=O)NCCCCNC(=O)c2ccc(-c3c4nc(c(-c5c(F)c(F)c(F)c(F)c5F)c5ccc([nH]5)c(-c5c(F)c(F)c(F)c(F)c5F)c5nc(c(-c6c(F)c(F)c(F)c(F)c6F)c6ccc3[nH]6)C=C5)C=C4)cc2)[nH]c2ccc(Cl)cc12)c1ccc(C)c(C)c1
REMARK SMILES IDX 12 1 11 2 9 3 10 4 8 6 7 7 89 8 82 9 83 10 88 11 84 13 86 14
REMARK SMILES IDX 85 15 87 16 6 17 4 18 5 19 3 20 2 21 1 22 90 23 91 24 97 25
REMARK SMILES IDX 92 26 95 27 93 28 96 29 94 30 13 31 14 32 15 33 16 34 17 35
REMARK SMILES IDX 18 37 19 38 20 39 81 40 21 41 80 42 22 43 23 44 24 45 74 46
REMARK SMILES IDX 25 47 79 48 73 49 75 50 26 51 78 52 72 53 71 54 27 56 59 57
REMARK SMILES IDX 39 58 58 59 40 60 43 61 57 62 76 63 41 64 42 65 56 67 77 68
REMARK SMILES IDX 44 69 28 70 29 71 37 72 30 73 31 74 35 75 38 76 32 77 33 78
REMARK SMILES IDX 36 79 34 80 60 81 61 82 69 83 62 84 63 85 67 86 70 87 64 88
REMARK SMILES IDX 65 89 68 90 66 91 45 92 46 93 54 94 47 95 48 96 52 97 55 98
REMARK SMILES IDX 49 99 50 100 53 101 51 102
REMARK H PARENT 11 5 82 12 16 36 75 55 43 66
REMARK Flexibility Score: inf
ROOT
ATOM      1  C   UNL     1      -3.514   3.273  -1.906  1.00  0.00     0.116 C 
ENDROOT
BRANCH   1   2
ATOM      2  N   UNL     1      -3.966   2.423  -0.838  1.00  0.00    -0.351 N 
ATOM      3  C   UNL     1      -3.547   1.146  -0.522  1.00  0.00     0.268 C 
ATOM      4  O   UNL     1      -4.079   0.625   0.459  1.00  0.00    -0.268 OA
ATOM      5  H   UNL     1      -4.664   2.801  -0.256  1.00  0.00     0.163 HD
BRANCH   3   6
ATOM      6  C   UNL     1      -2.588   0.392  -1.330  1.00  0.00     0.109 A 
ATOM      7  C   UNL     1      -1.518   0.677  -2.190  1.00  0.00    -0.000 A 
ATOM      8  C   UNL     1      -1.099  -0.566  -2.785  1.00  0.00     0.005 A 
ATOM      9  N   UNL     1      -2.624  -0.993  -1.240  1.00  0.00    -0.350 N 
ATOM     10  C   UNL     1      -1.760  -1.591  -2.120  1.00  0.00     0.046 A 
ATOM     11  C   UNL     1      -0.170  -0.913  -3.793  1.00  0.00     0.031 A 
ATOM     12  H   UNL     1      -3.204  -1.489  -0.618  1.00  0.00     0.167 HD
ATOM     13  C   UNL     1      -1.508  -2.947  -2.367  1.00  0.00     0.028 A 
ATOM     14  C   UNL     1       0.085  -2.259  -4.059  1.00  0.00     0.041 A 
ATOM     15  C   UNL     1      -0.563  -3.263  -3.349  1.00  0.00     0.022 A 
ATOM     16  Cl  UNL     1       1.231  -2.676  -5.276  1.00  0.00    -0.084 Cl
BRANCH   7  17
ATOM     17  C   UNL     1      -0.885   2.002  -2.487  1.00  0.00     0.139 C 
BRANCH  17  18
ATOM     18  C   UNL     1       0.604   2.001  -2.712  1.00  0.00     0.231 C 
ATOM     19  O   UNL     1       1.013   2.224  -3.857  1.00  0.00    -0.274 OA
BRANCH  18  20
ATOM     20  N   UNL     1       1.437   1.795  -1.610  1.00  0.00    -0.312 N 
BRANCH  20  21
ATOM     21  C   UNL     1       0.981   1.526  -0.233  1.00  0.00     0.122 C 
ATOM     22  C   UNL     1       0.988   0.063   0.185  1.00  0.00     0.028 C 
ENDBRANCH  20  21
BRANCH  20  23
ATOM     23  C   UNL     1       2.838   1.921  -1.821  1.00  0.00     0.044 A 
ATOM     24  C   UNL     1       3.352   3.062  -2.441  1.00  0.00     0.026 A 
ATOM     25  C   UNL     1       3.699   0.875  -1.496  1.00  0.00     0.030 A 
ATOM     26  C   UNL     1       4.710   3.151  -2.733  1.00  0.00     0.006 A 
ATOM     27  C   UNL     1       5.067   0.939  -1.805  1.00  0.00    -0.046 A 
ATOM     28  C   UNL     1       5.580   2.093  -2.427  1.00  0.00    -0.048 A 
ATOM     29  C   UNL     1       5.918  -0.263  -1.510  1.00  0.00     0.044 C 
ATOM     30  C   UNL     1       7.015   2.232  -2.847  1.00  0.00     0.044 C 
ENDBRANCH  20  23
ENDBRANCH  18  20
ENDBRANCH  17  18
ENDBRANCH   7  17
ENDBRANCH   3   6
ENDBRANCH   1   2
BRANCH   1  31
ATOM     31  C   UNL     1      -4.470   4.297  -2.486  1.00  0.00     0.023 C 
BRANCH  31  32
ATOM     32  C   UNL     1      -4.830   5.482  -1.602  1.00  0.00     0.023 C 
BRANCH  32  33
ATOM     33  C   UNL     1      -3.685   6.183  -0.877  1.00  0.00     0.116 C 
BRANCH  33  34
ATOM     34  N   UNL     1      -2.678   6.772  -1.751  1.00  0.00    -0.352 N 
ATOM     35  C   UNL     1      -2.284   8.084  -1.905  1.00  0.00     0.251 C 
ATOM     36  H   UNL     1      -2.201   6.128  -2.324  1.00  0.00     0.163 HD
ATOM     37  O   UNL     1      -1.446   8.377  -2.752  1.00  0.00    -0.269 OA
BRANCH  35  38
ATOM     38  C   UNL     1      -2.907   9.155  -1.095  1.00  0.00     0.039 A 
ATOM     39  C   UNL     1      -3.329  10.323  -1.736  1.00  0.00     0.014 A 
ATOM     40  C   UNL     1      -3.112   9.003   0.277  1.00  0.00     0.014 A 
ATOM     41  C   UNL     1      -4.055  11.280  -1.023  1.00  0.00     0.010 A 
ATOM     42  C   UNL     1      -3.930   9.901   0.958  1.00  0.00     0.010 A 
ATOM     43  C   UNL     1      -4.418  11.046   0.315  1.00  0.00    -0.014 A 
BRANCH  43  44
ATOM     44  C   UNL     1      -5.333  11.977   1.029  1.00  0.00     0.031 A 
ATOM     45  C   UNL     1      -4.887  12.695   2.273  1.00  0.00     0.074 A 
ATOM     46  C   UNL     1      -6.594  12.139   0.578  1.00  0.00     0.049 A 
ATOM     47  N   UNL     1      -5.546  13.550   3.016  1.00  0.00    -0.248 NA
ATOM     48  C   UNL     1      -3.536  12.391   2.768  1.00  0.00     0.031 C 
ATOM     49  C   UNL     1      -7.177  11.441  -0.570  1.00  0.00     0.029 A 
ATOM     50  N   UNL     1      -7.614  12.942   1.027  1.00  0.00    -0.354 N 
ATOM     51  C   UNL     1      -4.693  13.880   4.061  1.00  0.00     0.074 A 
ATOM     52  C   UNL     1      -3.498  13.081   3.898  1.00  0.00     0.031 C 
ATOM     53  C   UNL     1      -8.431  11.880  -0.764  1.00  0.00     0.029 A 
ATOM     54  C   UNL     1      -8.756  12.860   0.267  1.00  0.00     0.049 A 
ATOM     55  H   UNL     1      -7.534  13.522   1.818  1.00  0.00     0.167 HD
ATOM     56  C   UNL     1      -4.874  14.790   5.048  1.00  0.00     0.037 A 
ATOM     57  C   UNL     1      -9.933  13.504   0.385  1.00  0.00     0.037 A 
ATOM     58  C   UNL     1      -6.059  15.595   5.199  1.00  0.00     0.049 A 
ATOM     59  C   UNL     1     -10.108  14.511   1.489  1.00  0.00     0.074 A 
ATOM     60  C   UNL     1      -6.314  16.591   6.125  1.00  0.00     0.029 A 
ATOM     61  N   UNL     1      -7.194  15.488   4.407  1.00  0.00    -0.354 N 
ATOM     62  N   UNL     1      -9.257  14.884   2.413  1.00  0.00    -0.248 NA
ATOM     63  C   UNL     1     -11.406  15.195   1.557  1.00  0.00     0.031 C 
ATOM     64  C   UNL     1      -7.624  17.044   5.933  1.00  0.00     0.029 A 
ATOM     65  C   UNL     1      -8.164  16.377   4.845  1.00  0.00     0.049 A 
ATOM     66  H   UNL     1      -7.295  14.871   3.647  1.00  0.00     0.167 HD
ATOM     67  C   UNL     1      -9.906  15.859   3.159  1.00  0.00     0.074 A 
ATOM     68  C   UNL     1     -11.212  16.041   2.558  1.00  0.00     0.031 C 
ATOM     69  C   UNL     1      -9.464  16.540   4.246  1.00  0.00     0.037 A 
BRANCH  56  70
ATOM     70  C   UNL     1      -3.761  14.966   6.044  1.00  0.00     0.064 A 
ATOM     71  C   UNL     1      -2.525  15.522   5.678  1.00  0.00     0.173 A 
ATOM     72  C   UNL     1      -3.942  14.605   7.387  1.00  0.00     0.173 A 
ATOM     73  F   UNL     1      -2.293  15.875   4.404  1.00  0.00    -0.203 F 
ATOM     74  C   UNL     1      -1.502  15.676   6.611  1.00  0.00     0.198 A 
ATOM     75  C   UNL     1      -2.930  14.794   8.325  1.00  0.00     0.198 A 
ATOM     76  F   UNL     1      -5.105  14.074   7.795  1.00  0.00    -0.203 F 
ATOM     77  F   UNL     1      -0.312  16.156   6.224  1.00  0.00    -0.200 F 
ATOM     78  C   UNL     1      -1.708  15.320   7.934  1.00  0.00     0.200 A 
ATOM     79  F   UNL     1      -3.136  14.463   9.607  1.00  0.00    -0.200 F 
ATOM     80  F   UNL     1      -0.726  15.476   8.832  1.00  0.00    -0.200 F 
ENDBRANCH  56  70
BRANCH  57  81
ATOM     81  C   UNL     1     -11.027  13.240  -0.588  1.00  0.00     0.064 A 
ATOM     82  C   UNL     1     -11.438  14.224  -1.499  1.00  0.00     0.173 A 
ATOM     83  C   UNL     1     -11.689  12.004  -0.624  1.00  0.00     0.173 A 
ATOM     84  F   UNL     1     -10.850  15.430  -1.492  1.00  0.00    -0.203 F 
ATOM     85  C   UNL     1     -12.483  13.990  -2.391  1.00  0.00     0.198 A 
ATOM     86  C   UNL     1     -12.711  11.760  -1.539  1.00  0.00     0.198 A 
ATOM     87  F   UNL     1     -11.332  11.025   0.221  1.00  0.00    -0.203 F 
ATOM     88  F   UNL     1     -12.888  14.966  -3.214  1.00  0.00    -0.200 F 
ATOM     89  C   UNL     1     -13.114  12.756  -2.415  1.00  0.00     0.200 A 
ATOM     90  F   UNL     1     -13.307  10.560  -1.571  1.00  0.00    -0.200 F 
ATOM     91  F   UNL     1     -14.115  12.530  -3.276  1.00  0.00    -0.200 F 
ENDBRANCH  57  81
BRANCH  69  92
ATOM     92  C   UNL     1     -10.397  17.557   4.841  1.00  0.00     0.064 A 
ATOM     93  C   UNL     1     -11.581  17.179   5.495  1.00  0.00     0.173 A 
ATOM     94  C   UNL     1     -10.101  18.927   4.764  1.00  0.00     0.173 A 
ATOM     95  F   UNL     1     -11.918  15.884   5.585  1.00  0.00    -0.203 F 
ATOM     96  C   UNL     1     -12.452  18.135   6.010  1.00  0.00     0.198 A 
ATOM     97  C   UNL     1     -10.956  19.878   5.314  1.00  0.00     0.198 A 
ATOM     98  F   UNL     1      -8.979  19.344   4.159  1.00  0.00    -0.203 F 
ATOM     99  F   UNL     1     -13.609  17.753   6.568  1.00  0.00    -0.200 F 
ATOM    100  C   UNL     1     -12.136  19.483   5.924  1.00  0.00     0.200 A 
ATOM    101  F   UNL     1     -10.640  21.179   5.246  1.00  0.00    -0.200 F 
ATOM    102  F   UNL     1     -12.976  20.402   6.420  1.00  0.00    -0.200 F 
ENDBRANCH  69  92
ENDBRANCH  43  44
ENDBRANCH  35  38
ENDBRANCH  33  34
ENDBRANCH  32  33
ENDBRANCH  31  32
ENDBRANCH   1  31
TORSDOF 16
