REMARK SMILES COc1ccc(O[C@H](F)C(=O)NCCCCNC(=O)c2ccc(-c3c4nc(c(-c5c(F)c(F)c(F)c(F)c5F)c5ccc([nH]5)c(-c5c(F)c(F)c(F)c(F)c5F)c5nc(c(-c6c(F)c(F)c(F)c(F)c6F)c6ccc3[nH]6)C=C5)C=C4)cc2)c(C(C)(C)C)c1
REMARK SMILES IDX 14 1 13 2 12 3 10 4 11 5 8 7 9 8 7 9 6 10 3 11 4 12 88 13
REMARK SMILES IDX 5 14 83 15 2 16 1 17 84 18 85 19 86 20 87 21 15 22 16 23
REMARK SMILES IDX 17 24 18 25 19 27 20 28 21 29 82 30 22 31 81 32 23 33 24 34
REMARK SMILES IDX 25 35 75 36 26 37 80 38 74 39 76 40 27 41 79 42 73 43 72 44
REMARK SMILES IDX 28 46 60 47 40 48 59 49 41 50 44 51 58 52 77 53 42 54 43 55
REMARK SMILES IDX 57 57 78 58 45 59 29 60 30 61 38 62 31 63 32 64 36 65 39 66
REMARK SMILES IDX 33 67 34 68 37 69 35 70 61 71 62 72 70 73 63 74 64 75 68 76
REMARK SMILES IDX 71 77 65 78 66 79 69 80 67 81 46 82 47 83 55 84 48 85 49 86
REMARK SMILES IDX 53 87 56 88 50 89 51 90 54 91 52 92
REMARK H PARENT 12 6 17 26 76 45 44 56
REMARK Flexibility Score: inf
ROOT
ATOM      1  C   UNL     1       1.941   1.542   3.514  1.00  0.00     0.023 C 
ENDROOT
BRANCH   1   2
ATOM      2  C   UNL     1       2.517   0.315   4.221  1.00  0.00     0.116 C 
BRANCH   2   3
ATOM      3  N   UNL     1       3.430   0.642   5.300  1.00  0.00    -0.350 N 
ATOM      4  C   UNL     1       4.028  -0.221   6.185  1.00  0.00     0.294 C 
ATOM      5  O   UNL     1       4.853   0.262   6.969  1.00  0.00    -0.267 OA
ATOM      6  H   UNL     1       3.646   1.596   5.411  1.00  0.00     0.163 HD
BRANCH   4   7
ATOM      7  C   UNL     1       3.725  -1.749   6.165  1.00  0.00     0.440 C 
ATOM      8  F   UNL     1       2.592  -2.081   5.474  1.00  0.00    -0.191 F 
BRANCH   7   9
ATOM      9  O   UNL     1       4.773  -2.641   5.771  1.00  0.00    -0.451 OA
BRANCH   9  10
ATOM     10  C   UNL     1       4.995  -2.647   4.420  1.00  0.00     0.127 A 
ATOM     11  C   UNL     1       5.311  -2.456   1.651  1.00  0.00     0.119 A 
ATOM     12  C   UNL     1       5.756  -1.431   2.473  1.00  0.00     0.050 A 
ATOM     13  C   UNL     1       4.812  -3.627   2.231  1.00  0.00     0.054 A 
ATOM     14  C   UNL     1       5.595  -1.521   3.849  1.00  0.00     0.051 A 
ATOM     15  C   UNL     1       4.719  -3.788   3.637  1.00  0.00     0.003 A 
BRANCH  11  16
ATOM     16  O   UNL     1       5.471  -2.212   0.316  1.00  0.00    -0.497 OA
ATOM     17  C   UNL     1       4.835  -3.108  -0.586  1.00  0.00     0.278 C 
ENDBRANCH  11  16
BRANCH  15  18
ATOM     18  C   UNL     1       4.424  -5.181   4.250  1.00  0.00    -0.009 C 
ATOM     19  C   UNL     1       5.399  -5.489   5.415  1.00  0.00     0.016 C 
ATOM     20  C   UNL     1       2.977  -5.269   4.761  1.00  0.00     0.016 C 
ATOM     21  C   UNL     1       4.626  -6.340   3.235  1.00  0.00     0.016 C 
ENDBRANCH  15  18
ENDBRANCH   9  10
ENDBRANCH   7   9
ENDBRANCH   4   7
ENDBRANCH   2   3
ENDBRANCH   1   2
BRANCH   1  22
ATOM     22  C   UNL     1       2.945   2.502   2.869  1.00  0.00     0.023 C 
BRANCH  22  23
ATOM     23  C   UNL     1       3.938   1.890   1.886  1.00  0.00     0.116 C 
BRANCH  23  24
ATOM     24  N   UNL     1       3.308   1.215   0.763  1.00  0.00    -0.352 N 
ATOM     25  C   UNL     1       3.494   1.394  -0.589  1.00  0.00     0.251 C 
ATOM     26  H   UNL     1       2.650   0.525   1.007  1.00  0.00     0.163 HD
ATOM     27  O   UNL     1       2.795   0.794  -1.395  1.00  0.00    -0.269 OA
BRANCH  25  28
ATOM     28  C   UNL     1       4.517   2.347  -1.074  1.00  0.00     0.039 A 
ATOM     29  C   UNL     1       4.148   3.313  -2.014  1.00  0.00     0.014 A 
ATOM     30  C   UNL     1       5.831   2.293  -0.604  1.00  0.00     0.014 A 
ATOM     31  C   UNL     1       5.074   4.279  -2.419  1.00  0.00     0.010 A 
ATOM     32  C   UNL     1       6.737   3.291  -0.964  1.00  0.00     0.010 A 
ATOM     33  C   UNL     1       6.364   4.303  -1.864  1.00  0.00    -0.014 A 
BRANCH  33  34
ATOM     34  C   UNL     1       7.326   5.390  -2.193  1.00  0.00     0.031 A 
ATOM     35  C   UNL     1       8.601   5.081  -2.927  1.00  0.00     0.074 A 
ATOM     36  C   UNL     1       7.083   6.648  -1.773  1.00  0.00     0.049 A 
ATOM     37  N   UNL     1       9.600   5.875  -3.223  1.00  0.00    -0.248 NA
ATOM     38  C   UNL     1       8.785   3.692  -3.373  1.00  0.00     0.031 C 
ATOM     39  C   UNL     1       5.898   7.077  -1.029  1.00  0.00     0.029 A 
ATOM     40  N   UNL     1       7.826   7.796  -1.903  1.00  0.00    -0.354 N 
ATOM     41  C   UNL     1      10.530   5.083  -3.883  1.00  0.00     0.074 A 
ATOM     42  C   UNL     1      10.001   3.736  -3.899  1.00  0.00     0.031 C 
ATOM     43  C   UNL     1       5.986   8.395  -0.783  1.00  0.00     0.029 A 
ATOM     44  C   UNL     1       7.250   8.896  -1.314  1.00  0.00     0.049 A 
ATOM     45  H   UNL     1       8.690   7.828  -2.373  1.00  0.00     0.167 HD
ATOM     46  C   UNL     1      11.708   5.449  -4.446  1.00  0.00     0.037 A 
ATOM     47  C   UNL     1       7.696  10.163  -1.204  1.00  0.00     0.037 A 
ATOM     48  C   UNL     1      12.233   6.790  -4.440  1.00  0.00     0.049 A 
ATOM     49  C   UNL     1       9.029  10.531  -1.801  1.00  0.00     0.074 A 
ATOM     50  C   UNL     1      13.407   7.260  -5.003  1.00  0.00     0.029 A 
ATOM     51  N   UNL     1      11.616   7.877  -3.840  1.00  0.00    -0.354 N 
ATOM     52  N   UNL     1       9.876   9.783  -2.464  1.00  0.00    -0.248 NA
ATOM     53  C   UNL     1       9.465  11.926  -1.636  1.00  0.00     0.031 C 
ATOM     54  C   UNL     1      13.519   8.623  -4.711  1.00  0.00     0.029 A 
ATOM     55  C   UNL     1      12.391   9.014  -4.008  1.00  0.00     0.049 A 
ATOM     56  H   UNL     1      10.754   7.846  -3.364  1.00  0.00     0.167 HD
ATOM     57  C   UNL     1      10.921  10.621  -2.829  1.00  0.00     0.074 A 
ATOM     58  C   UNL     1      10.599  11.938  -2.322  1.00  0.00     0.031 C 
ATOM     59  C   UNL     1      12.047  10.325  -3.522  1.00  0.00     0.037 A 
BRANCH  46  60
ATOM     60  C   UNL     1      12.510   4.380  -5.130  1.00  0.00     0.064 A 
ATOM     61  C   UNL     1      12.090   3.816  -6.344  1.00  0.00     0.173 A 
ATOM     62  C   UNL     1      13.735   3.950  -4.596  1.00  0.00     0.173 A 
ATOM     63  F   UNL     1      10.922   4.186  -6.892  1.00  0.00    -0.203 F 
ATOM     64  C   UNL     1      12.852   2.843  -6.985  1.00  0.00     0.198 A 
ATOM     65  C   UNL     1      14.509   2.999  -5.255  1.00  0.00     0.198 A 
ATOM     66  F   UNL     1      14.187   4.464  -3.442  1.00  0.00    -0.203 F 
ATOM     67  F   UNL     1      12.409   2.288  -8.121  1.00  0.00    -0.200 F 
ATOM     68  C   UNL     1      14.064   2.441  -6.444  1.00  0.00     0.200 A 
ATOM     69  F   UNL     1      15.687   2.622  -4.739  1.00  0.00    -0.200 F 
ATOM     70  F   UNL     1      14.802   1.512  -7.068  1.00  0.00    -0.200 F 
ENDBRANCH  46  60
BRANCH  47  71
ATOM     71  C   UNL     1       6.873  11.192  -0.515  1.00  0.00     0.064 A 
ATOM     72  C   UNL     1       6.308  12.257  -1.232  1.00  0.00     0.173 A 
ATOM     73  C   UNL     1       6.664  11.157   0.872  1.00  0.00     0.173 A 
ATOM     74  F   UNL     1       6.500  12.347  -2.556  1.00  0.00    -0.203 F 
ATOM     75  C   UNL     1       5.593  13.262  -0.585  1.00  0.00     0.198 A 
ATOM     76  C   UNL     1       5.922  12.147   1.513  1.00  0.00     0.198 A 
ATOM     77  F   UNL     1       7.180  10.159   1.604  1.00  0.00    -0.203 F 
ATOM     78  F   UNL     1       5.115  14.299  -1.288  1.00  0.00    -0.200 F 
ATOM     79  C   UNL     1       5.397  13.205   0.786  1.00  0.00     0.200 A 
ATOM     80  F   UNL     1       5.725  12.082   2.837  1.00  0.00    -0.200 F 
ATOM     81  F   UNL     1       4.714  14.175   1.408  1.00  0.00    -0.200 F 
ENDBRANCH  47  71
BRANCH  59  82
ATOM     82  C   UNL     1      12.988  11.454  -3.828  1.00  0.00     0.064 A 
ATOM     83  C   UNL     1      13.778  12.048  -2.834  1.00  0.00     0.173 A 
ATOM     84  C   UNL     1      13.128  11.920  -5.145  1.00  0.00     0.173 A 
ATOM     85  F   UNL     1      13.670  11.650  -1.557  1.00  0.00    -0.203 F 
ATOM     86  C   UNL     1      14.656  13.085  -3.142  1.00  0.00     0.198 A 
ATOM     87  C   UNL     1      14.028  12.936  -5.454  1.00  0.00     0.198 A 
ATOM     88  F   UNL     1      12.399  11.382  -6.134  1.00  0.00    -0.203 F 
ATOM     89  F   UNL     1      15.366  13.671  -2.168  1.00  0.00    -0.200 F 
ATOM     90  C   UNL     1      14.785  13.523  -4.452  1.00  0.00     0.200 A 
ATOM     91  F   UNL     1      14.161  13.348  -6.722  1.00  0.00    -0.200 F 
ATOM     92  F   UNL     1      15.636  14.515  -4.747  1.00  0.00    -0.200 F 
ENDBRANCH  59  82
ENDBRANCH  33  34
ENDBRANCH  25  28
ENDBRANCH  23  24
ENDBRANCH  22  23
ENDBRANCH   1  22
TORSDOF 15
