REMARK SMILES CN1C(=O)C(=Cc2ccc(OCc3cccc(C(=O)NCCCCNC(=O)c4ccc(-c5c6nc(c(-c7c(F)c(F)c(F)c(F)c7F)c7ccc([nH]7)c(-c7c(F)c(F)c(F)c(F)c7F)c7nc(c(-c8c(F)c(F)c(F)c(F)c8F)c8ccc5[nH]8)C=C7)C=C6)cc4)c3)c(Cl)c2)C(=O)N(C)C1=S
REMARK SMILES IDX 21 1 20 2 18 3 19 4 17 6 13 7 14 8 91 9 15 10 16 11 12 12
REMARK SMILES IDX 11 13 10 14 7 15 8 16 94 17 9 18 92 19 93 20 6 21 1 22 2 23
REMARK SMILES IDX 3 24 99 25 4 26 5 27 97 28 100 29 95 30 98 31 96 32 22 33
REMARK SMILES IDX 23 34 24 35 25 36 26 37 27 39 28 40 29 41 90 42 30 43 89 44
REMARK SMILES IDX 31 45 32 46 33 47 83 48 34 49 88 50 82 51 84 52 35 53 87 54
REMARK SMILES IDX 81 55 80 56 36 58 68 59 48 60 67 61 49 62 52 63 66 64 85 65
REMARK SMILES IDX 50 66 51 67 65 69 86 70 53 71 37 72 38 73 46 74 39 75 40 76
REMARK SMILES IDX 44 77 47 78 41 79 42 80 45 81 43 82 69 83 70 84 78 85 71 86
REMARK SMILES IDX 72 87 76 88 79 89 73 90 74 91 77 92 75 93 54 94 55 95 63 96
REMARK SMILES IDX 56 97 57 98 61 99 64 100 58 101 59 102 62 103 60 104
REMARK H PARENT 20 5 25 38 84 57 52 68
REMARK Flexibility Score: inf
ROOT
ATOM      1  C   UNL     1       8.862  -0.035  -7.181  1.00  0.00     0.116 C 
ENDROOT
BRANCH   1   2
ATOM      2  N   UNL     1       9.409  -1.271  -7.704  1.00  0.00    -0.352 N 
ATOM      3  C   UNL     1       8.788  -2.409  -8.161  1.00  0.00     0.251 C 
ATOM      4  O   UNL     1       9.495  -3.336  -8.556  1.00  0.00    -0.269 OA
ATOM      5  H   UNL     1      10.393  -1.301  -7.738  1.00  0.00     0.163 HD
BRANCH   3   6
ATOM      6  C   UNL     1       7.309  -2.576  -8.146  1.00  0.00     0.040 A 
ATOM      7  C   UNL     1       5.028  -1.719  -8.201  1.00  0.00    -0.010 A 
ATOM      8  C   UNL     1       4.549  -3.020  -8.003  1.00  0.00     0.007 A 
ATOM      9  C   UNL     1       6.410  -1.521  -8.337  1.00  0.00     0.021 A 
ATOM     10  C   UNL     1       5.432  -4.092  -7.886  1.00  0.00     0.001 A 
ATOM     11  C   UNL     1       6.807  -3.869  -7.943  1.00  0.00     0.014 A 
BRANCH   7  12
ATOM     12  C   UNL     1       4.084  -0.535  -8.218  1.00  0.00     0.265 C 
BRANCH  12  13
ATOM     13  O   UNL     1       3.827   0.038  -6.922  1.00  0.00    -0.487 OA
BRANCH  13  14
ATOM     14  C   UNL     1       3.263  -0.787  -5.984  1.00  0.00     0.138 A 
ATOM     15  C   UNL     1       2.360  -2.466  -3.916  1.00  0.00    -0.023 A 
ATOM     16  C   UNL     1       3.525  -1.713  -3.749  1.00  0.00     0.012 A 
ATOM     17  C   UNL     1       1.623  -2.338  -5.096  1.00  0.00     0.032 A 
ATOM     18  C   UNL     1       3.971  -0.877  -4.778  1.00  0.00     0.048 A 
ATOM     19  C   UNL     1       2.051  -1.476  -6.112  1.00  0.00     0.083 A 
ATOM     20  Cl  UNL     1       0.986  -1.279  -7.457  1.00  0.00    -0.080 Cl
BRANCH  15  21
ATOM     21  C   UNL     1       1.886  -3.355  -2.852  1.00  0.00     0.027 C 
ATOM     22  C   UNL     1       0.218   0.128   0.014  1.00  0.00     0.156 C 
ATOM     23  N   UNL     1       0.423  -1.312  -0.190  1.00  0.00    -0.288 N 
ATOM     24  C   UNL     1       0.722  -1.614  -1.518  1.00  0.00     0.265 C 
ATOM     25  C   UNL     1       0.316  -2.251   0.859  1.00  0.00     0.185 C 
ATOM     26  O   UNL     1       0.618  -0.793  -2.427  1.00  0.00    -0.268 OA
ATOM     27  C   UNL     1       1.170  -2.992  -1.768  1.00  0.00     0.106 C 
ATOM     28  N   UNL     1       0.539  -3.597   0.495  1.00  0.00    -0.288 N 
ATOM     29  S   UNL     1      -0.072  -1.794   2.446  1.00  0.00    -0.040 S 
ATOM     30  C   UNL     1       0.872  -4.043  -0.783  1.00  0.00     0.265 C 
ATOM     31  C   UNL     1       0.414  -4.698   1.460  1.00  0.00     0.156 C 
ATOM     32  O   UNL     1       0.942  -5.234  -1.089  1.00  0.00    -0.268 OA
ENDBRANCH  15  21
ENDBRANCH  13  14
ENDBRANCH  12  13
ENDBRANCH   7  12
ENDBRANCH   3   6
ENDBRANCH   1   2
BRANCH   1  33
ATOM     33  C   UNL     1       9.649   0.561  -6.020  1.00  0.00     0.023 C 
BRANCH  33  34
ATOM     34  C   UNL     1      11.129   0.831  -6.263  1.00  0.00     0.023 C 
BRANCH  34  35
ATOM     35  C   UNL     1      11.479   1.564  -7.551  1.00  0.00     0.116 C 
BRANCH  35  36
ATOM     36  N   UNL     1      10.833   2.861  -7.687  1.00  0.00    -0.352 N 
ATOM     37  C   UNL     1      11.381   4.102  -7.907  1.00  0.00     0.251 C 
ATOM     38  H   UNL     1       9.851   2.847  -7.609  1.00  0.00     0.163 HD
ATOM     39  O   UNL     1      10.662   5.098  -7.925  1.00  0.00    -0.269 OA
BRANCH  37  40
ATOM     40  C   UNL     1      12.843   4.251  -8.070  1.00  0.00     0.039 A 
ATOM     41  C   UNL     1      13.502   5.237  -7.330  1.00  0.00     0.014 A 
ATOM     42  C   UNL     1      13.566   3.407  -8.915  1.00  0.00     0.014 A 
ATOM     43  C   UNL     1      14.896   5.309  -7.360  1.00  0.00     0.010 A 
ATOM     44  C   UNL     1      14.958   3.429  -8.884  1.00  0.00     0.010 A 
ATOM     45  C   UNL     1      15.637   4.371  -8.096  1.00  0.00    -0.014 A 
BRANCH  45  46
ATOM     46  C   UNL     1      17.120   4.342  -8.041  1.00  0.00     0.031 A 
ATOM     47  C   UNL     1      17.927   4.601  -9.282  1.00  0.00     0.074 A 
ATOM     48  C   UNL     1      17.738   3.994  -6.895  1.00  0.00     0.049 A 
ATOM     49  N   UNL     1      19.221   4.519  -9.461  1.00  0.00    -0.248 NA
ATOM     50  C   UNL     1      17.176   4.972 -10.491  1.00  0.00     0.031 C 
ATOM     51  C   UNL     1      17.066   3.664  -5.637  1.00  0.00     0.029 A 
ATOM     52  N   UNL     1      19.072   3.847  -6.606  1.00  0.00    -0.354 N 
ATOM     53  C   UNL     1      19.434   4.798 -10.803  1.00  0.00     0.074 A 
ATOM     54  C   UNL     1      18.135   5.013 -11.403  1.00  0.00     0.031 C 
ATOM     55  C   UNL     1      17.991   3.373  -4.707  1.00  0.00     0.029 A 
ATOM     56  C   UNL     1      19.317   3.462  -5.310  1.00  0.00     0.049 A 
ATOM     57  H   UNL     1      19.786   4.002  -7.266  1.00  0.00     0.167 HD
ATOM     58  C   UNL     1      20.609   4.887 -11.471  1.00  0.00     0.037 A 
ATOM     59  C   UNL     1      20.480   3.206  -4.682  1.00  0.00     0.037 A 
ATOM     60  C   UNL     1      21.902   4.719 -10.864  1.00  0.00     0.049 A 
ATOM     61  C   UNL     1      21.771   3.342  -5.440  1.00  0.00     0.074 A 
ATOM     62  C   UNL     1      23.152   4.866 -11.440  1.00  0.00     0.029 A 
ATOM     63  N   UNL     1      22.110   4.370  -9.538  1.00  0.00    -0.354 N 
ATOM     64  N   UNL     1      21.963   3.672  -6.693  1.00  0.00    -0.248 NA
ATOM     65  C   UNL     1      23.009   3.072  -4.693  1.00  0.00     0.031 C 
ATOM     66  C   UNL     1      24.117   4.577 -10.469  1.00  0.00     0.029 A 
ATOM     67  C   UNL     1      23.469   4.284  -9.280  1.00  0.00     0.049 A 
ATOM     68  H   UNL     1      21.398   4.207  -8.878  1.00  0.00     0.167 HD
ATOM     69  C   UNL     1      23.339   3.678  -6.879  1.00  0.00     0.074 A 
ATOM     70  C   UNL     1      23.935   3.327  -5.607  1.00  0.00     0.031 C 
ATOM     71  C   UNL     1      24.044   3.948  -8.004  1.00  0.00     0.037 A 
BRANCH  58  72
ATOM     72  C   UNL     1      20.549   5.191 -12.938  1.00  0.00     0.064 A 
ATOM     73  C   UNL     1      20.193   6.464 -13.410  1.00  0.00     0.173 A 
ATOM     74  C   UNL     1      20.883   4.209 -13.883  1.00  0.00     0.173 A 
ATOM     75  F   UNL     1      19.853   7.433 -12.546  1.00  0.00    -0.203 F 
ATOM     76  C   UNL     1      20.148   6.734 -14.775  1.00  0.00     0.198 A 
ATOM     77  C   UNL     1      20.861   4.491 -15.246  1.00  0.00     0.198 A 
ATOM     78  F   UNL     1      21.234   2.978 -13.483  1.00  0.00    -0.203 F 
ATOM     79  F   UNL     1      19.761   7.944 -15.203  1.00  0.00    -0.200 F 
ATOM     80  C   UNL     1      20.488   5.750 -15.691  1.00  0.00     0.200 A 
ATOM     81  F   UNL     1      21.200   3.542 -16.130  1.00  0.00    -0.200 F 
ATOM     82  F   UNL     1      20.448   6.014 -17.004  1.00  0.00    -0.200 F 
ENDBRANCH  58  72
BRANCH  59  83
ATOM     83  C   UNL     1      20.480   2.828  -3.246  1.00  0.00     0.064 A 
ATOM     84  C   UNL     1      20.937   3.725  -2.271  1.00  0.00     0.173 A 
ATOM     85  C   UNL     1      20.033   1.569  -2.819  1.00  0.00     0.173 A 
ATOM     86  F   UNL     1      21.394   4.932  -2.635  1.00  0.00    -0.203 F 
ATOM     87  C   UNL     1      20.964   3.372  -0.924  1.00  0.00     0.198 A 
ATOM     88  C   UNL     1      20.039   1.225  -1.469  1.00  0.00     0.198 A 
ATOM     89  F   UNL     1      19.583   0.678  -3.714  1.00  0.00    -0.203 F 
ATOM     90  F   UNL     1      21.444   4.233  -0.017  1.00  0.00    -0.200 F 
ATOM     91  C   UNL     1      20.511   2.124  -0.523  1.00  0.00     0.200 A 
ATOM     92  F   UNL     1      19.590   0.023  -1.084  1.00  0.00    -0.200 F 
ATOM     93  F   UNL     1      20.536   1.784   0.773  1.00  0.00    -0.200 F 
ENDBRANCH  59  83
BRANCH  71  94
ATOM     94  C   UNL     1      25.539   3.911  -7.901  1.00  0.00     0.064 A 
ATOM     95  C   UNL     1      26.239   2.699  -7.821  1.00  0.00     0.173 A 
ATOM     96  C   UNL     1      26.280   5.102  -7.926  1.00  0.00     0.173 A 
ATOM     97  F   UNL     1      25.572   1.536  -7.778  1.00  0.00    -0.203 F 
ATOM     98  C   UNL     1      27.629   2.682  -7.750  1.00  0.00     0.198 A 
ATOM     99  C   UNL     1      27.671   5.079  -7.880  1.00  0.00     0.198 A 
ATOM    100  F   UNL     1      25.655   6.286  -8.006  1.00  0.00    -0.203 F 
ATOM    101  F   UNL     1      28.277   1.514  -7.635  1.00  0.00    -0.200 F 
ATOM    102  C   UNL     1      28.343   3.870  -7.787  1.00  0.00     0.200 A 
ATOM    103  F   UNL     1      28.360   6.228  -7.924  1.00  0.00    -0.200 F 
ATOM    104  F   UNL     1      29.682   3.850  -7.725  1.00  0.00    -0.200 F 
ENDBRANCH  71  94
ENDBRANCH  45  46
ENDBRANCH  37  40
ENDBRANCH  35  36
ENDBRANCH  34  35
ENDBRANCH  33  34
ENDBRANCH   1  33
TORSDOF 15
