REMARK SMILES Cc1[nH]c(=O)sc1S(=O)(=O)N[C@@H]1CCCCC[C@@H]1C(=O)NCCCCNC(=O)c1ccc(-c2c3nc(c(-c4c(F)c(F)c(F)c(F)c4F)c4ccc([nH]4)c(-c4c(F)c(F)c(F)c(F)c4F)c4nc(c(-c5c(F)c(F)c(F)c(F)c5F)c5ccc2[nH]5)C=C4)C=C3)cc1
REMARK SMILES IDX 22 1 21 2 19 3 20 4 18 6 12 7 11 8 8 10 9 11 10 12 7 13 1 14
REMARK SMILES IDX 2 15 3 16 4 17 6 19 5 20 13 21 14 22 17 24 16 25 15 26 23 28
REMARK SMILES IDX 24 29 25 30 26 31 27 32 28 34 29 35 30 36 91 37 31 38 90 39
REMARK SMILES IDX 32 40 33 41 34 42 84 43 35 44 89 45 83 46 85 47 36 48 88 49
REMARK SMILES IDX 82 50 81 51 37 53 69 54 49 55 68 56 50 57 53 58 67 59 86 60
REMARK SMILES IDX 51 61 52 62 66 64 87 65 54 66 38 67 39 68 47 69 40 70 41 71
REMARK SMILES IDX 45 72 48 73 42 74 43 75 46 76 44 77 70 78 71 79 79 80 72 81
REMARK SMILES IDX 73 82 77 83 80 84 74 85 75 86 78 87 76 88 55 89 56 90 64 91
REMARK SMILES IDX 57 92 58 93 62 94 65 95 59 96 60 97 63 98 61 99
REMARK H PARENT 21 5 11 9 3 18 26 33 85 52 53 63
REMARK Flexibility Score: 90.00
ROOT
ATOM      1  C   UNL     1       0.580   2.416   1.840  1.00  0.00     0.116 C 
ENDROOT
BRANCH   1   2
ATOM      2  N   UNL     1       0.453   1.104   1.196  1.00  0.00    -0.356 N 
ATOM      3  C   UNL     1      -0.138   0.647   0.023  1.00  0.00     0.224 C 
ATOM      4  O   UNL     1       0.530   0.030  -0.807  1.00  0.00    -0.275 OA
ATOM      5  H   UNL     1       0.885   0.384   1.710  1.00  0.00     0.163 HD
BRANCH   3   6
ATOM      6  C   UNL     1      -1.647   0.734  -0.187  1.00  0.00     0.096 C 
BRANCH   6   7
ATOM      7  C   UNL     1      -2.248   1.365   1.021  1.00  0.00     0.082 C 
BRANCH   7   8
ATOM      8  N   UNL     1      -1.993   0.588   2.275  1.00  0.00    -0.207 NA
ATOM      9  H   UNL     1      -1.366   1.206   2.791  1.00  0.00     0.141 HD
BRANCH   8  10
ATOM     10  S   UNL     1      -1.388  -0.964   2.676  1.00  0.00     0.252 S 
ATOM     11  O   UNL     1      -2.662  -1.674   2.708  1.00  0.00    -0.206 OA
ATOM     12  O   UNL     1      -0.782  -0.720   3.976  1.00  0.00    -0.206 OA
BRANCH  10  13
ATOM     13  C   UNL     1      -0.234  -2.098   1.828  1.00  0.00     0.158 A 
ATOM     14  C   UNL     1       2.250  -1.334   0.787  1.00  0.00     0.067 C 
ATOM     15  C   UNL     1       1.025  -2.131   1.255  1.00  0.00     0.046 A 
ATOM     16  N   UNL     1       1.413  -3.446   0.966  1.00  0.00    -0.315 N 
ATOM     17  C   UNL     1       0.652  -4.502   1.341  1.00  0.00     0.305 A 
ATOM     18  H   UNL     1       2.255  -3.605   0.482  1.00  0.00     0.170 HD
ATOM     19  S   UNL     1      -0.761  -3.855   2.085  1.00  0.00    -0.061 S 
ATOM     20  O   UNL     1       0.924  -5.666   1.186  1.00  0.00    -0.257 OA
ENDBRANCH  10  13
ENDBRANCH   8  10
ENDBRANCH   7   8
BRANCH   7  21
ATOM     21  C   UNL     1      -3.666   1.935   0.838  1.00  0.00     0.021 C 
BRANCH  21  22
ATOM     22  C   UNL     1      -4.176   1.997  -0.615  1.00  0.00     0.002 CG0
ATOM     23  G   UNL     1      -4.684   0.645  -1.102  1.00  0.00     0.000 G0
ENDBRANCH  21  22
ENDBRANCH   7  21
ENDBRANCH   6   7
BRANCH   6  24
ATOM     24  C   UNL     1      -2.444  -0.569  -0.473  1.00  0.00     0.015 C 
BRANCH  24  25
ATOM     25  C   UNL     1      -3.621  -0.407  -1.445  1.00  0.00     0.001 C 
BRANCH  25  26
ATOM     26  C   UNL     1      -4.684   0.645  -1.102  1.00  0.00     0.000 CG0
ATOM     27  G   UNL     1      -4.176   1.997  -0.615  1.00  0.00     0.000 G0
ENDBRANCH  25  26
ENDBRANCH  24  25
ENDBRANCH   6  24
ENDBRANCH   3   6
ENDBRANCH   1   2
BRANCH   1  28
ATOM     28  C   UNL     1       0.239   2.438   3.349  1.00  0.00     0.023 C 
BRANCH  28  29
ATOM     29  C   UNL     1       1.046   1.526   4.298  1.00  0.00     0.023 C 
BRANCH  29  30
ATOM     30  C   UNL     1       2.365   2.084   4.807  1.00  0.00     0.116 C 
BRANCH  30  31
ATOM     31  N   UNL     1       2.219   3.412   5.405  1.00  0.00    -0.352 N 
ATOM     32  C   UNL     1       3.114   4.460   5.451  1.00  0.00     0.251 C 
ATOM     33  H   UNL     1       1.351   3.583   5.838  1.00  0.00     0.163 HD
ATOM     34  O   UNL     1       2.967   5.392   6.231  1.00  0.00    -0.269 OA
BRANCH  32  35
ATOM     35  C   UNL     1       4.258   4.436   4.529  1.00  0.00     0.039 A 
ATOM     36  C   UNL     1       5.546   4.764   4.947  1.00  0.00     0.014 A 
ATOM     37  C   UNL     1       4.018   3.966   3.243  1.00  0.00     0.014 A 
ATOM     38  C   UNL     1       6.599   4.516   4.074  1.00  0.00     0.010 A 
ATOM     39  C   UNL     1       5.060   3.506   2.489  1.00  0.00     0.010 A 
ATOM     40  C   UNL     1       6.347   3.849   2.860  1.00  0.00    -0.014 A 
BRANCH  40  41
ATOM     41  C   UNL     1       7.433   3.410   2.002  1.00  0.00     0.031 A 
ATOM     42  C   UNL     1       8.472   2.629   2.709  1.00  0.00     0.074 A 
ATOM     43  C   UNL     1       7.448   3.573   0.662  1.00  0.00     0.049 A 
ATOM     44  N   UNL     1       9.607   3.076   3.125  1.00  0.00    -0.248 NA
ATOM     45  C   UNL     1       8.157   1.271   3.173  1.00  0.00     0.031 C 
ATOM     46  C   UNL     1       6.383   4.036  -0.235  1.00  0.00     0.029 A 
ATOM     47  N   UNL     1       8.464   3.302  -0.199  1.00  0.00    -0.354 N 
ATOM     48  C   UNL     1      10.250   2.000   3.720  1.00  0.00     0.074 A 
ATOM     49  C   UNL     1       9.245   0.983   3.894  1.00  0.00     0.031 C 
ATOM     50  C   UNL     1       6.742   3.818  -1.522  1.00  0.00     0.029 A 
ATOM     51  C   UNL     1       8.125   3.384  -1.544  1.00  0.00     0.049 A 
ATOM     52  H   UNL     1       9.370   3.066   0.106  1.00  0.00     0.167 HD
ATOM     53  C   UNL     1      11.610   1.968   3.773  1.00  0.00     0.037 A 
ATOM     54  C   UNL     1       8.940   3.124  -2.595  1.00  0.00     0.037 A 
ATOM     55  C   UNL     1      12.160   3.269   3.469  1.00  0.00     0.049 A 
ATOM     56  C   UNL     1      10.334   3.265  -2.103  1.00  0.00     0.074 A 
ATOM     57  C   UNL     1      12.081   4.521   4.047  1.00  0.00     0.029 A 
ATOM     58  N   UNL     1      12.582   3.479   2.178  1.00  0.00    -0.354 N 
ATOM     59  N   UNL     1      10.854   4.399  -1.724  1.00  0.00    -0.248 NA
ATOM     60  C   UNL     1      10.989   2.074  -1.586  1.00  0.00     0.031 C 
ATOM     61  C   UNL     1      12.005   5.433   2.951  1.00  0.00     0.029 A 
ATOM     62  C   UNL     1      12.122   4.703   1.766  1.00  0.00     0.049 A 
ATOM     63  H   UNL     1      13.124   2.857   1.640  1.00  0.00     0.167 HD
ATOM     64  C   UNL     1      11.594   4.087  -0.594  1.00  0.00     0.074 A 
ATOM     65  C   UNL     1      11.715   2.630  -0.613  1.00  0.00     0.031 C 
ATOM     66  C   UNL     1      11.787   5.011   0.393  1.00  0.00     0.037 A 
BRANCH  53  67
ATOM     67  C   UNL     1      12.447   0.715   3.679  1.00  0.00     0.064 A 
ATOM     68  C   UNL     1      13.844   0.822   3.833  1.00  0.00     0.173 A 
ATOM     69  C   UNL     1      11.987  -0.506   3.141  1.00  0.00     0.173 A 
ATOM     70  F   UNL     1      14.394   1.943   4.324  1.00  0.00    -0.203 F 
ATOM     71  C   UNL     1      14.715  -0.177   3.392  1.00  0.00     0.198 A 
ATOM     72  C   UNL     1      12.857  -1.522   2.750  1.00  0.00     0.198 A 
ATOM     73  F   UNL     1      10.699  -0.726   2.859  1.00  0.00    -0.203 F 
ATOM     74  F   UNL     1      16.038   0.029   3.432  1.00  0.00    -0.200 F 
ATOM     75  C   UNL     1      14.221  -1.345   2.842  1.00  0.00     0.200 A 
ATOM     76  F   UNL     1      12.358  -2.638   2.200  1.00  0.00    -0.200 F 
ATOM     77  F   UNL     1      15.052  -2.274   2.355  1.00  0.00    -0.200 F 
ENDBRANCH  53  67
BRANCH  54  78
ATOM     78  C   UNL     1       8.614   2.430  -3.863  1.00  0.00     0.064 A 
ATOM     79  C   UNL     1       9.504   2.458  -4.950  1.00  0.00     0.173 A 
ATOM     80  C   UNL     1       7.581   1.475  -3.924  1.00  0.00     0.173 A 
ATOM     81  F   UNL     1      10.541   3.308  -4.949  1.00  0.00    -0.203 F 
ATOM     82  C   UNL     1       9.391   1.557  -6.015  1.00  0.00     0.198 A 
ATOM     83  C   UNL     1       7.468   0.579  -4.988  1.00  0.00     0.198 A 
ATOM     84  F   UNL     1       6.724   1.326  -2.903  1.00  0.00    -0.203 F 
ATOM     85  F   UNL     1      10.302   1.567  -6.999  1.00  0.00    -0.200 F 
ATOM     86  C   UNL     1       8.382   0.609  -6.026  1.00  0.00     0.200 A 
ATOM     87  F   UNL     1       6.512  -0.361  -4.967  1.00  0.00    -0.200 F 
ATOM     88  F   UNL     1       8.316  -0.300  -7.008  1.00  0.00    -0.200 F 
ENDBRANCH  54  78
BRANCH  66  89
ATOM     89  C   UNL     1      11.443   6.445   0.084  1.00  0.00     0.064 A 
ATOM     90  C   UNL     1      10.150   6.911  -0.216  1.00  0.00     0.173 A 
ATOM     91  C   UNL     1      12.454   7.405   0.224  1.00  0.00     0.173 A 
ATOM     92  F   UNL     1       9.109   6.072  -0.280  1.00  0.00    -0.203 F 
ATOM     93  C   UNL     1       9.897   8.271  -0.406  1.00  0.00     0.198 A 
ATOM     94  C   UNL     1      12.192   8.763   0.072  1.00  0.00     0.198 A 
ATOM     95  F   UNL     1      13.698   7.025   0.557  1.00  0.00    -0.203 F 
ATOM     96  F   UNL     1       8.659   8.690  -0.706  1.00  0.00    -0.200 F 
ATOM     97  C   UNL     1      10.917   9.195  -0.253  1.00  0.00     0.200 A 
ATOM     98  F   UNL     1      13.172   9.655   0.267  1.00  0.00    -0.200 F 
ATOM     99  F   UNL     1      10.667  10.505  -0.396  1.00  0.00    -0.200 F 
ENDBRANCH  66  89
ENDBRANCH  40  41
ENDBRANCH  32  35
ENDBRANCH  30  31
ENDBRANCH  29  30
ENDBRANCH  28  29
ENDBRANCH   1  28
TORSDOF 14
