REMARK SMILES COc1cc(C(=O)CCC(=O)NCCCCNC(=O)c2ccc(-c3c4nc(c(-c5c(F)c(F)c(F)c(F)c5F)c5ccc([nH]5)c(-c5c(F)c(F)c(F)c(F)c5F)c5nc(c(-c6c(F)c(F)c(F)c(F)c6F)c6ccc3[nH]6)C=C5)C=C4)cc2)cc(OC)c1OC
REMARK SMILES IDX 13 1 12 2 10 3 11 4 9 6 8 7 6 8 7 9 5 10 3 11 4 12 87 13
REMARK SMILES IDX 84 14 83 15 2 16 1 17 88 18 89 19 85 20 86 21 14 22 15 23
REMARK SMILES IDX 16 24 17 25 18 26 19 28 20 29 21 30 82 31 22 32 81 33 23 34
REMARK SMILES IDX 24 35 25 36 75 37 26 38 80 39 74 40 76 41 27 42 79 43 73 44
REMARK SMILES IDX 72 45 28 47 60 48 40 49 59 50 41 51 44 52 58 53 77 54 42 55
REMARK SMILES IDX 43 56 57 58 78 59 45 60 29 61 30 62 38 63 31 64 32 65 36 66
REMARK SMILES IDX 39 67 33 68 34 69 37 70 35 71 61 72 62 73 70 74 63 75 64 76
REMARK SMILES IDX 68 77 71 78 65 79 66 80 69 81 67 82 46 83 47 84 55 85 48 86
REMARK SMILES IDX 49 87 53 88 56 89 50 90 51 91 54 92 52 93
REMARK H PARENT 12 5 17 27 76 46 44 57
REMARK Flexibility Score: inf
ROOT
ATOM      1  C   UNL     1      -0.327   5.631   0.116  1.00  0.00     0.116 C 
ENDROOT
BRANCH   1   2
ATOM      2  N   UNL     1       0.916   6.218  -0.357  1.00  0.00    -0.356 N 
ATOM      3  C   UNL     1       1.215   6.748  -1.576  1.00  0.00     0.220 C 
ATOM      4  O   UNL     1       2.374   7.102  -1.792  1.00  0.00    -0.275 OA
ATOM      5  H   UNL     1       1.649   6.234   0.300  1.00  0.00     0.163 HD
BRANCH   3   6
ATOM      6  C   UNL     1       0.141   6.893  -2.634  1.00  0.00     0.108 C 
BRANCH   6   7
ATOM      7  C   UNL     1       0.480   6.131  -3.914  1.00  0.00     0.091 C 
BRANCH   7   8
ATOM      8  C   UNL     1       0.102   4.662  -3.812  1.00  0.00     0.163 C 
ATOM      9  O   UNL     1      -1.077   4.320  -3.918  1.00  0.00    -0.294 OA
BRANCH   8  10
ATOM     10  C   UNL     1       1.129   3.622  -3.465  1.00  0.00     0.025 A 
ATOM     11  C   UNL     1       1.619   1.316  -2.849  1.00  0.00     0.165 A 
ATOM     12  C   UNL     1       0.720   2.283  -3.318  1.00  0.00     0.062 A 
ATOM     13  C   UNL     1       2.938   1.671  -2.526  1.00  0.00     0.203 A 
ATOM     14  C   UNL     1       3.348   2.999  -2.698  1.00  0.00     0.165 A 
ATOM     15  C   UNL     1       2.452   3.960  -3.178  1.00  0.00     0.062 A 
BRANCH  11  16
ATOM     16  O   UNL     1       1.245  -0.003  -2.821  1.00  0.00    -0.493 OA
ATOM     17  C   UNL     1       0.404  -0.315  -1.712  1.00  0.00     0.278 C 
ENDBRANCH  11  16
BRANCH  13  18
ATOM     18  O   UNL     1       3.864   0.734  -2.146  1.00  0.00    -0.490 OA
ATOM     19  C   UNL     1       3.575   0.154  -0.875  1.00  0.00     0.278 C 
ENDBRANCH  13  18
BRANCH  14  20
ATOM     20  O   UNL     1       4.613   3.480  -2.481  1.00  0.00    -0.493 OA
ATOM     21  C   UNL     1       5.194   3.095  -1.241  1.00  0.00     0.278 C 
ENDBRANCH  14  20
ENDBRANCH   8  10
ENDBRANCH   7   8
ENDBRANCH   6   7
ENDBRANCH   3   6
ENDBRANCH   1   2
BRANCH   1  22
ATOM     22  C   UNL     1      -0.436   4.169  -0.296  1.00  0.00     0.023 C 
BRANCH  22  23
ATOM     23  C   UNL     1       0.511   3.254   0.475  1.00  0.00     0.023 C 
BRANCH  23  24
ATOM     24  C   UNL     1      -0.124   2.691   1.736  1.00  0.00     0.116 C 
BRANCH  24  25
ATOM     25  N   UNL     1      -1.200   1.749   1.448  1.00  0.00    -0.352 N 
ATOM     26  C   UNL     1      -1.335   0.390   1.604  1.00  0.00     0.251 C 
ATOM     27  H   UNL     1      -1.998   2.176   1.060  1.00  0.00     0.163 HD
ATOM     28  O   UNL     1      -2.314  -0.161   1.115  1.00  0.00    -0.269 OA
BRANCH  26  29
ATOM     29  C   UNL     1      -0.315  -0.433   2.299  1.00  0.00     0.039 A 
ATOM     30  C   UNL     1      -0.189  -1.784   1.948  1.00  0.00     0.014 A 
ATOM     31  C   UNL     1       0.492   0.076   3.310  1.00  0.00     0.014 A 
ATOM     32  C   UNL     1       0.777  -2.587   2.564  1.00  0.00     0.010 A 
ATOM     33  C   UNL     1       1.551  -0.672   3.808  1.00  0.00     0.010 A 
ATOM     34  C   UNL     1       1.684  -2.025   3.474  1.00  0.00    -0.014 A 
BRANCH  34  35
ATOM     35  C   UNL     1       2.729  -2.831   4.155  1.00  0.00     0.031 A 
ATOM     36  C   UNL     1       2.769  -2.881   5.662  1.00  0.00     0.074 A 
ATOM     37  C   UNL     1       3.688  -3.444   3.434  1.00  0.00     0.049 A 
ATOM     38  N   UNL     1       3.670  -3.404   6.455  1.00  0.00    -0.248 NA
ATOM     39  C   UNL     1       1.674  -2.202   6.375  1.00  0.00     0.031 C 
ATOM     40  C   UNL     1       3.798  -3.425   1.975  1.00  0.00     0.029 A 
ATOM     41  N   UNL     1       4.760  -4.198   3.838  1.00  0.00    -0.354 N 
ATOM     42  C   UNL     1       3.272  -3.076   7.745  1.00  0.00     0.074 A 
ATOM     43  C   UNL     1       2.097  -2.244   7.628  1.00  0.00     0.031 C 
ATOM     44  C   UNL     1       4.854  -4.167   1.604  1.00  0.00     0.029 A 
ATOM     45  C   UNL     1       5.517  -4.679   2.799  1.00  0.00     0.049 A 
ATOM     46  H   UNL     1       4.968  -4.377   4.784  1.00  0.00     0.167 HD
ATOM     47  C   UNL     1       3.810  -3.465   8.926  1.00  0.00     0.037 A 
ATOM     48  C   UNL     1       6.620  -5.451   2.812  1.00  0.00     0.037 A 
ATOM     49  C   UNL     1       4.937  -4.351   9.039  1.00  0.00     0.049 A 
ATOM     50  C   UNL     1       7.179  -5.905   4.133  1.00  0.00     0.074 A 
ATOM     51  C   UNL     1       5.513  -4.878  10.181  1.00  0.00     0.029 A 
ATOM     52  N   UNL     1       5.653  -4.851   7.960  1.00  0.00    -0.354 N 
ATOM     53  N   UNL     1       6.758  -5.640   5.347  1.00  0.00    -0.248 NA
ATOM     54  C   UNL     1       8.363  -6.773   4.084  1.00  0.00     0.031 C 
ATOM     55  C   UNL     1       6.601  -5.669   9.794  1.00  0.00     0.029 A 
ATOM     56  C   UNL     1       6.675  -5.670   8.410  1.00  0.00     0.049 A 
ATOM     57  H   UNL     1       5.462  -4.653   7.015  1.00  0.00     0.167 HD
ATOM     58  C   UNL     1       7.607  -6.327   6.204  1.00  0.00     0.074 A 
ATOM     59  C   UNL     1       8.556  -7.036   5.369  1.00  0.00     0.031 C 
ATOM     60  C   UNL     1       7.606  -6.367   7.559  1.00  0.00     0.037 A 
BRANCH  47  61
ATOM     61  C   UNL     1       3.169  -2.944  10.182  1.00  0.00     0.064 A 
ATOM     62  C   UNL     1       1.873  -3.327  10.565  1.00  0.00     0.173 A 
ATOM     63  C   UNL     1       3.855  -2.044  11.012  1.00  0.00     0.173 A 
ATOM     64  F   UNL     1       1.166  -4.173   9.800  1.00  0.00    -0.203 F 
ATOM     65  C   UNL     1       1.270  -2.791  11.700  1.00  0.00     0.198 A 
ATOM     66  C   UNL     1       3.263  -1.539  12.168  1.00  0.00     0.198 A 
ATOM     67  F   UNL     1       5.098  -1.647  10.700  1.00  0.00    -0.203 F 
ATOM     68  F   UNL     1       0.004  -3.113  11.999  1.00  0.00    -0.200 F 
ATOM     69  C   UNL     1       1.967  -1.901  12.503  1.00  0.00     0.200 A 
ATOM     70  F   UNL     1       3.942  -0.688  12.949  1.00  0.00    -0.200 F 
ATOM     71  F   UNL     1       1.384  -1.382  13.592  1.00  0.00    -0.200 F 
ENDBRANCH  47  61
BRANCH  48  72
ATOM     72  C   UNL     1       7.233  -5.887   1.531  1.00  0.00     0.064 A 
ATOM     73  C   UNL     1       7.138  -7.222   1.114  1.00  0.00     0.173 A 
ATOM     74  C   UNL     1       7.913  -4.989   0.697  1.00  0.00     0.173 A 
ATOM     75  F   UNL     1       6.513  -8.122   1.888  1.00  0.00    -0.203 F 
ATOM     76  C   UNL     1       7.714  -7.646  -0.081  1.00  0.00     0.198 A 
ATOM     77  C   UNL     1       8.467  -5.409  -0.511  1.00  0.00     0.198 A 
ATOM     78  F   UNL     1       8.024  -3.700   1.048  1.00  0.00    -0.203 F 
ATOM     79  F   UNL     1       7.642  -8.937  -0.436  1.00  0.00    -0.200 F 
ATOM     80  C   UNL     1       8.374  -6.738  -0.896  1.00  0.00     0.200 A 
ATOM     81  F   UNL     1       9.092  -4.526  -1.302  1.00  0.00    -0.200 F 
ATOM     82  F   UNL     1       8.924  -7.146  -2.047  1.00  0.00    -0.200 F 
ENDBRANCH  48  72
BRANCH  60  83
ATOM     83  C   UNL     1       8.645  -7.225   8.219  1.00  0.00     0.064 A 
ATOM     84  C   UNL     1       9.999  -6.859   8.233  1.00  0.00     0.173 A 
ATOM     85  C   UNL     1       8.277  -8.412   8.870  1.00  0.00     0.173 A 
ATOM     86  F   UNL     1      10.402  -5.740   7.612  1.00  0.00    -0.203 F 
ATOM     87  C   UNL     1      10.951  -7.665   8.850  1.00  0.00     0.198 A 
ATOM     88  C   UNL     1       9.227  -9.200   9.512  1.00  0.00     0.198 A 
ATOM     89  F   UNL     1       6.994  -8.803   8.892  1.00  0.00    -0.203 F 
ATOM     90  F   UNL     1      12.246  -7.322   8.806  1.00  0.00    -0.200 F 
ATOM     91  C   UNL     1      10.564  -8.831   9.494  1.00  0.00     0.200 A 
ATOM     92  F   UNL     1       8.850 -10.319  10.146  1.00  0.00    -0.200 F 
ATOM     93  F   UNL     1      11.482  -9.604  10.091  1.00  0.00    -0.200 F 
ENDBRANCH  60  83
ENDBRANCH  34  35
ENDBRANCH  26  29
ENDBRANCH  24  25
ENDBRANCH  23  24
ENDBRANCH  22  23
ENDBRANCH   1  22
TORSDOF 17
