REMARK SMILES O=C(NCCCCNC(=O)[C@@H](CO)NC(=O)c1ccc2noc(-c3ccccc3)c2c1)c1ccc(-c2c3nc(c(-c4c(F)c(F)c(F)c(F)c4F)c4ccc([nH]4)c(-c4c(F)c(F)c(F)c(F)c4F)c4nc(c(-c5c(F)c(F)c(F)c(F)c5F)c5ccc2[nH]5)C=C4)C=C3)cc1
REMARK SMILES IDX 6 1 5 2 4 3 3 4 1 5 2 6 32 8 33 9 94 10 34 11 93 12 35 13
REMARK SMILES IDX 36 14 37 15 87 16 38 17 92 18 86 19 88 20 39 21 91 22 85 23
REMARK SMILES IDX 84 24 40 26 72 27 52 28 71 29 53 30 56 31 70 32 89 33 54 34
REMARK SMILES IDX 55 35 69 37 90 38 57 39 41 40 42 41 50 42 43 43 44 44 48 45
REMARK SMILES IDX 51 46 45 47 46 48 49 49 47 50 73 51 74 52 82 53 75 54 76 55
REMARK SMILES IDX 80 56 83 57 77 58 78 59 81 60 79 61 58 62 59 63 67 64 60 65
REMARK SMILES IDX 61 66 65 67 68 68 62 69 63 70 66 71 64 72 7 73 8 74 9 75
REMARK SMILES IDX 10 77 11 78 12 79 13 80 14 82 15 83 16 85 17 86 18 87 31 88
REMARK SMILES IDX 19 89 30 90 20 91 23 92 21 93 22 94 24 95 25 96 29 97 26 98
REMARK SMILES IDX 28 99 27 100
REMARK H PARENT 3 7 88 25 56 36 8 76 13 81 14 84
REMARK Flexibility Score: inf
ROOT
ATOM      1  C   UNL     1       4.489  -0.933   3.729  1.00  0.00     0.023 C 
ENDROOT
BRANCH   1   2
ATOM      2  C   UNL     1       4.964   0.242   2.866  1.00  0.00     0.023 C 
BRANCH   2   3
ATOM      3  C   UNL     1       4.529   0.178   1.416  1.00  0.00     0.116 C 
BRANCH   3   4
ATOM      4  N   UNL     1       3.072   0.146   1.233  1.00  0.00    -0.352 N 
ATOM      5  O   UNL     1       1.198   0.339  -0.054  1.00  0.00    -0.269 OA
ATOM      6  C   UNL     1       2.354  -0.025   0.052  1.00  0.00     0.251 C 
ATOM      7  H   UNL     1       2.534   0.259   2.050  1.00  0.00     0.163 HD
BRANCH   6   8
ATOM      8  C   UNL     1       3.042  -0.686  -1.071  1.00  0.00     0.039 A 
ATOM      9  C   UNL     1       2.884  -0.325  -2.407  1.00  0.00     0.014 A 
ATOM     10  C   UNL     1       3.946  -1.671  -0.714  1.00  0.00     0.014 A 
ATOM     11  C   UNL     1       3.683  -0.973  -3.345  1.00  0.00     0.010 A 
ATOM     12  C   UNL     1       4.973  -1.955  -1.553  1.00  0.00     0.010 A 
ATOM     13  C   UNL     1       4.733  -1.798  -2.893  1.00  0.00    -0.014 A 
BRANCH  13  14
ATOM     14  C   UNL     1       5.623  -2.519  -3.784  1.00  0.00     0.031 A 
ATOM     15  C   UNL     1       6.170  -1.673  -4.854  1.00  0.00     0.074 A 
ATOM     16  C   UNL     1       5.999  -3.808  -3.605  1.00  0.00     0.049 A 
ATOM     17  N   UNL     1       5.756  -1.632  -6.072  1.00  0.00    -0.248 NA
ATOM     18  C   UNL     1       7.120  -0.611  -4.496  1.00  0.00     0.031 C 
ATOM     19  C   UNL     1       5.785  -4.707  -2.459  1.00  0.00     0.029 A 
ATOM     20  N   UNL     1       6.714  -4.594  -4.455  1.00  0.00    -0.354 N 
ATOM     21  C   UNL     1       6.536  -0.677  -6.701  1.00  0.00     0.074 A 
ATOM     22  C   UNL     1       7.213   0.045  -5.655  1.00  0.00     0.031 C 
ATOM     23  C   UNL     1       6.525  -5.830  -2.604  1.00  0.00     0.029 A 
ATOM     24  C   UNL     1       7.113  -5.818  -3.928  1.00  0.00     0.049 A 
ATOM     25  H   UNL     1       6.933  -4.317  -5.374  1.00  0.00     0.167 HD
ATOM     26  C   UNL     1       6.742  -0.756  -8.042  1.00  0.00     0.037 A 
ATOM     27  C   UNL     1       7.856  -6.762  -4.558  1.00  0.00     0.037 A 
ATOM     28  C   UNL     1       5.772  -1.633  -8.658  1.00  0.00     0.049 A 
ATOM     29  C   UNL     1       7.705  -6.513  -6.014  1.00  0.00     0.074 A 
ATOM     30  C   UNL     1       4.397  -1.618  -8.792  1.00  0.00     0.029 A 
ATOM     31  N   UNL     1       6.155  -2.934  -8.876  1.00  0.00    -0.354 N 
ATOM     32  N   UNL     1       6.585  -6.673  -6.663  1.00  0.00    -0.248 NA
ATOM     33  C   UNL     1       8.678  -5.641  -6.649  1.00  0.00     0.031 C 
ATOM     34  C   UNL     1       3.990  -2.978  -8.636  1.00  0.00     0.029 A 
ATOM     35  C   UNL     1       5.134  -3.763  -8.487  1.00  0.00     0.049 A 
ATOM     36  H   UNL     1       7.020  -3.224  -9.248  1.00  0.00     0.167 HD
ATOM     37  C   UNL     1       6.534  -5.605  -7.546  1.00  0.00     0.074 A 
ATOM     38  C   UNL     1       7.889  -5.057  -7.554  1.00  0.00     0.031 C 
ATOM     39  C   UNL     1       5.336  -5.097  -7.960  1.00  0.00     0.037 A 
BRANCH  26  40
ATOM     40  C   UNL     1       8.040  -0.389  -8.711  1.00  0.00     0.064 A 
ATOM     41  C   UNL     1       8.108  -0.406 -10.117  1.00  0.00     0.173 A 
ATOM     42  C   UNL     1       9.281  -0.316  -8.041  1.00  0.00     0.173 A 
ATOM     43  F   UNL     1       6.991  -0.498 -10.854  1.00  0.00    -0.203 F 
ATOM     44  C   UNL     1       9.330  -0.425 -10.794  1.00  0.00     0.198 A 
ATOM     45  C   UNL     1      10.495  -0.282  -8.721  1.00  0.00     0.198 A 
ATOM     46  F   UNL     1       9.385  -0.395  -6.710  1.00  0.00    -0.203 F 
ATOM     47  F   UNL     1       9.348  -0.570 -12.126  1.00  0.00    -0.200 F 
ATOM     48  C   UNL     1      10.522  -0.368 -10.096  1.00  0.00     0.200 A 
ATOM     49  F   UNL     1      11.639  -0.251  -8.023  1.00  0.00    -0.200 F 
ATOM     50  F   UNL     1      11.694  -0.447 -10.738  1.00  0.00    -0.200 F 
ENDBRANCH  26  40
BRANCH  27  51
ATOM     51  C   UNL     1       8.977  -7.569  -4.011  1.00  0.00     0.064 A 
ATOM     52  C   UNL     1       9.532  -8.622  -4.761  1.00  0.00     0.173 A 
ATOM     53  C   UNL     1       9.730  -7.123  -2.908  1.00  0.00     0.173 A 
ATOM     54  F   UNL     1       8.896  -9.083  -5.848  1.00  0.00    -0.203 F 
ATOM     55  C   UNL     1      10.789  -9.158  -4.459  1.00  0.00     0.198 A 
ATOM     56  C   UNL     1      10.983  -7.662  -2.606  1.00  0.00     0.198 A 
ATOM     57  F   UNL     1       9.314  -6.088  -2.165  1.00  0.00    -0.203 F 
ATOM     58  F   UNL     1      11.319 -10.105  -5.245  1.00  0.00    -0.200 F 
ATOM     59  C   UNL     1      11.521  -8.665  -3.392  1.00  0.00     0.200 A 
ATOM     60  F   UNL     1      11.698  -7.154  -1.592  1.00  0.00    -0.200 F 
ATOM     61  F   UNL     1      12.757  -9.123  -3.148  1.00  0.00    -0.200 F 
ENDBRANCH  27  51
BRANCH  39  62
ATOM     62  C   UNL     1       4.098  -5.906  -7.670  1.00  0.00     0.064 A 
ATOM     63  C   UNL     1       3.607  -6.177  -6.379  1.00  0.00     0.173 A 
ATOM     64  C   UNL     1       3.303  -6.302  -8.754  1.00  0.00     0.173 A 
ATOM     65  F   UNL     1       4.264  -5.763  -5.289  1.00  0.00    -0.203 F 
ATOM     66  C   UNL     1       2.391  -6.837  -6.191  1.00  0.00     0.198 A 
ATOM     67  C   UNL     1       2.074  -6.928  -8.562  1.00  0.00     0.198 A 
ATOM     68  F   UNL     1       3.699  -6.033 -10.008  1.00  0.00    -0.203 F 
ATOM     69  F   UNL     1       1.946  -7.089  -4.950  1.00  0.00    -0.200 F 
ATOM     70  C   UNL     1       1.621  -7.202  -7.283  1.00  0.00     0.200 A 
ATOM     71  F   UNL     1       1.315  -7.239  -9.622  1.00  0.00    -0.200 F 
ATOM     72  F   UNL     1       0.432  -7.794  -7.103  1.00  0.00    -0.200 F 
ENDBRANCH  39  62
ENDBRANCH  13  14
ENDBRANCH   6   8
ENDBRANCH   3   4
ENDBRANCH   2   3
ENDBRANCH   1   2
BRANCH   1  73
ATOM     73  C   UNL     1       4.930  -2.344   3.309  1.00  0.00     0.116 C 
BRANCH  73  74
ATOM     74  N   UNL     1       6.367  -2.530   3.393  1.00  0.00    -0.354 N 
ATOM     75  C   UNL     1       7.143  -3.196   4.291  1.00  0.00     0.244 C 
ATOM     76  H   UNL     1       6.872  -2.095   2.668  1.00  0.00     0.163 HD
ATOM     77  O   UNL     1       8.364  -3.011   4.201  1.00  0.00    -0.273 OA
BRANCH  75  78
ATOM     78  C   UNL     1       6.589  -4.072   5.434  1.00  0.00     0.197 C 
BRANCH  78  79
ATOM     79  C   UNL     1       6.000  -3.229   6.577  1.00  0.00     0.191 C 
BRANCH  79  80
ATOM     80  O   UNL     1       4.768  -2.604   6.247  1.00  0.00    -0.394 OA
ATOM     81  H   UNL     1       4.905  -1.989   5.509  1.00  0.00     0.210 HD
ENDBRANCH  79  80
ENDBRANCH  78  79
BRANCH  78  82
ATOM     82  N   UNL     1       5.714  -5.161   4.978  1.00  0.00    -0.338 N 
ATOM     83  C   UNL     1       5.882  -6.520   5.099  1.00  0.00     0.252 C 
ATOM     84  H   UNL     1       4.890  -4.877   4.519  1.00  0.00     0.164 HD
ATOM     85  O   UNL     1       5.198  -7.285   4.427  1.00  0.00    -0.269 OA
BRANCH  83  86
ATOM     86  C   UNL     1       6.902  -7.078   6.026  1.00  0.00     0.040 A 
ATOM     87  C   UNL     1       6.973  -6.588   7.373  1.00  0.00     0.016 A 
ATOM     88  C   UNL     1       7.730  -8.112   5.532  1.00  0.00     0.028 A 
ATOM     89  C   UNL     1       7.947  -6.990   8.311  1.00  0.00     0.033 A 
ATOM     90  C   UNL     1       8.658  -8.513   6.492  1.00  0.00     0.050 A 
ATOM     91  C   UNL     1       8.803  -7.993   7.831  1.00  0.00     0.114 A 
ATOM     92  C   UNL     1       9.575  -9.523   6.385  1.00  0.00     0.174 A 
ATOM     93  N   UNL     1       9.809  -8.632   8.448  1.00  0.00    -0.079 NA
ATOM     94  O   UNL     1      10.272  -9.586   7.558  1.00  0.00    -0.355 OA
BRANCH  92  95
ATOM     95  C   UNL     1       9.951 -10.505   5.390  1.00  0.00     0.021 A 
ATOM     96  C   UNL     1       9.891 -11.870   5.701  1.00  0.00     0.012 A 
ATOM     97  C   UNL     1      10.373 -10.113   4.115  1.00  0.00     0.012 A 
ATOM     98  C   UNL     1      10.247 -12.829   4.752  1.00  0.00     0.001 A 
ATOM     99  C   UNL     1      10.739 -11.073   3.169  1.00  0.00     0.001 A 
ATOM    100  C   UNL     1      10.674 -12.429   3.487  1.00  0.00     0.000 A 
ENDBRANCH  92  95
ENDBRANCH  83  86
ENDBRANCH  78  82
ENDBRANCH  75  78
ENDBRANCH  73  74
ENDBRANCH   1  73
TORSDOF 16
