REMARK SMILES CC(C)(C)C(=O)C[N@H+]1CCCC[C@H]1C(=O)NCCCCNC(=O)c1ccc(-c2c3nc(c(-c4c(F)c(F)c(F)c(F)c4F)c4ccc([nH]4)c(-c4c(F)c(F)c(F)c(F)c4F)c4nc(c(-c5c(F)c(F)c(F)c(F)c5F)c5ccc2[nH]5)C=C4)C=C3)cc1
REMARK SMILES IDX 18 1 17 2 16 3 14 4 15 5 13 7 8 8 9 9 10 11 12 12 11 13 7 14
REMARK SMILES IDX 5 15 6 16 2 17 1 18 3 19 4 20 19 21 20 22 21 23 22 24 23 26
REMARK SMILES IDX 24 27 25 28 86 29 26 30 85 31 27 32 28 33 29 34 79 35 30 36
REMARK SMILES IDX 84 37 78 38 80 39 31 40 83 41 77 42 76 43 32 45 64 46 44 47
REMARK SMILES IDX 63 48 45 49 48 50 62 51 81 52 46 53 47 54 61 56 82 57 49 58
REMARK SMILES IDX 33 59 34 60 42 61 35 62 36 63 40 64 43 65 37 66 38 67 41 68
REMARK SMILES IDX 39 69 65 70 66 71 74 72 67 73 68 74 72 75 75 76 69 77 70 78
REMARK SMILES IDX 73 79 71 80 50 81 51 82 59 83 52 84 53 85 57 86 60 87 54 88
REMARK SMILES IDX 55 89 58 90 56 91
REMARK H PARENT 16 6 8 10 21 25 80 44 48 55
REMARK Flexibility Score: inf
ROOT
ATOM      1  C   UNL     1      -0.716  -1.666  -5.889  1.00  0.00     0.023 C 
ENDROOT
BRANCH   1   2
ATOM      2  C   UNL     1      -0.211  -3.090  -5.667  1.00  0.00     0.116 C 
BRANCH   2   3
ATOM      3  N   UNL     1       1.188  -3.254  -5.987  1.00  0.00    -0.351 N 
ATOM      4  C   UNL     1       2.313  -3.542  -5.290  1.00  0.00     0.278 C 
ATOM      5  O   UNL     1       3.292  -3.758  -6.026  1.00  0.00    -0.268 OA
ATOM      6  H   UNL     1       1.368  -3.124  -6.947  1.00  0.00     0.163 HD
BRANCH   4   7
ATOM      7  C   UNL     1       2.532  -3.555  -3.748  1.00  0.00     0.274 C 
ATOM      8  N   UNL     1       1.387  -3.429  -2.833  1.00  0.00    -0.319 N 
ATOM      9  C   UNL     1       0.553  -4.610  -2.654  1.00  0.00     0.263 C 
ATOM     10  H   UNL     1       1.827  -3.433  -1.913  1.00  0.00     0.349 HD
ATOM     11  C   UNL     1       1.380  -5.833  -2.264  1.00  0.00     0.062 C 
ATOM     12  C   UNL     1       3.369  -4.793  -3.354  1.00  0.00     0.076 C 
ATOM     13  C   UNL     1       2.517  -6.055  -3.252  1.00  0.00     0.012 C 
BRANCH   8  14
ATOM     14  C   UNL     1       0.747  -2.119  -2.813  1.00  0.00     0.340 C 
BRANCH  14  15
ATOM     15  C   UNL     1       1.339  -1.218  -1.734  1.00  0.00     0.192 C 
ATOM     16  O   UNL     1       2.359  -0.563  -1.980  1.00  0.00    -0.293 OA
BRANCH  15  17
ATOM     17  C   UNL     1       0.676  -1.172  -0.342  1.00  0.00     0.026 C 
ATOM     18  C   UNL     1       1.180   0.079   0.403  1.00  0.00     0.019 C 
ATOM     19  C   UNL     1       1.082  -2.421   0.443  1.00  0.00     0.019 C 
ATOM     20  C   UNL     1      -0.853  -1.073  -0.442  1.00  0.00     0.019 C 
ENDBRANCH  15  17
ENDBRANCH  14  15
ENDBRANCH   8  14
ENDBRANCH   4   7
ENDBRANCH   2   3
ENDBRANCH   1   2
BRANCH   1  21
ATOM     21  C   UNL     1      -1.350  -1.406  -7.251  1.00  0.00     0.023 C 
BRANCH  21  22
ATOM     22  C   UNL     1      -2.431  -2.393  -7.669  1.00  0.00     0.116 C 
BRANCH  22  23
ATOM     23  N   UNL     1      -3.467  -2.628  -6.672  1.00  0.00    -0.352 N 
ATOM     24  C   UNL     1      -4.757  -3.061  -6.903  1.00  0.00     0.251 C 
ATOM     25  H   UNL     1      -3.221  -2.460  -5.734  1.00  0.00     0.163 HD
ATOM     26  O   UNL     1      -5.561  -3.192  -5.997  1.00  0.00    -0.269 OA
BRANCH  24  27
ATOM     27  C   UNL     1      -5.147  -3.307  -8.306  1.00  0.00     0.039 A 
ATOM     28  C   UNL     1      -6.167  -2.536  -8.865  1.00  0.00     0.014 A 
ATOM     29  C   UNL     1      -4.391  -4.181  -9.089  1.00  0.00     0.014 A 
ATOM     30  C   UNL     1      -6.373  -2.579 -10.244  1.00  0.00     0.010 A 
ATOM     31  C   UNL     1      -4.543  -4.159 -10.468  1.00  0.00     0.010 A 
ATOM     32  C   UNL     1      -5.531  -3.354 -11.059  1.00  0.00    -0.014 A 
BRANCH  32  33
ATOM     33  C   UNL     1      -5.669  -3.354 -12.535  1.00  0.00     0.031 A 
ATOM     34  C   UNL     1      -6.037  -4.627 -13.242  1.00  0.00     0.074 A 
ATOM     35  C   UNL     1      -5.381  -2.243 -13.240  1.00  0.00     0.049 A 
ATOM     36  N   UNL     1      -6.106  -4.874 -14.525  1.00  0.00    -0.248 NA
ATOM     37  C   UNL     1      -6.327  -5.791 -12.389  1.00  0.00     0.031 C 
ATOM     38  C   UNL     1      -4.951  -0.964 -12.672  1.00  0.00     0.029 A 
ATOM     39  N   UNL     1      -5.396  -2.016 -14.594  1.00  0.00    -0.354 N 
ATOM     40  C   UNL     1      -6.414  -6.223 -14.630  1.00  0.00     0.074 A 
ATOM     41  C   UNL     1      -6.465  -6.755 -13.286  1.00  0.00     0.031 C 
ATOM     42  C   UNL     1      -4.769  -0.080 -13.668  1.00  0.00     0.029 A 
ATOM     43  C   UNL     1      -5.041  -0.736 -14.943  1.00  0.00     0.049 A 
ATOM     44  H   UNL     1      -5.638  -2.706 -15.252  1.00  0.00     0.167 HD
ATOM     45  C   UNL     1      -6.661  -6.949 -15.746  1.00  0.00     0.037 A 
ATOM     46  C   UNL     1      -4.950  -0.161 -16.157  1.00  0.00     0.037 A 
ATOM     47  C   UNL     1      -6.658  -6.405 -17.076  1.00  0.00     0.049 A 
ATOM     48  C   UNL     1      -5.282  -0.974 -17.379  1.00  0.00     0.074 A 
ATOM     49  C   UNL     1      -6.951  -7.039 -18.270  1.00  0.00     0.029 A 
ATOM     50  N   UNL     1      -6.358  -5.086 -17.384  1.00  0.00    -0.354 N 
ATOM     51  N   UNL     1      -5.631  -2.235 -17.463  1.00  0.00    -0.248 NA
ATOM     52  C   UNL     1      -5.218  -0.281 -18.673  1.00  0.00     0.031 C 
ATOM     53  C   UNL     1      -6.807  -6.107 -19.305  1.00  0.00     0.029 A 
ATOM     54  C   UNL     1      -6.460  -4.886 -18.750  1.00  0.00     0.049 A 
ATOM     55  H   UNL     1      -6.109  -4.395 -16.729  1.00  0.00     0.167 HD
ATOM     56  C   UNL     1      -5.862  -2.477 -18.810  1.00  0.00     0.074 A 
ATOM     57  C   UNL     1      -5.620  -1.231 -19.507  1.00  0.00     0.031 C 
ATOM     58  C   UNL     1      -6.240  -3.629 -19.417  1.00  0.00     0.037 A 
BRANCH  45  59
ATOM     59  C   UNL     1      -6.968  -8.405 -15.563  1.00  0.00     0.064 A 
ATOM     60  C   UNL     1      -8.173  -8.832 -14.984  1.00  0.00     0.173 A 
ATOM     61  C   UNL     1      -6.053  -9.385 -15.974  1.00  0.00     0.173 A 
ATOM     62  F   UNL     1      -9.073  -7.933 -14.558  1.00  0.00    -0.203 F 
ATOM     63  C   UNL     1      -8.434 -10.186 -14.789  1.00  0.00     0.198 A 
ATOM     64  C   UNL     1      -6.331 -10.739 -15.806  1.00  0.00     0.198 A 
ATOM     65  F   UNL     1      -4.888  -9.030 -16.535  1.00  0.00    -0.203 F 
ATOM     66  F   UNL     1      -9.565 -10.567 -14.179  1.00  0.00    -0.200 F 
ATOM     67  C   UNL     1      -7.516 -11.138 -15.205  1.00  0.00     0.200 A 
ATOM     68  F   UNL     1      -5.447 -11.659 -16.216  1.00  0.00    -0.200 F 
ATOM     69  F   UNL     1      -7.768 -12.440 -15.017  1.00  0.00    -0.200 F 
ENDBRANCH  45  59
BRANCH  46  70
ATOM     70  C   UNL     1      -4.582   1.273 -16.276  1.00  0.00     0.064 A 
ATOM     71  C   UNL     1      -5.541   2.228 -16.642  1.00  0.00     0.173 A 
ATOM     72  C   UNL     1      -3.275   1.718 -16.036  1.00  0.00     0.173 A 
ATOM     73  F   UNL     1      -6.801   1.846 -16.900  1.00  0.00    -0.203 F 
ATOM     74  C   UNL     1      -5.202   3.572 -16.785  1.00  0.00     0.198 A 
ATOM     75  C   UNL     1      -2.942   3.067 -16.157  1.00  0.00     0.198 A 
ATOM     76  F   UNL     1      -2.323   0.845 -15.678  1.00  0.00    -0.203 F 
ATOM     77  F   UNL     1      -6.129   4.457 -17.177  1.00  0.00    -0.200 F 
ATOM     78  C   UNL     1      -3.904   3.991 -16.538  1.00  0.00     0.200 A 
ATOM     79  F   UNL     1      -1.689   3.470 -15.906  1.00  0.00    -0.200 F 
ATOM     80  F   UNL     1      -3.578   5.283 -16.674  1.00  0.00    -0.200 F 
ENDBRANCH  46  70
BRANCH  58  81
ATOM     81  C   UNL     1      -6.469  -3.582 -20.898  1.00  0.00     0.064 A 
ATOM     82  C   UNL     1      -5.403  -3.519 -21.805  1.00  0.00     0.173 A 
ATOM     83  C   UNL     1      -7.772  -3.649 -21.412  1.00  0.00     0.173 A 
ATOM     84  F   UNL     1      -4.140  -3.438 -21.359  1.00  0.00    -0.203 F 
ATOM     85  C   UNL     1      -5.635  -3.503 -23.178  1.00  0.00     0.198 A 
ATOM     86  C   UNL     1      -7.999  -3.659 -22.785  1.00  0.00     0.198 A 
ATOM     87  F   UNL     1      -8.824  -3.716 -20.582  1.00  0.00    -0.203 F 
ATOM     88  F   UNL     1      -4.604  -3.403 -24.028  1.00  0.00    -0.200 F 
ATOM     89  C   UNL     1      -6.931  -3.580 -23.666  1.00  0.00     0.200 A 
ATOM     90  F   UNL     1      -9.251  -3.744 -23.255  1.00  0.00    -0.200 F 
ATOM     91  F   UNL     1      -7.152  -3.573 -24.988  1.00  0.00    -0.200 F 
ENDBRANCH  58  81
ENDBRANCH  32  33
ENDBRANCH  24  27
ENDBRANCH  22  23
ENDBRANCH  21  22
ENDBRANCH   1  21
TORSDOF 14
