REMARK SMILES CS(=O)(=O)N1C[C@@H]2C[N@H+](Cc3cccnc3N)C[C@]2(C(=O)NCCCCNC(=O)c2ccc(-c3c4nc(c(-c5c(F)c(F)c(F)c(F)c5F)c5ccc([nH]5)c(-c5c(F)c(F)c(F)c(F)c5F)c5nc(c(-c6c(F)c(F)c(F)c(F)c6F)c6ccc3[nH]6)C=C5)C=C4)cc2)C1
REMARK SMILES IDX 24 1 23 2 22 3 20 4 21 5 19 7 5 8 6 9 93 10 7 11 8 12 18 13
REMARK SMILES IDX 9 14 2 16 1 17 3 18 4 19 10 20 11 21 12 22 16 23 13 24 15 25
REMARK SMILES IDX 14 26 17 27 25 30 26 31 27 32 28 33 29 35 30 36 31 37 92 38
REMARK SMILES IDX 32 39 91 40 33 41 34 42 35 43 85 44 36 45 90 46 84 47 86 48
REMARK SMILES IDX 37 49 89 50 83 51 82 52 38 54 70 55 50 56 69 57 51 58 54 59
REMARK SMILES IDX 68 60 87 61 52 62 53 63 67 65 88 66 55 67 39 68 40 69 48 70
REMARK SMILES IDX 41 71 42 72 46 73 49 74 43 75 44 76 47 77 45 78 71 79 72 80
REMARK SMILES IDX 80 81 73 82 74 83 78 84 81 85 75 86 76 87 79 88 77 89 56 90
REMARK SMILES IDX 57 91 65 92 58 93 59 94 63 95 66 96 60 97 61 98 64 99 62 100
REMARK H PARENT 22 6 9 15 17 28 17 29 27 34 86 53 54 64
REMARK Flexibility Score: inf
ROOT
ATOM      1  C   UNL     1       5.214  -6.455   0.652  1.00  0.00     0.023 C 
ENDROOT
BRANCH   1   2
ATOM      2  C   UNL     1       4.909  -5.001   1.053  1.00  0.00     0.116 C 
BRANCH   2   3
ATOM      3  N   UNL     1       4.446  -4.231  -0.081  1.00  0.00    -0.355 N 
ATOM      4  C   UNL     1       3.127  -4.020  -0.445  1.00  0.00     0.233 C 
ATOM      5  O   UNL     1       2.909  -3.679  -1.610  1.00  0.00    -0.274 OA
ATOM      6  H   UNL     1       5.136  -3.816  -0.648  1.00  0.00     0.163 HD
BRANCH   4   7
ATOM      7  C   UNL     1       1.992  -4.191   0.677  1.00  0.00     0.121 C 
ATOM      8  N   UNL     1       0.871  -2.115   1.475  1.00  0.00    -0.200 NA
ATOM      9  C   UNL     1      -0.141  -3.142   1.542  1.00  0.00     0.113 C 
ATOM     10  C   UNL     1       1.982  -2.601   0.640  1.00  0.00     0.125 C 
ATOM     11  C   UNL     1       0.393  -4.193   0.586  1.00  0.00     0.082 C 
ATOM     12  C   UNL     1      -0.160  -5.569   0.980  1.00  0.00     0.268 C 
ATOM     13  C   UNL     1       1.943  -5.670   0.174  1.00  0.00     0.281 C 
ATOM     14  N   UNL     1       1.007  -6.418   1.011  1.00  0.00    -0.330 N 
ATOM     15  H   UNL     1       0.809  -7.354   0.658  1.00  0.00     0.348 HD
BRANCH   8  16
ATOM     16  S   UNL     1       0.477  -0.502   1.641  1.00  0.00     0.211 S 
ATOM     17  C   UNL     1       0.781   0.196   0.027  1.00  0.00     0.176 C 
ATOM     18  O   UNL     1       1.452   0.090   2.538  1.00  0.00    -0.213 OA
ATOM     19  O   UNL     1      -0.939  -0.399   1.906  1.00  0.00    -0.213 OA
ENDBRANCH   8  16
BRANCH  14  20
ATOM     20  C   UNL     1       1.493  -6.921   2.317  1.00  0.00     0.302 C 
BRANCH  20  21
ATOM     21  C   UNL     1       1.797  -5.979   3.467  1.00  0.00     0.048 A 
ATOM     22  C   UNL     1       3.120  -5.723   3.862  1.00  0.00     0.015 A 
ATOM     23  C   UNL     1       0.815  -5.389   4.258  1.00  0.00     0.132 A 
ATOM     24  C   UNL     1       3.412  -4.731   4.793  1.00  0.00     0.021 A 
ATOM     25  N   UNL     1       1.069  -4.410   5.148  1.00  0.00    -0.239 NA
ATOM     26  C   UNL     1       2.352  -4.066   5.366  1.00  0.00     0.113 A 
BRANCH  23  27
ATOM     27  N   UNL     1      -0.510  -5.768   4.207  1.00  0.00    -0.383 N 
ATOM     28  H   UNL     1      -0.796  -6.477   3.587  1.00  0.00     0.158 HD
ATOM     29  H   UNL     1      -1.170  -5.328   4.791  1.00  0.00     0.158 HD
ENDBRANCH  23  27
ENDBRANCH  20  21
ENDBRANCH  14  20
ENDBRANCH   4   7
ENDBRANCH   2   3
ENDBRANCH   1   2
BRANCH   1  30
ATOM     30  C   UNL     1       6.681  -6.743   0.399  1.00  0.00     0.023 C 
BRANCH  30  31
ATOM     31  C   UNL     1       7.542  -6.636   1.639  1.00  0.00     0.116 C 
BRANCH  31  32
ATOM     32  N   UNL     1       7.213  -7.604   2.679  1.00  0.00    -0.352 N 
ATOM     33  C   UNL     1       8.095  -8.257   3.511  1.00  0.00     0.251 C 
ATOM     34  H   UNL     1       6.258  -7.813   2.798  1.00  0.00     0.163 HD
ATOM     35  O   UNL     1       7.718  -9.112   4.302  1.00  0.00    -0.269 OA
BRANCH  33  36
ATOM     36  C   UNL     1       9.526  -7.930   3.371  1.00  0.00     0.039 A 
ATOM     37  C   UNL     1      10.423  -8.947   3.044  1.00  0.00     0.014 A 
ATOM     38  C   UNL     1       9.925  -6.591   3.376  1.00  0.00     0.014 A 
ATOM     39  C   UNL     1      11.713  -8.608   2.640  1.00  0.00     0.010 A 
ATOM     40  C   UNL     1      11.165  -6.255   2.857  1.00  0.00     0.010 A 
ATOM     41  C   UNL     1      12.077  -7.259   2.496  1.00  0.00    -0.014 A 
BRANCH  41  42
ATOM     42  C   UNL     1      13.417  -6.870   1.993  1.00  0.00     0.031 A 
ATOM     43  C   UNL     1      14.324  -6.051   2.866  1.00  0.00     0.074 A 
ATOM     44  C   UNL     1      13.787  -7.188   0.738  1.00  0.00     0.049 A 
ATOM     45  N   UNL     1      15.504  -5.552   2.601  1.00  0.00    -0.248 NA
ATOM     46  C   UNL     1      13.818  -5.710   4.206  1.00  0.00     0.031 C 
ATOM     47  C   UNL     1      12.966  -7.920  -0.228  1.00  0.00     0.029 A 
ATOM     48  N   UNL     1      14.948  -6.926   0.056  1.00  0.00    -0.354 N 
ATOM     49  C   UNL     1      15.868  -4.832   3.730  1.00  0.00     0.074 A 
ATOM     50  C   UNL     1      14.751  -4.883   4.646  1.00  0.00     0.031 C 
ATOM     51  C   UNL     1      13.661  -8.075  -1.366  1.00  0.00     0.029 A 
ATOM     52  C   UNL     1      14.958  -7.419  -1.226  1.00  0.00     0.049 A 
ATOM     53  H   UNL     1      15.704  -6.431   0.448  1.00  0.00     0.167 HD
ATOM     54  C   UNL     1      17.042  -4.213   3.997  1.00  0.00     0.037 A 
ATOM     55  C   UNL     1      15.905  -7.344  -2.181  1.00  0.00     0.037 A 
ATOM     56  C   UNL     1      18.154  -4.182   3.086  1.00  0.00     0.049 A 
ATOM     57  C   UNL     1      17.203  -6.648  -1.869  1.00  0.00     0.074 A 
ATOM     58  C   UNL     1      19.411  -3.639   3.276  1.00  0.00     0.029 A 
ATOM     59  N   UNL     1      18.136  -4.712   1.803  1.00  0.00    -0.354 N 
ATOM     60  N   UNL     1      17.572  -6.042  -0.766  1.00  0.00    -0.248 NA
ATOM     61  C   UNL     1      18.218  -6.635  -2.930  1.00  0.00     0.031 C 
ATOM     62  C   UNL     1      20.132  -3.783   2.086  1.00  0.00     0.029 A 
ATOM     63  C   UNL     1      19.350  -4.479   1.177  1.00  0.00     0.049 A 
ATOM     64  H   UNL     1      17.373  -5.184   1.397  1.00  0.00     0.167 HD
ATOM     65  C   UNL     1      18.868  -5.596  -0.989  1.00  0.00     0.074 A 
ATOM     66  C   UNL     1      19.226  -6.017  -2.329  1.00  0.00     0.031 C 
ATOM     67  C   UNL     1      19.687  -4.903  -0.160  1.00  0.00     0.037 A 
BRANCH  54  68
ATOM     68  C   UNL     1      17.166  -3.520   5.325  1.00  0.00     0.064 A 
ATOM     69  C   UNL     1      17.148  -4.231   6.537  1.00  0.00     0.173 A 
ATOM     70  C   UNL     1      17.285  -2.124   5.390  1.00  0.00     0.173 A 
ATOM     71  F   UNL     1      17.020  -5.567   6.535  1.00  0.00    -0.203 F 
ATOM     72  C   UNL     1      17.189  -3.568   7.760  1.00  0.00     0.198 A 
ATOM     73  C   UNL     1      17.369  -1.467   6.615  1.00  0.00     0.198 A 
ATOM     74  F   UNL     1      17.312  -1.393   4.266  1.00  0.00    -0.203 F 
ATOM     75  F   UNL     1      17.087  -4.264   8.901  1.00  0.00    -0.200 F 
ATOM     76  C   UNL     1      17.305  -2.188   7.799  1.00  0.00     0.200 A 
ATOM     77  F   UNL     1      17.495  -0.134   6.651  1.00  0.00    -0.200 F 
ATOM     78  F   UNL     1      17.341  -1.549   8.976  1.00  0.00    -0.200 F 
ENDBRANCH  54  68
BRANCH  55  79
ATOM     79  C   UNL     1      15.663  -7.972  -3.507  1.00  0.00     0.064 A 
ATOM     80  C   UNL     1      16.363  -9.121  -3.902  1.00  0.00     0.173 A 
ATOM     81  C   UNL     1      14.707  -7.454  -4.393  1.00  0.00     0.173 A 
ATOM     82  F   UNL     1      17.299  -9.644  -3.098  1.00  0.00    -0.203 F 
ATOM     83  C   UNL     1      16.123  -9.721  -5.137  1.00  0.00     0.198 A 
ATOM     84  C   UNL     1      14.448  -8.072  -5.615  1.00  0.00     0.198 A 
ATOM     85  F   UNL     1      14.005  -6.361  -4.060  1.00  0.00    -0.203 F 
ATOM     86  F   UNL     1      16.830 -10.799  -5.504  1.00  0.00    -0.200 F 
ATOM     87  C   UNL     1      15.160  -9.202  -5.989  1.00  0.00     0.200 A 
ATOM     88  F   UNL     1      13.502  -7.577  -6.426  1.00  0.00    -0.200 F 
ATOM     89  F   UNL     1      14.918  -9.788  -7.169  1.00  0.00    -0.200 F 
ENDBRANCH  55  79
BRANCH  67  90
ATOM     90  C   UNL     1      21.066  -4.580  -0.662  1.00  0.00     0.064 A 
ATOM     91  C   UNL     1      21.280  -3.638  -1.679  1.00  0.00     0.173 A 
ATOM     92  C   UNL     1      22.191  -5.186  -0.082  1.00  0.00     0.173 A 
ATOM     93  F   UNL     1      20.239  -3.039  -2.276  1.00  0.00    -0.203 F 
ATOM     94  C   UNL     1      22.568  -3.335  -2.114  1.00  0.00     0.198 A 
ATOM     95  C   UNL     1      23.478  -4.854  -0.494  1.00  0.00     0.198 A 
ATOM     96  F   UNL     1      22.042  -6.088   0.901  1.00  0.00    -0.203 F 
ATOM     97  F   UNL     1      22.747  -2.469  -3.122  1.00  0.00    -0.200 F 
ATOM     98  C   UNL     1      23.666  -3.936  -1.515  1.00  0.00     0.200 A 
ATOM     99  F   UNL     1      24.537  -5.422   0.099  1.00  0.00    -0.200 F 
ATOM    100  F   UNL     1      24.904  -3.634  -1.927  1.00  0.00    -0.200 F 
ENDBRANCH  67  90
ENDBRANCH  41  42
ENDBRANCH  33  36
ENDBRANCH  31  32
ENDBRANCH  30  31
ENDBRANCH   1  30
TORSDOF 15
