REMARK SMILES Cc1nc(C(=O)NCCCCNC(=O)c2ccc(-c3c4nc(c(-c5c(F)c(F)c(F)c(F)c5F)c5ccc([nH]5)c(-c5c(F)c(F)c(F)c(F)c5F)c5nc(c(-c6c(F)c(F)c(F)c(F)c6F)c6ccc3[nH]6)C=C5)C=C4)cc2)nn1-c1cccc(C(F)(F)F)c1
REMARK SMILES IDX 9 1 8 2 7 3 5 4 6 5 4 7 1 8 2 9 3 10 79 11 78 12 80 13 81 14
REMARK SMILES IDX 89 15 82 16 84 17 83 18 85 19 86 20 87 21 88 22 10 23 11 24
REMARK SMILES IDX 12 25 13 26 14 28 15 29 16 30 77 31 17 32 76 33 18 34 19 35
REMARK SMILES IDX 20 36 70 37 21 38 75 39 69 40 71 41 22 42 74 43 68 44 67 45
REMARK SMILES IDX 23 47 55 48 35 49 54 50 36 51 39 52 53 53 72 54 37 55 38 56
REMARK SMILES IDX 52 58 73 59 40 60 24 61 25 62 33 63 26 64 27 65 31 66 34 67
REMARK SMILES IDX 28 68 29 69 32 70 30 71 56 72 57 73 65 74 58 75 59 76 63 77
REMARK SMILES IDX 66 78 60 79 61 80 64 81 62 82 41 83 42 84 50 85 43 86 44 87
REMARK SMILES IDX 48 88 51 89 45 90 46 91 49 92 47 93
REMARK H PARENT 7 6 12 27 71 46 39 57
REMARK Flexibility Score: inf
ROOT
ATOM      1  C   UNL     1      -0.690   6.997   0.498  1.00  0.00     0.023 C 
ENDROOT
BRANCH   1   2
ATOM      2  C   UNL     1       0.134   6.190   1.508  1.00  0.00     0.116 C 
BRANCH   2   3
ATOM      3  N   UNL     1      -0.683   5.414   2.430  1.00  0.00    -0.349 N 
ATOM      4  C   UNL     1      -0.822   4.042   2.581  1.00  0.00     0.290 C 
ATOM      5  O   UNL     1      -1.660   3.656   3.402  1.00  0.00    -0.266 OA
ATOM      6  H   UNL     1      -1.228   5.952   3.049  1.00  0.00     0.163 HD
BRANCH   4   7
ATOM      7  C   UNL     1      -0.025   3.099   1.762  1.00  0.00     0.239 A 
ATOM      8  C   UNL     1       0.645  -0.019   0.132  1.00  0.00     0.090 C 
ATOM      9  C   UNL     1       0.476   1.370   0.620  1.00  0.00     0.130 A 
ATOM     10  N   UNL     1      -0.428   1.805   1.477  1.00  0.00    -0.207 NA
ATOM     11  N   UNL     1       1.337   2.406   0.325  1.00  0.00    -0.217 N 
ATOM     12  N   UNL     1       1.176   3.390   1.232  1.00  0.00    -0.140 NA
BRANCH  11  13
ATOM     13  C   UNL     1       2.181   2.619  -0.790  1.00  0.00     0.067 A 
ATOM     14  C   UNL     1       3.312   3.430  -0.636  1.00  0.00     0.028 A 
ATOM     15  C   UNL     1       1.821   2.146  -2.060  1.00  0.00     0.041 A 
ATOM     16  C   UNL     1       4.111   3.729  -1.737  1.00  0.00     0.003 A 
ATOM     17  C   UNL     1       2.590   2.499  -3.183  1.00  0.00     0.058 A 
ATOM     18  C   UNL     1       3.751   3.270  -3.003  1.00  0.00     0.013 A 
BRANCH  17  19
ATOM     19  C   UNL     1       2.166   2.107  -4.580  1.00  0.00     0.416 C 
ATOM     20  F   UNL     1       2.053   3.183  -5.408  1.00  0.00    -0.166 F 
ATOM     21  F   UNL     1       3.050   1.263  -5.176  1.00  0.00    -0.166 F 
ATOM     22  F   UNL     1       0.959   1.478  -4.621  1.00  0.00    -0.166 F 
ENDBRANCH  17  19
ENDBRANCH  11  13
ENDBRANCH   4   7
ENDBRANCH   2   3
ENDBRANCH   1   2
BRANCH   1  23
ATOM     23  C   UNL     1      -1.430   8.228   1.036  1.00  0.00     0.023 C 
BRANCH  23  24
ATOM     24  C   UNL     1      -0.542   9.289   1.673  1.00  0.00     0.116 C 
BRANCH  24  25
ATOM     25  N   UNL     1       0.452   9.870   0.760  1.00  0.00    -0.352 N 
ATOM     26  C   UNL     1       1.432  10.806   1.045  1.00  0.00     0.251 C 
ATOM     27  H   UNL     1       0.418   9.554  -0.172  1.00  0.00     0.163 HD
ATOM     28  O   UNL     1       1.940  11.489   0.150  1.00  0.00    -0.269 OA
BRANCH  26  29
ATOM     29  C   UNL     1       1.881  10.970   2.437  1.00  0.00     0.039 A 
ATOM     30  C   UNL     1       2.227  12.205   2.996  1.00  0.00     0.014 A 
ATOM     31  C   UNL     1       1.913   9.818   3.209  1.00  0.00     0.014 A 
ATOM     32  C   UNL     1       2.533  12.262   4.357  1.00  0.00     0.010 A 
ATOM     33  C   UNL     1       1.950   9.917   4.567  1.00  0.00     0.010 A 
ATOM     34  C   UNL     1       2.377  11.105   5.136  1.00  0.00    -0.014 A 
BRANCH  34  35
ATOM     35  C   UNL     1       2.543  11.091   6.583  1.00  0.00     0.031 A 
ATOM     36  C   UNL     1       1.613  12.006   7.287  1.00  0.00     0.074 A 
ATOM     37  C   UNL     1       3.265  10.127   7.204  1.00  0.00     0.049 A 
ATOM     38  N   UNL     1       1.910  13.078   7.942  1.00  0.00    -0.248 NA
ATOM     39  C   UNL     1       0.164  11.810   7.100  1.00  0.00     0.031 C 
ATOM     40  C   UNL     1       3.949   8.978   6.587  1.00  0.00     0.029 A 
ATOM     41  N   UNL     1       3.451   9.892   8.534  1.00  0.00    -0.354 N 
ATOM     42  C   UNL     1       0.703  13.556   8.447  1.00  0.00     0.074 A 
ATOM     43  C   UNL     1      -0.334  12.886   7.713  1.00  0.00     0.031 C 
ATOM     44  C   UNL     1       4.266   8.066   7.531  1.00  0.00     0.029 A 
ATOM     45  C   UNL     1       3.971   8.631   8.832  1.00  0.00     0.049 A 
ATOM     46  H   UNL     1       3.236  10.557   9.227  1.00  0.00     0.167 HD
ATOM     47  C   UNL     1       0.675  14.210   9.642  1.00  0.00     0.037 A 
ATOM     48  C   UNL     1       4.138   8.091  10.065  1.00  0.00     0.037 A 
ATOM     49  C   UNL     1       2.014  14.573  10.039  1.00  0.00     0.049 A 
ATOM     50  C   UNL     1       4.120   9.214  11.027  1.00  0.00     0.074 A 
ATOM     51  C   UNL     1       2.982  15.448   9.595  1.00  0.00     0.029 A 
ATOM     52  N   UNL     1       2.643  13.632  10.812  1.00  0.00    -0.354 N 
ATOM     53  N   UNL     1       5.053  10.123  11.089  1.00  0.00    -0.248 NA
ATOM     54  C   UNL     1       2.861   9.565  11.668  1.00  0.00     0.031 C 
ATOM     55  C   UNL     1       4.232  14.829   9.901  1.00  0.00     0.029 A 
ATOM     56  C   UNL     1       3.989  13.633  10.577  1.00  0.00     0.049 A 
ATOM     57  H   UNL     1       2.187  13.036  11.449  1.00  0.00     0.167 HD
ATOM     58  C   UNL     1       4.373  11.295  11.366  1.00  0.00     0.074 A 
ATOM     59  C   UNL     1       3.074  10.867  11.876  1.00  0.00     0.031 C 
ATOM     60  C   UNL     1       4.816  12.479  10.851  1.00  0.00     0.037 A 
BRANCH  47  61
ATOM     61  C   UNL     1      -0.426  14.078  10.681  1.00  0.00     0.064 A 
ATOM     62  C   UNL     1      -0.326  14.840  11.867  1.00  0.00     0.173 A 
ATOM     63  C   UNL     1      -1.373  13.031  10.723  1.00  0.00     0.173 A 
ATOM     64  F   UNL     1       0.548  15.855  11.955  1.00  0.00    -0.203 F 
ATOM     65  C   UNL     1      -1.046  14.519  13.021  1.00  0.00     0.198 A 
ATOM     66  C   UNL     1      -2.127  12.745  11.861  1.00  0.00     0.198 A 
ATOM     67  F   UNL     1      -1.534  12.165   9.718  1.00  0.00    -0.203 F 
ATOM     68  F   UNL     1      -0.817  15.190  14.158  1.00  0.00    -0.200 F 
ATOM     69  C   UNL     1      -1.941  13.466  13.020  1.00  0.00     0.200 A 
ATOM     70  F   UNL     1      -2.973  11.706  11.844  1.00  0.00    -0.200 F 
ATOM     71  F   UNL     1      -2.585  13.114  14.140  1.00  0.00    -0.200 F 
ENDBRANCH  47  61
BRANCH  48  72
ATOM     72  C   UNL     1       4.078   6.679  10.512  1.00  0.00     0.064 A 
ATOM     73  C   UNL     1       4.621   6.279  11.747  1.00  0.00     0.173 A 
ATOM     74  C   UNL     1       3.221   5.759   9.880  1.00  0.00     0.173 A 
ATOM     75  F   UNL     1       5.418   7.111  12.434  1.00  0.00    -0.203 F 
ATOM     76  C   UNL     1       4.292   5.052  12.333  1.00  0.00     0.198 A 
ATOM     77  C   UNL     1       2.894   4.534  10.466  1.00  0.00     0.198 A 
ATOM     78  F   UNL     1       2.605   6.078   8.733  1.00  0.00    -0.203 F 
ATOM     79  F   UNL     1       4.773   4.737  13.544  1.00  0.00    -0.200 F 
ATOM     80  C   UNL     1       3.416   4.187  11.699  1.00  0.00     0.200 A 
ATOM     81  F   UNL     1       2.014   3.722   9.861  1.00  0.00    -0.200 F 
ATOM     82  F   UNL     1       3.042   3.045  12.292  1.00  0.00    -0.200 F 
ENDBRANCH  48  72
BRANCH  60  83
ATOM     83  C   UNL     1       6.243  12.524  10.384  1.00  0.00     0.064 A 
ATOM     84  C   UNL     1       6.752  11.809   9.287  1.00  0.00     0.173 A 
ATOM     85  C   UNL     1       7.112  13.407  11.037  1.00  0.00     0.173 A 
ATOM     86  F   UNL     1       5.965  11.008   8.559  1.00  0.00    -0.203 F 
ATOM     87  C   UNL     1       8.082  11.941   8.893  1.00  0.00     0.198 A 
ATOM     88  C   UNL     1       8.428  13.567  10.619  1.00  0.00     0.198 A 
ATOM     89  F   UNL     1       6.667  14.149  12.063  1.00  0.00    -0.203 F 
ATOM     90  F   UNL     1       8.551  11.232   7.856  1.00  0.00    -0.200 F 
ATOM     91  C   UNL     1       8.917  12.825   9.556  1.00  0.00     0.200 A 
ATOM     92  F   UNL     1       9.218  14.457  11.235  1.00  0.00    -0.200 F 
ATOM     93  F   UNL     1      10.187  12.980   9.157  1.00  0.00    -0.200 F 
ENDBRANCH  60  83
ENDBRANCH  34  35
ENDBRANCH  26  29
ENDBRANCH  24  25
ENDBRANCH  23  24
ENDBRANCH   1  23
TORSDOF 13
