REMARK SMILES O=C(NCCCCNC(=O)c1ccc(-c2c3nc(c(-c4c(F)c(F)c(F)c(F)c4F)c4ccc([nH]4)c(-c4c(F)c(F)c(F)c(F)c4F)c4nc(c(-c5c(F)c(F)c(F)c(F)c5F)c5ccc2[nH]5)C=C4)C=C3)cc1)C1=Cc2cc(S(F)(F)(F)(F)F)cc(Br)c2O[C@H]1C(F)(F)F
REMARK SMILES IDX 6 1 5 2 4 3 3 4 1 5 2 6 74 8 75 9 90 10 76 11 89 12 77 13
REMARK SMILES IDX 88 14 78 15 86 16 85 17 87 18 91 19 92 20 93 21 94 22 79 23
REMARK SMILES IDX 80 24 81 25 82 26 83 27 84 28 7 29 8 30 9 31 10 33 11 34
REMARK SMILES IDX 12 35 73 36 13 37 72 38 14 39 15 40 16 41 66 42 17 43 71 44
REMARK SMILES IDX 65 45 67 46 18 47 70 48 64 49 63 50 19 52 51 53 31 54 50 55
REMARK SMILES IDX 32 56 35 57 49 58 68 59 33 60 34 61 48 63 69 64 36 65 20 66
REMARK SMILES IDX 21 67 29 68 22 69 23 70 27 71 30 72 24 73 25 74 28 75 26 76
REMARK SMILES IDX 52 77 53 78 61 79 54 80 55 81 59 82 62 83 56 84 57 85 60 86
REMARK SMILES IDX 58 87 37 88 38 89 46 90 39 91 40 92 44 93 47 94 41 95 42 96
REMARK SMILES IDX 45 97 43 98
REMARK H PARENT 3 7 8 32 67 51 35 62
REMARK Flexibility Score: inf
ROOT
ATOM      1  C   UNL     1       4.412  -2.167  -3.018  1.00  0.00     0.023 C 
ENDROOT
BRANCH   1   2
ATOM      2  C   UNL     1       4.919  -1.771  -1.641  1.00  0.00     0.023 C 
BRANCH   2   3
ATOM      3  C   UNL     1       4.412  -0.380  -1.295  1.00  0.00     0.116 C 
BRANCH   3   4
ATOM      4  N   UNL     1       2.942  -0.380  -1.295  1.00  0.00    -0.352 N 
ATOM      5  O   UNL     1       0.936  -0.028  -0.072  1.00  0.00    -0.270 OA
ATOM      6  C   UNL     1       2.207  -0.028  -0.072  1.00  0.00     0.251 C 
ATOM      7  H   UNL     1       2.450  -0.616  -2.115  1.00  0.00     0.163 HD
BRANCH   6   8
ATOM      8  C   UNL     1       2.967   0.336   1.193  1.00  0.00     0.067 C 
ATOM      9  C   UNL     1       4.328   0.336   1.193  1.00  0.00     0.025 C 
ATOM     10  C   UNL     1       2.207   0.699   2.458  1.00  0.00     0.314 C 
ATOM     11  C   UNL     1       5.088  -0.028  -0.072  1.00  0.00     0.020 A 
ATOM     12  O   UNL     1       3.545   1.279  -1.321  1.00  0.00    -0.474 OA
ATOM     13  C   UNL     1       6.132  -0.934   0.019  1.00  0.00     0.036 A 
ATOM     14  C   UNL     1       4.717   0.481  -1.241  1.00  0.00     0.142 A 
ATOM     15  C   UNL     1       6.918  -1.022  -1.154  1.00  0.00     0.109 A 
ATOM     16  C   UNL     1       5.457   0.243  -2.374  1.00  0.00     0.062 A 
ATOM     17  C   UNL     1       6.537  -0.596  -2.345  1.00  0.00     0.044 A 
ATOM     18  Br  UNL     1       4.957   1.116  -4.056  1.00  0.00    -0.047 Br
BRANCH  10  19
ATOM     19  C   UNL     1       0.713   0.623   2.192  1.00  0.00     0.429 C 
ATOM     20  F   UNL     1       0.502   0.053   1.008  1.00  0.00    -0.167 F 
ATOM     21  F   UNL     1       0.129  -0.101   3.143  1.00  0.00    -0.167 F 
ATOM     22  F   UNL     1       0.199   1.849   2.190  1.00  0.00    -0.167 F 
ENDBRANCH  10  19
BRANCH  15  23
ATOM     23  S   UNL     1       8.559  -1.771  -1.014  1.00  0.00     0.310 S 
ATOM     24  F   UNL     1       8.489  -1.776   0.571  1.00  0.00    -0.094 F 
ATOM     25  F   UNL     1       9.181  -0.327  -0.913  1.00  0.00    -0.094 F 
ATOM     26  F   UNL     1       9.969  -2.416  -0.892  1.00  0.00    -0.094 F 
ATOM     27  F   UNL     1       7.907  -3.209  -0.975  1.00  0.00    -0.094 F 
ATOM     28  F   UNL     1       7.114  -1.131  -1.023  1.00  0.00    -0.094 F 
ENDBRANCH  15  23
ENDBRANCH   6   8
ENDBRANCH   3   4
ENDBRANCH   2   3
ENDBRANCH   1   2
BRANCH   1  29
ATOM     29  C   UNL     1       4.919  -1.172  -4.050  1.00  0.00     0.116 C 
BRANCH  29  30
ATOM     30  N   UNL     1       6.389  -1.172  -4.050  1.00  0.00    -0.352 N 
ATOM     31  C   UNL     1       7.124  -1.524  -5.273  1.00  0.00     0.251 C 
ATOM     32  H   UNL     1       6.881  -0.936  -3.230  1.00  0.00     0.163 HD
ATOM     33  O   UNL     1       8.395  -1.524  -5.273  1.00  0.00    -0.269 OA
BRANCH  31  34
ATOM     34  C   UNL     1       6.364  -1.888  -6.538  1.00  0.00     0.039 A 
ATOM     35  C   UNL     1       6.720  -3.015  -7.260  1.00  0.00     0.014 A 
ATOM     36  C   UNL     1       5.332  -1.135  -6.901  1.00  0.00     0.014 A 
ATOM     37  C   UNL     1       6.097  -3.106  -8.527  1.00  0.00     0.010 A 
ATOM     38  C   UNL     1       4.682  -1.366  -8.090  1.00  0.00     0.010 A 
ATOM     39  C   UNL     1       5.021  -2.427  -8.882  1.00  0.00    -0.014 A 
BRANCH  39  40
ATOM     40  C   UNL     1       4.204  -2.806 -10.106  1.00  0.00     0.031 A 
ATOM     41  C   UNL     1       4.079  -1.849 -11.115  1.00  0.00     0.074 A 
ATOM     42  C   UNL     1       3.591  -4.047 -10.137  1.00  0.00     0.049 A 
ATOM     43  N   UNL     1       3.406  -1.958 -12.261  1.00  0.00    -0.248 NA
ATOM     44  C   UNL     1       4.701  -0.517 -11.069  1.00  0.00     0.031 C 
ATOM     45  C   UNL     1       3.718  -5.021  -9.128  1.00  0.00     0.029 A 
ATOM     46  N   UNL     1       2.768  -4.559 -11.116  1.00  0.00    -0.354 N 
ATOM     47  C   UNL     1       3.535  -0.841 -12.980  1.00  0.00     0.074 A 
ATOM     48  C   UNL     1       4.365   0.104 -12.220  1.00  0.00     0.031 C 
ATOM     49  C   UNL     1       2.974  -6.100  -9.487  1.00  0.00     0.029 A 
ATOM     50  C   UNL     1       2.370  -5.819 -10.727  1.00  0.00     0.049 A 
ATOM     51  H   UNL     1       2.509  -4.104 -11.949  1.00  0.00     0.167 HD
ATOM     52  C   UNL     1       2.996  -0.574 -14.239  1.00  0.00     0.037 A 
ATOM     53  C   UNL     1       1.526  -6.688 -11.400  1.00  0.00     0.037 A 
ATOM     54  C   UNL     1       2.187  -1.460 -14.932  1.00  0.00     0.049 A 
ATOM     55  C   UNL     1       0.939  -6.398 -12.634  1.00  0.00     0.074 A 
ATOM     56  C   UNL     1       1.641  -1.210 -16.206  1.00  0.00     0.029 A 
ATOM     57  N   UNL     1       1.769  -2.710 -14.532  1.00  0.00    -0.354 N 
ATOM     58  N   UNL     1       1.100  -5.297 -13.370  1.00  0.00    -0.248 NA
ATOM     59  C   UNL     1       0.018  -7.298 -13.342  1.00  0.00     0.031 C 
ATOM     60  C   UNL     1       0.897  -2.289 -16.565  1.00  0.00     0.029 A 
ATOM     61  C   UNL     1       0.965  -3.232 -15.521  1.00  0.00     0.049 A 
ATOM     62  H   UNL     1       2.004  -3.154 -13.686  1.00  0.00     0.167 HD
ATOM     63  C   UNL     1       0.393  -5.390 -14.498  1.00  0.00     0.074 A 
ATOM     64  C   UNL     1      -0.320  -6.675 -14.492  1.00  0.00     0.031 C 
ATOM     65  C   UNL     1       0.316  -4.457 -15.533  1.00  0.00     0.037 A 
BRANCH  52  66
ATOM     66  C   UNL     1       3.313   0.765 -14.886  1.00  0.00     0.064 A 
ATOM     67  C   UNL     1       4.589   1.150 -15.261  1.00  0.00     0.173 A 
ATOM     68  C   UNL     1       2.257   1.524 -15.155  1.00  0.00     0.173 A 
ATOM     69  F   UNL     1       5.631   0.323 -15.243  1.00  0.00    -0.203 F 
ATOM     70  C   UNL     1       4.685   2.503 -15.664  1.00  0.00     0.198 A 
ATOM     71  C   UNL     1       2.418   2.786 -15.676  1.00  0.00     0.198 A 
ATOM     72  F   UNL     1       1.034   1.060 -14.918  1.00  0.00    -0.203 F 
ATOM     73  F   UNL     1       5.894   3.056 -15.693  1.00  0.00    -0.200 F 
ATOM     74  C   UNL     1       3.657   3.254 -16.015  1.00  0.00     0.200 A 
ATOM     75  F   UNL     1       1.352   3.562 -15.853  1.00  0.00    -0.200 F 
ATOM     76  F   UNL     1       3.818   4.405 -16.662  1.00  0.00    -0.200 F 
ENDBRANCH  52  66
BRANCH  53  77
ATOM     77  C   UNL     1       1.223  -8.033 -10.761  1.00  0.00     0.064 A 
ATOM     78  C   UNL     1       1.439  -9.193 -11.487  1.00  0.00     0.173 A 
ATOM     79  C   UNL     1       0.642  -8.066  -9.567  1.00  0.00     0.173 A 
ATOM     80  F   UNL     1       2.232  -9.244 -12.553  1.00  0.00    -0.203 F 
ATOM     81  C   UNL     1       0.740 -10.319 -10.991  1.00  0.00     0.198 A 
ATOM     82  C   UNL     1       0.099  -9.233  -9.085  1.00  0.00     0.198 A 
ATOM     83  F   UNL     1       0.584  -6.960  -8.831  1.00  0.00    -0.203 F 
ATOM     84  F   UNL     1       0.593 -11.363 -11.802  1.00  0.00    -0.200 F 
ATOM     85  C   UNL     1       0.224 -10.405  -9.778  1.00  0.00     0.200 A 
ATOM     86  F   UNL     1      -0.556  -9.222  -7.928  1.00  0.00    -0.200 F 
ATOM     87  F   UNL     1      -0.155 -11.570  -9.259  1.00  0.00    -0.200 F 
ENDBRANCH  53  77
BRANCH  65  88
ATOM     88  C   UNL     1      -0.532  -4.804 -16.746  1.00  0.00     0.064 A 
ATOM     89  C   UNL     1      -1.893  -5.014 -16.599  1.00  0.00     0.173 A 
ATOM     90  C   UNL     1       0.050  -4.861 -17.938  1.00  0.00     0.173 A 
ATOM     91  F   UNL     1      -2.556  -4.723 -15.484  1.00  0.00    -0.203 F 
ATOM     92  C   UNL     1      -2.514  -5.567 -17.744  1.00  0.00     0.198 A 
ATOM     93  C   UNL     1      -0.655  -5.281 -19.041  1.00  0.00     0.198 A 
ATOM     94  F   UNL     1       1.325  -4.508 -18.067  1.00  0.00    -0.203 F 
ATOM     95  F   UNL     1      -3.709  -6.130 -17.588  1.00  0.00    -0.200 F 
ATOM     96  C   UNL     1      -1.990  -5.562 -18.956  1.00  0.00     0.200 A 
ATOM     97  F   UNL     1      -0.029  -5.415 -20.207  1.00  0.00    -0.200 F 
ATOM     98  F   UNL     1      -2.722  -5.818 -20.037  1.00  0.00    -0.200 F 
ENDBRANCH  65  88
ENDBRANCH  39  40
ENDBRANCH  31  34
ENDBRANCH  29  30
ENDBRANCH   1  29
TORSDOF 13
