REMARK SMILES C[NH2+][C@@]1(C(=O)NCCCCNC(=O)c2ccc(-c3c4nc(c(-c5c(F)c(F)c(F)c(F)c5F)c5ccc([nH]5)c(-c5c(F)c(F)c(F)c(F)c5F)c5nc(c(-c6c(F)c(F)c(F)c(F)c6F)c6ccc3[nH]6)C=C5)C=C4)cc2)CC[C@H](Sc2nccc(=O)[nH]2)C1
REMARK SMILES IDX 8 1 7 2 6 3 4 4 5 5 3 7 77 8 88 9 78 10 79 11 2 12 1 13
REMARK SMILES IDX 80 16 81 17 82 18 87 19 83 20 85 21 84 23 86 24 9 25 10 26
REMARK SMILES IDX 11 27 12 28 13 30 14 31 15 32 76 33 16 34 75 35 17 36 18 37
REMARK SMILES IDX 19 38 69 39 20 40 74 41 68 42 70 43 21 44 73 45 67 46 66 47
REMARK SMILES IDX 22 49 54 50 34 51 53 52 35 53 38 54 52 55 71 56 36 57 37 58
REMARK SMILES IDX 51 60 72 61 39 62 23 63 24 64 32 65 25 66 26 67 30 68 33 69
REMARK SMILES IDX 27 70 28 71 31 72 29 73 55 74 56 75 64 76 57 77 58 78 62 79
REMARK SMILES IDX 65 80 59 81 60 82 63 83 61 84 40 85 41 86 49 87 42 88 43 89
REMARK SMILES IDX 47 90 50 91 44 92 45 93 48 94 46 95
REMARK H PARENT 6 6 2 14 2 15 87 22 11 29 70 48 38 59
REMARK Flexibility Score: inf
ROOT
ATOM      1  C   UNL     1      -4.657  -1.544   0.652  1.00  0.00     0.023 C 
ENDROOT
BRANCH   1   2
ATOM      2  C   UNL     1      -4.002  -0.305   0.066  1.00  0.00     0.116 C 
BRANCH   2   3
ATOM      3  N   UNL     1      -2.741   0.046   0.667  1.00  0.00    -0.351 N 
ATOM      4  C   UNL     1      -1.537   0.344   0.097  1.00  0.00     0.281 C 
ATOM      5  O   UNL     1      -0.747   0.915   0.859  1.00  0.00    -0.268 OA
ATOM      6  H   UNL     1      -2.749   0.075   1.651  1.00  0.00     0.163 HD
BRANCH   4   7
ATOM      7  C   UNL     1      -1.185   0.049  -1.420  1.00  0.00     0.176 C 
ATOM      8  C   UNL     1      -1.828   1.124  -2.330  1.00  0.00     0.080 C 
ATOM      9  C   UNL     1      -1.703  -1.306  -1.962  1.00  0.00     0.094 C 
ATOM     10  C   UNL     1      -2.999   0.478  -3.056  1.00  0.00     0.022 C 
ATOM     11  C   UNL     1      -2.626  -0.997  -3.168  1.00  0.00     0.062 C 
BRANCH   7  12
ATOM     12  N   UNL     1       0.288   0.136  -1.685  1.00  0.00    -0.336 N 
ATOM     13  C   UNL     1       1.175  -0.405  -0.660  1.00  0.00     0.331 C 
ATOM     14  H   UNL     1       0.476  -0.368  -2.552  1.00  0.00     0.346 HD
ATOM     15  H   UNL     1       0.494   1.134  -1.718  1.00  0.00     0.346 HD
ENDBRANCH   7  12
BRANCH  11  16
ATOM     16  S   UNL     1      -3.926  -2.276  -3.331  1.00  0.00    -0.084 SA
BRANCH  16  17
ATOM     17  C   UNL     1      -5.470  -1.488  -3.260  1.00  0.00     0.168 A 
ATOM     18  N   UNL     1      -5.732  -0.339  -3.784  1.00  0.00    -0.233 NA
ATOM     19  N   UNL     1      -6.394  -2.250  -2.608  1.00  0.00    -0.301 N 
ATOM     20  C   UNL     1      -7.023   0.114  -3.647  1.00  0.00     0.120 A 
ATOM     21  C   UNL     1      -7.690  -1.857  -2.452  1.00  0.00     0.251 A 
ATOM     22  H   UNL     1      -6.114  -3.117  -2.235  1.00  0.00     0.172 HD
ATOM     23  C   UNL     1      -8.010  -0.546  -3.033  1.00  0.00     0.091 A 
ATOM     24  O   UNL     1      -8.524  -2.538  -1.870  1.00  0.00    -0.269 OA
ENDBRANCH  16  17
ENDBRANCH  11  16
ENDBRANCH   4   7
ENDBRANCH   2   3
ENDBRANCH   1   2
BRANCH   1  25
ATOM     25  C   UNL     1      -5.407  -1.326   1.954  1.00  0.00     0.023 C 
BRANCH  25  26
ATOM     26  C   UNL     1      -6.325  -0.112   1.987  1.00  0.00     0.116 C 
BRANCH  26  27
ATOM     27  N   UNL     1      -7.216   0.025   0.836  1.00  0.00    -0.352 N 
ATOM     28  C   UNL     1      -8.538   0.407   0.821  1.00  0.00     0.251 C 
ATOM     29  H   UNL     1      -6.819  -0.183  -0.041  1.00  0.00     0.163 HD
ATOM     30  O   UNL     1      -9.156   0.541  -0.222  1.00  0.00    -0.269 OA
BRANCH  28  31
ATOM     31  C   UNL     1      -9.202   0.625   2.118  1.00  0.00     0.039 A 
ATOM     32  C   UNL     1     -10.287  -0.180   2.469  1.00  0.00     0.014 A 
ATOM     33  C   UNL     1      -8.641   1.522   3.029  1.00  0.00     0.014 A 
ATOM     34  C   UNL     1     -10.760  -0.146   3.780  1.00  0.00     0.010 A 
ATOM     35  C   UNL     1      -9.048   1.478   4.352  1.00  0.00     0.010 A 
ATOM     36  C   UNL     1     -10.112   0.645   4.742  1.00  0.00    -0.014 A 
BRANCH  36  37
ATOM     37  C   UNL     1     -10.528   0.651   6.165  1.00  0.00     0.031 A 
ATOM     38  C   UNL     1     -10.991   1.938   6.786  1.00  0.00     0.074 A 
ATOM     39  C   UNL     1     -10.391  -0.458   6.917  1.00  0.00     0.049 A 
ATOM     40  N   UNL     1     -11.241   2.215   8.039  1.00  0.00    -0.248 NA
ATOM     41  C   UNL     1     -11.145   3.086   5.876  1.00  0.00     0.031 C 
ATOM     42  C   UNL     1      -9.897  -1.753   6.444  1.00  0.00     0.029 A 
ATOM     43  N   UNL     1     -10.638  -0.667   8.251  1.00  0.00    -0.354 N 
ATOM     44  C   UNL     1     -11.539   3.570   8.070  1.00  0.00     0.074 A 
ATOM     45  C   UNL     1     -11.383   4.073   6.724  1.00  0.00     0.031 C 
ATOM     46  C   UNL     1      -9.900  -2.626   7.465  1.00  0.00     0.029 A 
ATOM     47  C   UNL     1     -10.356  -1.944   8.672  1.00  0.00     0.049 A 
ATOM     48  H   UNL     1     -10.984   0.033   8.851  1.00  0.00     0.167 HD
ATOM     49  C   UNL     1     -11.936   4.322   9.123  1.00  0.00     0.037 A 
ATOM     50  C   UNL     1     -10.451  -2.496   9.897  1.00  0.00     0.037 A 
ATOM     51  C   UNL     1     -12.147   3.802  10.446  1.00  0.00     0.049 A 
ATOM     52  C   UNL     1     -10.937  -1.649  11.043  1.00  0.00     0.074 A 
ATOM     53  C   UNL     1     -12.621   4.458  11.567  1.00  0.00     0.029 A 
ATOM     54  N   UNL     1     -11.908   2.487  10.820  1.00  0.00    -0.354 N 
ATOM     55  N   UNL     1     -11.272  -0.382  11.051  1.00  0.00    -0.248 NA
ATOM     56  C   UNL     1     -11.065  -2.312  12.348  1.00  0.00     0.031 C 
ATOM     57  C   UNL     1     -12.640   3.548  12.629  1.00  0.00     0.029 A 
ATOM     58  C   UNL     1     -12.217   2.314  12.158  1.00  0.00     0.049 A 
ATOM     59  H   UNL     1     -11.568   1.782  10.222  1.00  0.00     0.167 HD
ATOM     60  C   UNL     1     -11.675  -0.102  12.350  1.00  0.00     0.074 A 
ATOM     61  C   UNL     1     -11.556  -1.336  13.098  1.00  0.00     0.031 C 
ATOM     62  C   UNL     1     -12.104   1.071  12.877  1.00  0.00     0.037 A 
BRANCH  49  63
ATOM     63  C   UNL     1     -12.180   5.782   8.876  1.00  0.00     0.064 A 
ATOM     64  C   UNL     1     -13.260   6.227   8.097  1.00  0.00     0.173 A 
ATOM     65  C   UNL     1     -11.331   6.750   9.431  1.00  0.00     0.173 A 
ATOM     66  F   UNL     1     -14.092   5.341   7.528  1.00  0.00    -0.203 F 
ATOM     67  C   UNL     1     -13.459   7.583   7.854  1.00  0.00     0.198 A 
ATOM     68  C   UNL     1     -11.552   8.108   9.214  1.00  0.00     0.198 A 
ATOM     69  F   UNL     1     -10.285   6.380  10.186  1.00  0.00    -0.203 F 
ATOM     70  F   UNL     1     -14.461   7.979   7.057  1.00  0.00    -0.200 F 
ATOM     71  C   UNL     1     -12.609   8.522   8.418  1.00  0.00     0.200 A 
ATOM     72  F   UNL     1     -10.736   9.015   9.768  1.00  0.00    -0.200 F 
ATOM     73  F   UNL     1     -12.803   9.828   8.185  1.00  0.00    -0.200 F 
ENDBRANCH  49  63
BRANCH  50  74
ATOM     74  C   UNL     1     -10.115  -3.929  10.097  1.00  0.00     0.064 A 
ATOM     75  C   UNL     1     -11.121  -4.870  10.363  1.00  0.00     0.173 A 
ATOM     76  C   UNL     1      -8.792  -4.390  10.034  1.00  0.00     0.173 A 
ATOM     77  F   UNL     1     -12.399  -4.473  10.454  1.00  0.00    -0.203 F 
ATOM     78  C   UNL     1     -10.815  -6.212  10.577  1.00  0.00     0.198 A 
ATOM     79  C   UNL     1      -8.490  -5.738  10.223  1.00  0.00     0.198 A 
ATOM     80  F   UNL     1      -7.793  -3.533   9.777  1.00  0.00    -0.203 F 
ATOM     81  F   UNL     1     -11.792  -7.080  10.873  1.00  0.00    -0.200 F 
ATOM     82  C   UNL     1      -9.501  -6.646  10.502  1.00  0.00     0.200 A 
ATOM     83  F   UNL     1      -7.220  -6.156  10.137  1.00  0.00    -0.200 F 
ATOM     84  F   UNL     1      -9.207  -7.937  10.706  1.00  0.00    -0.200 F 
ENDBRANCH  50  74
BRANCH  62  85
ATOM     85  C   UNL     1     -12.514   1.066  14.319  1.00  0.00     0.064 A 
ATOM     86  C   UNL     1     -11.568   0.990  15.351  1.00  0.00     0.173 A 
ATOM     87  C   UNL     1     -13.867   1.187  14.670  1.00  0.00     0.173 A 
ATOM     88  F   UNL     1     -10.264   0.860  15.064  1.00  0.00    -0.203 F 
ATOM     89  C   UNL     1     -11.965   1.014  16.685  1.00  0.00     0.198 A 
ATOM     90  C   UNL     1     -14.257   1.238  16.005  1.00  0.00     0.198 A 
ATOM     91  F   UNL     1     -14.808   1.270  13.718  1.00  0.00    -0.203 F 
ATOM     92  F   UNL     1     -11.049   0.897  17.656  1.00  0.00    -0.200 F 
ATOM     93  C   UNL     1     -13.307   1.145  17.011  1.00  0.00     0.200 A 
ATOM     94  F   UNL     1     -15.553   1.377  16.318  1.00  0.00    -0.200 F 
ATOM     95  F   UNL     1     -13.686   1.175  18.296  1.00  0.00    -0.200 F 
ENDBRANCH  62  85
ENDBRANCH  36  37
ENDBRANCH  28  31
ENDBRANCH  26  27
ENDBRANCH  25  26
ENDBRANCH   1  25
TORSDOF 14
