REMARK SMILES CN(C(=O)CC(=O)NCCCCNC(=O)c1ccc(-c2c3nc(c(-c4c(F)c(F)c(F)c(F)c4F)c4ccc([nH]4)c(-c4c(F)c(F)c(F)c(F)c4F)c4nc(c(-c5c(F)c(F)c(F)c(F)c5F)c5ccc2[nH]5)C=C4)C=C3)cc1)C1CCC(C)(C)CC1
REMARK SMILES IDX 10 1 9 2 8 3 6 4 7 5 5 7 3 8 4 9 2 10 1 11 79 12 80 13 86 14
REMARK SMILES IDX 81 15 85 16 82 17 83 18 84 19 11 20 12 21 13 22 14 23 15 25
REMARK SMILES IDX 16 26 17 27 78 28 18 29 77 30 19 31 20 32 21 33 71 34 22 35
REMARK SMILES IDX 76 36 70 37 72 38 23 39 75 40 69 41 68 42 24 44 56 45 36 46
REMARK SMILES IDX 55 47 37 48 40 49 54 50 73 51 38 52 39 53 53 55 74 56 41 57
REMARK SMILES IDX 25 58 26 59 34 60 27 61 28 62 32 63 35 64 29 65 30 66 33 67
REMARK SMILES IDX 31 68 57 69 58 70 66 71 59 72 60 73 64 74 67 75 61 76 62 77
REMARK SMILES IDX 65 78 63 79 42 80 43 81 51 82 44 83 45 84 49 85 52 86 46 87
REMARK SMILES IDX 47 88 50 89 48 90
REMARK H PARENT 8 6 13 24 72 43 40 54
REMARK Flexibility Score: inf
ROOT
ATOM      1  C   UNL     1       2.247  -0.261   4.483  1.00  0.00     0.023 C 
ENDROOT
BRANCH   1   2
ATOM      2  C   UNL     1       1.091   0.718   4.646  1.00  0.00     0.116 C 
BRANCH   2   3
ATOM      3  N   UNL     1       1.132   1.709   3.587  1.00  0.00    -0.356 N 
ATOM      4  C   UNL     1       0.489   1.693   2.383  1.00  0.00     0.229 C 
ATOM      5  O   UNL     1       0.839   2.519   1.535  1.00  0.00    -0.275 OA
ATOM      6  H   UNL     1       1.697   2.496   3.760  1.00  0.00     0.163 HD
BRANCH   4   7
ATOM      7  C   UNL     1      -0.658   0.749   2.124  1.00  0.00     0.200 C 
BRANCH   7   8
ATOM      8  C   UNL     1      -0.299  -0.701   1.872  1.00  0.00     0.231 C 
ATOM      9  O   UNL     1      -0.645  -1.520   2.725  1.00  0.00    -0.274 OA
BRANCH   8  10
ATOM     10  N   UNL     1       0.366  -1.068   0.705  1.00  0.00    -0.342 N 
ATOM     11  C   UNL     1       0.732  -0.079  -0.310  1.00  0.00     0.147 C 
BRANCH  10  12
ATOM     12  C   UNL     1       0.944  -2.432   0.492  1.00  0.00     0.084 C 
ATOM     13  C   UNL     1       2.298  -2.612   1.181  1.00  0.00     0.025 C 
ATOM     14  C   UNL     1       0.032  -3.652   0.724  1.00  0.00     0.025 C 
ATOM     15  C   UNL     1       2.139  -2.986   2.642  1.00  0.00     0.008 C 
ATOM     16  C   UNL     1       0.024  -4.296   2.120  1.00  0.00     0.008 C 
ATOM     17  C   UNL     1       1.352  -4.269   2.914  1.00  0.00    -0.035 C 
ATOM     18  C   UNL     1       1.027  -4.306   4.426  1.00  0.00     0.011 C 
ATOM     19  C   UNL     1       2.229  -5.485   2.584  1.00  0.00     0.011 C 
ENDBRANCH  10  12
ENDBRANCH   8  10
ENDBRANCH   7   8
ENDBRANCH   4   7
ENDBRANCH   2   3
ENDBRANCH   1   2
BRANCH   1  20
ATOM     20  C   UNL     1       3.605   0.184   4.995  1.00  0.00     0.023 C 
BRANCH  20  21
ATOM     21  C   UNL     1       3.695   0.350   6.500  1.00  0.00     0.116 C 
BRANCH  21  22
ATOM     22  N   UNL     1       3.433  -0.868   7.257  1.00  0.00    -0.352 N 
ATOM     23  C   UNL     1       4.132  -1.411   8.315  1.00  0.00     0.251 C 
ATOM     24  H   UNL     1       2.642  -1.379   6.970  1.00  0.00     0.163 HD
ATOM     25  O   UNL     1       3.794  -2.483   8.797  1.00  0.00    -0.269 OA
BRANCH  23  26
ATOM     26  C   UNL     1       5.333  -0.714   8.830  1.00  0.00     0.039 A 
ATOM     27  C   UNL     1       6.487  -1.457   9.094  1.00  0.00     0.014 A 
ATOM     28  C   UNL     1       5.344   0.672   8.980  1.00  0.00     0.014 A 
ATOM     29  C   UNL     1       7.678  -0.795   9.401  1.00  0.00     0.010 A 
ATOM     30  C   UNL     1       6.552   1.332   9.159  1.00  0.00     0.010 A 
ATOM     31  C   UNL     1       7.733   0.608   9.375  1.00  0.00    -0.014 A 
BRANCH  31  32
ATOM     32  C   UNL     1       9.002   1.352   9.583  1.00  0.00     0.031 A 
ATOM     33  C   UNL     1       9.106   2.347  10.706  1.00  0.00     0.074 A 
ATOM     34  C   UNL     1      10.018   1.212   8.710  1.00  0.00     0.049 A 
ATOM     35  N   UNL     1      10.066   3.194  10.980  1.00  0.00    -0.248 NA
ATOM     36  C   UNL     1       7.952   2.437  11.615  1.00  0.00     0.031 C 
ATOM     37  C   UNL     1      10.021   0.330   7.542  1.00  0.00     0.029 A 
ATOM     38  N   UNL     1      11.246   1.824   8.665  1.00  0.00    -0.354 N 
ATOM     39  C   UNL     1       9.613   3.937  12.062  1.00  0.00     0.074 A 
ATOM     40  C   UNL     1       8.270   3.488  12.352  1.00  0.00     0.031 C 
ATOM     41  C   UNL     1      11.207   0.425   6.920  1.00  0.00     0.029 A 
ATOM     42  C   UNL     1      12.032   1.405   7.619  1.00  0.00     0.049 A 
ATOM     43  H   UNL     1      11.537   2.498   9.320  1.00  0.00     0.167 HD
ATOM     44  C   UNL     1      10.268   4.885  12.773  1.00  0.00     0.037 A 
ATOM     45  C   UNL     1      13.280   1.770   7.267  1.00  0.00     0.037 A 
ATOM     46  C   UNL     1      11.625   5.288  12.518  1.00  0.00     0.049 A 
ATOM     47  C   UNL     1      14.001   2.803   8.089  1.00  0.00     0.074 A 
ATOM     48  C   UNL     1      12.410   6.179  13.227  1.00  0.00     0.029 A 
ATOM     49  N   UNL     1      12.401   4.813  11.470  1.00  0.00    -0.354 N 
ATOM     50  N   UNL     1      13.588   3.454   9.149  1.00  0.00    -0.248 NA
ATOM     51  C   UNL     1      15.365   3.148   7.665  1.00  0.00     0.031 C 
ATOM     52  C   UNL     1      13.652   6.269  12.589  1.00  0.00     0.029 A 
ATOM     53  C   UNL     1      13.654   5.403  11.506  1.00  0.00     0.049 A 
ATOM     54  H   UNL     1      12.106   4.155  10.801  1.00  0.00     0.167 HD
ATOM     55  C   UNL     1      14.646   4.264   9.536  1.00  0.00     0.074 A 
ATOM     56  C   UNL     1      15.725   4.015   8.602  1.00  0.00     0.031 C 
ATOM     57  C   UNL     1      14.718   5.134  10.573  1.00  0.00     0.037 A 
BRANCH  44  58
ATOM     58  C   UNL     1       9.520   5.536  13.900  1.00  0.00     0.064 A 
ATOM     59  C   UNL     1       9.171   4.826  15.060  1.00  0.00     0.173 A 
ATOM     60  C   UNL     1       9.136   6.882  13.816  1.00  0.00     0.173 A 
ATOM     61  F   UNL     1       9.501   3.531  15.183  1.00  0.00    -0.203 F 
ATOM     62  C   UNL     1       8.425   5.425  16.071  1.00  0.00     0.198 A 
ATOM     63  C   UNL     1       8.419   7.488  14.845  1.00  0.00     0.198 A 
ATOM     64  F   UNL     1       9.447   7.609  12.733  1.00  0.00    -0.203 F 
ATOM     65  F   UNL     1       8.042   4.705  17.134  1.00  0.00    -0.200 F 
ATOM     66  C   UNL     1       8.053   6.756  15.965  1.00  0.00     0.200 A 
ATOM     67  F   UNL     1       8.069   8.778  14.747  1.00  0.00    -0.200 F 
ATOM     68  F   UNL     1       7.330   7.330  16.936  1.00  0.00    -0.200 F 
ENDBRANCH  44  58
BRANCH  45  69
ATOM     69  C   UNL     1      13.945   1.111   6.115  1.00  0.00     0.064 A 
ATOM     70  C   UNL     1      14.981   0.190   6.325  1.00  0.00     0.173 A 
ATOM     71  C   UNL     1      13.555   1.366   4.793  1.00  0.00     0.173 A 
ATOM     72  F   UNL     1      15.400  -0.071   7.572  1.00  0.00    -0.203 F 
ATOM     73  C   UNL     1      15.611  -0.443   5.256  1.00  0.00     0.198 A 
ATOM     74  C   UNL     1      14.171   0.715   3.725  1.00  0.00     0.198 A 
ATOM     75  F   UNL     1      12.566   2.235   4.540  1.00  0.00    -0.203 F 
ATOM     76  F   UNL     1      16.620  -1.294   5.484  1.00  0.00    -0.200 F 
ATOM     77  C   UNL     1      15.201  -0.184   3.957  1.00  0.00     0.200 A 
ATOM     78  F   UNL     1      13.765   0.958   2.471  1.00  0.00    -0.200 F 
ATOM     79  F   UNL     1      15.801  -0.799   2.929  1.00  0.00    -0.200 F 
ENDBRANCH  45  69
BRANCH  57  80
ATOM     80  C   UNL     1      16.018   5.854  10.775  1.00  0.00     0.064 A 
ATOM     81  C   UNL     1      16.419   6.896   9.928  1.00  0.00     0.173 A 
ATOM     82  C   UNL     1      16.848   5.527  11.857  1.00  0.00     0.173 A 
ATOM     83  F   UNL     1      15.666   7.235   8.870  1.00  0.00    -0.203 F 
ATOM     84  C   UNL     1      17.617   7.572  10.145  1.00  0.00     0.198 A 
ATOM     85  C   UNL     1      18.031   6.221  12.087  1.00  0.00     0.198 A 
ATOM     86  F   UNL     1      16.504   4.540  12.699  1.00  0.00    -0.203 F 
ATOM     87  F   UNL     1      18.002   8.538   9.300  1.00  0.00    -0.200 F 
ATOM     88  C   UNL     1      18.418   7.239  11.228  1.00  0.00     0.200 A 
ATOM     89  F   UNL     1      18.798   5.907  13.141  1.00  0.00    -0.200 F 
ATOM     90  F   UNL     1      19.566   7.896  11.441  1.00  0.00    -0.200 F 
ENDBRANCH  57  80
ENDBRANCH  31  32
ENDBRANCH  23  26
ENDBRANCH  21  22
ENDBRANCH  20  21
ENDBRANCH   1  20
TORSDOF 14
