REMARK SMILES Cc1cc(C[N@H+]2CC[C@@H](C(=O)NCCCCNC(=O)c3ccc(-c4c5nc(c(-c6c(F)c(F)c(F)c(F)c6F)c6ccc([nH]6)c(-c6c(F)c(F)c(F)c(F)c6F)c6nc(c(-c7c(F)c(F)c(F)c(F)c7F)c7ccc4[nH]7)C=C6)C=C5)cc3)[C@@H]2C)ccc1Br
REMARK SMILES IDX 14 1 13 2 12 3 10 4 11 5 9 7 6 8 7 9 83 10 8 12 84 13 5 14
REMARK SMILES IDX 4 15 1 16 2 17 3 18 87 19 86 20 88 21 85 22 15 23 16 24
REMARK SMILES IDX 17 25 18 26 19 28 20 29 21 30 82 31 22 32 81 33 23 34 24 35
REMARK SMILES IDX 25 36 75 37 26 38 80 39 74 40 76 41 27 42 79 43 73 44 72 45
REMARK SMILES IDX 28 47 60 48 40 49 59 50 41 51 44 52 58 53 77 54 42 55 43 56
REMARK SMILES IDX 57 58 78 59 45 60 29 61 30 62 38 63 31 64 32 65 36 66 39 67
REMARK SMILES IDX 33 68 34 69 37 70 35 71 61 72 62 73 70 74 63 75 64 76 68 77
REMARK SMILES IDX 71 78 65 79 66 80 69 81 67 82 46 83 47 84 55 85 48 86 49 87
REMARK SMILES IDX 53 88 56 89 50 90 51 91 54 92 52 93
REMARK H PARENT 12 6 6 11 17 27 76 46 44 57
REMARK Flexibility Score: inf
ROOT
ATOM      1  C   UNL     1       1.763   0.600   1.182  1.00  0.00     0.023 C 
ENDROOT
BRANCH   1   2
ATOM      2  C   UNL     1       1.757   0.884  -0.991  1.00  0.00     0.116 C 
BRANCH   2   3
ATOM      3  N   UNL     1       1.718   2.203  -1.907  1.00  0.00    -0.356 N 
ATOM      4  C   UNL     1       2.582   2.857  -2.723  1.00  0.00     0.229 C 
ATOM      5  O   UNL     1       2.126   3.861  -3.287  1.00  0.00    -0.275 OA
ATOM      6  H   UNL     1       0.842   2.651  -1.866  1.00  0.00     0.163 HD
BRANCH   4   7
ATOM      7  C   UNL     1       4.038   2.475  -2.970  1.00  0.00     0.142 C 
ATOM      8  N   UNL     1       5.493   1.382  -1.387  1.00  0.00    -0.328 N 
ATOM      9  C   UNL     1       5.239   0.426  -2.466  1.00  0.00     0.263 C 
ATOM     10  C   UNL     1       4.974   2.697  -1.785  1.00  0.00     0.193 C 
ATOM     11  H   UNL     1       6.503   1.451  -1.261  1.00  0.00     0.348 HD
ATOM     12  C   UNL     1       4.267   1.056  -3.452  1.00  0.00     0.081 C 
ATOM     13  C   UNL     1       6.168   3.588  -2.137  1.00  0.00     0.076 C 
BRANCH   8  14
ATOM     14  C   UNL     1       5.050   0.945  -0.064  1.00  0.00     0.299 C 
BRANCH  14  15
ATOM     15  C   UNL     1       3.560   0.833   0.077  1.00  0.00     0.007 A 
ATOM     16  C   UNL     1       0.310  -2.242  -0.254  1.00  0.00     0.045 C 
ATOM     17  C   UNL     1       0.960  -0.901  -0.114  1.00  0.00    -0.036 A 
ATOM     18  C   UNL     1       2.760  -0.780  -0.105  1.00  0.00     0.014 A 
ATOM     19  C   UNL     1      -0.043   0.581   0.083  1.00  0.00     0.020 A 
ATOM     20  C   UNL     1       0.734   2.186   0.287  1.00  0.00     0.016 A 
ATOM     21  Br  UNL     1      -1.912   0.520  -0.227  1.00  0.00    -0.051 Br
ATOM     22  C   UNL     1       2.541   2.315   0.333  1.00  0.00     0.011 A 
ENDBRANCH  14  15
ENDBRANCH   8  14
ENDBRANCH   4   7
ENDBRANCH   2   3
ENDBRANCH   1   2
BRANCH   1  23
ATOM     23  C   UNL     1       0.907   1.219   2.543  1.00  0.00     0.023 C 
BRANCH  23  24
ATOM     24  C   UNL     1      -0.132   0.295   3.164  1.00  0.00     0.116 C 
BRANCH  24  25
ATOM     25  N   UNL     1       0.331  -1.061   3.421  1.00  0.00    -0.352 N 
ATOM     26  C   UNL     1      -0.429  -2.113   3.874  1.00  0.00     0.251 C 
ATOM     27  H   UNL     1       1.284  -1.243   3.253  1.00  0.00     0.163 HD
ATOM     28  O   UNL     1       0.048  -3.217   4.095  1.00  0.00    -0.269 OA
BRANCH  26  29
ATOM     29  C   UNL     1      -1.840  -1.824   4.173  1.00  0.00     0.039 A 
ATOM     30  C   UNL     1      -2.226  -1.755   5.510  1.00  0.00     0.014 A 
ATOM     31  C   UNL     1      -2.697  -1.423   3.148  1.00  0.00     0.014 A 
ATOM     32  C   UNL     1      -3.469  -1.218   5.826  1.00  0.00     0.010 A 
ATOM     33  C   UNL     1      -3.892  -0.793   3.472  1.00  0.00     0.010 A 
ATOM     34  C   UNL     1      -4.293  -0.696   4.814  1.00  0.00    -0.014 A 
BRANCH  34  35
ATOM     35  C   UNL     1      -5.599  -0.087   5.160  1.00  0.00     0.031 A 
ATOM     36  C   UNL     1      -6.865  -0.740   4.686  1.00  0.00     0.074 A 
ATOM     37  C   UNL     1      -5.639   1.046   5.889  1.00  0.00     0.049 A 
ATOM     38  N   UNL     1      -8.107  -0.397   4.914  1.00  0.00    -0.248 NA
ATOM     39  C   UNL     1      -6.722  -1.922   3.820  1.00  0.00     0.031 C 
ATOM     40  C   UNL     1      -4.471   1.804   6.345  1.00  0.00     0.029 A 
ATOM     41  N   UNL     1      -6.704   1.758   6.381  1.00  0.00    -0.354 N 
ATOM     42  C   UNL     1      -8.882  -1.309   4.211  1.00  0.00     0.074 A 
ATOM     43  C   UNL     1      -7.979  -2.182   3.499  1.00  0.00     0.031 C 
ATOM     44  C   UNL     1      -4.883   2.854   7.075  1.00  0.00     0.029 A 
ATOM     45  C   UNL     1      -6.341   2.860   7.118  1.00  0.00     0.049 A 
ATOM     46  H   UNL     1      -7.642   1.502   6.222  1.00  0.00     0.167 HD
ATOM     47  C   UNL     1     -10.229  -1.425   4.189  1.00  0.00     0.037 A 
ATOM     48  C   UNL     1      -7.105   3.768   7.757  1.00  0.00     0.037 A 
ATOM     49  C   UNL     1     -11.117  -0.579   4.937  1.00  0.00     0.049 A 
ATOM     50  C   UNL     1      -8.603   3.594   7.737  1.00  0.00     0.074 A 
ATOM     51  C   UNL     1     -12.492  -0.665   5.055  1.00  0.00     0.029 A 
ATOM     52  N   UNL     1     -10.713   0.512   5.693  1.00  0.00    -0.354 N 
ATOM     53  N   UNL     1      -9.321   2.662   7.157  1.00  0.00    -0.248 NA
ATOM     54  C   UNL     1      -9.397   4.589   8.472  1.00  0.00     0.031 C 
ATOM     55  C   UNL     1     -12.927   0.409   5.837  1.00  0.00     0.029 A 
ATOM     56  C   UNL     1     -11.817   1.128   6.255  1.00  0.00     0.049 A 
ATOM     57  H   UNL     1      -9.780   0.804   5.811  1.00  0.00     0.167 HD
ATOM     58  C   UNL     1     -10.642   2.941   7.478  1.00  0.00     0.074 A 
ATOM     59  C   UNL     1     -10.626   4.116   8.325  1.00  0.00     0.031 C 
ATOM     60  C   UNL     1     -11.771   2.290   7.104  1.00  0.00     0.037 A 
BRANCH  47  61
ATOM     61  C   UNL     1     -10.825  -2.504   3.335  1.00  0.00     0.064 A 
ATOM     62  C   UNL     1     -10.704  -3.862   3.666  1.00  0.00     0.173 A 
ATOM     63  C   UNL     1     -11.573  -2.170   2.196  1.00  0.00     0.173 A 
ATOM     64  F   UNL     1      -9.985  -4.235   4.736  1.00  0.00    -0.203 F 
ATOM     65  C   UNL     1     -11.294  -4.847   2.878  1.00  0.00     0.198 A 
ATOM     66  C   UNL     1     -12.187  -3.156   1.428  1.00  0.00     0.198 A 
ATOM     67  F   UNL     1     -11.718  -0.887   1.834  1.00  0.00    -0.203 F 
ATOM     68  F   UNL     1     -11.130  -6.140   3.191  1.00  0.00    -0.200 F 
ATOM     69  C   UNL     1     -12.043  -4.492   1.767  1.00  0.00     0.200 A 
ATOM     70  F   UNL     1     -12.920  -2.811   0.360  1.00  0.00    -0.200 F 
ATOM     71  F   UNL     1     -12.624  -5.441   1.019  1.00  0.00    -0.200 F 
ENDBRANCH  47  61
BRANCH  48  72
ATOM     72  C   UNL     1      -6.481   4.912   8.476  1.00  0.00     0.064 A 
ATOM     73  C   UNL     1      -6.570   5.034   9.871  1.00  0.00     0.173 A 
ATOM     74  C   UNL     1      -5.814   5.931   7.779  1.00  0.00     0.173 A 
ATOM     75  F   UNL     1      -7.212   4.097  10.585  1.00  0.00    -0.203 F 
ATOM     76  C   UNL     1      -6.054   6.147  10.534  1.00  0.00     0.198 A 
ATOM     77  C   UNL     1      -5.268   7.026   8.446  1.00  0.00     0.198 A 
ATOM     78  F   UNL     1      -5.692   5.862   6.445  1.00  0.00    -0.203 F 
ATOM     79  F   UNL     1      -6.213   6.268  11.859  1.00  0.00    -0.200 F 
ATOM     80  C   UNL     1      -5.400   7.140   9.821  1.00  0.00     0.200 A 
ATOM     81  F   UNL     1      -4.623   7.975   7.754  1.00  0.00    -0.200 F 
ATOM     82  F   UNL     1      -4.909   8.212  10.457  1.00  0.00    -0.200 F 
ENDBRANCH  48  72
BRANCH  60  83
ATOM     83  C   UNL     1     -13.075   2.811   7.634  1.00  0.00     0.064 A 
ATOM     84  C   UNL     1     -13.619   4.023   7.185  1.00  0.00     0.173 A 
ATOM     85  C   UNL     1     -13.812   2.062   8.564  1.00  0.00     0.173 A 
ATOM     86  F   UNL     1     -12.947   4.781   6.305  1.00  0.00    -0.203 F 
ATOM     87  C   UNL     1     -14.841   4.480   7.670  1.00  0.00     0.198 A 
ATOM     88  C   UNL     1     -15.049   2.505   9.020  1.00  0.00     0.198 A 
ATOM     89  F   UNL     1     -13.339   0.890   9.016  1.00  0.00    -0.203 F 
ATOM     90  F   UNL     1     -15.318   5.665   7.266  1.00  0.00    -0.200 F 
ATOM     91  C   UNL     1     -15.559   3.717   8.580  1.00  0.00     0.200 A 
ATOM     92  F   UNL     1     -15.749   1.757   9.884  1.00  0.00    -0.200 F 
ATOM     93  F   UNL     1     -16.740   4.154   9.037  1.00  0.00    -0.200 F 
ENDBRANCH  60  83
ENDBRANCH  34  35
ENDBRANCH  26  29
ENDBRANCH  24  25
ENDBRANCH  23  24
ENDBRANCH   1  23
TORSDOF 13
