REMARK SMILES C[C@H]1CN(S(=O)(=O)N2CCO[C@H](CC(=O)NCCCCNC(=O)c3ccc(-c4c5nc(c(-c6c(F)c(F)c(F)c(F)c6F)c6ccc([nH]6)c(-c6c(F)c(F)c(F)c(F)c6F)c6nc(c(-c7c(F)c(F)c(F)c(F)c7F)c7ccc4[nH]7)C=C6)C=C5)cc3)C2)C[C@H](C)O1
REMARK SMILES IDX 18 1 17 2 16 3 14 4 15 5 13 7 12 8 8 9 9 10 87 11 10 12
REMARK SMILES IDX 11 13 5 14 6 15 7 16 4 17 1 18 2 19 3 20 91 21 89 22 88 23
REMARK SMILES IDX 90 24 19 25 20 26 21 27 22 28 23 30 24 31 25 32 86 33 26 34
REMARK SMILES IDX 85 35 27 36 28 37 29 38 79 39 30 40 84 41 78 42 80 43 31 44
REMARK SMILES IDX 83 45 77 46 76 47 32 49 64 50 44 51 63 52 45 53 48 54 62 55
REMARK SMILES IDX 81 56 46 57 47 58 61 60 82 61 49 62 33 63 34 64 42 65 35 66
REMARK SMILES IDX 36 67 40 68 43 69 37 70 38 71 41 72 39 73 65 74 66 75 74 76
REMARK SMILES IDX 67 77 68 78 72 79 75 80 69 81 70 82 73 83 71 84 50 85 51 86
REMARK SMILES IDX 59 87 52 88 53 89 57 90 60 91 54 92 55 93 58 94 56 95
REMARK H PARENT 16 6 21 29 80 48 48 59
REMARK Flexibility Score: inf
ROOT
ATOM      1  C   UNL     1      -0.741  -6.342  -1.806  1.00  0.00     0.023 C 
ENDROOT
BRANCH   1   2
ATOM      2  C   UNL     1      -0.499  -5.739  -0.411  1.00  0.00     0.116 C 
BRANCH   2   3
ATOM      3  N   UNL     1       0.539  -6.426   0.342  1.00  0.00    -0.356 N 
ATOM      4  C   UNL     1       1.778  -6.092   0.773  1.00  0.00     0.222 C 
ATOM      5  O   UNL     1       2.385  -6.954   1.416  1.00  0.00    -0.275 OA
ATOM      6  H   UNL     1       0.281  -7.341   0.595  1.00  0.00     0.163 HD
BRANCH   4   7
ATOM      7  C   UNL     1       2.383  -4.719   0.628  1.00  0.00     0.133 C 
BRANCH   7   8
ATOM      8  C   UNL     1       2.505  -4.057  -0.730  1.00  0.00     0.142 C 
ATOM      9  N   UNL     1       2.010  -3.665  -3.040  1.00  0.00    -0.184 NA
ATOM     10  C   UNL     1       3.229  -2.871  -3.270  1.00  0.00     0.132 C 
ATOM     11  C   UNL     1       2.360  -4.751  -2.051  1.00  0.00     0.136 C 
ATOM     12  C   UNL     1       3.672  -2.263  -1.933  1.00  0.00     0.177 C 
ATOM     13  O   UNL     1       3.640  -3.159  -0.787  1.00  0.00    -0.375 OA
BRANCH   9  14
ATOM     14  S   UNL     1       0.526  -2.861  -3.156  1.00  0.00     0.282 S 
ATOM     15  O   UNL     1      -0.526  -3.763  -2.748  1.00  0.00    -0.195 OA
ATOM     16  O   UNL     1       0.495  -2.295  -4.484  1.00  0.00    -0.195 OA
BRANCH  14  17
ATOM     17  N   UNL     1       0.405  -1.493  -2.090  1.00  0.00    -0.184 NA
ATOM     18  C   UNL     1       0.110  -0.881   1.737  1.00  0.00     0.040 C 
ATOM     19  C   UNL     1       0.133  -0.456   0.265  1.00  0.00     0.130 C 
ATOM     20  C   UNL     1       0.487  -1.671  -0.598  1.00  0.00     0.135 C 
ATOM     21  O   UNL     1      -1.129   0.091  -0.096  1.00  0.00    -0.373 OA
ATOM     22  C   UNL     1      -1.168   0.421  -1.495  1.00  0.00     0.130 C 
ATOM     23  C   UNL     1      -0.955  -0.832  -2.358  1.00  0.00     0.135 C 
ATOM     24  C   UNL     1      -0.188   1.537  -1.850  1.00  0.00     0.040 C 
ENDBRANCH  14  17
ENDBRANCH   9  14
ENDBRANCH   7   8
ENDBRANCH   4   7
ENDBRANCH   2   3
ENDBRANCH   1   2
BRANCH   1  25
ATOM     25  C   UNL     1      -0.807  -7.854  -1.861  1.00  0.00     0.023 C 
BRANCH  25  26
ATOM     26  C   UNL     1      -2.100  -8.350  -1.265  1.00  0.00     0.116 C 
BRANCH  26  27
ATOM     27  N   UNL     1      -3.244  -7.932  -2.074  1.00  0.00    -0.352 N 
ATOM     28  C   UNL     1      -4.119  -8.714  -2.784  1.00  0.00     0.251 C 
ATOM     29  H   UNL     1      -3.407  -6.962  -2.115  1.00  0.00     0.163 HD
ATOM     30  O   UNL     1      -4.859  -8.236  -3.634  1.00  0.00    -0.269 OA
BRANCH  28  31
ATOM     31  C   UNL     1      -4.130 -10.156  -2.497  1.00  0.00     0.039 A 
ATOM     32  C   UNL     1      -4.123 -11.070  -3.549  1.00  0.00     0.014 A 
ATOM     33  C   UNL     1      -4.053 -10.581  -1.169  1.00  0.00     0.014 A 
ATOM     34  C   UNL     1      -3.973 -12.424  -3.260  1.00  0.00     0.010 A 
ATOM     35  C   UNL     1      -3.758 -11.903  -0.898  1.00  0.00     0.010 A 
ATOM     36  C   UNL     1      -3.748 -12.842  -1.937  1.00  0.00    -0.014 A 
BRANCH  36  37
ATOM     37  C   UNL     1      -3.550 -14.267  -1.595  1.00  0.00     0.031 A 
ATOM     38  C   UNL     1      -4.508 -14.932  -0.645  1.00  0.00     0.074 A 
ATOM     39  C   UNL     1      -2.481 -14.928  -2.077  1.00  0.00     0.049 A 
ATOM     40  N   UNL     1      -4.472 -16.138  -0.143  1.00  0.00    -0.248 NA
ATOM     41  C   UNL     1      -5.638 -14.118  -0.161  1.00  0.00     0.031 C 
ATOM     42  C   UNL     1      -1.456 -14.361  -2.955  1.00  0.00     0.029 A 
ATOM     43  N   UNL     1      -2.077 -16.224  -1.889  1.00  0.00    -0.354 N 
ATOM     44  C   UNL     1      -5.556 -16.215   0.722  1.00  0.00     0.074 A 
ATOM     45  C   UNL     1      -6.184 -14.915   0.743  1.00  0.00     0.031 C 
ATOM     46  C   UNL     1      -0.561 -15.314  -3.259  1.00  0.00     0.029 A 
ATOM     47  C   UNL     1      -0.922 -16.543  -2.561  1.00  0.00     0.049 A 
ATOM     48  H   UNL     1      -2.567 -16.866  -1.326  1.00  0.00     0.167 HD
ATOM     49  C   UNL     1      -6.011 -17.289   1.406  1.00  0.00     0.037 A 
ATOM     50  C   UNL     1      -0.235 -17.700  -2.599  1.00  0.00     0.037 A 
ATOM     51  C   UNL     1      -5.397 -18.587   1.350  1.00  0.00     0.049 A 
ATOM     52  C   UNL     1      -0.759 -18.877  -1.819  1.00  0.00     0.074 A 
ATOM     53  C   UNL     1      -5.805 -19.760   1.956  1.00  0.00     0.029 A 
ATOM     54  N   UNL     1      -4.242 -18.880   0.639  1.00  0.00    -0.354 N 
ATOM     55  N   UNL     1      -1.829 -18.962  -1.065  1.00  0.00    -0.248 NA
ATOM     56  C   UNL     1       0.015 -20.122  -1.902  1.00  0.00     0.031 C 
ATOM     57  C   UNL     1      -4.865 -20.751   1.659  1.00  0.00     0.029 A 
ATOM     58  C   UNL     1      -3.908 -20.212   0.813  1.00  0.00     0.049 A 
ATOM     59  H   UNL     1      -3.735 -18.236   0.094  1.00  0.00     0.167 HD
ATOM     60  C   UNL     1      -1.875 -20.274  -0.614  1.00  0.00     0.074 A 
ATOM     61  C   UNL     1      -0.735 -20.953  -1.194  1.00  0.00     0.031 C 
ATOM     62  C   UNL     1      -2.776 -20.866   0.209  1.00  0.00     0.037 A 
BRANCH  49  63
ATOM     63  C   UNL     1      -7.233 -17.106   2.259  1.00  0.00     0.064 A 
ATOM     64  C   UNL     1      -8.495 -16.862   1.696  1.00  0.00     0.173 A 
ATOM     65  C   UNL     1      -7.149 -17.212   3.655  1.00  0.00     0.173 A 
ATOM     66  F   UNL     1      -8.630 -16.733   0.366  1.00  0.00    -0.203 F 
ATOM     67  C   UNL     1      -9.621 -16.704   2.499  1.00  0.00     0.198 A 
ATOM     68  C   UNL     1      -8.283 -17.090   4.453  1.00  0.00     0.198 A 
ATOM     69  F   UNL     1      -5.967 -17.444   4.246  1.00  0.00    -0.203 F 
ATOM     70  F   UNL     1     -10.806 -16.418   1.940  1.00  0.00    -0.200 F 
ATOM     71  C   UNL     1      -9.516 -16.828   3.875  1.00  0.00     0.200 A 
ATOM     72  F   UNL     1      -8.182 -17.223   5.783  1.00  0.00    -0.200 F 
ATOM     73  F   UNL     1     -10.603 -16.690   4.647  1.00  0.00    -0.200 F 
ENDBRANCH  49  63
BRANCH  50  74
ATOM     74  C   UNL     1       1.005 -17.812  -3.413  1.00  0.00     0.064 A 
ATOM     75  C   UNL     1       1.058 -18.651  -4.535  1.00  0.00     0.173 A 
ATOM     76  C   UNL     1       2.169 -17.106  -3.075  1.00  0.00     0.173 A 
ATOM     77  F   UNL     1      -0.024 -19.360  -4.892  1.00  0.00    -0.203 F 
ATOM     78  C   UNL     1       2.235 -18.808  -5.264  1.00  0.00     0.198 A 
ATOM     79  C   UNL     1       3.336 -17.237  -3.825  1.00  0.00     0.198 A 
ATOM     80  F   UNL     1       2.172 -16.281  -2.017  1.00  0.00    -0.203 F 
ATOM     81  F   UNL     1       2.273 -19.666  -6.293  1.00  0.00    -0.200 F 
ATOM     82  C   UNL     1       3.372 -18.098  -4.911  1.00  0.00     0.200 A 
ATOM     83  F   UNL     1       4.427 -16.534  -3.491  1.00  0.00    -0.200 F 
ATOM     84  F   UNL     1       4.505 -18.252  -5.609  1.00  0.00    -0.200 F 
ENDBRANCH  50  74
BRANCH  62  85
ATOM     85  C   UNL     1      -2.593 -22.330   0.489  1.00  0.00     0.064 A 
ATOM     86  C   UNL     1      -1.536 -22.805   1.279  1.00  0.00     0.173 A 
ATOM     87  C   UNL     1      -3.518 -23.263  -0.004  1.00  0.00     0.173 A 
ATOM     88  F   UNL     1      -0.619 -21.954   1.764  1.00  0.00    -0.203 F 
ATOM     89  C   UNL     1      -1.393 -24.165   1.537  1.00  0.00     0.198 A 
ATOM     90  C   UNL     1      -3.393 -24.618   0.288  1.00  0.00     0.198 A 
ATOM     91  F   UNL     1      -4.553 -22.859  -0.755  1.00  0.00    -0.203 F 
ATOM     92  F   UNL     1      -0.344 -24.603   2.247  1.00  0.00    -0.200 F 
ATOM     93  C   UNL     1      -2.326 -25.069   1.050  1.00  0.00     0.200 A 
ATOM     94  F   UNL     1      -4.307 -25.486  -0.167  1.00  0.00    -0.200 F 
ATOM     95  F   UNL     1      -2.193 -26.377   1.309  1.00  0.00    -0.200 F 
ENDBRANCH  62  85
ENDBRANCH  36  37
ENDBRANCH  28  31
ENDBRANCH  26  27
ENDBRANCH  25  26
ENDBRANCH   1  25
TORSDOF 14
