REMARK SMILES C[C@H]1CCC[C@H](C(C)(C)C(=O)NCCCCNC(=O)c2ccc(-c3c4nc(c(-c5c(F)c(F)c(F)c(F)c5F)c5ccc([nH]5)c(-c5c(F)c(F)c(F)c(F)c5F)c5nc(c(-c6c(F)c(F)c(F)c(F)c6F)c6ccc3[nH]6)C=C5)C=C4)cc2)C1
REMARK SMILES IDX 15 1 14 2 13 3 12 4 10 5 11 6 7 8 8 9 9 10 6 11 1 12 2 13
REMARK SMILES IDX 3 14 83 15 4 16 5 17 16 18 17 19 18 20 19 22 20 23 21 24
REMARK SMILES IDX 82 25 22 26 81 27 23 28 24 29 25 30 75 31 26 32 80 33 74 34
REMARK SMILES IDX 76 35 27 36 79 37 73 38 72 39 28 41 60 42 40 43 59 44 41 45
REMARK SMILES IDX 44 46 58 47 77 48 42 49 43 50 57 52 78 53 45 54 29 55 30 56
REMARK SMILES IDX 38 57 31 58 32 59 36 60 39 61 33 62 34 63 37 64 35 65 61 66
REMARK SMILES IDX 62 67 70 68 63 69 64 70 68 71 71 72 65 73 66 74 69 75 67 76
REMARK SMILES IDX 46 77 47 78 55 79 48 80 49 81 53 82 56 83 50 84 51 85 54 86
REMARK SMILES IDX 52 87
REMARK H PARENT 12 7 17 21 76 40 44 51
REMARK Flexibility Score: inf
ROOT
ATOM      1  C   UNL     1       0.712  -0.475   6.475  1.00  0.00     0.023 C 
ENDROOT
BRANCH   1   2
ATOM      2  C   UNL     1      -0.046  -1.589   5.744  1.00  0.00     0.023 C 
BRANCH   2   3
ATOM      3  C   UNL     1      -1.321  -1.129   5.040  1.00  0.00     0.116 C 
BRANCH   3   4
ATOM      4  N   UNL     1      -1.023  -0.111   4.059  1.00  0.00    -0.356 N 
ATOM      5  C   UNL     1      -0.894  -0.100   2.712  1.00  0.00     0.225 C 
ATOM      6  O   UNL     1      -0.451   0.970   2.295  1.00  0.00    -0.275 OA
ATOM      7  H   UNL     1      -0.882   0.776   4.462  1.00  0.00     0.163 HD
BRANCH   5   8
ATOM      8  C   UNL     1      -1.319  -1.270   1.792  1.00  0.00     0.046 C 
ATOM      9  C   UNL     1      -2.842  -1.464   1.992  1.00  0.00     0.022 C 
ATOM     10  C   UNL     1      -0.581  -2.566   2.198  1.00  0.00     0.022 C 
BRANCH   8  11
ATOM     11  C   UNL     1      -1.064  -1.056   0.230  1.00  0.00     0.004 C 
ATOM     12  C   UNL     1       2.603   0.023  -0.606  1.00  0.00     0.007 C 
ATOM     13  C   UNL     1       1.187   0.157  -0.041  1.00  0.00    -0.014 C 
ATOM     14  C   UNL     1       0.478   1.371  -0.661  1.00  0.00     0.003 C 
ATOM     15  C   UNL     1       0.395  -1.127  -0.270  1.00  0.00     0.008 C 
ATOM     16  C   UNL     1      -1.033   1.460  -0.429  1.00  0.00     0.001 C 
ATOM     17  C   UNL     1      -1.767   0.124  -0.470  1.00  0.00     0.005 C 
ENDBRANCH   8  11
ENDBRANCH   5   8
ENDBRANCH   3   4
ENDBRANCH   2   3
ENDBRANCH   1   2
BRANCH   1  18
ATOM     18  C   UNL     1      -0.146   0.408   7.372  1.00  0.00     0.116 C 
BRANCH  18  19
ATOM     19  N   UNL     1      -0.917  -0.355   8.340  1.00  0.00    -0.352 N 
ATOM     20  C   UNL     1      -1.120  -0.102   9.671  1.00  0.00     0.251 C 
ATOM     21  H   UNL     1      -1.353  -1.166   7.991  1.00  0.00     0.163 HD
ATOM     22  O   UNL     1      -1.694  -0.926  10.378  1.00  0.00    -0.269 OA
BRANCH  20  23
ATOM     23  C   UNL     1      -0.620   1.155  10.256  1.00  0.00     0.039 A 
ATOM     24  C   UNL     1       0.070   1.103  11.468  1.00  0.00     0.014 A 
ATOM     25  C   UNL     1      -0.824   2.377   9.607  1.00  0.00     0.014 A 
ATOM     26  C   UNL     1       0.590   2.276  12.014  1.00  0.00     0.010 A 
ATOM     27  C   UNL     1      -0.230   3.530  10.107  1.00  0.00     0.010 A 
ATOM     28  C   UNL     1       0.462   3.495  11.328  1.00  0.00    -0.014 A 
BRANCH  28  29
ATOM     29  C   UNL     1       1.000   4.753  11.899  1.00  0.00     0.031 A 
ATOM     30  C   UNL     1       0.059   5.867  12.271  1.00  0.00     0.074 A 
ATOM     31  C   UNL     1       2.330   4.909  12.045  1.00  0.00     0.049 A 
ATOM     32  N   UNL     1       0.328   7.058  12.742  1.00  0.00    -0.248 NA
ATOM     33  C   UNL     1      -1.375   5.619  12.054  1.00  0.00     0.031 C 
ATOM     34  C   UNL     1       3.344   3.920  11.678  1.00  0.00     0.029 A 
ATOM     35  N   UNL     1       3.056   5.963  12.538  1.00  0.00    -0.354 N 
ATOM     36  C   UNL     1      -0.898   7.700  12.863  1.00  0.00     0.074 A 
ATOM     37  C   UNL     1      -1.903   6.796  12.352  1.00  0.00     0.031 C 
ATOM     38  C   UNL     1       4.559   4.402  11.985  1.00  0.00     0.029 A 
ATOM     39  C   UNL     1       4.412   5.747  12.534  1.00  0.00     0.049 A 
ATOM     40  H   UNL     1       2.645   6.796  12.864  1.00  0.00     0.167 HD
ATOM     41  C   UNL     1      -1.165   8.922  13.381  1.00  0.00     0.037 A 
ATOM     42  C   UNL     1       5.421   6.546  12.928  1.00  0.00     0.037 A 
ATOM     43  C   UNL     1      -0.161   9.809  13.908  1.00  0.00     0.049 A 
ATOM     44  C   UNL     1       5.098   7.902  13.498  1.00  0.00     0.074 A 
ATOM     45  C   UNL     1      -0.327  11.050  14.497  1.00  0.00     0.029 A 
ATOM     46  N   UNL     1       1.202   9.546  13.906  1.00  0.00    -0.354 N 
ATOM     47  N   UNL     1       3.930   8.475  13.668  1.00  0.00    -0.248 NA
ATOM     48  C   UNL     1       6.235   8.717  13.945  1.00  0.00     0.031 C 
ATOM     49  C   UNL     1       0.938  11.561  14.803  1.00  0.00     0.029 A 
ATOM     50  C   UNL     1       1.889  10.610  14.469  1.00  0.00     0.049 A 
ATOM     51  H   UNL     1       1.619   8.726  13.557  1.00  0.00     0.167 HD
ATOM     52  C   UNL     1       4.188   9.696  14.278  1.00  0.00     0.074 A 
ATOM     53  C   UNL     1       5.623   9.774  14.460  1.00  0.00     0.031 C 
ATOM     54  C   UNL     1       3.317  10.664  14.656  1.00  0.00     0.037 A 
BRANCH  41  55
ATOM     55  C   UNL     1      -2.599   9.369  13.401  1.00  0.00     0.064 A 
ATOM     56  C   UNL     1      -3.556   8.746  14.218  1.00  0.00     0.173 A 
ATOM     57  C   UNL     1      -3.021  10.448  12.609  1.00  0.00     0.173 A 
ATOM     58  F   UNL     1      -3.212   7.700  14.985  1.00  0.00    -0.203 F 
ATOM     59  C   UNL     1      -4.885   9.162  14.214  1.00  0.00     0.198 A 
ATOM     60  C   UNL     1      -4.343  10.886  12.636  1.00  0.00     0.198 A 
ATOM     61  F   UNL     1      -2.149  11.084  11.812  1.00  0.00    -0.203 F 
ATOM     62  F   UNL     1      -5.791   8.512  14.957  1.00  0.00    -0.200 F 
ATOM     63  C   UNL     1      -5.275  10.236  13.430  1.00  0.00     0.200 A 
ATOM     64  F   UNL     1      -4.715  11.934  11.888  1.00  0.00    -0.200 F 
ATOM     65  F   UNL     1      -6.553  10.641  13.433  1.00  0.00    -0.200 F 
ENDBRANCH  41  55
BRANCH  42  66
ATOM     66  C   UNL     1       6.829   6.077  12.830  1.00  0.00     0.064 A 
ATOM     67  C   UNL     1       7.585   5.820  13.982  1.00  0.00     0.173 A 
ATOM     68  C   UNL     1       7.452   5.891  11.588  1.00  0.00     0.173 A 
ATOM     69  F   UNL     1       7.040   5.999  15.195  1.00  0.00    -0.203 F 
ATOM     70  C   UNL     1       8.919   5.426  13.897  1.00  0.00     0.198 A 
ATOM     71  C   UNL     1       8.776   5.465  11.502  1.00  0.00     0.198 A 
ATOM     72  F   UNL     1       6.771   6.115  10.454  1.00  0.00    -0.203 F 
ATOM     73  F   UNL     1       9.634   5.244  15.015  1.00  0.00    -0.200 F 
ATOM     74  C   UNL     1       9.512   5.244  12.657  1.00  0.00     0.200 A 
ATOM     75  F   UNL     1       9.340   5.275  10.302  1.00  0.00    -0.200 F 
ATOM     76  F   UNL     1      10.795   4.865  12.574  1.00  0.00    -0.200 F 
ENDBRANCH  42  66
BRANCH  54  77
ATOM     77  C   UNL     1       3.885  11.862  15.364  1.00  0.00     0.064 A 
ATOM     78  C   UNL     1       4.695  12.801  14.707  1.00  0.00     0.173 A 
ATOM     79  C   UNL     1       3.597  12.082  16.720  1.00  0.00     0.173 A 
ATOM     80  F   UNL     1       5.011  12.633  13.414  1.00  0.00    -0.203 F 
ATOM     81  C   UNL     1       5.229  13.890  15.392  1.00  0.00     0.198 A 
ATOM     82  C   UNL     1       4.100  13.192  17.392  1.00  0.00     0.198 A 
ATOM     83  F   UNL     1       2.818  11.222  17.394  1.00  0.00    -0.203 F 
ATOM     84  F   UNL     1       6.054  14.736  14.761  1.00  0.00    -0.200 F 
ATOM     85  C   UNL     1       4.926  14.088  16.731  1.00  0.00     0.200 A 
ATOM     86  F   UNL     1       3.790  13.391  18.680  1.00  0.00    -0.200 F 
ATOM     87  F   UNL     1       5.439  15.137  17.387  1.00  0.00    -0.200 F 
ENDBRANCH  54  77
ENDBRANCH  28  29
ENDBRANCH  20  23
ENDBRANCH  18  19
ENDBRANCH   1  18
TORSDOF 12
