REMARK SMILES CC[C@H](C)[C@H](NC(=O)[C@H](C)Oc1ccc2c(C)c(C)c(=O)oc2c1C)C(=O)NCCCCNC(=O)c1ccc(-c2c3nc(c(-c4c(F)c(F)c(F)c(F)c4F)c4ccc([nH]4)c(-c4c(F)c(F)c(F)c(F)c4F)c4nc(c(-c5c(F)c(F)c(F)c(F)c5F)c5ccc2[nH]5)C=C4)C=C3)cc1
REMARK SMILES IDX 29 1 28 2 26 3 27 4 5 6 3 7 4 8 2 9 1 10 6 11 7 12 8 14 9 15
REMARK SMILES IDX 10 16 11 17 12 18 13 19 24 20 14 21 23 22 25 23 15 24 22 25
REMARK SMILES IDX 16 26 20 27 17 28 18 29 21 30 19 31 30 32 31 33 32 34 33 35
REMARK SMILES IDX 34 36 35 38 36 39 37 40 98 41 38 42 97 43 39 44 40 45 41 46
REMARK SMILES IDX 91 47 42 48 96 49 90 50 92 51 43 52 95 53 89 54 88 55 44 57
REMARK SMILES IDX 76 58 56 59 75 60 57 61 60 62 74 63 93 64 58 65 59 66 73 68
REMARK SMILES IDX 94 69 61 70 45 71 46 72 54 73 47 74 48 75 52 76 55 77 49 78
REMARK SMILES IDX 50 79 53 80 51 81 77 82 78 83 86 84 79 85 80 86 84 87 87 88
REMARK SMILES IDX 81 89 82 90 85 91 83 92 62 93 63 94 71 95 64 96 65 97 69 98
REMARK SMILES IDX 72 99 66 100 67 101 70 102 68 103
REMARK H PARENT 28 5 6 13 33 37 92 56 60 67
REMARK Flexibility Score: inf
ROOT
ATOM      1  C   UNL     1       0.485   7.015   1.991  1.00  0.00     0.116 C 
ENDROOT
BRANCH   1   2
ATOM      2  N   UNL     1       0.620   5.980   3.003  1.00  0.00    -0.354 N 
ATOM      3  C   UNL     1       1.088   4.705   2.899  1.00  0.00     0.242 C 
ATOM      4  O   UNL     1       1.486   4.168   3.936  1.00  0.00    -0.273 OA
ATOM      5  H   UNL     1       0.326   6.242   3.905  1.00  0.00     0.163 HD
BRANCH   3   6
ATOM      6  C   UNL     1       1.244   4.019   1.537  1.00  0.00     0.174 C 
BRANCH   6   7
ATOM      7  C   UNL     1       2.700   4.193   0.984  1.00  0.00     0.018 C 
ATOM      8  C   UNL     1       2.847   3.600  -0.423  1.00  0.00     0.010 C 
BRANCH   7   9
ATOM      9  C   UNL     1       3.269   5.627   1.046  1.00  0.00     0.002 C 
ATOM     10  C   UNL     1       4.754   5.725   0.714  1.00  0.00     0.004 C 
ENDBRANCH   7   9
ENDBRANCH   6   7
BRANCH   6  11
ATOM     11  N   UNL     1       0.165   4.315   0.596  1.00  0.00    -0.341 N 
ATOM     12  C   UNL     1      -1.135   3.909   0.543  1.00  0.00     0.261 C 
ATOM     13  H   UNL     1       0.426   4.921  -0.135  1.00  0.00     0.164 HD
ATOM     14  O   UNL     1      -1.696   4.137  -0.540  1.00  0.00    -0.271 OA
BRANCH  12  15
ATOM     15  C   UNL     1      -1.981   3.280   1.719  1.00  0.00     0.258 C 
ATOM     16  C   UNL     1      -2.101   4.166   2.956  1.00  0.00     0.064 C 
BRANCH  15  17
ATOM     17  O   UNL     1      -2.023   1.913   2.116  1.00  0.00    -0.480 OA
BRANCH  17  18
ATOM     18  C   UNL     1      -0.818   1.289   2.159  1.00  0.00     0.127 A 
ATOM     19  C   UNL     1      -0.068   1.351   3.333  1.00  0.00     0.047 A 
ATOM     20  C   UNL     1      -0.381   0.531   1.073  1.00  0.00     0.035 A 
ATOM     21  C   UNL     1       1.213   0.796   3.374  1.00  0.00     0.016 A 
ATOM     22  C   UNL     1       0.901  -0.037   1.154  1.00  0.00     0.145 A 
ATOM     23  C   UNL     1      -1.252   0.288  -0.126  1.00  0.00     0.052 C 
ATOM     24  C   UNL     1       1.739   0.133   2.259  1.00  0.00     0.021 A 
ATOM     25  O   UNL     1       1.329  -0.800   0.052  1.00  0.00    -0.422 OA
ATOM     26  C   UNL     1       3.132  -0.342   2.181  1.00  0.00    -0.030 A 
ATOM     27  C   UNL     1       2.569  -1.412   0.017  1.00  0.00     0.339 A 
ATOM     28  C   UNL     1       4.078   0.092   3.273  1.00  0.00     0.045 C 
ATOM     29  C   UNL     1       3.514  -1.082   1.118  1.00  0.00     0.038 A 
ATOM     30  O   UNL     1       2.877  -2.151  -0.911  1.00  0.00    -0.246 OA
ATOM     31  C   UNL     1       4.907  -1.625   0.947  1.00  0.00     0.052 C 
ENDBRANCH  17  18
ENDBRANCH  15  17
ENDBRANCH  12  15
ENDBRANCH   6  11
ENDBRANCH   3   6
ENDBRANCH   1   2
BRANCH   1  32
ATOM     32  C   UNL     1      -0.852   7.743   2.016  1.00  0.00     0.023 C 
BRANCH  32  33
ATOM     33  C   UNL     1      -1.315   8.205   3.394  1.00  0.00     0.023 C 
BRANCH  33  34
ATOM     34  C   UNL     1      -0.252   8.888   4.242  1.00  0.00     0.116 C 
BRANCH  34  35
ATOM     35  N   UNL     1       0.314  10.066   3.611  1.00  0.00    -0.352 N 
ATOM     36  C   UNL     1       0.402  11.336   4.125  1.00  0.00     0.251 C 
ATOM     37  H   UNL     1       0.679   9.940   2.706  1.00  0.00     0.163 HD
ATOM     38  O   UNL     1       0.844  12.265   3.467  1.00  0.00    -0.269 OA
BRANCH  36  39
ATOM     39  C   UNL     1      -0.096  11.556   5.493  1.00  0.00     0.039 A 
ATOM     40  C   UNL     1      -1.171  12.424   5.681  1.00  0.00     0.014 A 
ATOM     41  C   UNL     1       0.439  10.820   6.556  1.00  0.00     0.014 A 
ATOM     42  C   UNL     1      -1.746  12.528   6.944  1.00  0.00     0.010 A 
ATOM     43  C   UNL     1      -0.177  10.877   7.799  1.00  0.00     0.010 A 
ATOM     44  C   UNL     1      -1.263  11.743   8.004  1.00  0.00    -0.014 A 
BRANCH  44  45
ATOM     45  C   UNL     1      -1.827  11.884   9.363  1.00  0.00     0.031 A 
ATOM     46  C   UNL     1      -0.994  12.538  10.425  1.00  0.00     0.074 A 
ATOM     47  C   UNL     1      -3.054  11.409   9.643  1.00  0.00     0.049 A 
ATOM     48  N   UNL     1      -1.266  12.730  11.690  1.00  0.00    -0.248 NA
ATOM     49  C   UNL     1       0.334  13.024  10.014  1.00  0.00     0.031 C 
ATOM     50  C   UNL     1      -3.939  10.736   8.693  1.00  0.00     0.029 A 
ATOM     51  N   UNL     1      -3.766  11.421  10.815  1.00  0.00    -0.354 N 
ATOM     52  C   UNL     1      -0.145  13.353  12.220  1.00  0.00     0.074 A 
ATOM     53  C   UNL     1       0.834  13.453  11.162  1.00  0.00     0.031 C 
ATOM     54  C   UNL     1      -5.088  10.419   9.315  1.00  0.00     0.029 A 
ATOM     55  C   UNL     1      -5.008  10.844  10.710  1.00  0.00     0.049 A 
ATOM     56  H   UNL     1      -3.420  11.806  11.652  1.00  0.00     0.167 HD
ATOM     57  C   UNL     1       0.037  13.830  13.472  1.00  0.00     0.037 A 
ATOM     58  C   UNL     1      -5.969  10.686  11.639  1.00  0.00     0.037 A 
ATOM     59  C   UNL     1      -0.950  13.752  14.513  1.00  0.00     0.049 A 
ATOM     60  C   UNL     1      -5.731  11.200  13.034  1.00  0.00     0.074 A 
ATOM     61  C   UNL     1      -0.880  14.238  15.805  1.00  0.00     0.029 A 
ATOM     62  N   UNL     1      -2.192  13.150  14.373  1.00  0.00    -0.354 N 
ATOM     63  N   UNL     1      -4.684  11.825  13.516  1.00  0.00    -0.248 NA
ATOM     64  C   UNL     1      -6.807  10.988  14.012  1.00  0.00     0.031 C 
ATOM     65  C   UNL     1      -2.071  13.904  16.458  1.00  0.00     0.029 A 
ATOM     66  C   UNL     1      -2.894  13.240  15.562  1.00  0.00     0.049 A 
ATOM     67  H   UNL     1      -2.524  12.724  13.550  1.00  0.00     0.167 HD
ATOM     68  C   UNL     1      -4.981  12.100  14.844  1.00  0.00     0.074 A 
ATOM     69  C   UNL     1      -6.312  11.583  15.090  1.00  0.00     0.031 C 
ATOM     70  C   UNL     1      -4.220  12.721  15.777  1.00  0.00     0.037 A 
BRANCH  57  71
ATOM     71  C   UNL     1       1.347  14.492  13.771  1.00  0.00     0.064 A 
ATOM     72  C   UNL     1       1.658  15.757  13.248  1.00  0.00     0.173 A 
ATOM     73  C   UNL     1       2.290  13.870  14.600  1.00  0.00     0.173 A 
ATOM     74  F   UNL     1       0.795  16.382  12.434  1.00  0.00    -0.203 F 
ATOM     75  C   UNL     1       2.878  16.365  13.528  1.00  0.00     0.198 A 
ATOM     76  C   UNL     1       3.499  14.493  14.898  1.00  0.00     0.198 A 
ATOM     77  F   UNL     1       2.040  12.660  15.121  1.00  0.00    -0.203 F 
ATOM     78  F   UNL     1       3.172  17.553  12.982  1.00  0.00    -0.200 F 
ATOM     79  C   UNL     1       3.794  15.737  14.358  1.00  0.00     0.200 A 
ATOM     80  F   UNL     1       4.382  13.888  15.704  1.00  0.00    -0.200 F 
ATOM     81  F   UNL     1       4.966  16.326  14.630  1.00  0.00    -0.200 F 
ENDBRANCH  57  71
BRANCH  58  82
ATOM     82  C   UNL     1      -7.257  10.046  11.272  1.00  0.00     0.064 A 
ATOM     83  C   UNL     1      -8.429  10.807  11.164  1.00  0.00     0.173 A 
ATOM     84  C   UNL     1      -7.345   8.670  11.014  1.00  0.00     0.173 A 
ATOM     85  F   UNL     1      -8.397  12.123  11.421  1.00  0.00    -0.203 F 
ATOM     86  C   UNL     1      -9.643  10.216  10.823  1.00  0.00     0.198 A 
ATOM     87  C   UNL     1      -8.556   8.083  10.653  1.00  0.00     0.198 A 
ATOM     88  F   UNL     1      -6.252   7.899  11.103  1.00  0.00    -0.203 F 
ATOM     89  F   UNL     1     -10.754  10.961  10.757  1.00  0.00    -0.200 F 
ATOM     90  C   UNL     1      -9.705   8.855  10.562  1.00  0.00     0.200 A 
ATOM     91  F   UNL     1      -8.611   6.770  10.392  1.00  0.00    -0.200 F 
ATOM     92  F   UNL     1     -10.872   8.287  10.228  1.00  0.00    -0.200 F 
ENDBRANCH  58  82
BRANCH  70  93
ATOM     93  C   UNL     1      -4.806  12.891  17.145  1.00  0.00     0.064 A 
ATOM     94  C   UNL     1      -4.890  11.815  18.040  1.00  0.00     0.173 A 
ATOM     95  C   UNL     1      -5.211  14.158  17.593  1.00  0.00     0.173 A 
ATOM     96  F   UNL     1      -4.526  10.584  17.650  1.00  0.00    -0.203 F 
ATOM     97  C   UNL     1      -5.366  12.000  19.334  1.00  0.00     0.198 A 
ATOM     98  C   UNL     1      -5.664  14.343  18.895  1.00  0.00     0.198 A 
ATOM     99  F   UNL     1      -5.141  15.218  16.775  1.00  0.00    -0.203 F 
ATOM    100  F   UNL     1      -5.462  10.954  20.166  1.00  0.00    -0.200 F 
ATOM    101  C   UNL     1      -5.743  13.264  19.764  1.00  0.00     0.200 A 
ATOM    102  F   UNL     1      -6.015  15.567  19.314  1.00  0.00    -0.200 F 
ATOM    103  F   UNL     1      -6.185  13.443  21.016  1.00  0.00    -0.200 F 
ENDBRANCH  70  93
ENDBRANCH  44  45
ENDBRANCH  36  39
ENDBRANCH  34  35
ENDBRANCH  33  34
ENDBRANCH  32  33
ENDBRANCH   1  32
TORSDOF 17
