REMARK SMILES C[C@@H]1CCN(c2cncc(C(=O)NCCCCNC(=O)c3ccc(-c4c5nc(c(-c6c(F)c(F)c(F)c(F)c6F)c6ccc([nH]6)c(-c6c(F)c(F)c(F)c(F)c6F)c6nc(c(-c7c(F)c(F)c(F)c(F)c7F)c7ccc4[nH]7)C=C6)C=C5)cc3)n2)[C@H](C)C1
REMARK SMILES IDX 16 1 15 2 14 3 13 4 11 5 12 6 10 8 6 9 7 10 84 11 8 12 9 13
REMARK SMILES IDX 5 14 1 15 2 16 3 17 87 18 4 19 85 20 86 21 17 22 18 23 19 24
REMARK SMILES IDX 20 26 21 27 22 28 83 29 23 30 82 31 24 32 25 33 26 34 76 35
REMARK SMILES IDX 27 36 81 37 75 38 77 39 28 40 80 41 74 42 73 43 29 45 61 46
REMARK SMILES IDX 41 47 60 48 42 49 45 50 59 51 78 52 43 53 44 54 58 56 79 57
REMARK SMILES IDX 46 58 30 59 31 60 39 61 32 62 33 63 37 64 40 65 34 66 35 67
REMARK SMILES IDX 38 68 36 69 62 70 63 71 71 72 64 73 65 74 69 75 72 76 66 77
REMARK SMILES IDX 67 78 70 79 68 80 47 81 48 82 56 83 49 84 50 85 54 86 57 87
REMARK SMILES IDX 51 88 52 89 55 90 53 91
REMARK H PARENT 13 7 18 25 77 44 45 55
REMARK Flexibility Score: inf
ROOT
ATOM      1  C   UNL     1       1.979   5.425   5.997  1.00  0.00     0.023 C 
ENDROOT
BRANCH   1   2
ATOM      2  C   UNL     1       1.743   5.030   4.535  1.00  0.00     0.023 C 
BRANCH   2   3
ATOM      3  C   UNL     1       0.352   5.385   4.009  1.00  0.00     0.116 C 
BRANCH   3   4
ATOM      4  N   UNL     1       0.230   6.800   3.716  1.00  0.00    -0.351 N 
ATOM      5  C   UNL     1       0.305   7.479   2.519  1.00  0.00     0.271 C 
ATOM      6  O   UNL     1       0.170   8.705   2.558  1.00  0.00    -0.267 OA
ATOM      7  H   UNL     1       0.066   7.369   4.502  1.00  0.00     0.163 HD
BRANCH   5   8
ATOM      8  C   UNL     1       0.547   6.814   1.203  1.00  0.00     0.148 A 
ATOM      9  C   UNL     1       0.909   4.909  -0.069  1.00  0.00     0.148 A 
ATOM     10  C   UNL     1       1.046   5.742  -1.186  1.00  0.00     0.157 A 
ATOM     11  N   UNL     1       0.647   5.461   1.136  1.00  0.00    -0.222 NA
ATOM     12  N   UNL     1       0.929   7.094  -1.153  1.00  0.00    -0.258 NA
ATOM     13  C   UNL     1       0.676   7.609   0.073  1.00  0.00     0.145 A 
BRANCH   9  14
ATOM     14  N   UNL     1       0.994   3.536  -0.161  1.00  0.00    -0.353 N 
ATOM     15  C   UNL     1       1.161  -0.223  -0.484  1.00  0.00     0.008 C 
ATOM     16  C   UNL     1       0.483   0.914  -1.254  1.00  0.00    -0.011 C 
ATOM     17  C   UNL     1       1.504   1.880  -1.882  1.00  0.00     0.025 C 
ATOM     18  C   UNL     1      -0.553   1.680  -0.411  1.00  0.00     0.028 C 
ATOM     19  C   UNL     1       2.076   2.888  -0.885  1.00  0.00     0.118 C 
ATOM     20  C   UNL     1       0.036   2.708   0.572  1.00  0.00     0.081 C 
ATOM     21  C   UNL     1       0.659   2.065   1.808  1.00  0.00     0.031 C 
ENDBRANCH   9  14
ENDBRANCH   5   8
ENDBRANCH   3   4
ENDBRANCH   2   3
ENDBRANCH   1   2
BRANCH   1  22
ATOM     22  C   UNL     1       0.963   4.871   6.993  1.00  0.00     0.116 C 
BRANCH  22  23
ATOM     23  N   UNL     1       0.835   3.422   6.952  1.00  0.00    -0.352 N 
ATOM     24  C   UNL     1       0.572   2.553   7.982  1.00  0.00     0.251 C 
ATOM     25  H   UNL     1       0.952   3.010   6.066  1.00  0.00     0.163 HD
ATOM     26  O   UNL     1       0.596   1.341   7.794  1.00  0.00    -0.269 OA
BRANCH  24  27
ATOM     27  C   UNL     1       0.300   3.084   9.335  1.00  0.00     0.039 A 
ATOM     28  C   UNL     1       0.966   2.518  10.424  1.00  0.00     0.014 A 
ATOM     29  C   UNL     1      -0.586   4.147   9.527  1.00  0.00     0.014 A 
ATOM     30  C   UNL     1       0.791   3.061  11.698  1.00  0.00     0.010 A 
ATOM     31  C   UNL     1      -0.700   4.735  10.783  1.00  0.00     0.010 A 
ATOM     32  C   UNL     1      -0.016   4.197  11.883  1.00  0.00    -0.014 A 
BRANCH  32  33
ATOM     33  C   UNL     1      -0.144   4.829  13.220  1.00  0.00     0.031 A 
ATOM     34  C   UNL     1      -1.473   4.861  13.922  1.00  0.00     0.074 A 
ATOM     35  C   UNL     1       0.929   5.419  13.780  1.00  0.00     0.049 A 
ATOM     36  N   UNL     1      -1.782   5.376  15.086  1.00  0.00    -0.248 NA
ATOM     37  C   UNL     1      -2.613   4.261  13.211  1.00  0.00     0.031 C 
ATOM     38  C   UNL     1       2.257   5.513  13.171  1.00  0.00     0.029 A 
ATOM     39  N   UNL     1       1.074   6.054  14.989  1.00  0.00    -0.354 N 
ATOM     40  C   UNL     1      -3.147   5.170  15.240  1.00  0.00     0.074 A 
ATOM     41  C   UNL     1      -3.619   4.541  14.026  1.00  0.00     0.031 C 
ATOM     42  C   UNL     1       3.088   6.137  14.021  1.00  0.00     0.029 A 
ATOM     43  C   UNL     1       2.347   6.513  15.221  1.00  0.00     0.049 A 
ATOM     44  H   UNL     1       0.335   6.169  15.629  1.00  0.00     0.167 HD
ATOM     45  C   UNL     1      -3.930   5.454  16.308  1.00  0.00     0.037 A 
ATOM     46  C   UNL     1       2.861   7.159  16.285  1.00  0.00     0.037 A 
ATOM     47  C   UNL     1      -3.452   6.060  17.524  1.00  0.00     0.049 A 
ATOM     48  C   UNL     1       1.973   7.446  17.466  1.00  0.00     0.074 A 
ATOM     49  C   UNL     1      -4.153   6.337  18.685  1.00  0.00     0.029 A 
ATOM     50  N   UNL     1      -2.148   6.485  17.733  1.00  0.00    -0.354 N 
ATOM     51  N   UNL     1       0.702   7.172  17.634  1.00  0.00    -0.248 NA
ATOM     52  C   UNL     1       2.598   8.119  18.613  1.00  0.00     0.031 C 
ATOM     53  C   UNL     1      -3.284   6.969  19.581  1.00  0.00     0.029 A 
ATOM     54  C   UNL     1      -2.029   7.037  18.999  1.00  0.00     0.049 A 
ATOM     55  H   UNL     1      -1.417   6.407  17.080  1.00  0.00     0.167 HD
ATOM     56  C   UNL     1       0.384   7.608  18.913  1.00  0.00     0.074 A 
ATOM     57  C   UNL     1       1.599   8.150  19.483  1.00  0.00     0.031 C 
ATOM     58  C   UNL     1      -0.809   7.563  19.557  1.00  0.00     0.037 A 
BRANCH  45  59
ATOM     59  C   UNL     1      -5.387   5.103  16.212  1.00  0.00     0.064 A 
ATOM     60  C   UNL     1      -5.822   3.768  16.200  1.00  0.00     0.173 A 
ATOM     61  C   UNL     1      -6.363   6.109  16.165  1.00  0.00     0.173 A 
ATOM     62  F   UNL     1      -4.929   2.767  16.231  1.00  0.00    -0.203 F 
ATOM     63  C   UNL     1      -7.176   3.455  16.111  1.00  0.00     0.198 A 
ATOM     64  C   UNL     1      -7.718   5.793  16.110  1.00  0.00     0.198 A 
ATOM     65  F   UNL     1      -6.004   7.402  16.180  1.00  0.00    -0.203 F 
ATOM     66  F   UNL     1      -7.563   2.173  16.047  1.00  0.00    -0.200 F 
ATOM     67  C   UNL     1      -8.123   4.467  16.074  1.00  0.00     0.200 A 
ATOM     68  F   UNL     1      -8.633   6.772  16.087  1.00  0.00    -0.200 F 
ATOM     69  F   UNL     1      -9.426   4.164  15.997  1.00  0.00    -0.200 F 
ENDBRANCH  45  59
BRANCH  46  70
ATOM     70  C   UNL     1       4.298   7.537  16.303  1.00  0.00     0.064 A 
ATOM     71  C   UNL     1       5.199   6.897  17.165  1.00  0.00     0.173 A 
ATOM     72  C   UNL     1       4.798   8.547  15.468  1.00  0.00     0.173 A 
ATOM     73  F   UNL     1       4.765   5.938  17.995  1.00  0.00    -0.203 F 
ATOM     74  C   UNL     1       6.542   7.268  17.208  1.00  0.00     0.198 A 
ATOM     75  C   UNL     1       6.146   8.897  15.492  1.00  0.00     0.198 A 
ATOM     76  F   UNL     1       3.978   9.185  14.621  1.00  0.00    -0.203 F 
ATOM     77  F   UNL     1       7.371   6.673  18.077  1.00  0.00    -0.200 F 
ATOM     78  C   UNL     1       7.015   8.264  16.369  1.00  0.00     0.200 A 
ATOM     79  F   UNL     1       6.604   9.850  14.668  1.00  0.00    -0.200 F 
ATOM     80  F   UNL     1       8.306   8.619  16.409  1.00  0.00    -0.200 F 
ENDBRANCH  46  70
BRANCH  58  81
ATOM     81  C   UNL     1      -0.846   8.073  20.969  1.00  0.00     0.064 A 
ATOM     82  C   UNL     1      -0.729   9.439  21.265  1.00  0.00     0.173 A 
ATOM     83  C   UNL     1      -1.026   7.182  22.038  1.00  0.00     0.173 A 
ATOM     84  F   UNL     1      -0.541  10.330  20.280  1.00  0.00    -0.203 F 
ATOM     85  C   UNL     1      -0.756   9.890  22.582  1.00  0.00     0.198 A 
ATOM     86  C   UNL     1      -1.085   7.640  23.351  1.00  0.00     0.198 A 
ATOM     87  F   UNL     1      -1.151   5.866  21.809  1.00  0.00    -0.203 F 
ATOM     88  F   UNL     1      -0.586  11.193  22.846  1.00  0.00    -0.200 F 
ATOM     89  C   UNL     1      -0.941   8.992  23.623  1.00  0.00     0.200 A 
ATOM     90  F   UNL     1      -1.278   6.772  24.354  1.00  0.00    -0.200 F 
ATOM     91  F   UNL     1      -0.970   9.428  24.890  1.00  0.00    -0.200 F 
ENDBRANCH  58  81
ENDBRANCH  32  33
ENDBRANCH  24  27
ENDBRANCH  22  23
ENDBRANCH   1  22
TORSDOF 12
