REMARK SMILES Cc1c(Cl)cc2c(c1C)O[C@@H](C(F)(F)F)C(C(=O)NCCCCNC(=O)c1ccc(-c3c4nc(c(-c5c(F)c(F)c(F)c(F)c5F)c5ccc([nH]5)c(-c5c(F)c(F)c(F)c(F)c5F)c5nc(c(-c6c(F)c(F)c(F)c(F)c6F)c6ccc3[nH]6)C=C5)C=C4)cc1)=C2
REMARK SMILES IDX 22 1 21 2 20 3 19 4 17 5 18 6 16 8 1 9 2 10 3 11 8 12 4 13
REMARK SMILES IDX 5 14 7 15 9 16 6 17 10 18 90 19 11 20 12 21 13 22 14 23
REMARK SMILES IDX 15 24 23 25 24 26 25 27 26 29 27 30 28 31 89 32 29 33 88 34
REMARK SMILES IDX 30 35 31 36 32 37 82 38 33 39 87 40 81 41 83 42 34 43 86 44
REMARK SMILES IDX 80 45 79 46 35 48 67 49 47 50 66 51 48 52 51 53 65 54 84 55
REMARK SMILES IDX 49 56 50 57 64 59 85 60 52 61 36 62 37 63 45 64 38 65 39 66
REMARK SMILES IDX 43 67 46 68 40 69 41 70 44 71 42 72 68 73 69 74 77 75 70 76
REMARK SMILES IDX 71 77 75 78 78 79 72 80 73 81 76 82 74 83 53 84 54 85 62 86
REMARK SMILES IDX 55 87 56 88 60 89 63 90 57 91 58 92 61 93 59 94
REMARK H PARENT 19 7 24 28 83 47 51 58
REMARK Flexibility Score: inf
ROOT
ATOM      1  C   UNL     1      -1.416  -3.523  10.197  1.00  0.00     0.023 C 
ENDROOT
BRANCH   1   2
ATOM      2  C   UNL     1      -1.092  -3.370   8.713  1.00  0.00     0.023 C 
BRANCH   2   3
ATOM      3  C   UNL     1      -2.134  -2.584   7.919  1.00  0.00     0.116 C 
BRANCH   3   4
ATOM      4  N   UNL     1      -1.883  -1.157   7.981  1.00  0.00    -0.352 N 
ATOM      5  C   UNL     1      -1.459  -0.191   7.136  1.00  0.00     0.251 C 
ATOM      6  O   UNL     1      -1.446   0.947   7.620  1.00  0.00    -0.270 OA
ATOM      7  H   UNL     1      -2.070  -0.797   8.877  1.00  0.00     0.163 HD
BRANCH   5   8
ATOM      8  C   UNL     1      -1.022  -0.391   5.724  1.00  0.00     0.067 C 
ATOM      9  C   UNL     1       1.121   0.302  -0.415  1.00  0.00     0.046 C 
ATOM     10  C   UNL     1       0.592   0.417   0.992  1.00  0.00    -0.026 A 
ATOM     11  C   UNL     1       0.530   1.667   1.645  1.00  0.00     0.045 A 
ATOM     12  C   UNL     1       0.204  -0.740   1.709  1.00  0.00    -0.004 A 
ATOM     13  Cl  UNL     1       1.072   3.127   0.890  1.00  0.00    -0.084 Cl
ATOM     14  C   UNL     1       0.038   1.782   2.950  1.00  0.00     0.032 A 
ATOM     15  C   UNL     1      -0.291  -0.596   3.018  1.00  0.00     0.131 A 
ATOM     16  C   UNL     1       0.285  -2.131   1.129  1.00  0.00     0.049 C 
ATOM     17  C   UNL     1      -0.382   0.650   3.639  1.00  0.00     0.019 A 
ATOM     18  O   UNL     1      -0.719  -1.730   3.659  1.00  0.00    -0.475 OA
ATOM     19  C   UNL     1      -0.909   0.738   4.997  1.00  0.00     0.025 C 
ATOM     20  C   UNL     1      -0.613  -1.701   5.108  1.00  0.00     0.314 C 
BRANCH  20  21
ATOM     21  C   UNL     1       0.782  -2.174   5.537  1.00  0.00     0.429 C 
ATOM     22  F   UNL     1       1.777  -1.420   5.021  1.00  0.00    -0.167 F 
ATOM     23  F   UNL     1       0.930  -2.160   6.879  1.00  0.00    -0.167 F 
ATOM     24  F   UNL     1       0.993  -3.454   5.138  1.00  0.00    -0.167 F 
ENDBRANCH  20  21
ENDBRANCH   5   8
ENDBRANCH   3   4
ENDBRANCH   2   3
ENDBRANCH   1   2
BRANCH   1  25
ATOM     25  C   UNL     1      -2.738  -4.212  10.503  1.00  0.00     0.116 C 
BRANCH  25  26
ATOM     26  N   UNL     1      -2.900  -5.497   9.837  1.00  0.00    -0.352 N 
ATOM     27  C   UNL     1      -3.440  -6.660  10.341  1.00  0.00     0.251 C 
ATOM     28  H   UNL     1      -2.581  -5.540   8.907  1.00  0.00     0.163 HD
ATOM     29  O   UNL     1      -3.447  -7.688   9.692  1.00  0.00    -0.269 OA
BRANCH  27  30
ATOM     30  C   UNL     1      -3.971  -6.635  11.719  1.00  0.00     0.039 A 
ATOM     31  C   UNL     1      -3.465  -7.543  12.649  1.00  0.00     0.014 A 
ATOM     32  C   UNL     1      -4.883  -5.647  12.100  1.00  0.00     0.014 A 
ATOM     33  C   UNL     1      -3.813  -7.406  13.992  1.00  0.00     0.010 A 
ATOM     34  C   UNL     1      -5.165  -5.464  13.446  1.00  0.00     0.010 A 
ATOM     35  C   UNL     1      -4.629  -6.339  14.404  1.00  0.00    -0.014 A 
BRANCH  35  36
ATOM     36  C   UNL     1      -4.946  -6.126  15.835  1.00  0.00     0.031 A 
ATOM     37  C   UNL     1      -6.364  -6.256  16.308  1.00  0.00     0.074 A 
ATOM     38  C   UNL     1      -3.972  -5.755  16.689  1.00  0.00     0.049 A 
ATOM     39  N   UNL     1      -6.862  -6.040  17.498  1.00  0.00    -0.248 NA
ATOM     40  C   UNL     1      -7.362  -6.652  15.301  1.00  0.00     0.031 C 
ATOM     41  C   UNL     1      -2.568  -5.546  16.334  1.00  0.00     0.029 A 
ATOM     42  N   UNL     1      -4.018  -5.488  18.034  1.00  0.00    -0.354 N 
ATOM     43  C   UNL     1      -8.227  -6.255  17.376  1.00  0.00     0.074 A 
ATOM     44  C   UNL     1      -8.490  -6.563  15.988  1.00  0.00     0.031 C 
ATOM     45  C   UNL     1      -1.878  -5.222  17.440  1.00  0.00     0.029 A 
ATOM     46  C   UNL     1      -2.796  -5.171  18.574  1.00  0.00     0.049 A 
ATOM     47  H   UNL     1      -4.848  -5.521  18.561  1.00  0.00     0.167 HD
ATOM     48  C   UNL     1      -9.173  -6.229  18.343  1.00  0.00     0.037 A 
ATOM     49  C   UNL     1      -2.458  -4.881  19.845  1.00  0.00     0.037 A 
ATOM     50  C   UNL     1      -8.902  -5.968  19.730  1.00  0.00     0.049 A 
ATOM     51  C   UNL     1      -3.524  -4.878  20.905  1.00  0.00     0.074 A 
ATOM     52  C   UNL     1      -9.781  -5.974  20.797  1.00  0.00     0.029 A 
ATOM     53  N   UNL     1      -7.648  -5.667  20.241  1.00  0.00    -0.354 N 
ATOM     54  N   UNL     1      -4.805  -5.127  20.787  1.00  0.00    -0.248 NA
ATOM     55  C   UNL     1      -3.098  -4.555  22.274  1.00  0.00     0.031 C 
ATOM     56  C   UNL     1      -9.063  -5.654  21.953  1.00  0.00     0.029 A 
ATOM     57  C   UNL     1      -7.732  -5.479  21.610  1.00  0.00     0.049 A 
ATOM     58  H   UNL     1      -6.822  -5.598  19.710  1.00  0.00     0.167 HD
ATOM     59  C   UNL     1      -5.336  -5.010  22.063  1.00  0.00     0.074 A 
ATOM     60  C   UNL     1      -4.235  -4.679  22.945  1.00  0.00     0.031 C 
ATOM     61  C   UNL     1      -6.620  -5.160  22.468  1.00  0.00     0.037 A 
BRANCH  48  62
ATOM     62  C   UNL     1     -10.585  -6.517  17.932  1.00  0.00     0.064 A 
ATOM     63  C   UNL     1     -10.990  -7.812  17.575  1.00  0.00     0.173 A 
ATOM     64  C   UNL     1     -11.547  -5.498  17.918  1.00  0.00     0.173 A 
ATOM     65  F   UNL     1     -10.100  -8.816  17.557  1.00  0.00    -0.203 F 
ATOM     66  C   UNL     1     -12.303  -8.071  17.194  1.00  0.00     0.198 A 
ATOM     67  C   UNL     1     -12.866  -5.766  17.561  1.00  0.00     0.198 A 
ATOM     68  F   UNL     1     -11.210  -4.243  18.252  1.00  0.00    -0.203 F 
ATOM     69  F   UNL     1     -12.656  -9.306  16.813  1.00  0.00    -0.200 F 
ATOM     70  C   UNL     1     -13.241  -7.050  17.194  1.00  0.00     0.200 A 
ATOM     71  F   UNL     1     -13.775  -4.781  17.568  1.00  0.00    -0.200 F 
ATOM     72  F   UNL     1     -14.506  -7.303  16.831  1.00  0.00    -0.200 F 
ENDBRANCH  48  62
BRANCH  49  73
ATOM     73  C   UNL     1      -1.037  -4.625  20.190  1.00  0.00     0.064 A 
ATOM     74  C   UNL     1      -0.292  -5.585  20.890  1.00  0.00     0.173 A 
ATOM     75  C   UNL     1      -0.391  -3.439  19.817  1.00  0.00     0.173 A 
ATOM     76  F   UNL     1      -0.875  -6.727  21.283  1.00  0.00    -0.203 F 
ATOM     77  C   UNL     1       1.045  -5.363  21.213  1.00  0.00     0.198 A 
ATOM     78  C   UNL     1       0.952  -3.226  20.124  1.00  0.00     0.198 A 
ATOM     79  F   UNL     1      -1.060  -2.493  19.142  1.00  0.00    -0.203 F 
ATOM     80  F   UNL     1       1.726  -6.284  21.908  1.00  0.00    -0.200 F 
ATOM     81  C   UNL     1       1.667  -4.186  20.825  1.00  0.00     0.200 A 
ATOM     82  F   UNL     1       1.554  -2.093  19.738  1.00  0.00    -0.200 F 
ATOM     83  F   UNL     1       2.955  -3.975  21.130  1.00  0.00    -0.200 F 
ENDBRANCH  49  73
BRANCH  61  84
ATOM     84  C   UNL     1      -6.910  -4.986  23.927  1.00  0.00     0.064 A 
ATOM     85  C   UNL     1      -6.974  -3.712  24.508  1.00  0.00     0.173 A 
ATOM     86  C   UNL     1      -7.206  -6.097  24.729  1.00  0.00     0.173 A 
ATOM     87  F   UNL     1      -6.686  -2.623  23.780  1.00  0.00    -0.203 F 
ATOM     88  C   UNL     1      -7.322  -3.557  25.846  1.00  0.00     0.198 A 
ATOM     89  C   UNL     1      -7.573  -5.936  26.062  1.00  0.00     0.198 A 
ATOM     90  F   UNL     1      -7.163  -7.334  24.213  1.00  0.00    -0.203 F 
ATOM     91  F   UNL     1      -7.358  -2.332  26.390  1.00  0.00    -0.200 F 
ATOM     92  C   UNL     1      -7.630  -4.667  26.619  1.00  0.00     0.200 A 
ATOM     93  F   UNL     1      -7.882  -7.008  26.804  1.00  0.00    -0.200 F 
ATOM     94  F   UNL     1      -7.980  -4.514  27.903  1.00  0.00    -0.200 F 
ENDBRANCH  61  84
ENDBRANCH  35  36
ENDBRANCH  27  30
ENDBRANCH  25  26
ENDBRANCH   1  25
TORSDOF 12
