REMARK SMILES CC(C)(C)N(CC(=O)NCCCCNC(=O)c1ccc(-c2c3nc(c(-c4c(F)c(F)c(F)c(F)c4F)c4ccc([nH]4)c(-c4c(F)c(F)c(F)c(F)c4F)c4nc(c(-c5c(F)c(F)c(F)c(F)c5F)c5ccc2[nH]5)C=C4)C=C3)cc1)C(=O)N1CC[C@H](C[NH3+])C1
REMARK SMILES IDX 10 1 9 2 7 3 8 4 6 6 5 7 2 8 1 9 3 10 4 11 80 12 81 13 82 14
REMARK SMILES IDX 83 15 88 16 84 17 85 18 86 19 87 20 11 24 12 25 13 26 14 27
REMARK SMILES IDX 15 28 16 30 17 31 18 32 79 33 19 34 78 35 20 36 21 37 22 38
REMARK SMILES IDX 72 39 23 40 77 41 71 42 73 43 24 44 76 45 70 46 69 47 25 49
REMARK SMILES IDX 57 50 37 51 56 52 38 53 41 54 55 55 74 56 39 57 40 58 54 60
REMARK SMILES IDX 75 61 42 62 26 63 27 64 35 65 28 66 29 67 33 68 36 69 30 70
REMARK SMILES IDX 31 71 34 72 32 73 58 74 59 75 67 76 60 77 61 78 65 79 68 80
REMARK SMILES IDX 62 81 63 82 66 83 64 84 43 85 44 86 52 87 45 88 46 89 50 90
REMARK SMILES IDX 53 91 47 92 48 93 51 94 49 95
REMARK H PARENT 9 5 87 21 87 22 87 23 14 29 73 48 41 59
REMARK Flexibility Score: inf
ROOT
ATOM      1  C   UNL     1       3.779  -0.786  -1.585  1.00  0.00     0.116 C 
ENDROOT
BRANCH   1   2
ATOM      2  N   UNL     1       4.105   0.541  -2.039  1.00  0.00    -0.355 N 
ATOM      3  C   UNL     1       3.311   1.644  -2.129  1.00  0.00     0.239 C 
ATOM      4  O   UNL     1       3.897   2.731  -2.223  1.00  0.00    -0.273 OA
ATOM      5  H   UNL     1       5.038   0.670  -2.327  1.00  0.00     0.163 HD
BRANCH   3   6
ATOM      6  C   UNL     1       1.772   1.614  -1.999  1.00  0.00     0.221 C 
BRANCH   6   7
ATOM      7  N   UNL     1       0.990   0.450  -2.467  1.00  0.00    -0.311 N 
BRANCH   7   8
ATOM      8  C   UNL     1       0.138  -0.332  -1.471  1.00  0.00     0.037 C 
ATOM      9  C   UNL     1       0.421  -0.010   0.025  1.00  0.00     0.034 C 
ATOM     10  C   UNL     1       0.317  -1.863  -1.619  1.00  0.00     0.034 C 
ATOM     11  C   UNL     1      -1.360   0.015  -1.671  1.00  0.00     0.034 C 
ENDBRANCH   7   8
BRANCH   7  12
ATOM     12  C   UNL     1       0.677   0.301  -3.836  1.00  0.00     0.320 C 
ATOM     13  O   UNL     1      -0.054  -0.596  -4.256  1.00  0.00    -0.248 OA
BRANCH  12  14
ATOM     14  N   UNL     1       1.035   1.324  -4.688  1.00  0.00    -0.324 N 
ATOM     15  C   UNL     1       2.368   1.594  -5.188  1.00  0.00     0.122 C 
ATOM     16  C   UNL     1       0.083   1.756  -5.705  1.00  0.00     0.130 C 
ATOM     17  C   UNL     1       2.187   2.939  -5.866  1.00  0.00     0.033 C 
ATOM     18  C   UNL     1       0.843   2.763  -6.588  1.00  0.00     0.065 C 
BRANCH  18  19
ATOM     19  C   UNL     1       0.053   4.055  -6.793  1.00  0.00     0.264 C 
BRANCH  19  20
ATOM     20  N   UNL     1       0.802   5.035  -7.573  1.00  0.00    -0.357 N 
ATOM     21  H   UNL     1       1.659   5.280  -7.077  1.00  0.00     0.344 HD
ATOM     22  H   UNL     1       0.233   5.872  -7.703  1.00  0.00     0.344 HD
ATOM     23  H   UNL     1       1.036   4.638  -8.482  1.00  0.00     0.344 HD
ENDBRANCH  19  20
ENDBRANCH  18  19
ENDBRANCH  12  14
ENDBRANCH   7  12
ENDBRANCH   6   7
ENDBRANCH   3   6
ENDBRANCH   1   2
BRANCH   1  24
ATOM     24  C   UNL     1       3.643  -1.815  -2.702  1.00  0.00     0.023 C 
BRANCH  24  25
ATOM     25  C   UNL     1       4.951  -2.257  -3.352  1.00  0.00     0.023 C 
BRANCH  25  26
ATOM     26  C   UNL     1       6.058  -2.680  -2.393  1.00  0.00     0.116 C 
BRANCH  26  27
ATOM     27  N   UNL     1       5.657  -3.673  -1.406  1.00  0.00    -0.352 N 
ATOM     28  C   UNL     1       6.396  -4.708  -0.870  1.00  0.00     0.251 C 
ATOM     29  H   UNL     1       4.733  -3.596  -1.077  1.00  0.00     0.163 HD
ATOM     30  O   UNL     1       5.900  -5.480  -0.071  1.00  0.00    -0.269 OA
BRANCH  28  31
ATOM     31  C   UNL     1       7.790  -4.901  -1.326  1.00  0.00     0.039 A 
ATOM     32  C   UNL     1       8.179  -6.167  -1.770  1.00  0.00     0.014 A 
ATOM     33  C   UNL     1       8.680  -3.826  -1.383  1.00  0.00     0.014 A 
ATOM     34  C   UNL     1       9.432  -6.334  -2.362  1.00  0.00     0.010 A 
ATOM     35  C   UNL     1       9.893  -3.975  -2.045  1.00  0.00     0.010 A 
ATOM     36  C   UNL     1      10.276  -5.228  -2.551  1.00  0.00    -0.014 A 
BRANCH  36  37
ATOM     37  C   UNL     1      11.557  -5.349  -3.290  1.00  0.00     0.031 A 
ATOM     38  C   UNL     1      12.856  -5.063  -2.594  1.00  0.00     0.074 A 
ATOM     39  C   UNL     1      11.543  -5.622  -4.609  1.00  0.00     0.049 A 
ATOM     40  N   UNL     1      14.068  -5.010  -3.087  1.00  0.00    -0.248 NA
ATOM     41  C   UNL     1      12.779  -4.758  -1.156  1.00  0.00     0.031 C 
ATOM     42  C   UNL     1      10.341  -5.856  -5.413  1.00  0.00     0.029 A 
ATOM     43  N   UNL     1      12.571  -5.733  -5.511  1.00  0.00    -0.354 N 
ATOM     44  C   UNL     1      14.888  -4.643  -2.030  1.00  0.00     0.074 A 
ATOM     45  C   UNL     1      14.034  -4.435  -0.881  1.00  0.00     0.031 C 
ATOM     46  C   UNL     1      10.703  -6.103  -6.682  1.00  0.00     0.029 A 
ATOM     47  C   UNL     1      12.155  -6.011  -6.790  1.00  0.00     0.049 A 
ATOM     48  H   UNL     1      13.518  -5.624  -5.264  1.00  0.00     0.167 HD
ATOM     49  C   UNL     1      16.236  -4.513  -2.013  1.00  0.00     0.037 A 
ATOM     50  C   UNL     1      12.866  -6.170  -7.923  1.00  0.00     0.037 A 
ATOM     51  C   UNL     1      17.086  -4.760  -3.147  1.00  0.00     0.049 A 
ATOM     52  C   UNL     1      14.364  -6.051  -7.872  1.00  0.00     0.074 A 
ATOM     53  C   UNL     1      18.468  -4.734  -3.212  1.00  0.00     0.029 A 
ATOM     54  N   UNL     1      16.631  -5.082  -4.417  1.00  0.00    -0.354 N 
ATOM     55  N   UNL     1      15.137  -5.774  -6.850  1.00  0.00    -0.248 NA
ATOM     56  C   UNL     1      15.089  -6.272  -9.131  1.00  0.00     0.031 C 
ATOM     57  C   UNL     1      18.848  -5.005  -4.531  1.00  0.00     0.029 A 
ATOM     58  C   UNL     1      17.705  -5.241  -5.278  1.00  0.00     0.049 A 
ATOM     59  H   UNL     1      15.685  -5.183  -4.670  1.00  0.00     0.167 HD
ATOM     60  C   UNL     1      16.438  -5.812  -7.334  1.00  0.00     0.074 A 
ATOM     61  C   UNL     1      16.350  -6.151  -8.739  1.00  0.00     0.031 C 
ATOM     62  C   UNL     1      17.599  -5.585  -6.673  1.00  0.00     0.037 A 
BRANCH  49  63
ATOM     63  C   UNL     1      16.872  -4.090  -0.721  1.00  0.00     0.064 A 
ATOM     64  C   UNL     1      16.913  -4.944   0.392  1.00  0.00     0.173 A 
ATOM     65  C   UNL     1      17.462  -2.824  -0.599  1.00  0.00     0.173 A 
ATOM     66  F   UNL     1      16.351  -6.161   0.331  1.00  0.00    -0.203 F 
ATOM     67  C   UNL     1      17.489  -4.532   1.590  1.00  0.00     0.198 A 
ATOM     68  C   UNL     1      18.064  -2.426   0.592  1.00  0.00     0.198 A 
ATOM     69  F   UNL     1      17.454  -1.970  -1.634  1.00  0.00    -0.203 F 
ATOM     70  F   UNL     1      17.466  -5.343   2.657  1.00  0.00    -0.200 F 
ATOM     71  C   UNL     1      18.069  -3.276   1.688  1.00  0.00     0.200 A 
ATOM     72  F   UNL     1      18.634  -1.216   0.682  1.00  0.00    -0.200 F 
ATOM     73  F   UNL     1      18.625  -2.881   2.842  1.00  0.00    -0.200 F 
ENDBRANCH  49  63
BRANCH  50  74
ATOM     74  C   UNL     1      12.169  -6.494  -9.193  1.00  0.00     0.064 A 
ATOM     75  C   UNL     1      12.264  -7.774  -9.755  1.00  0.00     0.173 A 
ATOM     76  C   UNL     1      11.388  -5.542  -9.863  1.00  0.00     0.173 A 
ATOM     77  F   UNL     1      13.017  -8.712  -9.160  1.00  0.00    -0.203 F 
ATOM     78  C   UNL     1      11.617  -8.087 -10.949  1.00  0.00     0.198 A 
ATOM     79  C   UNL     1      10.721  -5.863 -11.044  1.00  0.00     0.198 A 
ATOM     80  F   UNL     1      11.261  -4.305  -9.363  1.00  0.00    -0.203 F 
ATOM     81  F   UNL     1      11.755  -9.307 -11.484  1.00  0.00    -0.200 F 
ATOM     82  C   UNL     1      10.841  -7.133 -11.589  1.00  0.00     0.200 A 
ATOM     83  F   UNL     1       9.962  -4.942 -11.654  1.00  0.00    -0.200 F 
ATOM     84  F   UNL     1      10.213  -7.435 -12.734  1.00  0.00    -0.200 F 
ENDBRANCH  50  74
BRANCH  62  85
ATOM     85  C   UNL     1      18.872  -5.725  -7.454  1.00  0.00     0.064 A 
ATOM     86  C   UNL     1      19.264  -4.763  -8.396  1.00  0.00     0.173 A 
ATOM     87  C   UNL     1      19.729  -6.811  -7.224  1.00  0.00     0.173 A 
ATOM     88  F   UNL     1      18.470  -3.715  -8.661  1.00  0.00    -0.203 F 
ATOM     89  C   UNL     1      20.461  -4.894  -9.094  1.00  0.00     0.198 A 
ATOM     90  C   UNL     1      20.937  -6.926  -7.905  1.00  0.00     0.198 A 
ATOM     91  F   UNL     1      19.400  -7.755  -6.330  1.00  0.00    -0.203 F 
ATOM     92  F   UNL     1      20.798  -3.985 -10.019  1.00  0.00    -0.200 F 
ATOM     93  C   UNL     1      21.299  -5.971  -8.843  1.00  0.00     0.200 A 
ATOM     94  F   UNL     1      21.751  -7.960  -7.654  1.00  0.00    -0.200 F 
ATOM     95  F   UNL     1      22.455  -6.091  -9.511  1.00  0.00    -0.200 F 
ENDBRANCH  62  85
ENDBRANCH  36  37
ENDBRANCH  28  31
ENDBRANCH  26  27
ENDBRANCH  25  26
ENDBRANCH  24  25
ENDBRANCH   1  24
TORSDOF 17
