REMARK SMILES Cc1cc(C)c(NC(=O)C[C@H](C(=O)NCCCCNC(=O)c2ccc(-c3c4nc(c(-c5c(F)c(F)c(F)c(F)c5F)c5ccc([nH]5)c(-c5c(F)c(F)c(F)c(F)c5F)c5nc(c(-c6c(F)c(F)c(F)c(F)c6F)c6ccc3[nH]6)C=C5)C=C4)cc2)[NH+]2CC[NH+](C)CC2)c(C)c1
REMARK SMILES IDX 16 1 15 2 14 3 12 4 13 5 11 7 10 8 8 9 7 10 9 12 6 13 1 14
REMARK SMILES IDX 2 15 3 16 94 17 4 18 92 19 5 20 93 21 85 22 86 23 91 24
REMARK SMILES IDX 87 26 90 27 88 28 89 29 17 31 18 32 19 33 20 34 21 36 22 37
REMARK SMILES IDX 23 38 84 39 24 40 83 41 25 42 26 43 27 44 77 45 28 46 82 47
REMARK SMILES IDX 76 48 78 49 29 50 81 51 75 52 74 53 30 55 62 56 42 57 61 58
REMARK SMILES IDX 43 59 46 60 60 61 79 62 44 63 45 64 59 66 80 67 47 68 31 69
REMARK SMILES IDX 32 70 40 71 33 72 34 73 38 74 41 75 35 76 36 77 39 78 37 79
REMARK SMILES IDX 63 80 64 81 72 82 65 83 66 84 70 85 73 86 67 87 68 88 71 89
REMARK SMILES IDX 69 90 48 91 49 92 57 93 50 94 51 95 55 96 58 97 52 98 53 99
REMARK SMILES IDX 56 100 54 101
REMARK H PARENT 14 6 7 11 85 25 88 30 19 35 78 54 46 65
REMARK Flexibility Score: inf
ROOT
ATOM      1  C   UNL     1      -1.245  -2.785  -0.227  1.00  0.00     0.023 C 
ENDROOT
BRANCH   1   2
ATOM      2  C   UNL     1      -1.615  -1.307  -0.314  1.00  0.00     0.116 C 
BRANCH   2   3
ATOM      3  N   UNL     1      -3.006  -1.046   0.019  1.00  0.00    -0.351 N 
ATOM      4  C   UNL     1      -3.708  -0.189   0.804  1.00  0.00     0.278 C 
ATOM      5  O   UNL     1      -4.934  -0.306   0.623  1.00  0.00    -0.268 OA
ATOM      6  H   UNL     1      -3.607  -1.664  -0.457  1.00  0.00     0.163 HD
BRANCH   4   7
ATOM      7  C   UNL     1      -3.185   0.767   1.942  1.00  0.00     0.283 C 
BRANCH   7   8
ATOM      8  C   UNL     1      -1.703   0.729   2.322  1.00  0.00     0.175 C 
BRANCH   8   9
ATOM      9  C   UNL     1      -0.663   1.855   2.284  1.00  0.00     0.230 C 
ATOM     10  N   UNL     1      -0.631   3.042   1.641  1.00  0.00    -0.325 N 
ATOM     11  H   UNL     1       0.104   3.603   1.979  1.00  0.00     0.169 HD
ATOM     12  O   UNL     1       0.318   1.687   3.038  1.00  0.00    -0.274 OA
BRANCH  10  13
ATOM     13  C   UNL     1      -1.343   3.712   0.628  1.00  0.00     0.047 A 
ATOM     14  C   UNL     1      -3.862   5.911  -2.128  1.00  0.00     0.044 C 
ATOM     15  C   UNL     1      -2.916   5.187  -1.219  1.00  0.00    -0.050 A 
ATOM     16  C   UNL     1      -2.658   3.833  -1.415  1.00  0.00     0.009 A 
ATOM     17  C   UNL     1      -2.290   5.830  -0.154  1.00  0.00     0.009 A 
ATOM     18  C   UNL     1      -1.838   3.105  -0.530  1.00  0.00    -0.027 A 
ATOM     19  C   UNL     1      -1.480   5.118   0.751  1.00  0.00    -0.027 A 
ATOM     20  C   UNL     1      -1.385   1.774  -1.021  1.00  0.00     0.046 C 
ATOM     21  C   UNL     1      -0.813   5.902   1.855  1.00  0.00     0.046 C 
ENDBRANCH  10  13
ENDBRANCH   8   9
ENDBRANCH   7   8
BRANCH   7  22
ATOM     22  N   UNL     1      -3.739   2.152   1.951  1.00  0.00    -0.315 N 
ATOM     23  C   UNL     1      -3.771   2.717   3.321  1.00  0.00     0.325 C 
ATOM     24  C   UNL     1      -5.076   2.355   1.365  1.00  0.00     0.325 C 
ATOM     25  H   UNL     1      -3.082   2.634   1.337  1.00  0.00     0.349 HD
ATOM     26  C   UNL     1      -4.105   4.223   3.307  1.00  0.00     0.324 C 
ATOM     27  C   UNL     1      -5.516   3.848   1.382  1.00  0.00     0.324 C 
ATOM     28  N   UNL     1      -5.370   4.583   2.653  1.00  0.00    -0.328 N 
ATOM     29  C   UNL     1      -6.510   4.401   3.537  1.00  0.00     0.333 C 
ATOM     30  H   UNL     1      -5.345   5.579   2.432  1.00  0.00     0.348 HD
ENDBRANCH   7  22
ENDBRANCH   4   7
ENDBRANCH   2   3
ENDBRANCH   1   2
BRANCH   1  31
ATOM     31  C   UNL     1      -1.383  -3.550  -1.546  1.00  0.00     0.023 C 
BRANCH  31  32
ATOM     32  C   UNL     1      -0.604  -2.988  -2.737  1.00  0.00     0.116 C 
BRANCH  32  33
ATOM     33  N   UNL     1       0.813  -2.775  -2.478  1.00  0.00    -0.352 N 
ATOM     34  C   UNL     1       1.882  -3.025  -3.307  1.00  0.00     0.251 C 
ATOM     35  H   UNL     1       1.036  -2.403  -1.594  1.00  0.00     0.163 HD
ATOM     36  O   UNL     1       3.034  -2.850  -2.922  1.00  0.00    -0.269 OA
BRANCH  34  37
ATOM     37  C   UNL     1       1.628  -3.556  -4.661  1.00  0.00     0.039 A 
ATOM     38  C   UNL     1       2.241  -4.751  -5.042  1.00  0.00     0.014 A 
ATOM     39  C   UNL     1       0.727  -2.914  -5.514  1.00  0.00     0.014 A 
ATOM     40  C   UNL     1       1.880  -5.354  -6.247  1.00  0.00     0.010 A 
ATOM     41  C   UNL     1       0.319  -3.550  -6.682  1.00  0.00     0.010 A 
ATOM     42  C   UNL     1       0.881  -4.783  -7.052  1.00  0.00    -0.014 A 
BRANCH  42  43
ATOM     43  C   UNL     1       0.390  -5.471  -8.273  1.00  0.00     0.031 A 
ATOM     44  C   UNL     1       0.586  -4.841  -9.623  1.00  0.00     0.074 A 
ATOM     45  C   UNL     1      -0.306  -6.619  -8.157  1.00  0.00     0.049 A 
ATOM     46  N   UNL     1       0.155  -5.239 -10.793  1.00  0.00    -0.248 NA
ATOM     47  C   UNL     1       1.339  -3.577  -9.659  1.00  0.00     0.031 C 
ATOM     48  C   UNL     1      -0.613  -7.302  -6.898  1.00  0.00     0.029 A 
ATOM     49  N   UNL     1      -0.895  -7.411  -9.112  1.00  0.00    -0.354 N 
ATOM     50  C   UNL     1       0.560  -4.266 -11.695  1.00  0.00     0.074 A 
ATOM     51  C   UNL     1       1.236  -3.237 -10.936  1.00  0.00     0.031 C 
ATOM     52  C   UNL     1      -1.311  -8.419  -7.160  1.00  0.00     0.029 A 
ATOM     53  C   UNL     1      -1.533  -8.515  -8.599  1.00  0.00     0.049 A 
ATOM     54  H   UNL     1      -0.864  -7.206 -10.075  1.00  0.00     0.167 HD
ATOM     55  C   UNL     1       0.400  -4.244 -13.040  1.00  0.00     0.037 A 
ATOM     56  C   UNL     1      -2.221  -9.491  -9.221  1.00  0.00     0.037 A 
ATOM     57  C   UNL     1      -0.225  -5.294 -13.799  1.00  0.00     0.049 A 
ATOM     58  C   UNL     1      -2.361  -9.450 -10.720  1.00  0.00     0.074 A 
ATOM     59  C   UNL     1      -0.348  -5.408 -15.172  1.00  0.00     0.029 A 
ATOM     60  N   UNL     1      -0.828  -6.414 -13.247  1.00  0.00    -0.354 N 
ATOM     61  N   UNL     1      -1.897  -8.568 -11.571  1.00  0.00    -0.248 NA
ATOM     62  C   UNL     1      -3.119 -10.544 -11.344  1.00  0.00     0.031 C 
ATOM     63  C   UNL     1      -1.062  -6.579 -15.451  1.00  0.00     0.029 A 
ATOM     64  C   UNL     1      -1.345  -7.214 -14.253  1.00  0.00     0.049 A 
ATOM     65  H   UNL     1      -0.881  -6.611 -12.284  1.00  0.00     0.167 HD
ATOM     66  C   UNL     1      -2.273  -9.018 -12.829  1.00  0.00     0.074 A 
ATOM     67  C   UNL     1      -2.996 -10.257 -12.632  1.00  0.00     0.031 C 
ATOM     68  C   UNL     1      -2.042  -8.455 -14.039  1.00  0.00     0.037 A 
BRANCH  55  69
ATOM     69  C   UNL     1       0.918  -3.050 -13.785  1.00  0.00     0.064 A 
ATOM     70  C   UNL     1       2.292  -2.832 -13.961  1.00  0.00     0.173 A 
ATOM     71  C   UNL     1       0.027  -2.143 -14.378  1.00  0.00     0.173 A 
ATOM     72  F   UNL     1       3.184  -3.665 -13.403  1.00  0.00    -0.203 F 
ATOM     73  C   UNL     1       2.756  -1.738 -14.686  1.00  0.00     0.198 A 
ATOM     74  C   UNL     1       0.494  -1.065 -15.125  1.00  0.00     0.198 A 
ATOM     75  F   UNL     1      -1.297  -2.310 -14.243  1.00  0.00    -0.203 F 
ATOM     76  F   UNL     1       4.074  -1.529 -14.809  1.00  0.00    -0.200 F 
ATOM     77  C   UNL     1       1.857  -0.861 -15.275  1.00  0.00     0.200 A 
ATOM     78  F   UNL     1      -0.376  -0.225 -15.703  1.00  0.00    -0.200 F 
ATOM     79  F   UNL     1       2.306   0.184 -15.983  1.00  0.00    -0.200 F 
ENDBRANCH  55  69
BRANCH  56  80
ATOM     80  C   UNL     1      -2.809 -10.611  -8.441  1.00  0.00     0.064 A 
ATOM     81  C   UNL     1      -2.292 -11.909  -8.552  1.00  0.00     0.173 A 
ATOM     82  C   UNL     1      -3.914 -10.419  -7.599  1.00  0.00     0.173 A 
ATOM     83  F   UNL     1      -1.250 -12.147  -9.363  1.00  0.00    -0.203 F 
ATOM     84  C   UNL     1      -2.874 -12.978  -7.874  1.00  0.00     0.198 A 
ATOM     85  C   UNL     1      -4.478 -11.484  -6.900  1.00  0.00     0.198 A 
ATOM     86  F   UNL     1      -4.444  -9.196  -7.455  1.00  0.00    -0.203 F 
ATOM     87  F   UNL     1      -2.392 -14.217  -8.041  1.00  0.00    -0.200 F 
ATOM     88  C   UNL     1      -3.965 -12.764  -7.046  1.00  0.00     0.200 A 
ATOM     89  F   UNL     1      -5.526 -11.271  -6.092  1.00  0.00    -0.200 F 
ATOM     90  F   UNL     1      -4.529 -13.792  -6.398  1.00  0.00    -0.200 F 
ENDBRANCH  56  80
BRANCH  68  91
ATOM     91  C   UNL     1      -2.532  -9.196 -15.248  1.00  0.00     0.064 A 
ATOM     92  C   UNL     1      -3.894  -9.250 -15.575  1.00  0.00     0.173 A 
ATOM     93  C   UNL     1      -1.620  -9.822 -16.112  1.00  0.00     0.173 A 
ATOM     94  F   UNL     1      -4.804  -8.681 -14.770  1.00  0.00    -0.203 F 
ATOM     95  C   UNL     1      -4.329  -9.924 -16.713  1.00  0.00     0.198 A 
ATOM     96  C   UNL     1      -2.056 -10.470 -17.263  1.00  0.00     0.198 A 
ATOM     97  F   UNL     1      -0.306  -9.792 -15.845  1.00  0.00    -0.203 F 
ATOM     98  F   UNL     1      -5.639 -10.000 -16.984  1.00  0.00    -0.200 F 
ATOM     99  C   UNL     1      -3.409 -10.526 -17.559  1.00  0.00     0.200 A 
ATOM    100  F   UNL     1      -1.166 -11.041 -18.087  1.00  0.00    -0.200 F 
ATOM    101  F   UNL     1      -3.830 -11.167 -18.659  1.00  0.00    -0.200 F 
ENDBRANCH  68  91
ENDBRANCH  42  43
ENDBRANCH  34  37
ENDBRANCH  32  33
ENDBRANCH  31  32
ENDBRANCH   1  31
TORSDOF 15
