REMARK SMILES CC[C@@H]1CCCN1C(=O)N(CC(=O)NCCCCNC(=O)c1ccc(-c2c3nc(c(-c4c(F)c(F)c(F)c(F)c4F)c4ccc([nH]4)c(-c4c(F)c(F)c(F)c(F)c4F)c4nc(c(-c5c(F)c(F)c(F)c(F)c5F)c5ccc2[nH]5)C=C4)C=C3)cc1)CC(F)(F)F
REMARK SMILES IDX 15 1 14 2 12 3 13 4 11 6 10 7 8 8 9 9 7 10 3 11 4 12 5 13
REMARK SMILES IDX 6 14 2 15 1 16 85 17 86 18 87 19 88 20 89 21 16 22 17 23
REMARK SMILES IDX 18 24 19 25 20 26 21 28 22 29 23 30 84 31 24 32 83 33 25 34
REMARK SMILES IDX 26 35 27 36 77 37 28 38 82 39 76 40 78 41 29 42 81 43 75 44
REMARK SMILES IDX 74 45 30 47 62 48 42 49 61 50 43 51 46 52 60 53 79 54 44 55
REMARK SMILES IDX 45 56 59 58 80 59 47 60 31 61 32 62 40 63 33 64 34 65 38 66
REMARK SMILES IDX 41 67 35 68 36 69 39 70 37 71 63 72 64 73 72 74 65 75 66 76
REMARK SMILES IDX 70 77 73 78 67 79 68 80 71 81 69 82 48 83 49 84 57 85 50 86
REMARK SMILES IDX 51 87 55 88 58 89 52 90 53 91 56 92 54 93
REMARK H PARENT 14 5 19 27 78 46 46 57
REMARK Flexibility Score: inf
ROOT
ATOM      1  C   UNL     1      -2.329  -1.027   0.592  1.00  0.00     0.116 C 
ENDROOT
BRANCH   1   2
ATOM      2  N   UNL     1      -2.126  -0.314  -0.646  1.00  0.00    -0.355 N 
ATOM      3  C   UNL     1      -1.200   0.622  -0.981  1.00  0.00     0.239 C 
ATOM      4  O   UNL     1      -1.243   1.059  -2.136  1.00  0.00    -0.273 OA
ATOM      5  H   UNL     1      -2.761  -0.542  -1.364  1.00  0.00     0.163 HD
BRANCH   3   6
ATOM      6  C   UNL     1      -0.006   0.968  -0.079  1.00  0.00     0.221 C 
BRANCH   6   7
ATOM      7  N   UNL     1      -0.124   1.368   1.312  1.00  0.00    -0.306 N 
BRANCH   7   8
ATOM      8  C   UNL     1       0.022   0.650   2.470  1.00  0.00     0.321 C 
ATOM      9  O   UNL     1      -0.327   1.225   3.514  1.00  0.00    -0.248 OA
BRANCH   8  10
ATOM     10  N   UNL     1       0.425  -0.667   2.568  1.00  0.00    -0.322 N 
ATOM     11  C   UNL     1       1.314  -1.669   1.892  1.00  0.00     0.086 C 
ATOM     12  C   UNL     1       0.767  -2.993   2.470  1.00  0.00     0.027 C 
ATOM     13  C   UNL     1       0.559  -2.674   3.927  1.00  0.00     0.024 C 
ATOM     14  C   UNL     1       0.105  -1.228   3.899  1.00  0.00     0.122 C 
BRANCH  11  15
ATOM     15  C   UNL     1       1.467  -1.897   0.385  1.00  0.00     0.022 C 
ATOM     16  C   UNL     1       2.617  -1.091  -0.221  1.00  0.00     0.006 C 
ENDBRANCH  11  15
ENDBRANCH   8  10
ENDBRANCH   7   8
BRANCH   7  17
ATOM     17  C   UNL     1      -0.543   2.792   1.485  1.00  0.00     0.237 C 
BRANCH  17  18
ATOM     18  C   UNL     1      -2.047   3.078   1.555  1.00  0.00     0.406 C 
ATOM     19  F   UNL     1      -2.651   2.528   2.626  1.00  0.00    -0.169 F 
ATOM     20  F   UNL     1      -2.267   4.414   1.612  1.00  0.00    -0.169 F 
ATOM     21  F   UNL     1      -2.680   2.629   0.445  1.00  0.00    -0.169 F 
ENDBRANCH  17  18
ENDBRANCH   7  17
ENDBRANCH   6   7
ENDBRANCH   3   6
ENDBRANCH   1   2
BRANCH   1  22
ATOM     22  C   UNL     1      -3.491  -0.455   1.390  1.00  0.00     0.023 C 
BRANCH  22  23
ATOM     23  C   UNL     1      -4.842  -0.601   0.694  1.00  0.00     0.023 C 
BRANCH  23  24
ATOM     24  C   UNL     1      -5.224  -2.041   0.388  1.00  0.00     0.116 C 
BRANCH  24  25
ATOM     25  N   UNL     1      -5.331  -2.854   1.591  1.00  0.00    -0.352 N 
ATOM     26  C   UNL     1      -6.338  -3.722   1.940  1.00  0.00     0.251 C 
ATOM     27  H   UNL     1      -4.591  -2.771   2.234  1.00  0.00     0.163 HD
ATOM     28  O   UNL     1      -6.388  -4.219   3.054  1.00  0.00    -0.269 OA
BRANCH  26  29
ATOM     29  C   UNL     1      -7.376  -4.021   0.937  1.00  0.00     0.039 A 
ATOM     30  C   UNL     1      -8.718  -3.851   1.277  1.00  0.00     0.014 A 
ATOM     31  C   UNL     1      -7.004  -4.396  -0.357  1.00  0.00     0.014 A 
ATOM     32  C   UNL     1      -9.694  -4.004   0.293  1.00  0.00     0.010 A 
ATOM     33  C   UNL     1      -7.970  -4.467  -1.351  1.00  0.00     0.010 A 
ATOM     34  C   UNL     1      -9.324  -4.280  -1.034  1.00  0.00    -0.014 A 
BRANCH  34  35
ATOM     35  C   UNL     1     -10.339  -4.397  -2.108  1.00  0.00     0.031 A 
ATOM     36  C   UNL     1     -10.519  -5.708  -2.820  1.00  0.00     0.074 A 
ATOM     37  C   UNL     1     -11.041  -3.312  -2.487  1.00  0.00     0.049 A 
ATOM     38  N   UNL     1     -11.290  -6.000  -3.836  1.00  0.00    -0.248 NA
ATOM     39  C   UNL     1      -9.696  -6.834  -2.348  1.00  0.00     0.031 C 
ATOM     40  C   UNL     1     -10.912  -1.975  -1.906  1.00  0.00     0.029 A 
ATOM     41  N   UNL     1     -11.995  -3.161  -3.461  1.00  0.00    -0.354 N 
ATOM     42  C   UNL     1     -11.031  -7.332  -4.132  1.00  0.00     0.074 A 
ATOM     43  C   UNL     1      -9.990  -7.774  -3.232  1.00  0.00     0.031 C 
ATOM     44  C   UNL     1     -11.772  -1.145  -2.518  1.00  0.00     0.029 A 
ATOM     45  C   UNL     1     -12.485  -1.881  -3.558  1.00  0.00     0.049 A 
ATOM     46  H   UNL     1     -12.300  -3.900  -4.036  1.00  0.00     0.167 HD
ATOM     47  C   UNL     1     -11.629  -8.121  -5.055  1.00  0.00     0.037 A 
ATOM     48  C   UNL     1     -13.402  -1.363  -4.397  1.00  0.00     0.037 A 
ATOM     49  C   UNL     1     -12.687  -7.681  -5.926  1.00  0.00     0.049 A 
ATOM     50  C   UNL     1     -14.054  -2.264  -5.412  1.00  0.00     0.074 A 
ATOM     51  C   UNL     1     -13.406  -8.418  -6.849  1.00  0.00     0.029 A 
ATOM     52  N   UNL     1     -13.176  -6.384  -5.978  1.00  0.00    -0.354 N 
ATOM     53  N   UNL     1     -13.856  -3.540  -5.635  1.00  0.00    -0.248 NA
ATOM     54  C   UNL     1     -15.063  -1.652  -6.286  1.00  0.00     0.031 C 
ATOM     55  C   UNL     1     -14.299  -7.555  -7.494  1.00  0.00     0.029 A 
ATOM     56  C   UNL     1     -14.173  -6.293  -6.935  1.00  0.00     0.049 A 
ATOM     57  H   UNL     1     -12.860  -5.638  -5.418  1.00  0.00     0.167 HD
ATOM     58  C   UNL     1     -14.733  -3.892  -6.652  1.00  0.00     0.074 A 
ATOM     59  C   UNL     1     -15.476  -2.696  -6.992  1.00  0.00     0.031 C 
ATOM     60  C   UNL     1     -14.908  -5.095  -7.251  1.00  0.00     0.037 A 
BRANCH  47  61
ATOM     61  C   UNL     1     -11.156  -9.541  -5.164  1.00  0.00     0.064 A 
ATOM     62  C   UNL     1     -11.399 -10.479  -4.149  1.00  0.00     0.173 A 
ATOM     63  C   UNL     1     -10.475  -9.979  -6.310  1.00  0.00     0.173 A 
ATOM     64  F   UNL     1     -12.034 -10.109  -3.026  1.00  0.00    -0.203 F 
ATOM     65  C   UNL     1     -10.951 -11.792  -4.262  1.00  0.00     0.198 A 
ATOM     66  C   UNL     1     -10.057 -11.302  -6.434  1.00  0.00     0.198 A 
ATOM     67  F   UNL     1     -10.219  -9.126  -7.313  1.00  0.00    -0.203 F 
ATOM     68  F   UNL     1     -11.148 -12.655  -3.255  1.00  0.00    -0.200 F 
ATOM     69  C   UNL     1     -10.287 -12.204  -5.407  1.00  0.00     0.200 A 
ATOM     70  F   UNL     1      -9.427 -11.701  -7.548  1.00  0.00    -0.200 F 
ATOM     71  F   UNL     1      -9.863 -13.470  -5.518  1.00  0.00    -0.200 F 
ENDBRANCH  47  61
BRANCH  48  72
ATOM     72  C   UNL     1     -13.778   0.071  -4.294  1.00  0.00     0.064 A 
ATOM     73  C   UNL     1     -15.047   0.450  -3.836  1.00  0.00     0.173 A 
ATOM     74  C   UNL     1     -12.884   1.090  -4.654  1.00  0.00     0.173 A 
ATOM     75  F   UNL     1     -15.944  -0.488  -3.498  1.00  0.00    -0.203 F 
ATOM     76  C   UNL     1     -15.416   1.792  -3.763  1.00  0.00     0.198 A 
ATOM     77  C   UNL     1     -13.244   2.432  -4.554  1.00  0.00     0.198 A 
ATOM     78  F   UNL     1     -11.655   0.781  -5.094  1.00  0.00    -0.203 F 
ATOM     79  F   UNL     1     -16.653   2.123  -3.367  1.00  0.00    -0.200 F 
ATOM     80  C   UNL     1     -14.513   2.782  -4.117  1.00  0.00     0.200 A 
ATOM     81  F   UNL     1     -12.363   3.386  -4.884  1.00  0.00    -0.200 F 
ATOM     82  F   UNL     1     -14.867   4.072  -4.044  1.00  0.00    -0.200 F 
ENDBRANCH  48  72
BRANCH  60  83
ATOM     83  C   UNL     1     -15.968  -5.189  -8.309  1.00  0.00     0.064 A 
ATOM     84  C   UNL     1     -15.804  -4.600  -9.570  1.00  0.00     0.173 A 
ATOM     85  C   UNL     1     -17.142  -5.920  -8.071  1.00  0.00     0.173 A 
ATOM     86  F   UNL     1     -14.705  -3.879  -9.841  1.00  0.00    -0.203 F 
ATOM     87  C   UNL     1     -16.788  -4.717 -10.548  1.00  0.00     0.198 A 
ATOM     88  C   UNL     1     -18.110  -6.061  -9.061  1.00  0.00     0.198 A 
ATOM     89  F   UNL     1     -17.344  -6.509  -6.883  1.00  0.00    -0.203 F 
ATOM     90  F   UNL     1     -16.632  -4.107 -11.730  1.00  0.00    -0.200 F 
ATOM     91  C   UNL     1     -17.936  -5.455 -10.295  1.00  0.00     0.200 A 
ATOM     92  F   UNL     1     -19.211  -6.787  -8.820  1.00  0.00    -0.200 F 
ATOM     93  F   UNL     1     -18.878  -5.575 -11.241  1.00  0.00    -0.200 F 
ENDBRANCH  60  83
ENDBRANCH  34  35
ENDBRANCH  26  29
ENDBRANCH  24  25
ENDBRANCH  23  24
ENDBRANCH  22  23
ENDBRANCH   1  22
TORSDOF 17
