REMARK SMILES C[C@H](CCO)S[C@H]1CC[C@]([NH2+]C2CC2)(C(=O)NCCCCNC(=O)c2ccc(-c3c4nc(c(-c5c(F)c(F)c(F)c(F)c5F)c5ccc([nH]5)c(-c5c(F)c(F)c(F)c(F)c5F)c5nc(c(-c6c(F)c(F)c(F)c(F)c6F)c6ccc3[nH]6)C=C5)C=C4)cc2)C1
REMARK SMILES IDX 18 1 17 2 15 3 16 4 10 6 7 7 8 8 88 9 9 10 6 11 2 12 1 13
REMARK SMILES IDX 3 14 4 15 5 16 11 18 12 21 13 22 14 23 19 24 20 25 21 26
REMARK SMILES IDX 22 27 23 28 24 30 25 31 26 32 87 33 27 34 86 35 28 36 29 37
REMARK SMILES IDX 30 38 80 39 31 40 85 41 79 42 81 43 32 44 84 45 78 46 77 47
REMARK SMILES IDX 33 49 65 50 45 51 64 52 46 53 49 54 63 55 82 56 47 57 48 58
REMARK SMILES IDX 62 60 83 61 50 62 34 63 35 64 43 65 36 66 37 67 41 68 44 69
REMARK SMILES IDX 38 70 39 71 42 72 40 73 66 74 67 75 75 76 68 77 69 78 73 79
REMARK SMILES IDX 76 80 70 81 71 82 74 83 72 84 51 85 52 86 60 87 53 88 54 89
REMARK SMILES IDX 58 90 61 91 55 92 56 93 59 94 57 95
REMARK H PARENT 17 5 5 17 11 19 11 20 22 29 81 48 49 59
REMARK Flexibility Score: inf
ROOT
ATOM      1  C   UNL     1      -5.335  -5.240  -3.002  1.00  0.00     0.116 C 
ENDROOT
BRANCH   1   2
ATOM      2  N   UNL     1      -4.183  -4.594  -3.609  1.00  0.00    -0.351 N 
ATOM      3  C   UNL     1      -3.297  -3.646  -3.194  1.00  0.00     0.281 C 
ATOM      4  O   UNL     1      -2.487  -3.287  -4.063  1.00  0.00    -0.268 OA
ATOM      5  H   UNL     1      -4.003  -4.912  -4.523  1.00  0.00     0.163 HD
BRANCH   3   6
ATOM      6  C   UNL     1      -3.178  -3.074  -1.730  1.00  0.00     0.176 C 
ATOM      7  C   UNL     1      -1.693  -1.194  -1.056  1.00  0.00     0.054 C 
ATOM      8  C   UNL     1      -0.852  -2.460  -1.232  1.00  0.00     0.022 C 
ATOM      9  C   UNL     1      -2.974  -1.536  -1.823  1.00  0.00     0.093 C 
ATOM     10  C   UNL     1      -1.845  -3.618  -1.152  1.00  0.00     0.080 C 
BRANCH   7  11
ATOM     11  S   UNL     1      -1.919  -0.862   0.736  1.00  0.00    -0.155 SA
BRANCH  11  12
ATOM     12  C   UNL     1      -2.393   0.915   0.827  1.00  0.00     0.046 C 
ATOM     13  C   UNL     1      -3.326   1.425  -0.264  1.00  0.00     0.019 C 
BRANCH  12  14
ATOM     14  C   UNL     1      -1.183   1.827   1.094  1.00  0.00     0.042 C 
BRANCH  14  15
ATOM     15  C   UNL     1      -0.049   1.824   0.076  1.00  0.00     0.157 C 
BRANCH  15  16
ATOM     16  O   UNL     1      -0.448   2.444  -1.137  1.00  0.00    -0.396 OA
ATOM     17  H   UNL     1      -1.194   1.956  -1.519  1.00  0.00     0.210 HD
ENDBRANCH  15  16
ENDBRANCH  14  15
ENDBRANCH  12  14
ENDBRANCH  11  12
ENDBRANCH   7  11
BRANCH   6  18
ATOM     18  N   UNL     1      -4.312  -3.528  -0.905  1.00  0.00    -0.331 N 
ATOM     19  H   UNL     1      -4.110  -4.488  -0.626  1.00  0.00     0.347 HD
ATOM     20  H   UNL     1      -5.120  -3.379  -1.510  1.00  0.00     0.347 HD
BRANCH  18  21
ATOM     21  C   UNL     1      -4.661  -2.799   0.311  1.00  0.00     0.183 C 
ATOM     22  C   UNL     1      -5.644  -1.664   0.274  1.00  0.00     0.071 C 
ATOM     23  C   UNL     1      -6.062  -2.987   0.834  1.00  0.00     0.071 C 
ENDBRANCH  18  21
ENDBRANCH   6  18
ENDBRANCH   3   6
ENDBRANCH   1   2
BRANCH   1  24
ATOM     24  C   UNL     1      -6.647  -4.607  -3.460  1.00  0.00     0.023 C 
BRANCH  24  25
ATOM     25  C   UNL     1      -7.194  -5.193  -4.764  1.00  0.00     0.023 C 
BRANCH  25  26
ATOM     26  C   UNL     1      -7.376  -6.709  -4.772  1.00  0.00     0.116 C 
BRANCH  26  27
ATOM     27  N   UNL     1      -8.129  -7.221  -3.636  1.00  0.00    -0.352 N 
ATOM     28  C   UNL     1      -8.940  -8.331  -3.583  1.00  0.00     0.251 C 
ATOM     29  H   UNL     1      -8.046  -6.709  -2.799  1.00  0.00     0.163 HD
ATOM     30  O   UNL     1      -9.576  -8.602  -2.576  1.00  0.00    -0.269 OA
BRANCH  28  31
ATOM     31  C   UNL     1      -9.066  -9.168  -4.793  1.00  0.00     0.039 A 
ATOM     32  C   UNL     1     -10.339  -9.421  -5.305  1.00  0.00     0.014 A 
ATOM     33  C   UNL     1      -7.925  -9.633  -5.451  1.00  0.00     0.014 A 
ATOM     34  C   UNL     1     -10.466 -10.081  -6.528  1.00  0.00     0.010 A 
ATOM     35  C   UNL     1      -8.050 -10.226  -6.702  1.00  0.00     0.010 A 
ATOM     36  C   UNL     1      -9.321 -10.450  -7.254  1.00  0.00    -0.014 A 
BRANCH  36  37
ATOM     37  C   UNL     1      -9.431 -11.066  -8.598  1.00  0.00     0.031 A 
ATOM     38  C   UNL     1      -8.944 -12.470  -8.821  1.00  0.00     0.074 A 
ATOM     39  C   UNL     1      -9.898 -10.336  -9.629  1.00  0.00     0.049 A 
ATOM     40  N   UNL     1      -8.881 -13.157  -9.933  1.00  0.00    -0.248 NA
ATOM     41  C   UNL     1      -8.431 -13.185  -7.642  1.00  0.00     0.031 C 
ATOM     42  C   UNL     1     -10.346  -8.945  -9.547  1.00  0.00     0.029 A 
ATOM     43  N   UNL     1     -10.062 -10.659 -10.953  1.00  0.00    -0.354 N 
ATOM     44  C   UNL     1      -8.307 -14.374  -9.590  1.00  0.00     0.074 A 
ATOM     45  C   UNL     1      -7.991 -14.313  -8.180  1.00  0.00     0.031 C 
ATOM     46  C   UNL     1     -10.753  -8.541 -10.762  1.00  0.00     0.029 A 
ATOM     47  C   UNL     1     -10.563  -9.631 -11.713  1.00  0.00     0.049 A 
ATOM     48  H   UNL     1      -9.841 -11.545 -11.322  1.00  0.00     0.167 HD
ATOM     49  C   UNL     1      -8.088 -15.453 -10.377  1.00  0.00     0.037 A 
ATOM     50  C   UNL     1     -10.834  -9.576 -13.031  1.00  0.00     0.037 A 
ATOM     51  C   UNL     1      -8.435 -15.520 -11.772  1.00  0.00     0.049 A 
ATOM     52  C   UNL     1     -10.592 -10.795 -13.880  1.00  0.00     0.074 A 
ATOM     53  C   UNL     1      -8.316 -16.590 -12.640  1.00  0.00     0.029 A 
ATOM     54  N   UNL     1      -8.973 -14.470 -12.501  1.00  0.00    -0.354 N 
ATOM     55  N   UNL     1     -10.118 -11.966 -13.530  1.00  0.00    -0.248 NA
ATOM     56  C   UNL     1     -10.931 -10.688 -15.306  1.00  0.00     0.031 C 
ATOM     57  C   UNL     1      -8.743 -16.175 -13.906  1.00  0.00     0.029 A 
ATOM     58  C   UNL     1      -9.174 -14.862 -13.814  1.00  0.00     0.049 A 
ATOM     59  H   UNL     1      -9.181 -13.578 -12.139  1.00  0.00     0.167 HD
ATOM     60  C   UNL     1     -10.130 -12.742 -14.681  1.00  0.00     0.074 A 
ATOM     61  C   UNL     1     -10.672 -11.914 -15.737  1.00  0.00     0.031 C 
ATOM     62  C   UNL     1      -9.727 -14.026 -14.848  1.00  0.00     0.037 A 
BRANCH  49  63
ATOM     63  C   UNL     1      -7.451 -16.656  -9.744  1.00  0.00     0.064 A 
ATOM     64  C   UNL     1      -8.142 -17.449  -8.815  1.00  0.00     0.173 A 
ATOM     65  C   UNL     1      -6.150 -17.042 -10.098  1.00  0.00     0.173 A 
ATOM     66  F   UNL     1      -9.384 -17.115  -8.433  1.00  0.00    -0.203 F 
ATOM     67  C   UNL     1      -7.543 -18.569  -8.244  1.00  0.00     0.198 A 
ATOM     68  C   UNL     1      -5.566 -18.180  -9.548  1.00  0.00     0.198 A 
ATOM     69  F   UNL     1      -5.447 -16.321 -10.984  1.00  0.00    -0.203 F 
ATOM     70  F   UNL     1      -8.205 -19.284  -7.324  1.00  0.00    -0.200 F 
ATOM     71  C   UNL     1      -6.260 -18.938  -8.617  1.00  0.00     0.200 A 
ATOM     72  F   UNL     1      -4.330 -18.542  -9.917  1.00  0.00    -0.200 F 
ATOM     73  F   UNL     1      -5.689 -20.021  -8.073  1.00  0.00    -0.200 F 
ENDBRANCH  49  63
BRANCH  50  74
ATOM     74  C   UNL     1     -11.389  -8.333 -13.627  1.00  0.00     0.064 A 
ATOM     75  C   UNL     1     -12.711  -8.288 -14.092  1.00  0.00     0.173 A 
ATOM     76  C   UNL     1     -10.612  -7.173 -13.756  1.00  0.00     0.173 A 
ATOM     77  F   UNL     1     -13.487  -9.378 -14.009  1.00  0.00    -0.203 F 
ATOM     78  C   UNL     1     -13.227  -7.138 -14.687  1.00  0.00     0.198 A 
ATOM     79  C   UNL     1     -11.138  -6.014 -14.325  1.00  0.00     0.198 A 
ATOM     80  F   UNL     1      -9.344  -7.162 -13.322  1.00  0.00    -0.203 F 
ATOM     81  F   UNL     1     -14.478  -7.138 -15.167  1.00  0.00    -0.200 F 
ATOM     82  C   UNL     1     -12.442  -6.001 -14.798  1.00  0.00     0.200 A 
ATOM     83  F   UNL     1     -10.381  -4.913 -14.419  1.00  0.00    -0.200 F 
ATOM     84  F   UNL     1     -12.938  -4.895 -15.369  1.00  0.00    -0.200 F 
ENDBRANCH  50  74
BRANCH  62  85
ATOM     85  C   UNL     1      -9.894 -14.625 -16.214  1.00  0.00     0.064 A 
ATOM     86  C   UNL     1      -9.074 -14.249 -17.288  1.00  0.00     0.173 A 
ATOM     87  C   UNL     1     -10.857 -15.620 -16.438  1.00  0.00     0.173 A 
ATOM     88  F   UNL     1      -8.149 -13.291 -17.127  1.00  0.00    -0.203 F 
ATOM     89  C   UNL     1      -9.231 -14.830 -18.543  1.00  0.00     0.198 A 
ATOM     90  C   UNL     1     -10.991 -16.220 -17.686  1.00  0.00     0.198 A 
ATOM     91  F   UNL     1     -11.661 -16.020 -15.440  1.00  0.00    -0.203 F 
ATOM     92  F   UNL     1      -8.468 -14.422 -19.567  1.00  0.00    -0.200 F 
ATOM     93  C   UNL     1     -10.182 -15.820 -18.739  1.00  0.00     0.200 A 
ATOM     94  F   UNL     1     -11.901 -17.186 -17.870  1.00  0.00    -0.200 F 
ATOM     95  F   UNL     1     -10.325 -16.383 -19.947  1.00  0.00    -0.200 F 
ENDBRANCH  62  85
ENDBRANCH  36  37
ENDBRANCH  28  31
ENDBRANCH  26  27
ENDBRANCH  25  26
ENDBRANCH  24  25
ENDBRANCH   1  24
TORSDOF 18
