REMARK SMILES COc1cccc(NC(=O)/C(C#N)=C\c2ccc(O[C@@H](C)C(=O)NCCCCNC(=O)c3ccc(-c4c5nc(c(-c6c(F)c(F)c(F)c(F)c6F)c6ccc([nH]6)c(-c6c(F)c(F)c(F)c(F)c6F)c6nc(c(-c7c(F)c(F)c(F)c(F)c7F)c7ccc4[nH]7)C=C6)C=C5)cc3)cc2)c1
REMARK SMILES IDX 22 1 23 2 24 3 20 5 21 6 19 7 18 8 15 9 16 10 96 11 17 12
REMARK SMILES IDX 95 13 14 14 11 15 9 16 8 17 10 19 7 20 3 21 4 22 97 23 5 24
REMARK SMILES IDX 6 25 2 26 1 27 12 28 13 29 25 30 26 31 27 32 28 33 29 34
REMARK SMILES IDX 30 35 31 37 32 38 33 39 94 40 34 41 93 42 35 43 36 44 37 45
REMARK SMILES IDX 87 46 38 47 92 48 86 49 88 50 39 51 91 52 85 53 84 54 40 56
REMARK SMILES IDX 72 57 52 58 71 59 53 60 56 61 70 62 89 63 54 64 55 65 69 67
REMARK SMILES IDX 90 68 57 69 41 70 42 71 50 72 43 73 44 74 48 75 51 76 45 77
REMARK SMILES IDX 46 78 49 79 47 80 73 81 74 82 82 83 75 84 76 85 80 86 83 87
REMARK SMILES IDX 77 88 78 89 81 90 79 91 58 92 59 93 67 94 60 95 61 96 65 97
REMARK SMILES IDX 68 98 62 99 63 100 66 101 64 102
REMARK H PARENT 24 4 8 18 29 36 88 55 56 66
REMARK Flexibility Score: inf
ROOT
ATOM      1  C   UNL     1      10.519  -0.830   8.919  1.00  0.00     0.260 C 
ATOM      2  O   UNL     1      11.452  -0.478   9.656  1.00  0.00    -0.271 OA
ATOM      3  N   UNL     1       9.651   0.162   8.585  1.00  0.00    -0.353 N 
ATOM      4  H   UNL     1       9.928   1.054   8.895  1.00  0.00     0.163 HD
ENDROOT
BRANCH   1   5
ATOM      5  C   UNL     1      10.478  -2.296   8.375  1.00  0.00     0.258 C 
ATOM      6  C   UNL     1      10.862  -2.361   6.894  1.00  0.00     0.064 C 
BRANCH   5   7
ATOM      7  O   UNL     1       9.544  -3.275   8.839  1.00  0.00    -0.481 OA
BRANCH   7   8
ATOM      8  C   UNL     1       8.260  -3.323   8.407  1.00  0.00     0.120 A 
ATOM      9  C   UNL     1       5.506  -3.066   7.802  1.00  0.00    -0.024 A 
ATOM     10  C   UNL     1       5.926  -3.626   9.021  1.00  0.00     0.012 A 
ATOM     11  C   UNL     1       6.497  -2.776   6.868  1.00  0.00     0.012 A 
ATOM     12  C   UNL     1       7.294  -3.737   9.325  1.00  0.00     0.047 A 
ATOM     13  C   UNL     1       7.845  -2.992   7.135  1.00  0.00     0.047 A 
BRANCH   9  14
ATOM     14  C   UNL     1       4.124  -2.551   7.679  1.00  0.00     0.033 C 
ATOM     15  C   UNL     1       3.352  -2.104   6.652  1.00  0.00     0.118 C 
BRANCH  15  16
ATOM     16  C   UNL     1       3.722  -2.257   5.197  1.00  0.00     0.266 C 
ATOM     17  N   UNL     1       3.243  -1.539   4.146  1.00  0.00    -0.321 N 
ATOM     18  H   UNL     1       3.938  -1.368   3.470  1.00  0.00     0.170 HD
ATOM     19  O   UNL     1       4.606  -3.059   4.867  1.00  0.00    -0.268 OA
BRANCH  17  20
ATOM     20  C   UNL     1       2.010  -0.983   3.780  1.00  0.00     0.045 A 
ATOM     21  C   UNL     1       0.769   0.304   2.133  1.00  0.00     0.120 A 
ATOM     22  C   UNL     1      -0.387   0.182   2.895  1.00  0.00     0.046 A 
ATOM     23  C   UNL     1       1.974  -0.234   2.593  1.00  0.00     0.072 A 
ATOM     24  C   UNL     1      -0.366  -0.601   4.043  1.00  0.00     0.006 A 
ATOM     25  C   UNL     1       0.814  -1.232   4.440  1.00  0.00     0.026 A 
BRANCH  21  26
ATOM     26  O   UNL     1       0.670   0.990   0.952  1.00  0.00    -0.497 OA
ATOM     27  C   UNL     1       1.073   0.188  -0.160  1.00  0.00     0.278 C 
ENDBRANCH  21  26
ENDBRANCH  17  20
ENDBRANCH  15  16
BRANCH  15  28
ATOM     28  C   UNL     1       2.186  -1.408   7.093  1.00  0.00     0.105 C 
ATOM     29  N   UNL     1       1.271  -0.901   7.594  1.00  0.00    -0.192 NA
ENDBRANCH  15  28
ENDBRANCH   9  14
ENDBRANCH   7   8
ENDBRANCH   5   7
ENDBRANCH   1   5
BRANCH   3  30
ATOM     30  C   UNL     1       8.401   0.157   7.864  1.00  0.00     0.116 C 
BRANCH  30  31
ATOM     31  C   UNL     1       7.218  -0.026   8.814  1.00  0.00     0.023 C 
BRANCH  31  32
ATOM     32  C   UNL     1       6.545   1.262   9.273  1.00  0.00     0.023 C 
BRANCH  32  33
ATOM     33  C   UNL     1       5.928   2.089   8.152  1.00  0.00     0.116 C 
BRANCH  33  34
ATOM     34  N   UNL     1       4.993   1.364   7.299  1.00  0.00    -0.352 N 
ATOM     35  C   UNL     1       3.900   1.873   6.634  1.00  0.00     0.251 C 
ATOM     36  H   UNL     1       5.163   0.401   7.186  1.00  0.00     0.163 HD
ATOM     37  O   UNL     1       3.206   1.162   5.921  1.00  0.00    -0.269 OA
BRANCH  35  38
ATOM     38  C   UNL     1       3.586   3.299   6.811  1.00  0.00     0.039 A 
ATOM     39  C   UNL     1       2.355   3.682   7.344  1.00  0.00     0.014 A 
ATOM     40  C   UNL     1       4.590   4.236   6.568  1.00  0.00     0.014 A 
ATOM     41  C   UNL     1       2.162   5.016   7.705  1.00  0.00     0.010 A 
ATOM     42  C   UNL     1       4.438   5.529   7.038  1.00  0.00     0.010 A 
ATOM     43  C   UNL     1       3.218   5.938   7.599  1.00  0.00    -0.014 A 
BRANCH  43  44
ATOM     44  C   UNL     1       3.075   7.345   8.047  1.00  0.00     0.031 A 
ATOM     45  C   UNL     1       3.266   8.460   7.055  1.00  0.00     0.074 A 
ATOM     46  C   UNL     1       2.849   7.614   9.348  1.00  0.00     0.049 A 
ATOM     47  N   UNL     1       3.260   9.753   7.253  1.00  0.00    -0.248 NA
ATOM     48  C   UNL     1       3.539   8.072   5.660  1.00  0.00     0.031 C 
ATOM     49  C   UNL     1       2.709   6.615  10.410  1.00  0.00     0.029 A 
ATOM     50  N   UNL     1       2.704   8.812  10.003  1.00  0.00    -0.354 N 
ATOM     51  C   UNL     1       3.541  10.323   6.018  1.00  0.00     0.074 A 
ATOM     52  C   UNL     1       3.787   9.242   5.093  1.00  0.00     0.031 C 
ATOM     53  C   UNL     1       2.461   7.239  11.573  1.00  0.00     0.029 A 
ATOM     54  C   UNL     1       2.474   8.680  11.352  1.00  0.00     0.049 A 
ATOM     55  H   UNL     1       2.760   9.684   9.549  1.00  0.00     0.167 HD
ATOM     56  C   UNL     1       3.560  11.633   5.679  1.00  0.00     0.037 A 
ATOM     57  C   UNL     1       2.302   9.621  12.300  1.00  0.00     0.037 A 
ATOM     58  C   UNL     1       3.284  12.700   6.601  1.00  0.00     0.049 A 
ATOM     59  C   UNL     1       2.338  11.072  11.892  1.00  0.00     0.074 A 
ATOM     60  C   UNL     1       3.215  14.058   6.350  1.00  0.00     0.029 A 
ATOM     61  N   UNL     1       3.035  12.528   7.955  1.00  0.00    -0.354 N 
ATOM     62  N   UNL     1       2.524  11.597  10.704  1.00  0.00    -0.248 NA
ATOM     63  C   UNL     1       2.130  12.063  12.956  1.00  0.00     0.031 C 
ATOM     64  C   UNL     1       2.994  14.714   7.564  1.00  0.00     0.029 A 
ATOM     65  C   UNL     1       2.842  13.759   8.558  1.00  0.00     0.049 A 
ATOM     66  H   UNL     1       3.001  11.660   8.418  1.00  0.00     0.167 HD
ATOM     67  C   UNL     1       2.412  12.971  10.871  1.00  0.00     0.074 A 
ATOM     68  C   UNL     1       2.123  13.197  12.271  1.00  0.00     0.031 C 
ATOM     69  C   UNL     1       2.536  13.960   9.951  1.00  0.00     0.037 A 
BRANCH  56  70
ATOM     70  C   UNL     1       3.883  11.988   4.256  1.00  0.00     0.064 A 
ATOM     71  C   UNL     1       3.010  11.686   3.200  1.00  0.00     0.173 A 
ATOM     72  C   UNL     1       5.056  12.696   3.953  1.00  0.00     0.173 A 
ATOM     73  F   UNL     1       1.882  10.997   3.432  1.00  0.00    -0.203 F 
ATOM     74  C   UNL     1       3.307  12.062   1.893  1.00  0.00     0.198 A 
ATOM     75  C   UNL     1       5.332  13.102   2.650  1.00  0.00     0.198 A 
ATOM     76  F   UNL     1       5.927  13.011   4.923  1.00  0.00    -0.203 F 
ATOM     77  F   UNL     1       2.479  11.722   0.895  1.00  0.00    -0.200 F 
ATOM     78  C   UNL     1       4.461  12.780   1.621  1.00  0.00     0.200 A 
ATOM     79  F   UNL     1       6.441  13.810   2.392  1.00  0.00    -0.200 F 
ATOM     80  F   UNL     1       4.735  13.160   0.365  1.00  0.00    -0.200 F 
ENDBRANCH  56  70
BRANCH  57  81
ATOM     81  C   UNL     1       2.070   9.237  13.720  1.00  0.00     0.064 A 
ATOM     82  C   UNL     1       0.862   9.541  14.365  1.00  0.00     0.173 A 
ATOM     83  C   UNL     1       3.066   8.603  14.477  1.00  0.00     0.173 A 
ATOM     84  F   UNL     1      -0.120  10.160  13.692  1.00  0.00    -0.203 F 
ATOM     85  C   UNL     1       0.678   9.272  15.721  1.00  0.00     0.198 A 
ATOM     86  C   UNL     1       2.866   8.297  15.822  1.00  0.00     0.198 A 
ATOM     87  F   UNL     1       4.238   8.280  13.911  1.00  0.00    -0.203 F 
ATOM     88  F   UNL     1      -0.456   9.646  16.328  1.00  0.00    -0.200 F 
ATOM     89  C   UNL     1       1.680   8.648  16.448  1.00  0.00     0.200 A 
ATOM     90  F   UNL     1       3.830   7.675  16.515  1.00  0.00    -0.200 F 
ATOM     91  F   UNL     1       1.507   8.397  17.752  1.00  0.00    -0.200 F 
ENDBRANCH  57  81
BRANCH  69  92
ATOM     92  C   UNL     1       2.295  15.368  10.415  1.00  0.00     0.064 A 
ATOM     93  C   UNL     1       3.167  16.022  11.298  1.00  0.00     0.173 A 
ATOM     94  C   UNL     1       1.184  16.084   9.940  1.00  0.00     0.173 A 
ATOM     95  F   UNL     1       4.238  15.380  11.789  1.00  0.00    -0.203 F 
ATOM     96  C   UNL     1       2.911  17.323  11.723  1.00  0.00     0.198 A 
ATOM     97  C   UNL     1       0.957  17.399  10.332  1.00  0.00     0.198 A 
ATOM     98  F   UNL     1       0.325  15.512   9.083  1.00  0.00    -0.203 F 
ATOM     99  F   UNL     1       3.719  17.902  12.622  1.00  0.00    -0.200 F 
ATOM    100  C   UNL     1       1.812  18.013  11.234  1.00  0.00     0.200 A 
ATOM    101  F   UNL     1      -0.092  18.071   9.839  1.00  0.00    -0.200 F 
ATOM    102  F   UNL     1       1.572  19.267  11.638  1.00  0.00    -0.200 F 
ENDBRANCH  69  92
ENDBRANCH  43  44
ENDBRANCH  35  38
ENDBRANCH  33  34
ENDBRANCH  32  33
ENDBRANCH  31  32
ENDBRANCH  30  31
ENDBRANCH   3  30
TORSDOF 18
