REMARK SMILES CC(C)Nc1cc2ccccc2cc1C(=O)NCCCCNC(=O)c1ccc(-c2c3nc(c(-c4c(F)c(F)c(F)c(F)c4F)c4ccc([nH]4)c(-c4c(F)c(F)c(F)c(F)c4F)c4nc(c(-c5c(F)c(F)c(F)c(F)c5F)c5ccc2[nH]5)C=C4)C=C3)cc1
REMARK SMILES IDX 19 1 18 2 17 3 15 4 16 5 14 7 5 8 6 9 7 10 13 11 8 12 12 13
REMARK SMILES IDX 9 14 11 15 10 16 4 17 2 19 1 20 3 21 20 22 21 23 22 24 23 25
REMARK SMILES IDX 24 27 25 28 26 29 87 30 27 31 86 32 28 33 29 34 30 35 80 36
REMARK SMILES IDX 31 37 85 38 79 39 81 40 32 41 84 42 78 43 77 44 33 46 65 47
REMARK SMILES IDX 45 48 64 49 46 50 49 51 63 52 82 53 47 54 48 55 62 57 83 58
REMARK SMILES IDX 50 59 34 60 35 61 43 62 36 63 37 64 41 65 44 66 38 67 39 68
REMARK SMILES IDX 42 69 40 70 66 71 67 72 75 73 68 74 69 75 73 76 76 77 70 78
REMARK SMILES IDX 71 79 74 80 72 81 51 82 52 83 60 84 53 85 54 86 58 87 61 88
REMARK SMILES IDX 55 89 56 90 59 91 57 92
REMARK H PARENT 17 6 4 18 22 26 81 45 49 56
REMARK Flexibility Score: inf
ROOT
ATOM      1  C   UNL     1      -0.846   2.184   3.845  1.00  0.00     0.023 C 
ENDROOT
BRANCH   1   2
ATOM      2  C   UNL     1      -0.891   0.836   3.133  1.00  0.00     0.116 C 
BRANCH   2   3
ATOM      3  N   UNL     1      -0.299  -0.264   3.868  1.00  0.00    -0.352 N 
ATOM      4  C   UNL     1      -0.379  -1.617   3.605  1.00  0.00     0.253 C 
ATOM      5  O   UNL     1       0.275  -2.391   4.306  1.00  0.00    -0.269 OA
ATOM      6  H   UNL     1       0.229  -0.013   4.660  1.00  0.00     0.163 HD
BRANCH   4   7
ATOM      7  C   UNL     1      -1.308  -2.173   2.583  1.00  0.00     0.063 A 
ATOM      8  C   UNL     1      -1.456  -1.701   1.269  1.00  0.00     0.048 A 
ATOM      9  C   UNL     1      -2.530  -2.208   0.510  1.00  0.00     0.035 A 
ATOM     10  C   UNL     1      -3.399  -3.205   0.995  1.00  0.00    -0.016 A 
ATOM     11  C   UNL     1      -2.126  -3.224   3.051  1.00  0.00     0.024 A 
ATOM     12  C   UNL     1      -4.483  -3.678   0.235  1.00  0.00     0.009 A 
ATOM     13  C   UNL     1      -3.163  -3.755   2.269  1.00  0.00    -0.017 A 
ATOM     14  C   UNL     1      -5.304  -4.700   0.716  1.00  0.00     0.001 A 
ATOM     15  C   UNL     1      -3.981  -4.803   2.730  1.00  0.00     0.009 A 
ATOM     16  C   UNL     1      -5.042  -5.274   1.955  1.00  0.00     0.001 A 
BRANCH   8  17
ATOM     17  N   UNL     1      -0.564  -0.845   0.613  1.00  0.00    -0.382 N 
ATOM     18  H   UNL     1      -0.848   0.063   0.359  1.00  0.00     0.160 HD
BRANCH  17  19
ATOM     19  C   UNL     1       0.796  -1.306   0.305  1.00  0.00     0.073 C 
ATOM     20  C   UNL     1       1.104  -0.940  -1.151  1.00  0.00     0.030 C 
ATOM     21  C   UNL     1       1.829  -0.622   1.194  1.00  0.00     0.030 C 
ENDBRANCH  17  19
ENDBRANCH   8  17
ENDBRANCH   4   7
ENDBRANCH   2   3
ENDBRANCH   1   2
BRANCH   1  22
ATOM     22  C   UNL     1       0.525   2.684   4.312  1.00  0.00     0.023 C 
BRANCH  22  23
ATOM     23  C   UNL     1       1.691   2.625   3.327  1.00  0.00     0.116 C 
BRANCH  23  24
ATOM     24  N   UNL     1       1.467   3.321   2.070  1.00  0.00    -0.352 N 
ATOM     25  C   UNL     1       2.278   4.208   1.394  1.00  0.00     0.251 C 
ATOM     26  H   UNL     1       0.605   3.129   1.635  1.00  0.00     0.163 HD
ATOM     27  O   UNL     1       1.902   4.702   0.338  1.00  0.00    -0.269 OA
BRANCH  25  28
ATOM     28  C   UNL     1       3.584   4.614   1.965  1.00  0.00     0.039 A 
ATOM     29  C   UNL     1       3.868   5.980   2.070  1.00  0.00     0.014 A 
ATOM     30  C   UNL     1       4.516   3.673   2.410  1.00  0.00     0.014 A 
ATOM     31  C   UNL     1       5.034   6.402   2.717  1.00  0.00     0.010 A 
ATOM     32  C   UNL     1       5.652   4.096   3.104  1.00  0.00     0.010 A 
ATOM     33  C   UNL     1       5.909   5.464   3.289  1.00  0.00    -0.014 A 
BRANCH  33  34
ATOM     34  C   UNL     1       7.054   5.902   4.134  1.00  0.00     0.031 A 
ATOM     35  C   UNL     1       8.473   5.649   3.706  1.00  0.00     0.074 A 
ATOM     36  C   UNL     1       6.812   6.474   5.331  1.00  0.00     0.049 A 
ATOM     37  N   UNL     1       9.588   5.910   4.342  1.00  0.00    -0.248 NA
ATOM     38  C   UNL     1       8.663   5.002   2.400  1.00  0.00     0.031 C 
ATOM     39  C   UNL     1       5.484   6.736   5.889  1.00  0.00     0.029 A 
ATOM     40  N   UNL     1       7.673   6.928   6.301  1.00  0.00    -0.354 N 
ATOM     41  C   UNL     1      10.610   5.455   3.520  1.00  0.00     0.074 A 
ATOM     42  C   UNL     1       9.981   4.860   2.359  1.00  0.00     0.031 C 
ATOM     43  C   UNL     1       5.619   7.319   7.091  1.00  0.00     0.029 A 
ATOM     44  C   UNL     1       7.039   7.442   7.406  1.00  0.00     0.049 A 
ATOM     45  H   UNL     1       8.653   6.889   6.212  1.00  0.00     0.167 HD
ATOM     46  C   UNL     1      11.950   5.544   3.705  1.00  0.00     0.037 A 
ATOM     47  C   UNL     1       7.542   7.949   8.548  1.00  0.00     0.037 A 
ATOM     48  C   UNL     1      12.580   6.146   4.852  1.00  0.00     0.049 A 
ATOM     49  C   UNL     1       9.034   8.023   8.732  1.00  0.00     0.074 A 
ATOM     50  C   UNL     1      13.931   6.318   5.103  1.00  0.00     0.029 A 
ATOM     51  N   UNL     1      11.903   6.674   5.941  1.00  0.00    -0.354 N 
ATOM     52  N   UNL     1       9.988   7.650   7.916  1.00  0.00    -0.248 NA
ATOM     53  C   UNL     1       9.518   8.596   9.997  1.00  0.00     0.031 C 
ATOM     54  C   UNL     1      14.072   6.915   6.361  1.00  0.00     0.029 A 
ATOM     55  C   UNL     1      12.809   7.157   6.872  1.00  0.00     0.049 A 
ATOM     56  H   UNL     1      10.924   6.701   6.038  1.00  0.00     0.167 HD
ATOM     57  C   UNL     1      11.180   7.974   8.549  1.00  0.00     0.074 A 
ATOM     58  C   UNL     1      10.830   8.585   9.814  1.00  0.00     0.031 C 
ATOM     59  C   UNL     1      12.451   7.782   8.120  1.00  0.00     0.037 A 
BRANCH  46  60
ATOM     60  C   UNL     1      12.836   4.981   2.632  1.00  0.00     0.064 A 
ATOM     61  C   UNL     1      12.966   5.612   1.386  1.00  0.00     0.173 A 
ATOM     62  C   UNL     1      13.606   3.832   2.869  1.00  0.00     0.173 A 
ATOM     63  F   UNL     1      12.246   6.710   1.107  1.00  0.00    -0.203 F 
ATOM     64  C   UNL     1      13.815   5.101   0.408  1.00  0.00     0.198 A 
ATOM     65  C   UNL     1      14.475   3.339   1.899  1.00  0.00     0.198 A 
ATOM     66  F   UNL     1      13.526   3.196   4.047  1.00  0.00    -0.203 F 
ATOM     67  F   UNL     1      13.891   5.698  -0.789  1.00  0.00    -0.200 F 
ATOM     68  C   UNL     1      14.573   3.969   0.668  1.00  0.00     0.200 A 
ATOM     69  F   UNL     1      15.218   2.254   2.156  1.00  0.00    -0.200 F 
ATOM     70  F   UNL     1      15.398   3.484  -0.271  1.00  0.00    -0.200 F 
ENDBRANCH  46  60
BRANCH  47  71
ATOM     71  C   UNL     1       6.629   8.456   9.606  1.00  0.00     0.064 A 
ATOM     72  C   UNL     1       6.552   9.826   9.892  1.00  0.00     0.173 A 
ATOM     73  C   UNL     1       5.839   7.585  10.370  1.00  0.00     0.173 A 
ATOM     74  F   UNL     1       7.306  10.697   9.204  1.00  0.00    -0.203 F 
ATOM     75  C   UNL     1       5.740  10.304  10.919  1.00  0.00     0.198 A 
ATOM     76  C   UNL     1       5.006   8.066  11.377  1.00  0.00     0.198 A 
ATOM     77  F   UNL     1       5.874   6.265  10.134  1.00  0.00    -0.203 F 
ATOM     78  F   UNL     1       5.727  11.612  11.206  1.00  0.00    -0.200 F 
ATOM     79  C   UNL     1       4.965   9.424  11.658  1.00  0.00     0.200 A 
ATOM     80  F   UNL     1       4.249   7.214  12.082  1.00  0.00    -0.200 F 
ATOM     81  F   UNL     1       4.186   9.882  12.647  1.00  0.00    -0.200 F 
ENDBRANCH  47  71
BRANCH  59  82
ATOM     82  C   UNL     1      13.560   8.280   9.001  1.00  0.00     0.064 A 
ATOM     83  C   UNL     1      13.890   7.642  10.206  1.00  0.00     0.173 A 
ATOM     84  C   UNL     1      14.324   9.393   8.616  1.00  0.00     0.173 A 
ATOM     85  F   UNL     1      13.179   6.584  10.626  1.00  0.00    -0.203 F 
ATOM     86  C   UNL     1      14.926   8.116  11.006  1.00  0.00     0.198 A 
ATOM     87  C   UNL     1      15.378   9.846   9.404  1.00  0.00     0.198 A 
ATOM     88  F   UNL     1      14.053  10.036   7.470  1.00  0.00    -0.203 F 
ATOM     89  F   UNL     1      15.193   7.520  12.176  1.00  0.00    -0.200 F 
ATOM     90  C   UNL     1      15.674   9.212  10.601  1.00  0.00     0.200 A 
ATOM     91  F   UNL     1      16.106  10.899   9.006  1.00  0.00    -0.200 F 
ATOM     92  F   UNL     1      16.674   9.663  11.370  1.00  0.00    -0.200 F 
ENDBRANCH  59  82
ENDBRANCH  33  34
ENDBRANCH  25  28
ENDBRANCH  23  24
ENDBRANCH  22  23
ENDBRANCH   1  22
TORSDOF 13
