REMARK SMILES COc1cc(/C=C2/C(=O)NN(c3ccc(Cl)c(Cl)c3)C2=O)ccc1OCC(=O)NCCCCNC(=O)c1ccc(-c2c3nc(c(-c4c(F)c(F)c(F)c(F)c4F)c4ccc([nH]4)c(-c4c(F)c(F)c(F)c(F)c4F)c4nc(c(-c5c(F)c(F)c(F)c(F)c5F)c5ccc2[nH]5)C=C4)C=C3)cc1
REMARK SMILES IDX 30 1 29 2 27 3 28 4 26 6 25 7 24 8 3 9 4 10 5 11 23 12 22 13
REMARK SMILES IDX 2 14 1 15 6 16 7 17 8 18 20 19 9 20 10 21 11 22 21 23 12 25
REMARK SMILES IDX 13 26 19 27 14 28 17 29 15 30 18 31 16 32 31 33 32 34 33 35
REMARK SMILES IDX 34 36 35 37 36 39 37 40 38 41 99 42 39 43 98 44 40 45 41 46
REMARK SMILES IDX 42 47 92 48 43 49 97 50 91 51 93 52 44 53 96 54 90 55 89 56
REMARK SMILES IDX 45 58 77 59 57 60 76 61 58 62 61 63 75 64 94 65 59 66 60 67
REMARK SMILES IDX 74 69 95 70 62 71 46 72 47 73 55 74 48 75 49 76 53 77 56 78
REMARK SMILES IDX 50 79 51 80 54 81 52 82 78 83 79 84 87 85 80 86 81 87 85 88
REMARK SMILES IDX 88 89 82 90 83 91 86 92 84 93 63 94 64 95 72 96 65 97 66 98
REMARK SMILES IDX 70 99 73 100 67 101 68 102 71 103 69 104
REMARK H PARENT 29 5 10 24 34 38 93 57 61 68
REMARK Flexibility Score: inf
ROOT
ATOM      1  C   UNL     1       3.661   1.510   2.479  1.00  0.00     0.116 C 
ENDROOT
BRANCH   1   2
ATOM      2  N   UNL     1       2.603   0.568   2.179  1.00  0.00    -0.353 N 
ATOM      3  C   UNL     1       2.376  -0.107   1.014  1.00  0.00     0.257 C 
ATOM      4  O   UNL     1       1.597  -1.062   1.054  1.00  0.00    -0.271 OA
ATOM      5  H   UNL     1       1.966   0.392   2.909  1.00  0.00     0.163 HD
BRANCH   3   6
ATOM      6  C   UNL     1       3.135   0.276  -0.262  1.00  0.00     0.329 C 
BRANCH   6   7
ATOM      7  O   UNL     1       3.291   1.656  -0.532  1.00  0.00    -0.480 OA
BRANCH   7   8
ATOM      8  C   UNL     1       2.226   2.426  -0.901  1.00  0.00     0.161 A 
ATOM      9  C   UNL     1       0.991   2.030  -1.426  1.00  0.00     0.161 A 
ATOM     10  C   UNL     1       0.054   2.997  -1.838  1.00  0.00     0.058 A 
ATOM     11  C   UNL     1       0.349   4.361  -1.726  1.00  0.00    -0.021 A 
ATOM     12  C   UNL     1       2.491   3.794  -0.762  1.00  0.00     0.051 A 
ATOM     13  C   UNL     1       1.563   4.755  -1.157  1.00  0.00     0.012 A 
BRANCH   9  14
ATOM     14  O   UNL     1       0.752   0.717  -1.730  1.00  0.00    -0.493 OA
ATOM     15  C   UNL     1      -0.298   0.150  -0.949  1.00  0.00     0.278 C 
ENDBRANCH   9  14
BRANCH  11  16
ATOM     16  C   UNL     1      -0.497   5.387  -2.342  1.00  0.00     0.028 C 
ATOM     17  C   UNL     1      -0.214   5.908  -3.547  1.00  0.00     0.109 C 
ATOM     18  C   UNL     1      -0.916   7.077  -4.125  1.00  0.00     0.275 C 
ATOM     19  C   UNL     1       0.862   5.503  -4.493  1.00  0.00     0.282 C 
ATOM     20  O   UNL     1      -1.912   7.630  -3.696  1.00  0.00    -0.267 OA
ATOM     21  N   UNL     1      -0.194   7.400  -5.255  1.00  0.00    -0.256 N 
ATOM     22  N   UNL     1       0.809   6.465  -5.504  1.00  0.00    -0.217 N 
ATOM     23  O   UNL     1       1.624   4.559  -4.379  1.00  0.00    -0.267 OA
ATOM     24  H   UNL     1      -0.365   8.192  -5.815  1.00  0.00     0.192 HD
BRANCH  22  25
ATOM     25  C   UNL     1       1.622   6.485  -6.652  1.00  0.00     0.068 A 
ATOM     26  C   UNL     1       2.055   7.697  -7.199  1.00  0.00     0.030 A 
ATOM     27  C   UNL     1       2.018   5.283  -7.254  1.00  0.00     0.050 A 
ATOM     28  C   UNL     1       2.904   7.701  -8.312  1.00  0.00     0.024 A 
ATOM     29  C   UNL     1       2.820   5.287  -8.398  1.00  0.00     0.061 A 
ATOM     30  C   UNL     1       3.279   6.499  -8.920  1.00  0.00     0.059 A 
ATOM     31  Cl  UNL     1       3.185   3.764  -9.128  1.00  0.00    -0.083 Cl
ATOM     32  Cl  UNL     1       4.308   6.581 -10.304  1.00  0.00    -0.083 Cl
ENDBRANCH  22  25
ENDBRANCH  11  16
ENDBRANCH   7   8
ENDBRANCH   6   7
ENDBRANCH   3   6
ENDBRANCH   1   2
BRANCH   1  33
ATOM     33  C   UNL     1       3.142   2.888   2.880  1.00  0.00     0.023 C 
BRANCH  33  34
ATOM     34  C   UNL     1       2.184   2.914   4.071  1.00  0.00     0.023 C 
BRANCH  34  35
ATOM     35  C   UNL     1       2.624   2.112   5.288  1.00  0.00     0.116 C 
BRANCH  35  36
ATOM     36  N   UNL     1       3.928   2.510   5.794  1.00  0.00    -0.352 N 
ATOM     37  C   UNL     1       4.309   2.816   7.077  1.00  0.00     0.251 C 
ATOM     38  H   UNL     1       4.641   2.569   5.118  1.00  0.00     0.163 HD
ATOM     39  O   UNL     1       5.433   3.252   7.300  1.00  0.00    -0.269 OA
BRANCH  37  40
ATOM     40  C   UNL     1       3.346   2.654   8.185  1.00  0.00     0.039 A 
ATOM     41  C   UNL     1       3.210   3.690   9.112  1.00  0.00     0.014 A 
ATOM     42  C   UNL     1       2.565   1.501   8.297  1.00  0.00     0.014 A 
ATOM     43  C   UNL     1       2.240   3.598  10.111  1.00  0.00     0.010 A 
ATOM     44  C   UNL     1       1.541   1.450   9.237  1.00  0.00     0.010 A 
ATOM     45  C   UNL     1       1.369   2.496  10.156  1.00  0.00    -0.014 A 
BRANCH  45  46
ATOM     46  C   UNL     1       0.275   2.423  11.157  1.00  0.00     0.031 A 
ATOM     47  C   UNL     1       0.261   1.327  12.184  1.00  0.00     0.074 A 
ATOM     48  C   UNL     1      -0.736   3.312  11.105  1.00  0.00     0.049 A 
ATOM     49  N   UNL     1      -0.627   1.070  13.112  1.00  0.00    -0.248 NA
ATOM     50  C   UNL     1       1.383   0.376  12.148  1.00  0.00     0.031 C 
ATOM     51  C   UNL     1      -0.857   4.399  10.133  1.00  0.00     0.029 A 
ATOM     52  N   UNL     1      -1.855   3.442  11.889  1.00  0.00    -0.354 N 
ATOM     53  C   UNL     1      -0.173  -0.070  13.762  1.00  0.00     0.074 A 
ATOM     54  C   UNL     1       1.027  -0.498  13.076  1.00  0.00     0.031 C 
ATOM     55  C   UNL     1      -1.964   5.108  10.402  1.00  0.00     0.029 A 
ATOM     56  C   UNL     1      -2.656   4.500  11.535  1.00  0.00     0.049 A 
ATOM     57  H   UNL     1      -2.064   2.834  12.635  1.00  0.00     0.167 HD
ATOM     58  C   UNL     1      -0.692  -0.688  14.851  1.00  0.00     0.037 A 
ATOM     59  C   UNL     1      -3.818   4.928  12.062  1.00  0.00     0.037 A 
ATOM     60  C   UNL     1      -1.888  -0.259  15.528  1.00  0.00     0.049 A 
ATOM     61  C   UNL     1      -4.405   4.191  13.236  1.00  0.00     0.074 A 
ATOM     62  C   UNL     1      -2.479  -0.792  16.660  1.00  0.00     0.029 A 
ATOM     63  N   UNL     1      -2.685   0.805  15.126  1.00  0.00    -0.354 N 
ATOM     64  N   UNL     1      -3.933   3.155  13.887  1.00  0.00    -0.248 NA
ATOM     65  C   UNL     1      -5.689   4.687  13.750  1.00  0.00     0.031 C 
ATOM     66  C   UNL     1      -3.665  -0.092  16.906  1.00  0.00     0.029 A 
ATOM     67  C   UNL     1      -3.779   0.924  15.970  1.00  0.00     0.049 A 
ATOM     68  H   UNL     1      -2.500   1.389  14.356  1.00  0.00     0.167 HD
ATOM     69  C   UNL     1      -4.839   2.899  14.908  1.00  0.00     0.074 A 
ATOM     70  C   UNL     1      -5.883   3.898  14.796  1.00  0.00     0.031 C 
ATOM     71  C   UNL     1      -4.808   1.927  15.853  1.00  0.00     0.037 A 
BRANCH  58  72
ATOM     72  C   UNL     1       0.034  -1.901  15.364  1.00  0.00     0.064 A 
ATOM     73  C   UNL     1       1.322  -1.812  15.918  1.00  0.00     0.173 A 
ATOM     74  C   UNL     1      -0.563  -3.170  15.305  1.00  0.00     0.173 A 
ATOM     75  F   UNL     1       1.944  -0.625  15.992  1.00  0.00    -0.203 F 
ATOM     76  C   UNL     1       2.003  -2.950  16.343  1.00  0.00     0.198 A 
ATOM     77  C   UNL     1       0.106  -4.301  15.768  1.00  0.00     0.198 A 
ATOM     78  F   UNL     1      -1.795  -3.316  14.795  1.00  0.00    -0.203 F 
ATOM     79  F   UNL     1       3.259  -2.845  16.797  1.00  0.00    -0.200 F 
ATOM     80  C   UNL     1       1.392  -4.192  16.273  1.00  0.00     0.200 A 
ATOM     81  F   UNL     1      -0.493  -5.499  15.716  1.00  0.00    -0.200 F 
ATOM     82  F   UNL     1       2.049  -5.287  16.681  1.00  0.00    -0.200 F 
ENDBRANCH  58  72
BRANCH  59  83
ATOM     83  C   UNL     1      -4.485   6.138  11.512  1.00  0.00     0.064 A 
ATOM     84  C   UNL     1      -4.570   7.315  12.271  1.00  0.00     0.173 A 
ATOM     85  C   UNL     1      -5.052   6.148  10.230  1.00  0.00     0.173 A 
ATOM     86  F   UNL     1      -4.061   7.350  13.511  1.00  0.00    -0.203 F 
ATOM     87  C   UNL     1      -5.215   8.446  11.776  1.00  0.00     0.198 A 
ATOM     88  C   UNL     1      -5.668   7.290   9.724  1.00  0.00     0.198 A 
ATOM     89  F   UNL     1      -4.994   5.050   9.461  1.00  0.00    -0.203 F 
ATOM     90  F   UNL     1      -5.323   9.541  12.542  1.00  0.00    -0.200 F 
ATOM     91  C   UNL     1      -5.758   8.435  10.501  1.00  0.00     0.200 A 
ATOM     92  F   UNL     1      -6.177   7.281   8.484  1.00  0.00    -0.200 F 
ATOM     93  F   UNL     1      -6.373   9.526  10.023  1.00  0.00    -0.200 F 
ENDBRANCH  59  83
BRANCH  71  94
ATOM     94  C   UNL     1      -5.911   1.922  16.875  1.00  0.00     0.064 A 
ATOM     95  C   UNL     1      -7.232   1.588  16.540  1.00  0.00     0.173 A 
ATOM     96  C   UNL     1      -5.633   2.224  18.217  1.00  0.00     0.173 A 
ATOM     97  F   UNL     1      -7.556   1.306  15.269  1.00  0.00    -0.203 F 
ATOM     98  C   UNL     1      -8.237   1.587  17.504  1.00  0.00     0.198 A 
ATOM     99  C   UNL     1      -6.632   2.186  19.185  1.00  0.00     0.198 A 
ATOM    100  F   UNL     1      -4.385   2.544  18.595  1.00  0.00    -0.203 F 
ATOM    101  F   UNL     1      -9.502   1.322  17.149  1.00  0.00    -0.200 F 
ATOM    102  C   UNL     1      -7.935   1.877  18.826  1.00  0.00     0.200 A 
ATOM    103  F   UNL     1      -6.334   2.449  20.465  1.00  0.00    -0.200 F 
ATOM    104  F   UNL     1      -8.902   1.867  19.754  1.00  0.00    -0.200 F 
ENDBRANCH  71  94
ENDBRANCH  45  46
ENDBRANCH  37  40
ENDBRANCH  35  36
ENDBRANCH  34  35
ENDBRANCH  33  34
ENDBRANCH   1  33
TORSDOF 16
