REMARK SMILES COC(=O)[C@H]1CCN(C(=O)N2C[C@@H](C)[C@@H](C(=O)NCCCCNC(=O)c3ccc(-c4c5nc(c(-c6c(F)c(F)c(F)c(F)c6F)c6ccc([nH]6)c(-c6c(F)c(F)c(F)c(F)c6F)c6nc(c(-c7c(F)c(F)c(F)c(F)c7F)c7ccc4[nH]7)C=C6)C=C5)cc3)C2)C1
REMARK SMILES IDX 19 1 18 2 16 3 17 4 15 6 11 7 12 8 89 9 13 10 14 11 9 12
REMARK SMILES IDX 10 13 8 14 5 15 6 16 90 17 7 18 3 19 4 20 2 21 1 22 20 23
REMARK SMILES IDX 21 24 22 25 23 26 24 27 25 29 26 30 27 31 88 32 28 33 87 34
REMARK SMILES IDX 29 35 30 36 31 37 81 38 32 39 86 40 80 41 82 42 33 43 85 44
REMARK SMILES IDX 79 45 78 46 34 48 66 49 46 50 65 51 47 52 50 53 64 54 83 55
REMARK SMILES IDX 48 56 49 57 63 59 84 60 51 61 35 62 36 63 44 64 37 65 38 66
REMARK SMILES IDX 42 67 45 68 39 69 40 70 43 71 41 72 67 73 68 74 76 75 69 76
REMARK SMILES IDX 70 77 74 78 77 79 71 80 72 81 75 82 73 83 52 84 53 85 61 86
REMARK SMILES IDX 54 87 55 88 59 89 62 90 56 91 57 92 60 93 58 94
REMARK H PARENT 18 5 23 28 82 47 50 58
REMARK Flexibility Score: inf
ROOT
ATOM      1  C   UNL     1       2.302  13.182   0.076  1.00  0.00     0.116 C 
ENDROOT
BRANCH   1   2
ATOM      2  N   UNL     1       1.002  13.024   0.704  1.00  0.00    -0.356 N 
ATOM      3  C   UNL     1       0.370  11.902   1.159  1.00  0.00     0.225 C 
ATOM      4  O   UNL     1      -0.730  12.041   1.692  1.00  0.00    -0.275 OA
ATOM      5  H   UNL     1       0.494  13.860   0.821  1.00  0.00     0.163 HD
BRANCH   3   6
ATOM      6  C   UNL     1       1.004  10.542   0.931  1.00  0.00     0.102 C 
ATOM      7  N   UNL     1       0.055   8.416   1.332  1.00  0.00    -0.324 N 
ATOM      8  C   UNL     1      -0.536   8.890   0.103  1.00  0.00     0.125 C 
ATOM      9  C   UNL     1       0.627   9.539   2.045  1.00  0.00     0.135 C 
ATOM     10  C   UNL     1       0.537   9.852  -0.383  1.00  0.00     0.020 C 
ATOM     11  C   UNL     1       0.059  10.714  -1.535  1.00  0.00     0.010 C 
BRANCH   7  12
ATOM     12  C   UNL     1      -0.046   7.166   1.876  1.00  0.00     0.320 C 
ATOM     13  O   UNL     1      -0.147   6.997   3.090  1.00  0.00    -0.248 OA
BRANCH  12  14
ATOM     14  N   UNL     1       0.055   6.107   1.001  1.00  0.00    -0.324 N 
ATOM     15  C   UNL     1       0.376   3.832   0.377  1.00  0.00     0.120 C 
ATOM     16  C   UNL     1       0.583   4.758  -0.823  1.00  0.00     0.039 C 
ATOM     17  C   UNL     1      -0.275   4.747   1.418  1.00  0.00     0.136 C 
ATOM     18  C   UNL     1       0.915   6.078  -0.168  1.00  0.00     0.122 C 
BRANCH  15  19
ATOM     19  C   UNL     1      -0.470   2.631   0.047  1.00  0.00     0.310 C 
ATOM     20  O   UNL     1      -1.269   2.103   0.816  1.00  0.00    -0.252 OA
BRANCH  19  21
ATOM     21  O   UNL     1      -0.166   2.164  -1.196  1.00  0.00    -0.469 OA
ATOM     22  C   UNL     1      -0.904   1.013  -1.605  1.00  0.00     0.282 C 
ENDBRANCH  19  21
ENDBRANCH  15  19
ENDBRANCH  12  14
ENDBRANCH   7  12
ENDBRANCH   3   6
ENDBRANCH   1   2
BRANCH   1  23
ATOM     23  C   UNL     1       2.220  13.856  -1.293  1.00  0.00     0.023 C 
BRANCH  23  24
ATOM     24  C   UNL     1       1.606  15.254  -1.305  1.00  0.00     0.023 C 
BRANCH  24  25
ATOM     25  C   UNL     1       2.279  16.268  -0.390  1.00  0.00     0.116 C 
BRANCH  25  26
ATOM     26  N   UNL     1       3.681  16.481  -0.713  1.00  0.00    -0.352 N 
ATOM     27  C   UNL     1       4.365  17.654  -0.920  1.00  0.00     0.251 C 
ATOM     28  H   UNL     1       4.221  15.662  -0.794  1.00  0.00     0.163 HD
ATOM     29  O   UNL     1       5.527  17.624  -1.314  1.00  0.00    -0.269 OA
BRANCH  27  30
ATOM     30  C   UNL     1       3.695  18.956  -0.704  1.00  0.00     0.039 A 
ATOM     31  C   UNL     1       3.873  19.968  -1.651  1.00  0.00     0.014 A 
ATOM     32  C   UNL     1       2.893  19.181   0.418  1.00  0.00     0.014 A 
ATOM     33  C   UNL     1       3.188  21.177  -1.512  1.00  0.00     0.010 A 
ATOM     34  C   UNL     1       2.151  20.355   0.515  1.00  0.00     0.010 A 
ATOM     35  C   UNL     1       2.290  21.364  -0.449  1.00  0.00    -0.014 A 
BRANCH  35  36
ATOM     36  C   UNL     1       1.480  22.604  -0.332  1.00  0.00     0.031 A 
ATOM     37  C   UNL     1       1.666  23.523   0.841  1.00  0.00     0.074 A 
ATOM     38  C   UNL     1       0.524  22.863  -1.245  1.00  0.00     0.049 A 
ATOM     39  N   UNL     1       1.006  24.610   1.156  1.00  0.00    -0.248 NA
ATOM     40  C   UNL     1       2.713  23.156   1.806  1.00  0.00     0.031 C 
ATOM     41  C   UNL     1       0.212  22.025  -2.404  1.00  0.00     0.029 A 
ATOM     42  N   UNL     1      -0.370  23.901  -1.335  1.00  0.00    -0.354 N 
ATOM     43  C   UNL     1       1.545  25.043   2.360  1.00  0.00     0.074 A 
ATOM     44  C   UNL     1       2.549  24.075   2.746  1.00  0.00     0.031 C 
ATOM     45  C   UNL     1      -0.783  22.593  -3.102  1.00  0.00     0.029 A 
ATOM     46  C   UNL     1      -1.205  23.814  -2.421  1.00  0.00     0.049 A 
ATOM     47  H   UNL     1      -0.408  24.637  -0.683  1.00  0.00     0.167 HD
ATOM     48  C   UNL     1       1.245  26.159   3.068  1.00  0.00     0.037 A 
ATOM     49  C   UNL     1      -2.203  24.625  -2.821  1.00  0.00     0.037 A 
ATOM     50  C   UNL     1       0.264  27.133   2.668  1.00  0.00     0.049 A 
ATOM     51  C   UNL     1      -2.522  25.854  -2.014  1.00  0.00     0.074 A 
ATOM     52  C   UNL     1      -0.060  28.332   3.278  1.00  0.00     0.029 A 
ATOM     53  N   UNL     1      -0.557  27.016   1.556  1.00  0.00    -0.354 N 
ATOM     54  N   UNL     1      -1.956  26.294  -0.918  1.00  0.00    -0.248 NA
ATOM     55  C   UNL     1      -3.618  26.700  -2.506  1.00  0.00     0.031 C 
ATOM     56  C   UNL     1      -1.111  28.917   2.563  1.00  0.00     0.029 A 
ATOM     57  C   UNL     1      -1.407  28.108   1.477  1.00  0.00     0.049 A 
ATOM     58  H   UNL     1      -0.539  26.267   0.917  1.00  0.00     0.167 HD
ATOM     59  C   UNL     1      -2.605  27.479  -0.602  1.00  0.00     0.074 A 
ATOM     60  C   UNL     1      -3.601  27.696  -1.631  1.00  0.00     0.031 C 
ATOM     61  C   UNL     1      -2.392  28.314   0.446  1.00  0.00     0.037 A 
BRANCH  48  62
ATOM     62  C   UNL     1       1.989  26.379   4.354  1.00  0.00     0.064 A 
ATOM     63  C   UNL     1       3.358  26.687   4.371  1.00  0.00     0.173 A 
ATOM     64  C   UNL     1       1.322  26.296   5.585  1.00  0.00     0.173 A 
ATOM     65  F   UNL     1       4.047  26.768   3.222  1.00  0.00    -0.203 F 
ATOM     66  C   UNL     1       4.039  26.864   5.573  1.00  0.00     0.198 A 
ATOM     67  C   UNL     1       1.999  26.506   6.784  1.00  0.00     0.198 A 
ATOM     68  F   UNL     1       0.011  26.011   5.627  1.00  0.00    -0.203 F 
ATOM     69  F   UNL     1       5.359  27.097   5.565  1.00  0.00    -0.200 F 
ATOM     70  C   UNL     1       3.358  26.778   6.777  1.00  0.00     0.200 A 
ATOM     71  F   UNL     1       1.337  26.435   7.947  1.00  0.00    -0.200 F 
ATOM     72  F   UNL     1       4.015  26.949   7.933  1.00  0.00    -0.200 F 
ENDBRANCH  48  62
BRANCH  49  73
ATOM     73  C   UNL     1      -2.948  24.317  -4.069  1.00  0.00     0.064 A 
ATOM     74  C   UNL     1      -2.776  25.103  -5.216  1.00  0.00     0.173 A 
ATOM     75  C   UNL     1      -3.830  23.230  -4.147  1.00  0.00     0.173 A 
ATOM     76  F   UNL     1      -1.957  26.165  -5.183  1.00  0.00    -0.203 F 
ATOM     77  C   UNL     1      -3.466  24.820  -6.393  1.00  0.00     0.198 A 
ATOM     78  C   UNL     1      -4.502  22.933  -5.331  1.00  0.00     0.198 A 
ATOM     79  F   UNL     1      -4.026  22.445  -3.077  1.00  0.00    -0.203 F 
ATOM     80  F   UNL     1      -3.310  25.608  -7.465  1.00  0.00    -0.200 F 
ATOM     81  C   UNL     1      -4.323  23.732  -6.451  1.00  0.00     0.200 A 
ATOM     82  F   UNL     1      -5.318  21.872  -5.389  1.00  0.00    -0.200 F 
ATOM     83  F   UNL     1      -4.981  23.454  -7.586  1.00  0.00    -0.200 F 
ENDBRANCH  49  73
BRANCH  61  84
ATOM     84  C   UNL     1      -3.231  29.556   0.516  1.00  0.00     0.064 A 
ATOM     85  C   UNL     1      -4.592  29.509   0.851  1.00  0.00     0.173 A 
ATOM     86  C   UNL     1      -2.655  30.815   0.282  1.00  0.00     0.173 A 
ATOM     87  F   UNL     1      -5.193  28.329   1.068  1.00  0.00    -0.203 F 
ATOM     88  C   UNL     1      -5.351  30.674   0.927  1.00  0.00     0.198 A 
ATOM     89  C   UNL     1      -3.410  31.979   0.388  1.00  0.00     0.198 A 
ATOM     90  F   UNL     1      -1.356  30.916  -0.037  1.00  0.00    -0.203 F 
ATOM     91  F   UNL     1      -6.661  30.601   1.203  1.00  0.00    -0.200 F 
ATOM     92  C   UNL     1      -4.759  31.908   0.703  1.00  0.00     0.200 A 
ATOM     93  F   UNL     1      -2.833  33.171   0.183  1.00  0.00    -0.200 F 
ATOM     94  F   UNL     1      -5.490  33.028   0.783  1.00  0.00    -0.200 F 
ENDBRANCH  61  84
ENDBRANCH  35  36
ENDBRANCH  27  30
ENDBRANCH  25  26
ENDBRANCH  24  25
ENDBRANCH  23  24
ENDBRANCH   1  23
TORSDOF 15
