REMARK SMILES CC1(C)[C@H]2CC[C@]1(C)[C@H](NC(=O)CCC(=O)NCCCCNC(=O)c1ccc(-c3c4nc(c(-c5c(F)c(F)c(F)c(F)c5F)c5ccc([nH]5)c(-c5c(F)c(F)c(F)c(F)c5F)c5nc(c(-c6c(F)c(F)c(F)c(F)c6F)c6ccc3[nH]6)C=C5)C=C4)cc1)C2
REMARK SMILES IDX 19 1 18 2 17 3 15 4 16 5 14 7 13 8 11 9 10 10 12 12 9 13
REMARK SMILES IDX 1 14 2 15 3 16 4 17 7 18 5 19 88 20 6 21 8 22 20 23 21 24
REMARK SMILES IDX 22 25 23 26 24 28 25 29 26 30 87 31 27 32 86 33 28 34 29 35
REMARK SMILES IDX 30 36 80 37 31 38 85 39 79 40 81 41 32 42 84 43 78 44 77 45
REMARK SMILES IDX 33 47 65 48 45 49 64 50 46 51 49 52 63 53 82 54 47 55 48 56
REMARK SMILES IDX 62 58 83 59 50 60 34 61 35 62 43 63 36 64 37 65 41 66 44 67
REMARK SMILES IDX 38 68 39 69 42 70 40 71 66 72 67 73 75 74 68 75 69 76 73 77
REMARK SMILES IDX 76 78 70 79 71 80 74 81 72 82 51 83 52 84 60 85 53 86 54 87
REMARK SMILES IDX 58 88 61 89 55 90 56 91 59 92 57 93
REMARK H PARENT 17 6 10 11 22 27 81 46 49 57
REMARK Flexibility Score: inf
ROOT
ATOM      1  C   UNL     1      -2.552  -2.814   2.283  1.00  0.00     0.023 C 
ENDROOT
BRANCH   1   2
ATOM      2  C   UNL     1      -3.265  -1.585   2.840  1.00  0.00     0.116 C 
BRANCH   2   3
ATOM      3  N   UNL     1      -2.414  -0.415   2.841  1.00  0.00    -0.356 N 
ATOM      4  C   UNL     1      -2.616   0.786   2.242  1.00  0.00     0.220 C 
ATOM      5  O   UNL     1      -1.815   1.691   2.476  1.00  0.00    -0.275 OA
ATOM      6  H   UNL     1      -1.573  -0.501   3.346  1.00  0.00     0.163 HD
BRANCH   4   7
ATOM      7  C   UNL     1      -3.823   1.015   1.367  1.00  0.00     0.110 C 
BRANCH   7   8
ATOM      8  C   UNL     1      -3.856   0.438  -0.039  1.00  0.00     0.110 C 
BRANCH   8   9
ATOM      9  C   UNL     1      -3.215  -0.889  -0.360  1.00  0.00     0.220 C 
ATOM     10  N   UNL     1      -1.896  -1.036  -0.645  1.00  0.00    -0.353 N 
ATOM     11  H   UNL     1      -1.709  -1.795  -1.243  1.00  0.00     0.163 HD
ATOM     12  O   UNL     1      -3.924  -1.898  -0.452  1.00  0.00    -0.275 OA
BRANCH  10  13
ATOM     13  C   UNL     1      -0.697  -0.300  -0.250  1.00  0.00     0.088 C 
ATOM     14  C   UNL     1       2.828   0.498  -1.737  1.00  0.00     0.012 C 
ATOM     15  C   UNL     1       1.547   0.476  -0.881  1.00  0.00    -0.025 C 
ATOM     16  C   UNL     1       1.998   0.714   0.576  1.00  0.00     0.012 C 
ATOM     17  C   UNL     1       0.478   1.460  -1.408  1.00  0.00    -0.003 C 
ATOM     18  C   UNL     1       0.583  -0.738  -1.074  1.00  0.00    -0.007 C 
ATOM     19  C   UNL     1       0.065   0.878  -2.781  1.00  0.00     0.005 C 
ATOM     20  C   UNL     1      -0.710   1.224  -0.468  1.00  0.00     0.029 C 
ATOM     21  C   UNL     1       0.227  -0.636  -2.581  1.00  0.00     0.010 C 
ATOM     22  C   UNL     1       1.147  -2.095  -0.687  1.00  0.00     0.014 C 
ENDBRANCH  10  13
ENDBRANCH   8   9
ENDBRANCH   7   8
ENDBRANCH   4   7
ENDBRANCH   2   3
ENDBRANCH   1   2
BRANCH   1  23
ATOM     23  C   UNL     1      -1.344  -3.284   3.079  1.00  0.00     0.023 C 
BRANCH  23  24
ATOM     24  C   UNL     1      -1.619  -3.517   4.551  1.00  0.00     0.116 C 
BRANCH  24  25
ATOM     25  N   UNL     1      -2.818  -4.308   4.799  1.00  0.00    -0.352 N 
ATOM     26  C   UNL     1      -3.013  -5.322   5.708  1.00  0.00     0.251 C 
ATOM     27  H   UNL     1      -3.596  -4.087   4.238  1.00  0.00     0.163 HD
ATOM     28  O   UNL     1      -4.053  -5.944   5.752  1.00  0.00    -0.269 OA
BRANCH  26  29
ATOM     29  C   UNL     1      -1.890  -5.662   6.602  1.00  0.00     0.039 A 
ATOM     30  C   UNL     1      -1.451  -6.985   6.656  1.00  0.00     0.014 A 
ATOM     31  C   UNL     1      -1.213  -4.647   7.280  1.00  0.00     0.014 A 
ATOM     32  C   UNL     1      -0.273  -7.281   7.338  1.00  0.00     0.010 A 
ATOM     33  C   UNL     1       0.011  -4.926   7.860  1.00  0.00     0.010 A 
ATOM     34  C   UNL     1       0.486  -6.246   7.905  1.00  0.00    -0.014 A 
BRANCH  34  35
ATOM     35  C   UNL     1       1.766  -6.505   8.601  1.00  0.00     0.031 A 
ATOM     36  C   UNL     1       1.888  -6.133  10.051  1.00  0.00     0.074 A 
ATOM     37  C   UNL     1       2.829  -6.964   7.916  1.00  0.00     0.049 A 
ATOM     38  N   UNL     1       2.949  -6.093  10.813  1.00  0.00    -0.248 NA
ATOM     39  C   UNL     1       0.652  -5.689  10.717  1.00  0.00     0.031 C 
ATOM     40  C   UNL     1       2.841  -7.311   6.494  1.00  0.00     0.029 A 
ATOM     41  N   UNL     1       4.113  -7.208   8.329  1.00  0.00    -0.354 N 
ATOM     42  C   UNL     1       2.517  -5.569  12.023  1.00  0.00     0.074 A 
ATOM     43  C   UNL     1       1.114  -5.251  11.876  1.00  0.00     0.031 C 
ATOM     44  C   UNL     1       4.062  -7.762   6.162  1.00  0.00     0.029 A 
ATOM     45  C   UNL     1       4.926  -7.695   7.336  1.00  0.00     0.049 A 
ATOM     46  H   UNL     1       4.423  -7.049   9.250  1.00  0.00     0.167 HD
ATOM     47  C   UNL     1       3.222  -5.394  13.165  1.00  0.00     0.037 A 
ATOM     48  C   UNL     1       6.224  -8.049   7.379  1.00  0.00     0.037 A 
ATOM     49  C   UNL     1       4.596  -5.783  13.319  1.00  0.00     0.049 A 
ATOM     50  C   UNL     1       6.974  -7.899   8.674  1.00  0.00     0.074 A 
ATOM     51  C   UNL     1       5.391  -5.728  14.449  1.00  0.00     0.029 A 
ATOM     52  N   UNL     1       5.375  -6.322  12.304  1.00  0.00    -0.354 N 
ATOM     53  N   UNL     1       6.552  -7.438   9.826  1.00  0.00    -0.248 NA
ATOM     54  C   UNL     1       8.382  -8.318   8.673  1.00  0.00     0.031 C 
ATOM     55  C   UNL     1       6.659  -6.216  14.111  1.00  0.00     0.029 A 
ATOM     56  C   UNL     1       6.643  -6.604  12.780  1.00  0.00     0.049 A 
ATOM     57  H   UNL     1       5.069  -6.480  11.381  1.00  0.00     0.167 HD
ATOM     58  C   UNL     1       7.628  -7.538  10.696  1.00  0.00     0.074 A 
ATOM     59  C   UNL     1       8.723  -8.110   9.937  1.00  0.00     0.031 C 
ATOM     60  C   UNL     1       7.705  -7.190  12.004  1.00  0.00     0.037 A 
BRANCH  47  61
ATOM     61  C   UNL     1       2.502  -4.766  14.323  1.00  0.00     0.064 A 
ATOM     62  C   UNL     1       1.462  -5.429  14.993  1.00  0.00     0.173 A 
ATOM     63  C   UNL     1       2.832  -3.470  14.746  1.00  0.00     0.173 A 
ATOM     64  F   UNL     1       1.094  -6.663  14.614  1.00  0.00    -0.203 F 
ATOM     65  C   UNL     1       0.746  -4.800  16.007  1.00  0.00     0.198 A 
ATOM     66  C   UNL     1       2.136  -2.857  15.785  1.00  0.00     0.198 A 
ATOM     67  F   UNL     1       3.820  -2.791  14.143  1.00  0.00    -0.203 F 
ATOM     68  F   UNL     1      -0.295  -5.425  16.576  1.00  0.00    -0.200 F 
ATOM     69  C   UNL     1       1.085  -3.516  16.404  1.00  0.00     0.200 A 
ATOM     70  F   UNL     1       2.471  -1.619  16.175  1.00  0.00    -0.200 F 
ATOM     71  F   UNL     1       0.388  -2.908  17.374  1.00  0.00    -0.200 F 
ENDBRANCH  47  61
BRANCH  48  72
ATOM     72  C   UNL     1       6.870  -8.638   6.180  1.00  0.00     0.064 A 
ATOM     73  C   UNL     1       7.159 -10.009   6.136  1.00  0.00     0.173 A 
ATOM     74  C   UNL     1       7.186  -7.866   5.054  1.00  0.00     0.173 A 
ATOM     75  F   UNL     1       6.888 -10.784   7.196  1.00  0.00    -0.203 F 
ATOM     76  C   UNL     1       7.752 -10.584   5.014  1.00  0.00     0.198 A 
ATOM     77  C   UNL     1       7.761  -8.446   3.925  1.00  0.00     0.198 A 
ATOM     78  F   UNL     1       6.922  -6.551   5.045  1.00  0.00    -0.203 F 
ATOM     79  F   UNL     1       8.044 -11.892   5.010  1.00  0.00    -0.200 F 
ATOM     80  C   UNL     1       8.047  -9.804   3.907  1.00  0.00     0.200 A 
ATOM     81  F   UNL     1       8.034  -7.692   2.851  1.00  0.00    -0.200 F 
ATOM     82  F   UNL     1       8.611 -10.358   2.825  1.00  0.00    -0.200 F 
ENDBRANCH  48  72
BRANCH  60  83
ATOM     83  C   UNL     1       9.001  -7.460  12.705  1.00  0.00     0.064 A 
ATOM     84  C   UNL     1      10.129  -6.655  12.496  1.00  0.00     0.173 A 
ATOM     85  C   UNL     1       9.097  -8.505  13.635  1.00  0.00     0.173 A 
ATOM     86  F   UNL     1      10.088  -5.654  11.604  1.00  0.00    -0.203 F 
ATOM     87  C   UNL     1      11.315  -6.899  13.182  1.00  0.00     0.198 A 
ATOM     88  C   UNL     1      10.276  -8.731  14.337  1.00  0.00     0.198 A 
ATOM     89  F   UNL     1       8.041  -9.298  13.871  1.00  0.00    -0.203 F 
ATOM     90  F   UNL     1      12.394  -6.141  12.942  1.00  0.00    -0.200 F 
ATOM     91  C   UNL     1      11.385  -7.931  14.107  1.00  0.00     0.200 A 
ATOM     92  F   UNL     1      10.340  -9.722  15.237  1.00  0.00    -0.200 F 
ATOM     93  F   UNL     1      12.526  -8.158  14.773  1.00  0.00    -0.200 F 
ENDBRANCH  60  83
ENDBRANCH  34  35
ENDBRANCH  26  29
ENDBRANCH  24  25
ENDBRANCH  23  24
ENDBRANCH   1  23
TORSDOF 14
