REMARK SMILES O=C(NCCCCNC(=O)c1cn(C2CC2)c2cc(N3CC[NH2+]CC3)ccc2c1=O)c1ccc(-c2c3nc(c(-c4c(F)c(F)c(F)c(F)c4F)c4ccc([nH]4)c(-c4c(F)c(F)c(F)c(F)c4F)c4nc(c(-c5c(F)c(F)c(F)c(F)c5F)c5ccc2[nH]5)C=C4)C=C3)cc1
REMARK SMILES IDX 5 1 4 2 3 3 1 4 2 5 31 7 32 8 93 9 33 10 92 11 34 12 35 13
REMARK SMILES IDX 36 14 86 15 37 16 91 17 85 18 87 19 38 20 90 21 84 22 83 23
REMARK SMILES IDX 39 25 71 26 51 27 70 28 52 29 55 30 69 31 88 32 53 33 54 34
REMARK SMILES IDX 68 36 89 37 56 38 40 39 41 40 49 41 42 42 43 43 47 44 50 45
REMARK SMILES IDX 44 46 45 47 48 48 46 49 72 50 73 51 81 52 74 53 75 54 79 55
REMARK SMILES IDX 82 56 76 57 77 58 80 59 78 60 57 61 58 62 66 63 59 64 60 65
REMARK SMILES IDX 64 66 67 67 61 68 62 69 65 70 63 71 6 72 7 73 8 74 9 75
REMARK SMILES IDX 10 77 11 78 12 79 29 80 13 81 28 82 30 83 17 84 27 85 18 86
REMARK SMILES IDX 26 87 19 88 14 89 15 90 16 91 20 92 21 93 25 94 22 95 24 96
REMARK SMILES IDX 23 97
REMARK H PARENT 3 6 87 24 55 35 8 76 23 98 23 99
REMARK Flexibility Score: inf
ROOT
ATOM      1  C   UNL     1       4.913  -2.299  -1.281  1.00  0.00     0.023 C 
ENDROOT
BRANCH   1   2
ATOM      2  C   UNL     1       4.563  -0.847  -0.992  1.00  0.00     0.116 C 
BRANCH   2   3
ATOM      3  N   UNL     1       3.130  -0.599  -0.980  1.00  0.00    -0.352 N 
ATOM      4  O   UNL     1       1.117  -0.076  -0.119  1.00  0.00    -0.269 OA
ATOM      5  C   UNL     1       2.340  -0.076   0.012  1.00  0.00     0.251 C 
ATOM      6  H   UNL     1       2.656  -0.842  -1.808  1.00  0.00     0.163 HD
BRANCH   5   7
ATOM      7  C   UNL     1       2.943   0.475   1.246  1.00  0.00     0.039 A 
ATOM      8  C   UNL     1       2.304   0.249   2.468  1.00  0.00     0.014 A 
ATOM      9  C   UNL     1       4.109   1.244   1.204  1.00  0.00     0.014 A 
ATOM     10  C   UNL     1       2.843   0.778   3.642  1.00  0.00     0.010 A 
ATOM     11  C   UNL     1       4.707   1.672   2.384  1.00  0.00     0.010 A 
ATOM     12  C   UNL     1       4.053   1.490   3.611  1.00  0.00    -0.014 A 
BRANCH  12  13
ATOM     13  C   UNL     1       4.585   2.147   4.831  1.00  0.00     0.031 A 
ATOM     14  C   UNL     1       4.695   3.649   4.877  1.00  0.00     0.074 A 
ATOM     15  C   UNL     1       4.972   1.410   5.889  1.00  0.00     0.049 A 
ATOM     16  N   UNL     1       5.124   4.420   5.844  1.00  0.00    -0.248 NA
ATOM     17  C   UNL     1       4.297   4.383   3.664  1.00  0.00     0.031 C 
ATOM     18  C   UNL     1       4.954  -0.051   5.951  1.00  0.00     0.029 A 
ATOM     19  N   UNL     1       5.446   1.791   7.120  1.00  0.00    -0.354 N 
ATOM     20  C   UNL     1       5.059   5.715   5.348  1.00  0.00     0.074 A 
ATOM     21  C   UNL     1       4.631   5.626   3.972  1.00  0.00     0.031 C 
ATOM     22  C   UNL     1       5.351  -0.442   7.173  1.00  0.00     0.029 A 
ATOM     23  C   UNL     1       5.683   0.738   7.968  1.00  0.00     0.049 A 
ATOM     24  H   UNL     1       5.602   2.731   7.370  1.00  0.00     0.167 HD
ATOM     25  C   UNL     1       5.289   6.882   5.994  1.00  0.00     0.037 A 
ATOM     26  C   UNL     1       6.111   0.728   9.246  1.00  0.00     0.037 A 
ATOM     27  C   UNL     1       5.667   6.970   7.377  1.00  0.00     0.049 A 
ATOM     28  C   UNL     1       6.386   2.034   9.942  1.00  0.00     0.074 A 
ATOM     29  C   UNL     1       5.848   8.103   8.147  1.00  0.00     0.029 A 
ATOM     30  N   UNL     1       5.922   5.879   8.194  1.00  0.00    -0.354 N 
ATOM     31  N   UNL     1       6.239   3.256   9.489  1.00  0.00    -0.248 NA
ATOM     32  C   UNL     1       6.886   1.963  11.322  1.00  0.00     0.031 C 
ATOM     33  C   UNL     1       6.268   7.699   9.417  1.00  0.00     0.029 A 
ATOM     34  C   UNL     1       6.299   6.314   9.453  1.00  0.00     0.049 A 
ATOM     35  H   UNL     1       5.845   4.936   7.920  1.00  0.00     0.167 HD
ATOM     36  C   UNL     1       6.616   4.098  10.527  1.00  0.00     0.074 A 
ATOM     37  C   UNL     1       6.981   3.248  11.642  1.00  0.00     0.031 C 
ATOM     38  C   UNL     1       6.660   5.452  10.551  1.00  0.00     0.037 A 
BRANCH  25  39
ATOM     39  C   UNL     1       5.118   8.155   5.216  1.00  0.00     0.064 A 
ATOM     40  C   UNL     1       3.855   8.587   4.782  1.00  0.00     0.173 A 
ATOM     41  C   UNL     1       6.223   8.968   4.928  1.00  0.00     0.173 A 
ATOM     42  F   UNL     1       2.766   7.840   5.021  1.00  0.00    -0.203 F 
ATOM     43  C   UNL     1       3.710   9.768   4.059  1.00  0.00     0.198 A 
ATOM     44  C   UNL     1       6.070  10.166   4.235  1.00  0.00     0.198 A 
ATOM     45  F   UNL     1       7.452   8.606   5.325  1.00  0.00    -0.203 F 
ATOM     46  F   UNL     1       2.502  10.130   3.605  1.00  0.00    -0.200 F 
ATOM     47  C   UNL     1       4.816  10.560   3.793  1.00  0.00     0.200 A 
ATOM     48  F   UNL     1       7.138  10.939   3.992  1.00  0.00    -0.200 F 
ATOM     49  F   UNL     1       4.675  11.701   3.104  1.00  0.00    -0.200 F 
ENDBRANCH  25  39
BRANCH  26  50
ATOM     50  C   UNL     1       6.255  -0.570   9.955  1.00  0.00     0.064 A 
ATOM     51  C   UNL     1       5.358  -0.937  10.968  1.00  0.00     0.173 A 
ATOM     52  C   UNL     1       7.252  -1.492   9.602  1.00  0.00     0.173 A 
ATOM     53  F   UNL     1       4.399  -0.083  11.354  1.00  0.00    -0.203 F 
ATOM     54  C   UNL     1       5.450  -2.177  11.597  1.00  0.00     0.198 A 
ATOM     55  C   UNL     1       7.328  -2.741  10.214  1.00  0.00     0.198 A 
ATOM     56  F   UNL     1       8.134  -1.190   8.637  1.00  0.00    -0.203 F 
ATOM     57  F   UNL     1       4.591  -2.496  12.575  1.00  0.00    -0.200 F 
ATOM     58  C   UNL     1       6.428  -3.083  11.212  1.00  0.00     0.200 A 
ATOM     59  F   UNL     1       8.264  -3.619   9.828  1.00  0.00    -0.200 F 
ATOM     60  F   UNL     1       6.502  -4.283  11.802  1.00  0.00    -0.200 F 
ENDBRANCH  26  50
BRANCH  38  61
ATOM     61  C   UNL     1       7.130   6.122  11.808  1.00  0.00     0.064 A 
ATOM     62  C   UNL     1       8.488   6.135  12.156  1.00  0.00     0.173 A 
ATOM     63  C   UNL     1       6.240   6.870  12.594  1.00  0.00     0.173 A 
ATOM     64  F   UNL     1       9.375   5.427  11.442  1.00  0.00    -0.203 F 
ATOM     65  C   UNL     1       8.939   6.879  13.243  1.00  0.00     0.198 A 
ATOM     66  C   UNL     1       6.699   7.635  13.662  1.00  0.00     0.198 A 
ATOM     67  F   UNL     1       4.933   6.898  12.294  1.00  0.00    -0.203 F 
ATOM     68  F   UNL     1      10.240   6.868  13.566  1.00  0.00    -0.200 F 
ATOM     69  C   UNL     1       8.048   7.640  13.985  1.00  0.00     0.200 A 
ATOM     70  F   UNL     1       5.840   8.386  14.365  1.00  0.00    -0.200 F 
ATOM     71  F   UNL     1       8.490   8.383  15.009  1.00  0.00    -0.200 F 
ENDBRANCH  38  61
ENDBRANCH  12  13
ENDBRANCH   5   7
ENDBRANCH   2   3
ENDBRANCH   1   2
BRANCH   1  72
ATOM     72  C   UNL     1       4.456  -2.817  -2.640  1.00  0.00     0.023 C 
BRANCH  72  73
ATOM     73  C   UNL     1       4.846  -1.945  -3.826  1.00  0.00     0.116 C 
BRANCH  73  74
ATOM     74  N   UNL     1       6.285  -1.748  -3.953  1.00  0.00    -0.352 N 
ATOM     75  C   UNL     1       7.096  -1.998  -5.032  1.00  0.00     0.256 C 
ATOM     76  H   UNL     1       6.736  -1.387  -3.156  1.00  0.00     0.163 HD
ATOM     77  O   UNL     1       8.291  -1.727  -4.986  1.00  0.00    -0.269 OA
BRANCH  75  78
ATOM     78  C   UNL     1       6.462  -2.559  -6.236  1.00  0.00     0.104 A 
ATOM     79  C   UNL     1       5.548  -1.814  -6.873  1.00  0.00     0.104 A 
ATOM     80  C   UNL     1       6.672  -3.952  -6.672  1.00  0.00     0.202 A 
ATOM     81  N   UNL     1       4.683  -2.260  -7.851  1.00  0.00    -0.343 N 
ATOM     82  C   UNL     1       5.835  -4.432  -7.799  1.00  0.00     0.047 A 
ATOM     83  O   UNL     1       7.464  -4.701  -6.113  1.00  0.00    -0.288 OA
ATOM     84  C   UNL     1       4.870  -3.579  -8.370  1.00  0.00     0.054 A 
ATOM     85  C   UNL     1       5.983  -5.752  -8.238  1.00  0.00     0.016 A 
ATOM     86  C   UNL     1       4.100  -4.088  -9.427  1.00  0.00     0.053 A 
ATOM     87  C   UNL     1       5.155  -6.243  -9.246  1.00  0.00     0.027 A 
ATOM     88  C   UNL     1       4.204  -5.420  -9.856  1.00  0.00     0.039 A 
BRANCH  81  89
ATOM     89  C   UNL     1       3.431  -1.505  -8.129  1.00  0.00     0.087 C 
ATOM     90  C   UNL     1       2.918  -0.323  -7.342  1.00  0.00     0.027 C 
ATOM     91  C   UNL     1       3.465  -0.125  -8.725  1.00  0.00     0.027 C 
ENDBRANCH  81  89
BRANCH  88  92
ATOM     92  N   UNL     1       3.377  -5.885 -10.852  1.00  0.00    -0.360 N 
ATOM     93  C   UNL     1       3.433  -5.286 -12.187  1.00  0.00     0.178 C 
ATOM     94  C   UNL     1       2.605  -7.121 -10.703  1.00  0.00     0.178 C 
ATOM     95  C   UNL     1       3.787  -6.368 -13.233  1.00  0.00     0.282 C 
ATOM     96  C   UNL     1       2.957  -8.127 -11.819  1.00  0.00     0.282 C 
ATOM     97  N   UNL     1       2.899  -7.552 -13.181  1.00  0.00    -0.343 N 
ATOM     98  H   UNL     1       3.212  -8.246 -13.861  1.00  0.00     0.346 HD
ATOM     99  H   UNL     1       1.942  -7.279 -13.404  1.00  0.00     0.346 HD
ENDBRANCH  88  92
ENDBRANCH  75  78
ENDBRANCH  73  74
ENDBRANCH  72  73
ENDBRANCH   1  72
TORSDOF 13
