REMARK SMILES O=C(NCCCCNC(=O)[C@@H]1CCCC[C@H]1C(=O)Nc1ccc(NC(=O)c2ccco2)cc1)c1ccc(-c2c3nc(c(-c4c(F)c(F)c(F)c(F)c4F)c4ccc([nH]4)c(-c4c(F)c(F)c(F)c(F)c4F)c4nc(c(-c5c(F)c(F)c(F)c(F)c5F)c5ccc2[nH]5)C=C4)C=C3)cc1
REMARK SMILES IDX 6 1 5 2 4 3 3 4 1 5 2 6 34 8 35 9 96 10 36 11 95 12 37 13
REMARK SMILES IDX 38 14 39 15 89 16 40 17 94 18 88 19 90 20 41 21 93 22 87 23
REMARK SMILES IDX 86 24 42 26 74 27 54 28 73 29 55 30 58 31 72 32 91 33 56 34
REMARK SMILES IDX 57 35 71 37 92 38 59 39 43 40 44 41 52 42 45 43 46 44 50 45
REMARK SMILES IDX 53 46 47 47 48 48 51 49 49 50 75 51 76 52 84 53 77 54 78 55
REMARK SMILES IDX 82 56 85 57 79 58 80 59 83 60 81 61 60 62 61 63 69 64 62 65
REMARK SMILES IDX 63 66 67 67 70 68 64 69 65 70 68 71 66 72 7 73 8 74 9 75
REMARK SMILES IDX 10 77 11 78 12 79 16 80 13 81 15 82 14 83 17 84 18 85 19 86
REMARK SMILES IDX 20 88 21 89 33 90 22 91 32 92 23 93 24 94 25 95 26 97 27 98
REMARK SMILES IDX 28 99 31 100 29 101 30 102
REMARK H PARENT 3 7 90 25 58 36 8 76 19 87 24 96
REMARK Flexibility Score: inf
ROOT
ATOM      1  C   UNL     1       4.455   1.526  -3.221  1.00  0.00     0.023 C 
ENDROOT
BRANCH   1   2
ATOM      2  C   UNL     1       4.892   0.261  -2.495  1.00  0.00     0.023 C 
BRANCH   2   3
ATOM      3  C   UNL     1       4.449   0.173  -1.049  1.00  0.00     0.116 C 
BRANCH   3   4
ATOM      4  N   UNL     1       3.017   0.339  -0.845  1.00  0.00    -0.352 N 
ATOM      5  O   UNL     1       1.044  -0.019   0.223  1.00  0.00    -0.269 OA
ATOM      6  C   UNL     1       2.258  -0.176   0.182  1.00  0.00     0.251 C 
ATOM      7  H   UNL     1       2.539   0.880  -1.514  1.00  0.00     0.163 HD
BRANCH   6   8
ATOM      8  C   UNL     1       2.947  -0.978   1.211  1.00  0.00     0.039 A 
ATOM      9  C   UNL     1       4.098  -0.474   1.816  1.00  0.00     0.014 A 
ATOM     10  C   UNL     1       2.514  -2.280   1.469  1.00  0.00     0.014 A 
ATOM     11  C   UNL     1       4.917  -1.332   2.530  1.00  0.00     0.010 A 
ATOM     12  C   UNL     1       3.288  -3.112   2.283  1.00  0.00     0.010 A 
ATOM     13  C   UNL     1       4.517  -2.657   2.782  1.00  0.00    -0.014 A 
BRANCH  13  14
ATOM     14  C   UNL     1       5.397  -3.506   3.622  1.00  0.00     0.031 A 
ATOM     15  C   UNL     1       6.074  -4.728   3.070  1.00  0.00     0.074 A 
ATOM     16  C   UNL     1       5.645  -3.097   4.881  1.00  0.00     0.049 A 
ATOM     17  N   UNL     1       6.926  -5.529   3.659  1.00  0.00    -0.248 NA
ATOM     18  C   UNL     1       5.752  -5.111   1.686  1.00  0.00     0.031 C 
ATOM     19  C   UNL     1       5.024  -1.933   5.519  1.00  0.00     0.029 A 
ATOM     20  N   UNL     1       6.509  -3.574   5.829  1.00  0.00    -0.354 N 
ATOM     21  C   UNL     1       7.222  -6.521   2.733  1.00  0.00     0.074 A 
ATOM     22  C   UNL     1       6.449  -6.231   1.544  1.00  0.00     0.031 C 
ATOM     23  C   UNL     1       5.587  -1.738   6.718  1.00  0.00     0.029 A 
ATOM     24  C   UNL     1       6.553  -2.801   6.963  1.00  0.00     0.049 A 
ATOM     25  H   UNL     1       7.046  -4.391   5.710  1.00  0.00     0.167 HD
ATOM     26  C   UNL     1       8.064  -7.574   2.869  1.00  0.00     0.037 A 
ATOM     27  C   UNL     1       7.287  -2.935   8.081  1.00  0.00     0.037 A 
ATOM     28  C   UNL     1       8.846  -7.840   4.051  1.00  0.00     0.049 A 
ATOM     29  C   UNL     1       8.241  -4.086   8.184  1.00  0.00     0.074 A 
ATOM     30  C   UNL     1       9.724  -8.884   4.291  1.00  0.00     0.029 A 
ATOM     31  N   UNL     1       8.851  -7.046   5.189  1.00  0.00    -0.354 N 
ATOM     32  N   UNL     1       8.497  -5.024   7.305  1.00  0.00    -0.248 NA
ATOM     33  C   UNL     1       8.999  -4.204   9.434  1.00  0.00     0.031 C 
ATOM     34  C   UNL     1      10.240  -8.735   5.584  1.00  0.00     0.029 A 
ATOM     35  C   UNL     1       9.713  -7.579   6.135  1.00  0.00     0.049 A 
ATOM     36  H   UNL     1       8.320  -6.225   5.307  1.00  0.00     0.167 HD
ATOM     37  C   UNL     1       9.434  -5.854   7.900  1.00  0.00     0.074 A 
ATOM     38  C   UNL     1       9.735  -5.280   9.197  1.00  0.00     0.031 C 
ATOM     39  C   UNL     1       9.981  -6.999   7.425  1.00  0.00     0.037 A 
BRANCH  26  40
ATOM     40  C   UNL     1       8.181  -8.531   1.720  1.00  0.00     0.064 A 
ATOM     41  C   UNL     1       8.892  -8.201   0.557  1.00  0.00     0.173 A 
ATOM     42  C   UNL     1       7.631  -9.819   1.809  1.00  0.00     0.173 A 
ATOM     43  F   UNL     1       9.425  -6.978   0.417  1.00  0.00    -0.203 F 
ATOM     44  C   UNL     1       9.040  -9.121  -0.478  1.00  0.00     0.198 A 
ATOM     45  C   UNL     1       7.799 -10.745   0.782  1.00  0.00     0.198 A 
ATOM     46  F   UNL     1       6.946 -10.187   2.902  1.00  0.00    -0.203 F 
ATOM     47  F   UNL     1       9.700  -8.775  -1.592  1.00  0.00    -0.200 F 
ATOM     48  C   UNL     1       8.501 -10.394  -0.362  1.00  0.00     0.200 A 
ATOM     49  F   UNL     1       7.287 -11.977   0.900  1.00  0.00    -0.200 F 
ATOM     50  F   UNL     1       8.655 -11.283  -1.354  1.00  0.00    -0.200 F 
ENDBRANCH  26  40
BRANCH  27  51
ATOM     51  C   UNL     1       7.132  -1.950   9.180  1.00  0.00     0.064 A 
ATOM     52  C   UNL     1       8.152  -1.040   9.485  1.00  0.00     0.173 A 
ATOM     53  C   UNL     1       5.943  -1.875   9.920  1.00  0.00     0.173 A 
ATOM     54  F   UNL     1       9.312  -1.084   8.814  1.00  0.00    -0.203 F 
ATOM     55  C   UNL     1       7.991  -0.096  10.496  1.00  0.00     0.198 A 
ATOM     56  C   UNL     1       5.772  -0.911  10.910  1.00  0.00     0.198 A 
ATOM     57  F   UNL     1       4.934  -2.719   9.658  1.00  0.00    -0.203 F 
ATOM     58  F   UNL     1       8.993   0.744  10.791  1.00  0.00    -0.200 F 
ATOM     59  C   UNL     1       6.798  -0.026  11.201  1.00  0.00     0.200 A 
ATOM     60  F   UNL     1       4.610  -0.834  11.572  1.00  0.00    -0.200 F 
ATOM     61  F   UNL     1       6.638   0.893  12.163  1.00  0.00    -0.200 F 
ENDBRANCH  27  51
BRANCH  39  62
ATOM     62  C   UNL     1      10.945  -7.703   8.330  1.00  0.00     0.064 A 
ATOM     63  C   UNL     1      10.499  -8.408   9.458  1.00  0.00     0.173 A 
ATOM     64  C   UNL     1      12.322  -7.670   8.072  1.00  0.00     0.173 A 
ATOM     65  F   UNL     1       9.191  -8.449   9.753  1.00  0.00    -0.203 F 
ATOM     66  C   UNL     1      11.402  -9.030  10.313  1.00  0.00     0.198 A 
ATOM     67  C   UNL     1      13.221  -8.313   8.917  1.00  0.00     0.198 A 
ATOM     68  F   UNL     1      12.795  -7.010   7.004  1.00  0.00    -0.203 F 
ATOM     69  F   UNL     1      10.959  -9.653  11.414  1.00  0.00    -0.200 F 
ATOM     70  C   UNL     1      12.761  -8.985  10.041  1.00  0.00     0.200 A 
ATOM     71  F   UNL     1      14.534  -8.274   8.652  1.00  0.00    -0.200 F 
ATOM     72  F   UNL     1      13.631  -9.577  10.871  1.00  0.00    -0.200 F 
ENDBRANCH  39  62
ENDBRANCH  13  14
ENDBRANCH   6   8
ENDBRANCH   3   4
ENDBRANCH   2   3
ENDBRANCH   1   2
BRANCH   1  73
ATOM     73  C   UNL     1       4.906   2.848  -2.599  1.00  0.00     0.116 C 
BRANCH  73  74
ATOM     74  N   UNL     1       6.282   3.130  -2.942  1.00  0.00    -0.356 N 
ATOM     75  C   UNL     1       6.841   3.926  -3.879  1.00  0.00     0.223 C 
ATOM     76  H   UNL     1       6.937   2.649  -2.386  1.00  0.00     0.163 HD
ATOM     77  O   UNL     1       8.070   3.838  -3.996  1.00  0.00    -0.275 OA
BRANCH  75  78
ATOM     78  C   UNL     1       6.097   4.977  -4.700  1.00  0.00     0.091 C 
ATOM     79  C   UNL     1       6.021   6.311  -3.939  1.00  0.00     0.014 C 
ATOM     80  C   UNL     1       4.755   4.665  -5.366  1.00  0.00     0.091 C 
ATOM     81  C   UNL     1       5.631   7.440  -4.899  1.00  0.00     0.001 C 
ATOM     82  C   UNL     1       4.355   5.782  -6.343  1.00  0.00     0.014 C 
ATOM     83  C   UNL     1       4.326   7.141  -5.636  1.00  0.00     0.001 C 
BRANCH  80  84
ATOM     84  C   UNL     1       4.510   3.280  -5.960  1.00  0.00     0.228 C 
ATOM     85  O   UNL     1       3.446   2.707  -5.680  1.00  0.00    -0.274 OA
ATOM     86  N   UNL     1       5.311   2.636  -6.855  1.00  0.00    -0.326 N 
ATOM     87  H   UNL     1       5.309   1.651  -6.833  1.00  0.00     0.169 HD
BRANCH  86  88
ATOM     88  C   UNL     1       6.135   3.248  -7.799  1.00  0.00     0.041 A 
ATOM     89  C   UNL     1       5.695   3.272  -9.116  1.00  0.00     0.028 A 
ATOM     90  C   UNL     1       7.346   3.838  -7.475  1.00  0.00     0.028 A 
ATOM     91  C   UNL     1       6.341   4.087 -10.042  1.00  0.00     0.028 A 
ATOM     92  C   UNL     1       7.963   4.692  -8.389  1.00  0.00     0.028 A 
ATOM     93  C   UNL     1       7.401   4.902  -9.651  1.00  0.00     0.041 A 
BRANCH  93  94
ATOM     94  N   UNL     1       7.927   5.962 -10.408  1.00  0.00    -0.319 N 
ATOM     95  C   UNL     1       7.478   6.623 -11.536  1.00  0.00     0.291 C 
ATOM     96  H   UNL     1       8.786   6.301 -10.067  1.00  0.00     0.170 HD
ATOM     97  O   UNL     1       8.155   7.574 -11.933  1.00  0.00    -0.265 OA
BRANCH  95  98
ATOM     98  C   UNL     1       6.249   6.229 -12.176  1.00  0.00     0.191 A 
ATOM     99  C   UNL     1       4.918   6.439 -11.858  1.00  0.00     0.056 A 
ATOM    100  O   UNL     1       6.333   5.478 -13.317  1.00  0.00    -0.459 OA
ATOM    101  C   UNL     1       4.157   5.747 -12.835  1.00  0.00     0.043 A 
ATOM    102  C   UNL     1       5.065   5.189 -13.704  1.00  0.00     0.196 A 
ENDBRANCH  95  98
ENDBRANCH  93  94
ENDBRANCH  86  88
ENDBRANCH  80  84
ENDBRANCH  75  78
ENDBRANCH  73  74
ENDBRANCH   1  73
TORSDOF 15
