REMARK SMILES CC1(C)[C@H](C(=O)NCCCCNC(=O)c2ccc(-c3c4nc(c(-c5c(F)c(F)c(F)c(F)c5F)c5ccc([nH]5)c(-c5c(F)c(F)c(F)c(F)c5F)c5nc(c(-c6c(F)c(F)c(F)c(F)c6F)c6ccc3[nH]6)C=C5)C=C4)cc2)[C@@H]1C(=O)Nc1ccc(NC(=O)C2CCC2)cc1
REMARK SMILES IDX 8 1 7 2 5 3 6 4 4 6 1 7 2 8 3 9 78 10 79 11 80 12 81 13
REMARK SMILES IDX 82 15 83 16 94 17 84 18 93 19 85 20 86 21 87 22 88 24 89 25
REMARK SMILES IDX 90 26 92 27 91 28 9 29 10 30 11 31 12 32 13 33 14 35 15 36
REMARK SMILES IDX 16 37 77 38 17 39 76 40 18 41 19 42 20 43 70 44 21 45 75 46
REMARK SMILES IDX 69 47 71 48 22 49 74 50 68 51 67 52 23 54 55 55 35 56 54 57
REMARK SMILES IDX 36 58 39 59 53 60 72 61 37 62 38 63 52 65 73 66 40 67 24 68
REMARK SMILES IDX 25 69 33 70 26 71 27 72 31 73 34 74 28 75 29 76 32 77 30 78
REMARK SMILES IDX 56 79 57 80 65 81 58 82 59 83 63 84 66 85 60 86 61 87 64 88
REMARK SMILES IDX 62 89 41 90 42 91 50 92 43 93 44 94 48 95 51 96 45 97 46 98
REMARK SMILES IDX 49 99 47 100
REMARK H PARENT 7 5 81 14 86 23 12 34 71 53 39 64
REMARK Flexibility Score: inf
ROOT
ATOM      1  C   UNL     1      -0.491   3.067  -0.350  1.00  0.00     0.116 C 
ENDROOT
BRANCH   1   2
ATOM      2  N   UNL     1      -0.798   2.226  -1.486  1.00  0.00    -0.356 N 
ATOM      3  C   UNL     1      -0.877   0.884  -1.712  1.00  0.00     0.224 C 
ATOM      4  O   UNL     1      -1.164   0.573  -2.871  1.00  0.00    -0.275 OA
ATOM      5  H   UNL     1      -0.997   2.752  -2.294  1.00  0.00     0.163 HD
BRANCH   3   6
ATOM      6  C   UNL     1      -0.674  -0.237  -0.760  1.00  0.00     0.098 C 
ATOM      7  C   UNL     1       1.156  -1.812   0.120  1.00  0.00     0.013 C 
ATOM      8  C   UNL     1       0.507  -0.445   0.174  1.00  0.00    -0.011 C 
ATOM      9  C   UNL     1       1.524   0.648   0.384  1.00  0.00     0.013 C 
ATOM     10  C   UNL     1      -0.941  -0.380   0.706  1.00  0.00     0.098 C 
BRANCH  10  11
ATOM     11  C   UNL     1      -1.478   0.646   1.620  1.00  0.00     0.228 C 
ATOM     12  O   UNL     1      -0.805   1.048   2.565  1.00  0.00    -0.274 OA
ATOM     13  N   UNL     1      -2.757   1.131   1.449  1.00  0.00    -0.326 N 
ATOM     14  H   UNL     1      -3.149   1.625   2.205  1.00  0.00     0.169 HD
BRANCH  13  15
ATOM     15  C   UNL     1      -3.552   0.988   0.309  1.00  0.00     0.041 A 
ATOM     16  C   UNL     1      -3.807   2.154  -0.398  1.00  0.00     0.028 A 
ATOM     17  C   UNL     1      -3.987  -0.233  -0.197  1.00  0.00     0.028 A 
ATOM     18  C   UNL     1      -4.309   2.077  -1.688  1.00  0.00     0.028 A 
ATOM     19  C   UNL     1      -4.674  -0.266  -1.421  1.00  0.00     0.028 A 
ATOM     20  C   UNL     1      -4.844   0.903  -2.178  1.00  0.00     0.041 A 
BRANCH  20  21
ATOM     21  N   UNL     1      -5.536   0.828  -3.390  1.00  0.00    -0.326 N 
ATOM     22  C   UNL     1      -6.017   1.769  -4.279  1.00  0.00     0.227 C 
ATOM     23  H   UNL     1      -5.721  -0.097  -3.672  1.00  0.00     0.169 HD
ATOM     24  O   UNL     1      -6.560   1.287  -5.291  1.00  0.00    -0.274 OA
BRANCH  22  25
ATOM     25  C   UNL     1      -5.932   3.309  -4.100  1.00  0.00     0.079 C 
ATOM     26  C   UNL     1      -7.186   4.074  -4.662  1.00  0.00     0.013 C 
ATOM     27  C   UNL     1      -6.239   4.092  -2.782  1.00  0.00     0.013 C 
ATOM     28  C   UNL     1      -6.902   5.176  -3.639  1.00  0.00     0.002 C 
ENDBRANCH  22  25
ENDBRANCH  20  21
ENDBRANCH  13  15
ENDBRANCH  10  11
ENDBRANCH   3   6
ENDBRANCH   1   2
BRANCH   1  29
ATOM     29  C   UNL     1       0.488   4.174  -0.728  1.00  0.00     0.023 C 
BRANCH  29  30
ATOM     30  C   UNL     1      -0.120   5.290  -1.586  1.00  0.00     0.023 C 
BRANCH  30  31
ATOM     31  C   UNL     1      -1.311   6.020  -0.967  1.00  0.00     0.116 C 
BRANCH  31  32
ATOM     32  N   UNL     1      -1.013   6.588   0.340  1.00  0.00    -0.352 N 
ATOM     33  C   UNL     1      -1.106   7.892   0.765  1.00  0.00     0.251 C 
ATOM     34  H   UNL     1      -0.699   5.946   1.017  1.00  0.00     0.163 HD
ATOM     35  O   UNL     1      -0.672   8.226   1.863  1.00  0.00    -0.269 OA
BRANCH  33  36
ATOM     36  C   UNL     1      -1.707   8.899  -0.128  1.00  0.00     0.039 A 
ATOM     37  C   UNL     1      -0.983  10.054  -0.431  1.00  0.00     0.014 A 
ATOM     38  C   UNL     1      -2.960   8.671  -0.703  1.00  0.00     0.014 A 
ATOM     39  C   UNL     1      -1.472  10.938  -1.394  1.00  0.00     0.010 A 
ATOM     40  C   UNL     1      -3.417   9.520  -1.705  1.00  0.00     0.010 A 
ATOM     41  C   UNL     1      -2.665  10.646  -2.076  1.00  0.00    -0.014 A 
BRANCH  41  42
ATOM     42  C   UNL     1      -3.120  11.468  -3.224  1.00  0.00     0.031 A 
ATOM     43  C   UNL     1      -4.404  12.238  -3.141  1.00  0.00     0.074 A 
ATOM     44  C   UNL     1      -2.424  11.430  -4.377  1.00  0.00     0.049 A 
ATOM     45  N   UNL     1      -5.031  12.903  -4.077  1.00  0.00    -0.248 NA
ATOM     46  C   UNL     1      -5.086  12.240  -1.838  1.00  0.00     0.031 C 
ATOM     47  C   UNL     1      -1.182  10.684  -4.591  1.00  0.00     0.029 A 
ATOM     48  N   UNL     1      -2.673  12.015  -5.593  1.00  0.00    -0.354 N 
ATOM     49  C   UNL     1      -6.186  13.390  -3.483  1.00  0.00     0.074 A 
ATOM     50  C   UNL     1      -6.196  12.909  -2.118  1.00  0.00     0.031 C 
ATOM     51  C   UNL     1      -0.773  10.865  -5.856  1.00  0.00     0.029 A 
ATOM     52  C   UNL     1      -1.744  11.700  -6.555  1.00  0.00     0.049 A 
ATOM     53  H   UNL     1      -3.444  12.604  -5.761  1.00  0.00     0.167 HD
ATOM     54  C   UNL     1      -7.142  14.183  -4.024  1.00  0.00     0.037 A 
ATOM     55  C   UNL     1      -1.693  12.031  -7.859  1.00  0.00     0.037 A 
ATOM     56  C   UNL     1      -7.115  14.676  -5.376  1.00  0.00     0.049 A 
ATOM     57  C   UNL     1      -2.785  12.882  -8.445  1.00  0.00     0.074 A 
ATOM     58  C   UNL     1      -7.993  15.548  -5.994  1.00  0.00     0.029 A 
ATOM     59  N   UNL     1      -6.160  14.332  -6.322  1.00  0.00    -0.354 N 
ATOM     60  N   UNL     1      -3.838  13.394  -7.856  1.00  0.00    -0.248 NA
ATOM     61  C   UNL     1      -2.687  13.195  -9.877  1.00  0.00     0.031 C 
ATOM     62  C   UNL     1      -7.597  15.697  -7.327  1.00  0.00     0.029 A 
ATOM     63  C   UNL     1      -6.448  14.949  -7.529  1.00  0.00     0.049 A 
ATOM     64  H   UNL     1      -5.392  13.738  -6.160  1.00  0.00     0.167 HD
ATOM     65  C   UNL     1      -4.518  14.101  -8.837  1.00  0.00     0.074 A 
ATOM     66  C   UNL     1      -3.750  13.966 -10.058  1.00  0.00     0.031 C 
ATOM     67  C   UNL     1      -5.676  14.799  -8.736  1.00  0.00     0.037 A 
BRANCH  54  68
ATOM     68  C   UNL     1      -8.298  14.568  -3.151  1.00  0.00     0.064 A 
ATOM     69  C   UNL     1      -8.146  15.469  -2.086  1.00  0.00     0.173 A 
ATOM     70  C   UNL     1      -9.581  14.057  -3.401  1.00  0.00     0.173 A 
ATOM     71  F   UNL     1      -6.938  15.976  -1.799  1.00  0.00    -0.203 F 
ATOM     72  C   UNL     1      -9.230  15.823  -1.287  1.00  0.00     0.198 A 
ATOM     73  C   UNL     1     -10.668  14.435  -2.617  1.00  0.00     0.198 A 
ATOM     74  F   UNL     1      -9.781  13.196  -4.410  1.00  0.00    -0.203 F 
ATOM     75  F   UNL     1      -9.051  16.649  -0.247  1.00  0.00    -0.200 F 
ATOM     76  C   UNL     1     -10.490  15.311  -1.557  1.00  0.00     0.200 A 
ATOM     77  F   UNL     1     -11.887  13.947  -2.885  1.00  0.00    -0.200 F 
ATOM     78  F   UNL     1     -11.533  15.656  -0.789  1.00  0.00    -0.200 F 
ENDBRANCH  54  68
BRANCH  55  79
ATOM     79  C   UNL     1      -0.562  11.559  -8.698  1.00  0.00     0.064 A 
ATOM     80  C   UNL     1       0.413  12.455  -9.156  1.00  0.00     0.173 A 
ATOM     81  C   UNL     1      -0.427  10.208  -9.052  1.00  0.00     0.173 A 
ATOM     82  F   UNL     1       0.314  13.759  -8.861  1.00  0.00    -0.203 F 
ATOM     83  C   UNL     1       1.475  12.021  -9.947  1.00  0.00     0.198 A 
ATOM     84  C   UNL     1       0.649   9.771  -9.822  1.00  0.00     0.198 A 
ATOM     85  F   UNL     1      -1.332   9.311  -8.635  1.00  0.00    -0.203 F 
ATOM     86  F   UNL     1       2.374  12.904 -10.400  1.00  0.00    -0.200 F 
ATOM     87  C   UNL     1       1.596  10.678 -10.273  1.00  0.00     0.200 A 
ATOM     88  F   UNL     1       0.770   8.471 -10.124  1.00  0.00    -0.200 F 
ATOM     89  F   UNL     1       2.622  10.260 -11.027  1.00  0.00    -0.200 F 
ENDBRANCH  55  79
BRANCH  67  90
ATOM     90  C   UNL     1      -6.179  15.478  -9.974  1.00  0.00     0.064 A 
ATOM     91  C   UNL     1      -6.768  14.749 -11.018  1.00  0.00     0.173 A 
ATOM     92  C   UNL     1      -6.122  16.874 -10.096  1.00  0.00     0.173 A 
ATOM     93  F   UNL     1      -6.829  13.410 -10.955  1.00  0.00    -0.203 F 
ATOM     94  C   UNL     1      -7.270  15.394 -12.145  1.00  0.00     0.198 A 
ATOM     95  C   UNL     1      -6.648  17.517 -11.212  1.00  0.00     0.198 A 
ATOM     96  F   UNL     1      -5.571  17.615  -9.122  1.00  0.00    -0.203 F 
ATOM     97  F   UNL     1      -7.798  14.676 -13.146  1.00  0.00    -0.200 F 
ATOM     98  C   UNL     1      -7.218  16.777 -12.237  1.00  0.00     0.200 A 
ATOM     99  F   UNL     1      -6.606  18.854 -11.295  1.00  0.00    -0.200 F 
ATOM    100  F   UNL     1      -7.713  17.396 -13.317  1.00  0.00    -0.200 F 
ENDBRANCH  67  90
ENDBRANCH  41  42
ENDBRANCH  33  36
ENDBRANCH  31  32
ENDBRANCH  30  31
ENDBRANCH  29  30
ENDBRANCH   1  29
TORSDOF 15
