REMARK SMILES CN(C)c1c(Cl)cccc1NS(=O)(=O)c1ccc(F)c(C(=O)NCCCCNC(=O)c2ccc(-c3c4nc(c(-c5c(F)c(F)c(F)c(F)c5F)c5ccc([nH]5)c(-c5c(F)c(F)c(F)c(F)c5F)c5nc(c(-c6c(F)c(F)c(F)c(F)c6F)c6ccc3[nH]6)C=C5)C=C4)cc2)c1
REMARK SMILES IDX 24 1 23 2 21 3 22 4 20 6 15 7 16 8 94 9 17 10 18 11 19 12
REMARK SMILES IDX 12 13 13 14 14 15 11 16 10 18 4 19 5 20 6 21 7 22 9 23 8 24
REMARK SMILES IDX 2 25 1 26 3 27 25 28 26 29 27 30 28 31 29 32 30 34 31 35
REMARK SMILES IDX 32 36 93 37 33 38 92 39 34 40 35 41 36 42 86 43 37 44 91 45
REMARK SMILES IDX 85 46 87 47 38 48 90 49 84 50 83 51 39 53 71 54 51 55 70 56
REMARK SMILES IDX 52 57 55 58 69 59 88 60 53 61 54 62 68 64 89 65 56 66 40 67
REMARK SMILES IDX 41 68 49 69 42 70 43 71 47 72 50 73 44 74 45 75 48 76 46 77
REMARK SMILES IDX 72 78 73 79 81 80 74 81 75 82 79 83 82 84 76 85 77 86 80 87
REMARK SMILES IDX 78 88 57 89 58 90 66 91 59 92 60 93 64 94 67 95 61 96 62 97
REMARK SMILES IDX 65 98 63 99
REMARK H PARENT 23 5 11 17 28 33 87 52 55 63
REMARK Flexibility Score: inf
ROOT
ATOM      1  C   UNL     1       0.867   9.763  -2.007  1.00  0.00     0.116 C 
ENDROOT
BRANCH   1   2
ATOM      2  N   UNL     1       1.457   8.606  -2.658  1.00  0.00    -0.352 N 
ATOM      3  C   UNL     1       0.870   7.507  -3.252  1.00  0.00     0.254 C 
ATOM      4  O   UNL     1       1.604   6.714  -3.842  1.00  0.00    -0.269 OA
ATOM      5  H   UNL     1       2.442   8.606  -2.680  1.00  0.00     0.163 HD
BRANCH   3   6
ATOM      6  C   UNL     1      -0.568   7.162  -3.092  1.00  0.00     0.076 A 
ATOM      7  C   UNL     1      -2.154   5.409  -2.484  1.00  0.00     0.088 A 
ATOM      8  C   UNL     1      -3.152   6.375  -2.309  1.00  0.00     0.025 A 
ATOM      9  C   UNL     1      -0.888   5.799  -2.945  1.00  0.00     0.039 A 
ATOM     10  C   UNL     1      -2.880   7.711  -2.620  1.00  0.00     0.041 A 
ATOM     11  C   UNL     1      -1.601   8.091  -3.029  1.00  0.00     0.136 A 
ATOM     12  F   UNL     1      -1.411   9.372  -3.377  1.00  0.00    -0.206 F 
BRANCH   7  13
ATOM     13  S   UNL     1      -2.524   3.674  -2.233  1.00  0.00     0.261 S 
ATOM     14  O   UNL     1      -2.120   2.980  -3.440  1.00  0.00    -0.201 OA
ATOM     15  O   UNL     1      -3.899   3.607  -1.784  1.00  0.00    -0.201 OA
BRANCH  13  16
ATOM     16  N   UNL     1      -1.614   3.094  -0.918  1.00  0.00    -0.277 N 
ATOM     17  H   UNL     1      -2.075   2.650  -0.171  1.00  0.00     0.180 HD
BRANCH  16  18
ATOM     18  C   UNL     1      -0.185   3.240  -0.876  1.00  0.00     0.074 A 
ATOM     19  C   UNL     1       0.709   2.155  -1.069  1.00  0.00     0.080 A 
ATOM     20  C   UNL     1       2.096   2.459  -1.000  1.00  0.00     0.066 A 
ATOM     21  Cl  UNL     1       3.330   1.280  -1.314  1.00  0.00    -0.082 Cl
ATOM     22  C   UNL     1       2.553   3.745  -0.672  1.00  0.00     0.023 A 
ATOM     23  C   UNL     1       0.289   4.497  -0.484  1.00  0.00     0.029 A 
ATOM     24  C   UNL     1       1.648   4.758  -0.391  1.00  0.00     0.004 A 
BRANCH  19  25
ATOM     25  N   UNL     1       0.218   0.848  -1.158  1.00  0.00    -0.375 N 
ATOM     26  C   UNL     1       0.564  -0.085  -0.092  1.00  0.00     0.143 C 
ATOM     27  C   UNL     1      -0.236   0.325  -2.437  1.00  0.00     0.143 C 
ENDBRANCH  19  25
ENDBRANCH  16  18
ENDBRANCH  13  16
ENDBRANCH   7  13
ENDBRANCH   3   6
ENDBRANCH   1   2
BRANCH   1  28
ATOM     28  C   UNL     1       1.659  10.338  -0.837  1.00  0.00     0.023 C 
BRANCH  28  29
ATOM     29  C   UNL     1       3.089  10.796  -1.102  1.00  0.00     0.023 C 
BRANCH  29  30
ATOM     30  C   UNL     1       3.319  11.673  -2.327  1.00  0.00     0.116 C 
BRANCH  30  31
ATOM     31  N   UNL     1       2.539  12.901  -2.341  1.00  0.00    -0.352 N 
ATOM     32  C   UNL     1       2.940  14.205  -2.521  1.00  0.00     0.251 C 
ATOM     33  H   UNL     1       1.572  12.780  -2.198  1.00  0.00     0.163 HD
ATOM     34  O   UNL     1       2.118  15.114  -2.444  1.00  0.00    -0.269 OA
BRANCH  32  35
ATOM     35  C   UNL     1       4.366  14.530  -2.755  1.00  0.00     0.039 A 
ATOM     36  C   UNL     1       4.940  15.584  -2.036  1.00  0.00     0.014 A 
ATOM     37  C   UNL     1       5.143  13.798  -3.654  1.00  0.00     0.014 A 
ATOM     38  C   UNL     1       6.311  15.835  -2.143  1.00  0.00     0.010 A 
ATOM     39  C   UNL     1       6.522  13.994  -3.697  1.00  0.00     0.010 A 
ATOM     40  C   UNL     1       7.123  15.006  -2.933  1.00  0.00    -0.014 A 
BRANCH  40  41
ATOM     41  C   UNL     1       8.602  15.165  -2.957  1.00  0.00     0.031 A 
ATOM     42  C   UNL     1       9.307  15.515  -4.238  1.00  0.00     0.074 A 
ATOM     43  C   UNL     1       9.318  14.925  -1.840  1.00  0.00     0.049 A 
ATOM     44  N   UNL     1      10.591  15.607  -4.477  1.00  0.00    -0.248 NA
ATOM     45  C   UNL     1       8.459  15.770  -5.414  1.00  0.00     0.031 C 
ATOM     46  C   UNL     1       8.758  14.536  -0.544  1.00  0.00     0.029 A 
ATOM     47  N   UNL     1      10.673  14.964  -1.614  1.00  0.00    -0.354 N 
ATOM     48  C   UNL     1      10.703  15.916  -5.825  1.00  0.00     0.074 A 
ATOM     49  C   UNL     1       9.363  15.945  -6.367  1.00  0.00     0.031 C 
ATOM     50  C   UNL     1       9.755  14.402   0.345  1.00  0.00     0.029 A 
ATOM     51  C   UNL     1      11.028  14.651  -0.324  1.00  0.00     0.049 A 
ATOM     52  H   UNL     1      11.328  15.195  -2.312  1.00  0.00     0.167 HD
ATOM     53  C   UNL     1      11.822  16.177  -6.540  1.00  0.00     0.037 A 
ATOM     54  C   UNL     1      12.242  14.568   0.254  1.00  0.00     0.037 A 
ATOM     55  C   UNL     1      13.153  16.184  -5.992  1.00  0.00     0.049 A 
ATOM     56  C   UNL     1      13.471  14.856  -0.566  1.00  0.00     0.074 A 
ATOM     57  C   UNL     1      14.342  16.493  -6.627  1.00  0.00     0.029 A 
ATOM     58  N   UNL     1      13.469  15.872  -4.678  1.00  0.00    -0.354 N 
ATOM     59  N   UNL     1      13.558  15.197  -1.829  1.00  0.00    -0.248 NA
ATOM     60  C   UNL     1      14.768  14.749   0.117  1.00  0.00     0.031 C 
ATOM     61  C   UNL     1      15.383  16.327  -5.711  1.00  0.00     0.029 A 
ATOM     62  C   UNL     1      14.838  15.964  -4.490  1.00  0.00     0.049 A 
ATOM     63  H   UNL     1      12.817  15.622  -3.984  1.00  0.00     0.167 HD
ATOM     64  C   UNL     1      14.912  15.371  -2.084  1.00  0.00     0.074 A 
ATOM     65  C   UNL     1      15.610  15.110  -0.843  1.00  0.00     0.031 C 
ATOM     66  C   UNL     1      15.519  15.715  -3.245  1.00  0.00     0.037 A 
BRANCH  53  67
ATOM     67  C   UNL     1      11.666  16.506  -7.996  1.00  0.00     0.064 A 
ATOM     68  C   UNL     1      12.142  15.627  -8.981  1.00  0.00     0.173 A 
ATOM     69  C   UNL     1      11.126  17.731  -8.414  1.00  0.00     0.173 A 
ATOM     70  F   UNL     1      12.674  14.445  -8.633  1.00  0.00    -0.203 F 
ATOM     71  C   UNL     1      12.097  15.970 -10.329  1.00  0.00     0.198 A 
ATOM     72  C   UNL     1      11.057  18.059  -9.765  1.00  0.00     0.198 A 
ATOM     73  F   UNL     1      10.649  18.601  -7.512  1.00  0.00    -0.203 F 
ATOM     74  F   UNL     1      12.591  15.130 -11.250  1.00  0.00    -0.200 F 
ATOM     75  C   UNL     1      11.553  17.184 -10.720  1.00  0.00     0.200 A 
ATOM     76  F   UNL     1      10.511  19.223 -10.143  1.00  0.00    -0.200 F 
ATOM     77  F   UNL     1      11.507  17.511 -12.019  1.00  0.00    -0.200 F 
ENDBRANCH  53  67
BRANCH  54  78
ATOM     78  C   UNL     1      12.353  14.228   1.698  1.00  0.00     0.064 A 
ATOM     79  C   UNL     1      12.041  12.946   2.176  1.00  0.00     0.173 A 
ATOM     80  C   UNL     1      12.761  15.190   2.632  1.00  0.00     0.173 A 
ATOM     81  F   UNL     1      11.642  11.990   1.324  1.00  0.00    -0.203 F 
ATOM     82  C   UNL     1      12.120  12.646   3.534  1.00  0.00     0.198 A 
ATOM     83  C   UNL     1      12.866  14.881   3.986  1.00  0.00     0.198 A 
ATOM     84  F   UNL     1      13.090  16.424   2.221  1.00  0.00    -0.203 F 
ATOM     85  F   UNL     1      11.787  11.423   3.969  1.00  0.00    -0.200 F 
ATOM     86  C   UNL     1      12.537  13.612   4.438  1.00  0.00     0.200 A 
ATOM     87  F   UNL     1      13.294  15.810   4.852  1.00  0.00    -0.200 F 
ATOM     88  F   UNL     1      12.627  13.318   5.742  1.00  0.00    -0.200 F 
ENDBRANCH  54  78
BRANCH  66  89
ATOM     89  C   UNL     1      17.012  15.863  -3.238  1.00  0.00     0.064 A 
ATOM     90  C   UNL     1      17.600  17.129  -3.381  1.00  0.00     0.173 A 
ATOM     91  C   UNL     1      17.858  14.747  -3.182  1.00  0.00     0.173 A 
ATOM     92  F   UNL     1      16.832  18.227  -3.448  1.00  0.00    -0.203 F 
ATOM     93  C   UNL     1      18.980  17.270  -3.489  1.00  0.00     0.198 A 
ATOM     94  C   UNL     1      19.241  14.894  -3.261  1.00  0.00     0.198 A 
ATOM     95  F   UNL     1      17.345  13.517  -3.033  1.00  0.00    -0.203 F 
ATOM     96  F   UNL     1      19.517  18.485  -3.666  1.00  0.00    -0.200 F 
ATOM     97  C   UNL     1      19.799  16.153  -3.427  1.00  0.00     0.200 A 
ATOM     98  F   UNL     1      20.033  13.816  -3.179  1.00  0.00    -0.200 F 
ATOM     99  F   UNL     1      21.129  16.290  -3.525  1.00  0.00    -0.200 F 
ENDBRANCH  66  89
ENDBRANCH  40  41
ENDBRANCH  32  35
ENDBRANCH  30  31
ENDBRANCH  29  30
ENDBRANCH  28  29
ENDBRANCH   1  28
TORSDOF 15
