REMARK SMILES CCCC[C@H](C(=O)OC)[C@H](O)C(=O)NCCCCNC(=O)c1ccc(-c2c3nc(c(-c4c(F)c(F)c(F)c(F)c4F)c4ccc([nH]4)c(-c4c(F)c(F)c(F)c(F)c4F)c4nc(c(-c5c(F)c(F)c(F)c(F)c5F)c5ccc2[nH]5)C=C4)C=C3)cc1
REMARK SMILES IDX 15 1 14 2 12 3 13 4 10 6 5 7 4 8 3 9 2 10 1 11 6 12 7 13
REMARK SMILES IDX 8 14 9 15 11 16 16 18 17 19 18 20 19 21 20 22 21 24 22 25
REMARK SMILES IDX 23 26 84 27 24 28 83 29 25 30 26 31 27 32 77 33 28 34 82 35
REMARK SMILES IDX 76 36 78 37 29 38 81 39 75 40 74 41 30 43 62 44 42 45 61 46
REMARK SMILES IDX 43 47 46 48 60 49 79 50 44 51 45 52 59 54 80 55 47 56 31 57
REMARK SMILES IDX 32 58 40 59 33 60 34 61 38 62 41 63 35 64 36 65 39 66 37 67
REMARK SMILES IDX 63 68 64 69 72 70 65 71 66 72 70 73 73 74 67 75 68 76 71 77
REMARK SMILES IDX 69 78 48 79 49 80 57 81 50 82 51 83 55 84 58 85 52 86 53 87
REMARK SMILES IDX 56 88 54 89
REMARK H PARENT 14 5 11 17 19 23 78 42 46 53
REMARK Flexibility Score: inf
ROOT
ATOM      1  C   UNL     1      -3.013   1.409   0.257  1.00  0.00     0.116 C 
ENDROOT
BRANCH   1   2
ATOM      2  N   UNL     1      -3.654   2.342   1.171  1.00  0.00    -0.354 N 
ATOM      3  C   UNL     1      -3.076   3.271   1.993  1.00  0.00     0.249 C 
ATOM      4  O   UNL     1      -3.807   3.990   2.675  1.00  0.00    -0.272 OA
ATOM      5  H   UNL     1      -4.637   2.300   1.202  1.00  0.00     0.163 HD
BRANCH   3   6
ATOM      6  C   UNL     1      -1.543   3.403   2.055  1.00  0.00     0.217 C 
BRANCH   6   7
ATOM      7  C   UNL     1      -1.010   3.909   0.702  1.00  0.00     0.137 C 
BRANCH   7   8
ATOM      8  C   UNL     1       0.423   3.467   0.340  1.00  0.00     0.018 C 
BRANCH   8   9
ATOM      9  C   UNL     1       0.546   2.985  -1.117  1.00  0.00     0.001 C 
BRANCH   9  10
ATOM     10  C   UNL     1       0.185   4.011  -2.194  1.00  0.00    -0.003 C 
ATOM     11  C   UNL     1       1.095   5.228  -2.194  1.00  0.00     0.004 C 
ENDBRANCH   9  10
ENDBRANCH   8   9
ENDBRANCH   7   8
BRANCH   7  12
ATOM     12  C   UNL     1      -1.127   5.419   0.735  1.00  0.00     0.311 C 
ATOM     13  O   UNL     1      -0.345   6.174   1.298  1.00  0.00    -0.252 OA
BRANCH  12  14
ATOM     14  O   UNL     1      -2.250   5.807   0.068  1.00  0.00    -0.469 OA
ATOM     15  C   UNL     1      -2.484   7.215   0.072  1.00  0.00     0.282 C 
ENDBRANCH  12  14
ENDBRANCH   7  12
ENDBRANCH   6   7
BRANCH   6  16
ATOM     16  O   UNL     1      -0.984   2.143   2.438  1.00  0.00    -0.382 OA
ATOM     17  H   UNL     1      -1.233   1.468   1.788  1.00  0.00     0.211 HD
ENDBRANCH   6  16
ENDBRANCH   3   6
ENDBRANCH   1   2
BRANCH   1  18
ATOM     18  C   UNL     1      -3.483  -0.025   0.456  1.00  0.00     0.023 C 
BRANCH  18  19
ATOM     19  C   UNL     1      -4.970  -0.253   0.194  1.00  0.00     0.023 C 
BRANCH  19  20
ATOM     20  C   UNL     1      -5.468   0.212  -1.169  1.00  0.00     0.116 C 
BRANCH  20  21
ATOM     21  N   UNL     1      -4.820  -0.474  -2.277  1.00  0.00    -0.352 N 
ATOM     22  C   UNL     1      -5.382  -1.169  -3.321  1.00  0.00     0.251 C 
ATOM     23  H   UNL     1      -3.836  -0.435  -2.278  1.00  0.00     0.163 HD
ATOM     24  O   UNL     1      -4.673  -1.809  -4.091  1.00  0.00    -0.269 OA
BRANCH  22  25
ATOM     25  C   UNL     1      -6.850  -1.172  -3.497  1.00  0.00     0.039 A 
ATOM     26  C   UNL     1      -7.497  -2.385  -3.743  1.00  0.00     0.014 A 
ATOM     27  C   UNL     1      -7.588   0.010  -3.398  1.00  0.00     0.014 A 
ATOM     28  C   UNL     1      -8.892  -2.423  -3.812  1.00  0.00     0.010 A 
ATOM     29  C   UNL     1      -8.979  -0.043  -3.381  1.00  0.00     0.010 A 
ATOM     30  C   UNL     1      -9.646  -1.260  -3.586  1.00  0.00    -0.014 A 
BRANCH  30  31
ATOM     31  C   UNL     1     -11.132  -1.299  -3.554  1.00  0.00     0.031 A 
ATOM     32  C   UNL     1     -11.932  -0.518  -4.558  1.00  0.00     0.074 A 
ATOM     33  C   UNL     1     -11.760  -1.987  -2.580  1.00  0.00     0.049 A 
ATOM     34  N   UNL     1     -13.230  -0.370  -4.649  1.00  0.00    -0.248 NA
ATOM     35  C   UNL     1     -11.173   0.217  -5.581  1.00  0.00     0.031 C 
ATOM     36  C   UNL     1     -11.098  -2.745  -1.517  1.00  0.00     0.029 A 
ATOM     37  N   UNL     1     -13.098  -2.150  -2.318  1.00  0.00    -0.354 N 
ATOM     38  C   UNL     1     -13.439   0.477  -5.729  1.00  0.00     0.074 A 
ATOM     39  C   UNL     1     -12.135   0.863  -6.223  1.00  0.00     0.031 C 
ATOM     40  C   UNL     1     -12.029  -3.309  -0.732  1.00  0.00     0.029 A 
ATOM     41  C   UNL     1     -13.353  -2.918  -1.207  1.00  0.00     0.049 A 
ATOM     42  H   UNL     1     -13.808  -1.754  -2.873  1.00  0.00     0.167 HD
ATOM     43  C   UNL     1     -14.612   0.876  -6.277  1.00  0.00     0.037 A 
ATOM     44  C   UNL     1     -14.521  -3.259  -0.629  1.00  0.00     0.037 A 
ATOM     45  C   UNL     1     -15.909   0.481  -5.792  1.00  0.00     0.049 A 
ATOM     46  C   UNL     1     -15.810  -2.783  -1.244  1.00  0.00     0.074 A 
ATOM     47  C   UNL     1     -17.155   0.793  -6.306  1.00  0.00     0.029 A 
ATOM     48  N   UNL     1     -16.126  -0.309  -4.672  1.00  0.00    -0.354 N 
ATOM     49  N   UNL     1     -15.996  -2.038  -2.307  1.00  0.00    -0.248 NA
ATOM     50  C   UNL     1     -17.054  -3.202  -0.583  1.00  0.00     0.031 C 
ATOM     51  C   UNL     1     -18.127   0.239  -5.467  1.00  0.00     0.029 A 
ATOM     52  C   UNL     1     -17.487  -0.473  -4.466  1.00  0.00     0.049 A 
ATOM     53  H   UNL     1     -15.418  -0.696  -4.107  1.00  0.00     0.167 HD
ATOM     54  C   UNL     1     -17.372  -1.925  -2.459  1.00  0.00     0.074 A 
ATOM     55  C   UNL     1     -17.974  -2.693  -1.389  1.00  0.00     0.031 C 
ATOM     56  C   UNL     1     -18.073  -1.247  -3.401  1.00  0.00     0.037 A 
BRANCH  43  57
ATOM     57  C   UNL     1     -14.547   1.788  -7.470  1.00  0.00     0.064 A 
ATOM     58  C   UNL     1     -14.061   1.345  -8.710  1.00  0.00     0.173 A 
ATOM     59  C   UNL     1     -15.010   3.110  -7.384  1.00  0.00     0.173 A 
ATOM     60  F   UNL     1     -13.596   0.094  -8.845  1.00  0.00    -0.203 F 
ATOM     61  C   UNL     1     -14.010   2.200  -9.809  1.00  0.00     0.198 A 
ATOM     62  C   UNL     1     -14.991   3.951  -8.494  1.00  0.00     0.198 A 
ATOM     63  F   UNL     1     -15.491   3.585  -6.225  1.00  0.00    -0.203 F 
ATOM     64  F   UNL     1     -13.491   1.769 -10.966  1.00  0.00    -0.200 F 
ATOM     65  C   UNL     1     -14.483   3.499  -9.702  1.00  0.00     0.200 A 
ATOM     66  F   UNL     1     -15.462   5.202  -8.393  1.00  0.00    -0.200 F 
ATOM     67  F   UNL     1     -14.442   4.317 -10.762  1.00  0.00    -0.200 F 
ENDBRANCH  43  57
BRANCH  44  68
ATOM     68  C   UNL     1     -14.528  -4.105   0.594  1.00  0.00     0.064 A 
ATOM     69  C   UNL     1     -15.033  -5.412   0.566  1.00  0.00     0.173 A 
ATOM     70  C   UNL     1     -14.041  -3.621   1.818  1.00  0.00     0.173 A 
ATOM     71  F   UNL     1     -15.528  -5.914  -0.575  1.00  0.00    -0.203 F 
ATOM     72  C   UNL     1     -15.075  -6.194   1.719  1.00  0.00     0.198 A 
ATOM     73  C   UNL     1     -14.054  -4.415   2.963  1.00  0.00     0.198 A 
ATOM     74  F   UNL     1     -13.542  -2.379   1.899  1.00  0.00    -0.203 F 
ATOM     75  F   UNL     1     -15.613  -7.420   1.675  1.00  0.00    -0.200 F 
ATOM     76  C   UNL     1     -14.580  -5.697   2.915  1.00  0.00     0.200 A 
ATOM     77  F   UNL     1     -13.559  -3.936   4.112  1.00  0.00    -0.200 F 
ATOM     78  F   UNL     1     -14.618  -6.449   4.023  1.00  0.00    -0.200 F 
ENDBRANCH  44  68
BRANCH  56  79
ATOM     79  C   UNL     1     -19.572  -1.335  -3.343  1.00  0.00     0.064 A 
ATOM     80  C   UNL     1     -20.312  -0.715  -2.326  1.00  0.00     0.173 A 
ATOM     81  C   UNL     1     -20.280  -2.019  -4.345  1.00  0.00     0.173 A 
ATOM     82  F   UNL     1     -19.685  -0.061  -1.337  1.00  0.00    -0.203 F 
ATOM     83  C   UNL     1     -21.702  -0.800  -2.297  1.00  0.00     0.198 A 
ATOM     84  C   UNL     1     -21.671  -2.072  -4.332  1.00  0.00     0.198 A 
ATOM     85  F   UNL     1     -19.622  -2.624  -5.345  1.00  0.00    -0.203 F 
ATOM     86  F   UNL     1     -22.385  -0.245  -1.286  1.00  0.00    -0.200 F 
ATOM     87  C   UNL     1     -22.380  -1.471  -3.304  1.00  0.00     0.200 A 
ATOM     88  F   UNL     1     -22.324  -2.706  -5.316  1.00  0.00    -0.200 F 
ATOM     89  F   UNL     1     -23.718  -1.544  -3.280  1.00  0.00    -0.200 F 
ENDBRANCH  56  79
ENDBRANCH  30  31
ENDBRANCH  22  25
ENDBRANCH  20  21
ENDBRANCH  19  20
ENDBRANCH  18  19
ENDBRANCH   1  18
TORSDOF 18
