REMARK SMILES O=C(NC1(C(=O)NCCCCNC(=O)c2ccc(-c3c4nc(c(-c5c(F)c(F)c(F)c(F)c5F)c5ccc([nH]5)c(-c5c(F)c(F)c(F)c(F)c5F)c5nc(c(-c6c(F)c(F)c(F)c(F)c6F)c6ccc3[nH]6)C=C5)C=C4)cc2)CC[NH2+]CC1)OCC1c2ccccc2-c2ccccc21
REMARK SMILES IDX 8 1 7 2 5 3 6 4 4 6 78 7 82 8 79 9 81 10 80 11 3 14 1 15
REMARK SMILES IDX 2 16 83 18 84 19 85 20 86 21 97 22 87 23 91 24 92 25 96 26
REMARK SMILES IDX 88 27 90 28 93 29 95 30 89 31 94 32 9 33 10 34 11 35 12 36
REMARK SMILES IDX 13 37 14 39 15 40 16 41 77 42 17 43 76 44 18 45 19 46 20 47
REMARK SMILES IDX 70 48 21 49 75 50 69 51 71 52 22 53 74 54 68 55 67 56 23 58
REMARK SMILES IDX 55 59 35 60 54 61 36 62 39 63 53 64 72 65 37 66 38 67 52 69
REMARK SMILES IDX 73 70 40 71 24 72 25 73 33 74 26 75 27 76 31 77 34 78 28 79
REMARK SMILES IDX 29 80 32 81 30 82 56 83 57 84 65 85 58 86 59 87 63 88 66 89
REMARK SMILES IDX 60 90 61 91 64 92 62 93 41 94 42 95 50 96 43 97 44 98 48 99
REMARK SMILES IDX 51 100 45 101 46 102 49 103 47 104
REMARK H PARENT 7 5 80 12 80 13 3 17 12 38 71 57 39 68
REMARK Flexibility Score: inf
ROOT
ATOM      1  C   UNL     1       7.341  -0.489   2.724  1.00  0.00     0.116 C 
ENDROOT
BRANCH   1   2
ATOM      2  N   UNL     1       6.027  -0.152   3.211  1.00  0.00    -0.354 N 
ATOM      3  C   UNL     1       4.800  -0.287   2.650  1.00  0.00     0.246 C 
ATOM      4  O   UNL     1       3.862   0.095   3.368  1.00  0.00    -0.272 OA
ATOM      5  H   UNL     1       6.019   0.246   4.111  1.00  0.00     0.163 HD
BRANCH   3   6
ATOM      6  C   UNL     1       4.513  -1.011   1.294  1.00  0.00     0.132 C 
ATOM      7  C   UNL     1       5.532  -0.919   0.149  1.00  0.00     0.100 C 
ATOM      8  C   UNL     1       4.355  -2.520   1.599  1.00  0.00     0.100 C 
ATOM      9  C   UNL     1       5.033  -1.675  -1.079  1.00  0.00     0.263 C 
ATOM     10  C   UNL     1       4.050  -3.354   0.347  1.00  0.00     0.263 C 
ATOM     11  N   UNL     1       4.972  -3.097  -0.758  1.00  0.00    -0.346 N 
ATOM     12  H   UNL     1       5.904  -3.418  -0.494  1.00  0.00     0.346 HD
ATOM     13  H   UNL     1       4.636  -3.598  -1.580  1.00  0.00     0.346 HD
BRANCH   6  14
ATOM     14  N   UNL     1       3.203  -0.432   0.887  1.00  0.00    -0.307 N 
ATOM     15  O   UNL     1       1.824   1.062  -0.092  1.00  0.00    -0.225 OA
ATOM     16  C   UNL     1       2.961   0.749   0.246  1.00  0.00     0.408 C 
ATOM     17  H   UNL     1       2.409  -0.971   1.108  1.00  0.00     0.168 HD
BRANCH  16  18
ATOM     18  O   UNL     1       4.082   1.445  -0.088  1.00  0.00    -0.449 OA
BRANCH  18  19
ATOM     19  C   UNL     1       4.009   2.006  -1.403  1.00  0.00     0.248 C 
BRANCH  19  20
ATOM     20  C   UNL     1       5.216   2.860  -1.831  1.00  0.00     0.088 C 
ATOM     21  C   UNL     1       6.654   2.357  -1.702  1.00  0.00    -0.029 A 
ATOM     22  C   UNL     1       5.318   4.253  -1.224  1.00  0.00    -0.029 A 
ATOM     23  C   UNL     1       7.213   1.143  -2.067  1.00  0.00     0.005 A 
ATOM     24  C   UNL     1       7.486   3.406  -1.247  1.00  0.00    -0.014 A 
ATOM     25  C   UNL     1       6.676   4.583  -1.020  1.00  0.00    -0.014 A 
ATOM     26  C   UNL     1       4.315   5.186  -1.016  1.00  0.00     0.005 A 
ATOM     27  C   UNL     1       8.588   0.946  -1.881  1.00  0.00     0.000 A 
ATOM     28  C   UNL     1       8.853   3.223  -1.083  1.00  0.00     0.009 A 
ATOM     29  C   UNL     1       7.048   5.881  -0.714  1.00  0.00     0.009 A 
ATOM     30  C   UNL     1       4.689   6.487  -0.672  1.00  0.00     0.000 A 
ATOM     31  C   UNL     1       9.401   1.976  -1.386  1.00  0.00     0.001 A 
ATOM     32  C   UNL     1       6.044   6.839  -0.555  1.00  0.00     0.001 A 
ENDBRANCH  19  20
ENDBRANCH  18  19
ENDBRANCH  16  18
ENDBRANCH   6  14
ENDBRANCH   3   6
ENDBRANCH   1   2
BRANCH   1  33
ATOM     33  C   UNL     1       7.924   0.645   1.881  1.00  0.00     0.023 C 
BRANCH  33  34
ATOM     34  C   UNL     1       8.794   1.626   2.669  1.00  0.00     0.023 C 
BRANCH  34  35
ATOM     35  C   UNL     1      10.062   1.013   3.250  1.00  0.00     0.116 C 
BRANCH  35  36
ATOM     36  N   UNL     1      10.945   0.429   2.252  1.00  0.00    -0.352 N 
ATOM     37  C   UNL     1      12.294   0.184   2.343  1.00  0.00     0.251 C 
ATOM     38  H   UNL     1      10.520   0.176   1.400  1.00  0.00     0.163 HD
ATOM     39  O   UNL     1      12.915  -0.232   1.370  1.00  0.00    -0.269 OA
BRANCH  37  40
ATOM     40  C   UNL     1      13.007   0.487   3.604  1.00  0.00     0.039 A 
ATOM     41  C   UNL     1      14.220   1.179   3.541  1.00  0.00     0.014 A 
ATOM     42  C   UNL     1      12.472   0.128   4.843  1.00  0.00     0.014 A 
ATOM     43  C   UNL     1      14.855   1.574   4.720  1.00  0.00     0.010 A 
ATOM     44  C   UNL     1      13.056   0.599   6.013  1.00  0.00     0.010 A 
ATOM     45  C   UNL     1      14.257   1.322   5.966  1.00  0.00    -0.014 A 
BRANCH  45  46
ATOM     46  C   UNL     1      14.874   1.793   7.231  1.00  0.00     0.031 A 
ATOM     47  C   UNL     1      15.315   0.799   8.270  1.00  0.00     0.074 A 
ATOM     48  C   UNL     1      14.966   3.114   7.478  1.00  0.00     0.049 A 
ATOM     49  N   UNL     1      15.808   1.010   9.464  1.00  0.00    -0.248 NA
ATOM     50  C   UNL     1      15.142  -0.624   7.937  1.00  0.00     0.031 C 
ATOM     51  C   UNL     1      14.513   4.178   6.581  1.00  0.00     0.029 A 
ATOM     52  N   UNL     1      15.467   3.788   8.564  1.00  0.00    -0.354 N 
ATOM     53  C   UNL     1      15.972  -0.246  10.032  1.00  0.00     0.074 A 
ATOM     54  C   UNL     1      15.476  -1.211   9.075  1.00  0.00     0.031 C 
ATOM     55  C   UNL     1      14.790   5.370   7.136  1.00  0.00     0.029 A 
ATOM     56  C   UNL     1      15.409   5.154   8.440  1.00  0.00     0.049 A 
ATOM     57  H   UNL     1      15.833   3.334   9.357  1.00  0.00     0.167 HD
ATOM     58  C   UNL     1      16.512  -0.569  11.231  1.00  0.00     0.037 A 
ATOM     59  C   UNL     1      15.818   6.122   9.281  1.00  0.00     0.037 A 
ATOM     60  C   UNL     1      17.053   0.390  12.157  1.00  0.00     0.049 A 
ATOM     61  C   UNL     1      16.455   5.736  10.589  1.00  0.00     0.074 A 
ATOM     62  C   UNL     1      17.700   0.162  13.358  1.00  0.00     0.029 A 
ATOM     63  N   UNL     1      17.015   1.765  11.976  1.00  0.00    -0.354 N 
ATOM     64  N   UNL     1      16.679   4.542  11.081  1.00  0.00    -0.248 NA
ATOM     65  C   UNL     1      16.905   6.835  11.454  1.00  0.00     0.031 C 
ATOM     66  C   UNL     1      18.023   1.401  13.922  1.00  0.00     0.029 A 
ATOM     67  C   UNL     1      17.615   2.399  13.052  1.00  0.00     0.049 A 
ATOM     68  H   UNL     1      16.620   2.222  11.199  1.00  0.00     0.167 HD
ATOM     69  C   UNL     1      17.324   4.744  12.293  1.00  0.00     0.074 A 
ATOM     70  C   UNL     1      17.465   6.176  12.457  1.00  0.00     0.031 C 
ATOM     71  C   UNL     1      17.761   3.825  13.189  1.00  0.00     0.037 A 
BRANCH  58  72
ATOM     72  C   UNL     1      16.550  -2.024  11.603  1.00  0.00     0.064 A 
ATOM     73  C   UNL     1      17.390  -2.932  10.940  1.00  0.00     0.173 A 
ATOM     74  C   UNL     1      15.747  -2.514  12.643  1.00  0.00     0.173 A 
ATOM     75  F   UNL     1      18.169  -2.517   9.929  1.00  0.00    -0.203 F 
ATOM     76  C   UNL     1      17.396  -4.282  11.278  1.00  0.00     0.198 A 
ATOM     77  C   UNL     1      15.778  -3.860  13.000  1.00  0.00     0.198 A 
ATOM     78  F   UNL     1      14.929  -1.688  13.313  1.00  0.00    -0.203 F 
ATOM     79  F   UNL     1      18.162  -5.141  10.590  1.00  0.00    -0.200 F 
ATOM     80  C   UNL     1      16.594  -4.744  12.311  1.00  0.00     0.200 A 
ATOM     81  F   UNL     1      15.012  -4.303  14.006  1.00  0.00    -0.200 F 
ATOM     82  F   UNL     1      16.601  -6.044  12.636  1.00  0.00    -0.200 F 
ENDBRANCH  58  72
BRANCH  59  83
ATOM     83  C   UNL     1      15.694   7.549   8.890  1.00  0.00     0.064 A 
ATOM     84  C   UNL     1      16.833   8.300   8.565  1.00  0.00     0.173 A 
ATOM     85  C   UNL     1      14.450   8.192   8.833  1.00  0.00     0.173 A 
ATOM     86  F   UNL     1      18.047   7.733   8.623  1.00  0.00    -0.203 F 
ATOM     87  C   UNL     1      16.734   9.646   8.219  1.00  0.00     0.198 A 
ATOM     88  C   UNL     1      14.350   9.532   8.463  1.00  0.00     0.198 A 
ATOM     89  F   UNL     1      13.331   7.516   9.129  1.00  0.00    -0.203 F 
ATOM     90  F   UNL     1      17.843  10.351   7.955  1.00  0.00    -0.200 F 
ATOM     91  C   UNL     1      15.492  10.259   8.163  1.00  0.00     0.200 A 
ATOM     92  F   UNL     1      13.147  10.119   8.398  1.00  0.00    -0.200 F 
ATOM     93  F   UNL     1      15.397  11.553   7.829  1.00  0.00    -0.200 F 
ENDBRANCH  59  83
BRANCH  71  94
ATOM     94  C   UNL     1      18.474   4.340  14.405  1.00  0.00     0.064 A 
ATOM     95  C   UNL     1      17.788   4.988  15.441  1.00  0.00     0.173 A 
ATOM     96  C   UNL     1      19.857   4.152  14.546  1.00  0.00     0.173 A 
ATOM     97  F   UNL     1      16.468   5.205  15.345  1.00  0.00    -0.203 F 
ATOM     98  C   UNL     1      18.466   5.453  16.565  1.00  0.00     0.198 A 
ATOM     99  C   UNL     1      20.527   4.593  15.683  1.00  0.00     0.198 A 
ATOM    100  F   UNL     1      20.557   3.532  13.584  1.00  0.00    -0.203 F 
ATOM    101  F   UNL     1      17.799   6.113  17.522  1.00  0.00    -0.200 F 
ATOM    102  C   UNL     1      19.833   5.250  16.688  1.00  0.00     0.200 A 
ATOM    103  F   UNL     1      21.845   4.385  15.805  1.00  0.00    -0.200 F 
ATOM    104  F   UNL     1      20.483   5.694  17.772  1.00  0.00    -0.200 F 
ENDBRANCH  71  94
ENDBRANCH  45  46
ENDBRANCH  37  40
ENDBRANCH  35  36
ENDBRANCH  34  35
ENDBRANCH  33  34
ENDBRANCH   1  33
TORSDOF 15
