REMARK SMILES CN1C(=O)C[C@@H](C(=O)NCCCCNC(=O)c2ccc(-c3c4nc(c(-c5c(F)c(F)c(F)c(F)c5F)c5ccc([nH]5)c(-c5c(F)c(F)c(F)c(F)c5F)c5nc(c(-c6c(F)c(F)c(F)c(F)c6F)c6ccc3[nH]6)C=C5)C=C4)cc2)C12CCN(C(=O)c1cccc3ccccc13)CC2
REMARK SMILES IDX 12 1 11 2 10 3 9 4 7 5 8 6 6 8 1 9 2 10 3 11 80 12 4 13 5 14
REMARK SMILES IDX 81 15 97 16 82 17 96 18 83 19 84 20 85 21 86 22 87 23 95 24
REMARK SMILES IDX 88 25 90 26 94 27 89 28 91 29 93 30 92 31 13 32 14 33 15 34
REMARK SMILES IDX 16 36 17 37 18 38 79 39 19 40 78 41 20 42 21 43 22 44 72 45
REMARK SMILES IDX 23 46 77 47 71 48 73 49 24 50 76 51 70 52 69 53 25 55 57 56
REMARK SMILES IDX 37 57 56 58 38 59 41 60 55 61 74 62 39 63 40 64 54 66 75 67
REMARK SMILES IDX 42 68 26 69 27 70 35 71 28 72 29 73 33 74 36 75 30 76 31 77
REMARK SMILES IDX 34 78 32 79 58 80 59 81 67 82 60 83 61 84 65 85 68 86 62 87
REMARK SMILES IDX 63 88 66 89 64 90 43 91 44 92 52 93 45 94 46 95 50 96 53 97
REMARK SMILES IDX 47 98 48 99 51 100 49 101
REMARK H PARENT 9 7 14 35 73 54 41 65
REMARK Flexibility Score: inf
ROOT
ATOM      1  C   UNL     1      -3.524   2.449   1.328  1.00  0.00     0.023 C 
ENDROOT
BRANCH   1   2
ATOM      2  C   UNL     1      -2.139   1.836   1.187  1.00  0.00     0.023 C 
BRANCH   2   3
ATOM      3  C   UNL     1      -1.478   1.456   2.519  1.00  0.00     0.116 C 
BRANCH   3   4
ATOM      4  N   UNL     1      -2.132   0.378   3.243  1.00  0.00    -0.356 N 
ATOM      5  C   UNL     1      -1.751  -0.885   3.573  1.00  0.00     0.226 C 
ATOM      6  O   UNL     1      -2.540  -1.520   4.284  1.00  0.00    -0.275 OA
ATOM      7  H   UNL     1      -3.035   0.610   3.559  1.00  0.00     0.163 HD
BRANCH   5   8
ATOM      8  C   UNL     1      -0.470  -1.580   3.093  1.00  0.00     0.113 C 
ATOM      9  C   UNL     1       1.002  -0.132  -0.027  1.00  0.00     0.147 C 
ATOM     10  N   UNL     1       0.702  -0.665   1.289  1.00  0.00    -0.339 N 
ATOM     11  C   UNL     1       1.385  -0.229   2.420  1.00  0.00     0.223 C 
ATOM     12  C   UNL     1      -0.276  -1.730   1.566  1.00  0.00     0.058 C 
ATOM     13  O   UNL     1       2.271   0.604   2.457  1.00  0.00    -0.275 OA
ATOM     14  C   UNL     1       0.793  -0.905   3.624  1.00  0.00     0.116 C 
ATOM     15  C   UNL     1      -1.601  -1.618   0.788  1.00  0.00     0.051 C 
ATOM     16  C   UNL     1       0.391  -3.084   1.174  1.00  0.00     0.051 C 
ATOM     17  C   UNL     1      -2.516  -2.823   0.990  1.00  0.00     0.122 C 
ATOM     18  C   UNL     1      -0.570  -4.277   1.157  1.00  0.00     0.122 C 
ATOM     19  N   UNL     1      -1.818  -3.964   0.460  1.00  0.00    -0.338 N 
ATOM     20  C   UNL     1      -2.156  -4.624  -0.716  1.00  0.00     0.254 C 
ATOM     21  O   UNL     1      -1.373  -5.386  -1.284  1.00  0.00    -0.269 OA
BRANCH  20  22
ATOM     22  C   UNL     1      -3.542  -4.574  -1.268  1.00  0.00     0.047 A 
ATOM     23  C   UNL     1      -4.247  -5.777  -1.091  1.00  0.00     0.014 A 
ATOM     24  C   UNL     1      -4.064  -3.549  -2.114  1.00  0.00    -0.006 A 
ATOM     25  C   UNL     1      -5.415  -6.023  -1.801  1.00  0.00     0.001 A 
ATOM     26  C   UNL     1      -5.229  -3.847  -2.870  1.00  0.00    -0.018 A 
ATOM     27  C   UNL     1      -3.536  -2.245  -2.265  1.00  0.00     0.009 A 
ATOM     28  C   UNL     1      -5.873  -5.083  -2.719  1.00  0.00     0.009 A 
ATOM     29  C   UNL     1      -5.753  -2.909  -3.776  1.00  0.00     0.009 A 
ATOM     30  C   UNL     1      -4.141  -1.279  -3.076  1.00  0.00     0.001 A 
ATOM     31  C   UNL     1      -5.230  -1.623  -3.862  1.00  0.00     0.001 A 
ENDBRANCH  20  22
ENDBRANCH   5   8
ENDBRANCH   3   4
ENDBRANCH   2   3
ENDBRANCH   1   2
BRANCH   1  32
ATOM     32  C   UNL     1      -3.525   3.715   2.165  1.00  0.00     0.116 C 
BRANCH  32  33
ATOM     33  N   UNL     1      -2.551   4.691   1.688  1.00  0.00    -0.352 N 
ATOM     34  C   UNL     1      -2.738   6.018   1.396  1.00  0.00     0.251 C 
ATOM     35  H   UNL     1      -1.637   4.352   1.558  1.00  0.00     0.163 HD
ATOM     36  O   UNL     1      -1.881   6.663   0.806  1.00  0.00    -0.269 OA
BRANCH  34  37
ATOM     37  C   UNL     1      -4.010   6.639   1.792  1.00  0.00     0.039 A 
ATOM     38  C   UNL     1      -4.714   7.405   0.865  1.00  0.00     0.014 A 
ATOM     39  C   UNL     1      -4.533   6.382   3.062  1.00  0.00     0.014 A 
ATOM     40  C   UNL     1      -5.986   7.863   1.195  1.00  0.00     0.010 A 
ATOM     41  C   UNL     1      -5.841   6.736   3.341  1.00  0.00     0.010 A 
ATOM     42  C   UNL     1      -6.573   7.495   2.418  1.00  0.00    -0.014 A 
BRANCH  42  43
ATOM     43  C   UNL     1      -7.952   7.907   2.762  1.00  0.00     0.031 A 
ATOM     44  C   UNL     1      -8.192   8.767   3.969  1.00  0.00     0.074 A 
ATOM     45  C   UNL     1      -8.984   7.443   2.035  1.00  0.00     0.049 A 
ATOM     46  N   UNL     1      -9.323   9.190   4.471  1.00  0.00    -0.248 NA
ATOM     47  C   UNL     1      -7.005   9.170   4.740  1.00  0.00     0.031 C 
ATOM     48  C   UNL     1      -8.873   6.540   0.888  1.00  0.00     0.029 A 
ATOM     49  N   UNL     1     -10.332   7.658   2.161  1.00  0.00    -0.354 N 
ATOM     50  C   UNL     1      -8.983   9.889   5.621  1.00  0.00     0.074 A 
ATOM     51  C   UNL     1      -7.553   9.768   5.786  1.00  0.00     0.031 C 
ATOM     52  C   UNL     1     -10.098   6.302   0.397  1.00  0.00     0.029 A 
ATOM     53  C   UNL     1     -11.082   7.000   1.218  1.00  0.00     0.049 A 
ATOM     54  H   UNL     1     -10.724   8.229   2.860  1.00  0.00     0.167 HD
ATOM     55  C   UNL     1      -9.790  10.593   6.449  1.00  0.00     0.037 A 
ATOM     56  C   UNL     1     -12.416   6.961   1.042  1.00  0.00     0.037 A 
ATOM     57  C   UNL     1     -11.211  10.720   6.261  1.00  0.00     0.049 A 
ATOM     58  C   UNL     1     -13.295   7.759   1.965  1.00  0.00     0.074 A 
ATOM     59  C   UNL     1     -12.113  11.474   6.988  1.00  0.00     0.029 A 
ATOM     60  N   UNL     1     -11.938  10.061   5.279  1.00  0.00    -0.354 N 
ATOM     61  N   UNL     1     -12.958   8.499   2.994  1.00  0.00    -0.248 NA
ATOM     62  C   UNL     1     -14.738   7.725   1.696  1.00  0.00     0.031 C 
ATOM     63  C   UNL     1     -13.395  11.218   6.489  1.00  0.00     0.029 A 
ATOM     64  C   UNL     1     -13.285  10.361   5.405  1.00  0.00     0.049 A 
ATOM     65  H   UNL     1     -11.553   9.468   4.593  1.00  0.00     0.167 HD
ATOM     66  C   UNL     1     -14.140   9.035   3.485  1.00  0.00     0.074 A 
ATOM     67  C   UNL     1     -15.202   8.549   2.626  1.00  0.00     0.031 C 
ATOM     68  C   UNL     1     -14.330   9.857   4.547  1.00  0.00     0.037 A 
BRANCH  55  69
ATOM     69  C   UNL     1      -9.148  11.259   7.634  1.00  0.00     0.064 A 
ATOM     70  C   UNL     1      -8.223  12.307   7.488  1.00  0.00     0.173 A 
ATOM     71  C   UNL     1      -9.452  10.835   8.936  1.00  0.00     0.173 A 
ATOM     72  F   UNL     1      -7.885  12.745   6.266  1.00  0.00    -0.203 F 
ATOM     73  C   UNL     1      -7.589  12.865   8.595  1.00  0.00     0.198 A 
ATOM     74  C   UNL     1      -8.847  11.424  10.043  1.00  0.00     0.198 A 
ATOM     75  F   UNL     1     -10.332   9.843   9.137  1.00  0.00    -0.203 F 
ATOM     76  F   UNL     1      -6.652  13.807   8.424  1.00  0.00    -0.200 F 
ATOM     77  C   UNL     1      -7.906  12.427   9.872  1.00  0.00     0.200 A 
ATOM     78  F   UNL     1      -9.165  11.010  11.277  1.00  0.00    -0.200 F 
ATOM     79  F   UNL     1      -7.293  12.963  10.937  1.00  0.00    -0.200 F 
ENDBRANCH  55  69
BRANCH  56  80
ATOM     80  C   UNL     1     -12.981   6.157  -0.071  1.00  0.00     0.064 A 
ATOM     81  C   UNL     1     -13.549   6.774  -1.194  1.00  0.00     0.173 A 
ATOM     82  C   UNL     1     -12.923   4.755  -0.057  1.00  0.00     0.173 A 
ATOM     83  F   UNL     1     -13.640   8.111  -1.248  1.00  0.00    -0.203 F 
ATOM     84  C   UNL     1     -14.044   6.021  -2.256  1.00  0.00     0.198 A 
ATOM     85  C   UNL     1     -13.392   4.004  -1.132  1.00  0.00     0.198 A 
ATOM     86  F   UNL     1     -12.379   4.117   0.990  1.00  0.00    -0.203 F 
ATOM     87  F   UNL     1     -14.608   6.635  -3.305  1.00  0.00    -0.200 F 
ATOM     88  C   UNL     1     -13.957   4.637  -2.228  1.00  0.00     0.200 A 
ATOM     89  F   UNL     1     -13.286   2.668  -1.110  1.00  0.00    -0.200 F 
ATOM     90  F   UNL     1     -14.415   3.913  -3.259  1.00  0.00    -0.200 F 
ENDBRANCH  56  80
BRANCH  68  91
ATOM     91  C   UNL     1     -15.737  10.300   4.831  1.00  0.00     0.064 A 
ATOM     92  C   UNL     1     -16.708   9.412   5.318  1.00  0.00     0.173 A 
ATOM     93  C   UNL     1     -16.107  11.643   4.653  1.00  0.00     0.173 A 
ATOM     94  F   UNL     1     -16.410   8.116   5.492  1.00  0.00    -0.203 F 
ATOM     95  C   UNL     1     -18.003   9.845   5.588  1.00  0.00     0.198 A 
ATOM     96  C   UNL     1     -17.392  12.080   4.958  1.00  0.00     0.198 A 
ATOM     97  F   UNL     1     -15.215  12.535   4.197  1.00  0.00    -0.203 F 
ATOM     98  F   UNL     1     -18.928   8.968   6.000  1.00  0.00    -0.200 F 
ATOM     99  C   UNL     1     -18.342  11.180   5.417  1.00  0.00     0.200 A 
ATOM    100  F   UNL     1     -17.711  13.373   4.809  1.00  0.00    -0.200 F 
ATOM    101  F   UNL     1     -19.586  11.597   5.686  1.00  0.00    -0.200 F 
ENDBRANCH  68  91
ENDBRANCH  42  43
ENDBRANCH  34  37
ENDBRANCH  32  33
ENDBRANCH   1  32
TORSDOF 12
