REMARK SMILES CC1=Nc2ncnn2[C@H](c2ccc(F)cc2)[C@@H]1C(=O)NCCCCNC(=O)c1ccc(-c2c3nc(c(-c4c(F)c(F)c(F)c(F)c4F)c4ccc([nH]4)c(-c4c(F)c(F)c(F)c(F)c4F)c4nc(c(-c5c(F)c(F)c(F)c(F)c5F)c5ccc2[nH]5)C=C4)C=C3)cc1
REMARK SMILES IDX 23 1 22 2 21 3 20 4 18 5 19 6 17 8 1 9 2 10 3 11 4 12 9 13
REMARK SMILES IDX 5 14 8 15 6 16 7 17 10 18 11 19 16 20 12 21 15 22 13 23
REMARK SMILES IDX 14 24 24 25 25 26 26 27 27 29 28 30 29 31 90 32 30 33 89 34
REMARK SMILES IDX 31 35 32 36 33 37 83 38 34 39 88 40 82 41 84 42 35 43 87 44
REMARK SMILES IDX 81 45 80 46 36 48 68 49 48 50 67 51 49 52 52 53 66 54 85 55
REMARK SMILES IDX 50 56 51 57 65 59 86 60 53 61 37 62 38 63 46 64 39 65 40 66
REMARK SMILES IDX 44 67 47 68 41 69 42 70 45 71 43 72 69 73 70 74 78 75 71 76
REMARK SMILES IDX 72 77 76 78 79 79 73 80 74 81 77 82 75 83 54 84 55 85 63 86
REMARK SMILES IDX 56 87 57 88 61 89 64 90 58 91 59 92 62 93 60 94
REMARK H PARENT 20 7 25 28 84 47 52 58
REMARK Flexibility Score: inf
ROOT
ATOM      1  C   UNL     1       1.018  -5.741  -0.063  1.00  0.00     0.023 C 
ENDROOT
BRANCH   1   2
ATOM      2  C   UNL     1      -0.137  -4.772   0.255  1.00  0.00     0.023 C 
BRANCH   2   3
ATOM      3  C   UNL     1      -0.013  -3.994   1.573  1.00  0.00     0.116 C 
BRANCH   3   4
ATOM      4  N   UNL     1       1.220  -3.232   1.595  1.00  0.00    -0.355 N 
ATOM      5  C   UNL     1       1.450  -1.896   1.580  1.00  0.00     0.231 C 
ATOM      6  O   UNL     1       2.584  -1.533   1.259  1.00  0.00    -0.274 OA
ATOM      7  H   UNL     1       2.036  -3.783   1.626  1.00  0.00     0.163 HD
BRANCH   5   8
ATOM      8  C   UNL     1       0.383  -0.894   1.980  1.00  0.00     0.152 C 
ATOM      9  C   UNL     1       0.864   0.401  -0.233  1.00  0.00     0.063 C 
ATOM     10  C   UNL     1       0.597   0.439   1.259  1.00  0.00     0.034 C 
ATOM     11  N   UNL     1       0.530   1.614   1.798  1.00  0.00    -0.220 NA
ATOM     12  C   UNL     1       0.221   1.720   3.105  1.00  0.00     0.248 A 
ATOM     13  C   UNL     1       0.190  -0.748   3.519  1.00  0.00     0.159 C 
ATOM     14  N   UNL     1      -0.066   2.804   3.793  1.00  0.00    -0.198 NA
ATOM     15  N   UNL     1       0.092   0.643   3.939  1.00  0.00    -0.221 N 
ATOM     16  C   UNL     1      -0.427   2.331   5.019  1.00  0.00     0.248 A 
ATOM     17  N   UNL     1      -0.396   1.003   5.147  1.00  0.00    -0.157 NA
BRANCH  13  18
ATOM     18  C   UNL     1       1.046  -1.552   4.510  1.00  0.00    -0.022 A 
ATOM     19  C   UNL     1       0.431  -2.066   5.673  1.00  0.00     0.009 A 
ATOM     20  C   UNL     1       2.415  -1.808   4.338  1.00  0.00     0.009 A 
ATOM     21  C   UNL     1       1.120  -2.911   6.546  1.00  0.00     0.039 A 
ATOM     22  C   UNL     1       3.086  -2.706   5.170  1.00  0.00     0.039 A 
ATOM     23  C   UNL     1       2.426  -3.265   6.250  1.00  0.00     0.123 A 
ATOM     24  F   UNL     1       3.064  -4.163   7.006  1.00  0.00    -0.207 F 
ENDBRANCH  13  18
ENDBRANCH   5   8
ENDBRANCH   3   4
ENDBRANCH   2   3
ENDBRANCH   1   2
BRANCH   1  25
ATOM     25  C   UNL     1       1.194  -6.868   0.945  1.00  0.00     0.116 C 
BRANCH  25  26
ATOM     26  N   UNL     1       0.076  -7.804   0.927  1.00  0.00    -0.352 N 
ATOM     27  C   UNL     1      -0.111  -8.925   1.712  1.00  0.00     0.251 C 
ATOM     28  H   UNL     1      -0.634  -7.613   0.274  1.00  0.00     0.163 HD
ATOM     29  O   UNL     1      -0.855  -9.821   1.351  1.00  0.00    -0.269 OA
BRANCH  27  30
ATOM     30  C   UNL     1       0.609  -9.028   2.995  1.00  0.00     0.039 A 
ATOM     31  C   UNL     1       1.164 -10.245   3.399  1.00  0.00     0.014 A 
ATOM     32  C   UNL     1       0.732  -7.891   3.792  1.00  0.00     0.014 A 
ATOM     33  C   UNL     1       1.914 -10.288   4.571  1.00  0.00     0.010 A 
ATOM     34  C   UNL     1       1.571  -7.905   4.884  1.00  0.00     0.010 A 
ATOM     35  C   UNL     1       2.138  -9.107   5.299  1.00  0.00    -0.014 A 
BRANCH  35  36
ATOM     36  C   UNL     1       3.101  -9.102   6.401  1.00  0.00     0.031 A 
ATOM     37  C   UNL     1       4.446  -9.628   6.033  1.00  0.00     0.074 A 
ATOM     38  C   UNL     1       2.886  -8.485   7.585  1.00  0.00     0.049 A 
ATOM     39  N   UNL     1       5.048 -10.666   6.510  1.00  0.00    -0.248 NA
ATOM     40  C   UNL     1       5.159  -8.993   4.910  1.00  0.00     0.031 C 
ATOM     41  C   UNL     1       1.733  -7.661   7.966  1.00  0.00     0.029 A 
ATOM     42  N   UNL     1       3.709  -8.367   8.668  1.00  0.00    -0.354 N 
ATOM     43  C   UNL     1       6.294 -10.707   5.888  1.00  0.00     0.074 A 
ATOM     44  C   UNL     1       6.244  -9.762   4.804  1.00  0.00     0.031 C 
ATOM     45  C   UNL     1       2.032  -6.946   9.072  1.00  0.00     0.029 A 
ATOM     46  C   UNL     1       3.320  -7.385   9.576  1.00  0.00     0.049 A 
ATOM     47  H   UNL     1       4.508  -8.928   8.796  1.00  0.00     0.167 HD
ATOM     48  C   UNL     1       7.352 -11.320   6.486  1.00  0.00     0.037 A 
ATOM     49  C   UNL     1       4.016  -6.949  10.656  1.00  0.00     0.037 A 
ATOM     50  C   UNL     1       6.915 -12.176   7.556  1.00  0.00     0.049 A 
ATOM     51  C   UNL     1       4.985  -8.012  11.000  1.00  0.00     0.074 A 
ATOM     52  C   UNL     1       6.203 -13.351   7.658  1.00  0.00     0.029 A 
ATOM     53  N   UNL     1       6.892 -11.583   8.789  1.00  0.00    -0.354 N 
ATOM     54  N   UNL     1       4.649  -9.179  11.472  1.00  0.00    -0.248 NA
ATOM     55  C   UNL     1       6.355  -7.903  10.517  1.00  0.00     0.031 C 
ATOM     56  C   UNL     1       5.505 -13.272   8.900  1.00  0.00     0.029 A 
ATOM     57  C   UNL     1       5.856 -12.080   9.533  1.00  0.00     0.049 A 
ATOM     58  H   UNL     1       7.529 -10.898   9.097  1.00  0.00     0.167 HD
ATOM     59  C   UNL     1       5.585 -10.043  10.939  1.00  0.00     0.074 A 
ATOM     60  C   UNL     1       6.698  -9.193  10.536  1.00  0.00     0.031 C 
ATOM     61  C   UNL     1       5.231 -11.313  10.590  1.00  0.00     0.037 A 
BRANCH  48  62
ATOM     62  C   UNL     1       8.775 -10.807   6.423  1.00  0.00     0.064 A 
ATOM     63  C   UNL     1       9.104  -9.459   6.162  1.00  0.00     0.173 A 
ATOM     64  C   UNL     1       9.823 -11.595   6.943  1.00  0.00     0.173 A 
ATOM     65  F   UNL     1       8.180  -8.559   5.807  1.00  0.00    -0.203 F 
ATOM     66  C   UNL     1      10.382  -8.944   6.377  1.00  0.00     0.198 A 
ATOM     67  C   UNL     1      11.088 -11.061   7.210  1.00  0.00     0.198 A 
ATOM     68  F   UNL     1       9.609 -12.876   7.282  1.00  0.00    -0.203 F 
ATOM     69  F   UNL     1      10.620  -7.649   6.126  1.00  0.00    -0.200 F 
ATOM     70  C   UNL     1      11.368  -9.737   6.923  1.00  0.00     0.200 A 
ATOM     71  F   UNL     1      12.019 -11.817   7.808  1.00  0.00    -0.200 F 
ATOM     72  F   UNL     1      12.563  -9.211   7.220  1.00  0.00    -0.200 F 
ENDBRANCH  48  62
BRANCH  49  73
ATOM     73  C   UNL     1       4.085  -5.604  11.281  1.00  0.00     0.064 A 
ATOM     74  C   UNL     1       3.840  -4.438  10.536  1.00  0.00     0.173 A 
ATOM     75  C   UNL     1       4.706  -5.421  12.528  1.00  0.00     0.173 A 
ATOM     76  F   UNL     1       3.257  -4.507   9.337  1.00  0.00    -0.203 F 
ATOM     77  C   UNL     1       4.266  -3.179  10.965  1.00  0.00     0.198 A 
ATOM     78  C   UNL     1       5.130  -4.160  12.962  1.00  0.00     0.198 A 
ATOM     79  F   UNL     1       4.985  -6.477  13.306  1.00  0.00    -0.203 F 
ATOM     80  F   UNL     1       4.088  -2.112  10.174  1.00  0.00    -0.200 F 
ATOM     81  C   UNL     1       4.932  -3.044  12.167  1.00  0.00     0.200 A 
ATOM     82  F   UNL     1       5.793  -4.040  14.121  1.00  0.00    -0.200 F 
ATOM     83  F   UNL     1       5.414  -1.850  12.541  1.00  0.00    -0.200 F 
ENDBRANCH  49  73
BRANCH  61  84
ATOM     84  C   UNL     1       3.994 -11.882  11.227  1.00  0.00     0.064 A 
ATOM     85  C   UNL     1       4.136 -13.048  11.993  1.00  0.00     0.173 A 
ATOM     86  C   UNL     1       2.694 -11.380  11.052  1.00  0.00     0.173 A 
ATOM     87  F   UNL     1       5.349 -13.598  12.162  1.00  0.00    -0.203 F 
ATOM     88  C   UNL     1       3.034 -13.682  12.558  1.00  0.00     0.198 A 
ATOM     89  C   UNL     1       1.596 -11.992  11.656  1.00  0.00     0.198 A 
ATOM     90  F   UNL     1       2.458 -10.321  10.267  1.00  0.00    -0.203 F 
ATOM     91  F   UNL     1       3.201 -14.824  13.239  1.00  0.00    -0.200 F 
ATOM     92  C   UNL     1       1.767 -13.147  12.401  1.00  0.00     0.200 A 
ATOM     93  F   UNL     1       0.367 -11.479  11.496  1.00  0.00    -0.200 F 
ATOM     94  F   UNL     1       0.708 -13.758  12.950  1.00  0.00    -0.200 F 
ENDBRANCH  61  84
ENDBRANCH  35  36
ENDBRANCH  27  30
ENDBRANCH  25  26
ENDBRANCH   1  25
TORSDOF 12
