REMARK SMILES Cc1cccc(CN(C)c2ccc(C(=O)NCCCCNC(=O)c3ccc(-c4c5nc(c(-c6c(F)c(F)c(F)c(F)c6F)c6ccc([nH]6)c(-c6c(F)c(F)c(F)c(F)c6F)c6nc(c(-c7c(F)c(F)c(F)c(F)c7F)c7ccc4[nH]7)C=C6)C=C5)cc3)cc2N)n1
REMARK SMILES IDX 18 1 17 2 16 3 14 4 15 5 13 7 10 8 11 9 88 10 12 11 87 12
REMARK SMILES IDX 8 13 9 14 7 15 6 16 1 17 2 18 3 19 90 20 4 21 5 22 89 23
REMARK SMILES IDX 19 26 20 27 21 28 22 29 23 31 24 32 25 33 86 34 26 35 85 36
REMARK SMILES IDX 27 37 28 38 29 39 79 40 30 41 84 42 78 43 80 44 31 45 83 46
REMARK SMILES IDX 77 47 76 48 32 50 64 51 44 52 63 53 45 54 48 55 62 56 81 57
REMARK SMILES IDX 46 58 47 59 61 61 82 62 49 63 33 64 34 65 42 66 35 67 36 68
REMARK SMILES IDX 40 69 43 70 37 71 38 72 41 73 39 74 65 75 66 76 74 77 67 78
REMARK SMILES IDX 68 79 72 80 75 81 69 82 70 83 73 84 71 85 50 86 51 87 59 88
REMARK SMILES IDX 52 89 53 90 57 91 60 92 54 93 55 94 58 95 56 96
REMARK H PARENT 16 6 89 24 89 25 21 30 80 49 48 60
REMARK Flexibility Score: inf
ROOT
ATOM      1  C   UNL     1       1.612  -2.161   4.403  1.00  0.00     0.023 C 
ENDROOT
BRANCH   1   2
ATOM      2  C   UNL     1       0.443  -1.651   5.256  1.00  0.00     0.116 C 
BRANCH   2   3
ATOM      3  N   UNL     1       0.861  -0.527   6.075  1.00  0.00    -0.352 N 
ATOM      4  C   UNL     1       0.880   0.833   5.860  1.00  0.00     0.251 C 
ATOM      5  O   UNL     1       1.317   1.539   6.770  1.00  0.00    -0.269 OA
ATOM      6  H   UNL     1       1.199  -0.790   6.962  1.00  0.00     0.163 HD
BRANCH   4   7
ATOM      7  C   UNL     1       0.342   1.484   4.630  1.00  0.00     0.041 A 
ATOM      8  C   UNL     1      -0.924   2.748   2.380  1.00  0.00     0.060 A 
ATOM      9  C   UNL     1      -0.542   3.465   3.530  1.00  0.00     0.029 A 
ATOM     10  C   UNL     1      -0.828   1.357   2.532  1.00  0.00     0.056 A 
ATOM     11  C   UNL     1       0.020   2.840   4.662  1.00  0.00     0.016 A 
ATOM     12  C   UNL     1       0.026   0.795   3.478  1.00  0.00     0.041 A 
BRANCH   8  13
ATOM     13  N   UNL     1      -1.281   3.356   1.176  1.00  0.00    -0.367 N 
ATOM     14  C   UNL     1      -1.380   4.812   1.069  1.00  0.00     0.144 C 
BRANCH  13  15
ATOM     15  C   UNL     1      -1.568   2.666  -0.121  1.00  0.00     0.172 C 
BRANCH  15  16
ATOM     16  C   UNL     1      -0.844   1.369  -0.495  1.00  0.00     0.060 A 
ATOM     17  C   UNL     1       2.540  -0.038  -0.178  1.00  0.00     0.067 C 
ATOM     18  C   UNL     1       1.070   0.048  -0.452  1.00  0.00     0.038 A 
ATOM     19  C   UNL     1       0.346  -1.094  -0.785  1.00  0.00     0.023 A 
ATOM     20  N   UNL     1       0.501   1.274  -0.333  1.00  0.00    -0.256 NA
ATOM     21  C   UNL     1      -1.012  -0.972  -1.043  1.00  0.00     0.004 A 
ATOM     22  C   UNL     1      -1.612   0.277  -0.924  1.00  0.00     0.026 A 
ENDBRANCH  15  16
ENDBRANCH  13  15
ENDBRANCH   8  13
BRANCH  10  23
ATOM     23  N   UNL     1      -1.792   0.476   2.020  1.00  0.00    -0.397 N 
ATOM     24  H   UNL     1      -2.437   0.790   1.346  1.00  0.00     0.156 HD
ATOM     25  H   UNL     1      -1.824  -0.456   2.335  1.00  0.00     0.156 HD
ENDBRANCH  10  23
ENDBRANCH   4   7
ENDBRANCH   2   3
ENDBRANCH   1   2
BRANCH   1  26
ATOM     26  C   UNL     1       2.505  -3.161   5.141  1.00  0.00     0.023 C 
BRANCH  26  27
ATOM     27  C   UNL     1       1.805  -4.462   5.514  1.00  0.00     0.116 C 
BRANCH  27  28
ATOM     28  N   UNL     1       1.293  -5.189   4.365  1.00  0.00    -0.352 N 
ATOM     29  C   UNL     1       1.145  -6.547   4.205  1.00  0.00     0.251 C 
ATOM     30  H   UNL     1       1.017  -4.637   3.598  1.00  0.00     0.163 HD
ATOM     31  O   UNL     1       0.811  -7.010   3.127  1.00  0.00    -0.269 OA
BRANCH  29  32
ATOM     32  C   UNL     1       1.439  -7.444   5.345  1.00  0.00     0.039 A 
ATOM     33  C   UNL     1       2.216  -8.580   5.112  1.00  0.00     0.014 A 
ATOM     34  C   UNL     1       0.974  -7.160   6.632  1.00  0.00     0.014 A 
ATOM     35  C   UNL     1       2.568  -9.402   6.183  1.00  0.00     0.010 A 
ATOM     36  C   UNL     1       1.401  -7.930   7.709  1.00  0.00     0.010 A 
ATOM     37  C   UNL     1       2.192  -9.066   7.495  1.00  0.00    -0.014 A 
BRANCH  37  38
ATOM     38  C   UNL     1       2.632  -9.903   8.639  1.00  0.00     0.031 A 
ATOM     39  C   UNL     1       1.626 -10.634   9.484  1.00  0.00     0.074 A 
ATOM     40  C   UNL     1       3.945  -9.988   8.926  1.00  0.00     0.049 A 
ATOM     41  N   UNL     1       1.828 -11.456  10.485  1.00  0.00    -0.248 NA
ATOM     42  C   UNL     1       0.206 -10.394   9.187  1.00  0.00     0.031 C 
ATOM     43  C   UNL     1       5.010  -9.267   8.226  1.00  0.00     0.029 A 
ATOM     44  N   UNL     1       4.610 -10.725   9.873  1.00  0.00    -0.354 N 
ATOM     45  C   UNL     1       0.567 -11.826  10.932  1.00  0.00     0.074 A 
ATOM     46  C   UNL     1      -0.394 -11.087  10.143  1.00  0.00     0.031 C 
ATOM     47  C   UNL     1       6.197  -9.632   8.736  1.00  0.00     0.029 A 
ATOM     48  C   UNL     1       5.976 -10.587   9.817  1.00  0.00     0.049 A 
ATOM     49  H   UNL     1       4.153 -11.296  10.531  1.00  0.00     0.167 HD
ATOM     50  C   UNL     1       0.239 -12.724  11.892  1.00  0.00     0.037 A 
ATOM     51  C   UNL     1       6.941 -11.176  10.548  1.00  0.00     0.037 A 
ATOM     52  C   UNL     1       1.201 -13.464  12.668  1.00  0.00     0.049 A 
ATOM     53  C   UNL     1       6.550 -12.179  11.599  1.00  0.00     0.074 A 
ATOM     54  C   UNL     1       0.975 -14.434  13.627  1.00  0.00     0.029 A 
ATOM     55  N   UNL     1       2.577 -13.307  12.576  1.00  0.00    -0.354 N 
ATOM     56  N   UNL     1       5.356 -12.590  11.951  1.00  0.00    -0.248 NA
ATOM     57  C   UNL     1       7.646 -12.815  12.341  1.00  0.00     0.031 C 
ATOM     58  C   UNL     1       2.210 -14.825  14.156  1.00  0.00     0.029 A 
ATOM     59  C   UNL     1       3.211 -14.147  13.479  1.00  0.00     0.049 A 
ATOM     60  H   UNL     1       3.035 -12.690  11.961  1.00  0.00     0.167 HD
ATOM     61  C   UNL     1       5.557 -13.551  12.933  1.00  0.00     0.074 A 
ATOM     62  C   UNL     1       6.990 -13.681  13.098  1.00  0.00     0.031 C 
ATOM     63  C   UNL     1       4.639 -14.262  13.636  1.00  0.00     0.037 A 
BRANCH  50  64
ATOM     64  C   UNL     1      -1.223 -12.958  12.153  1.00  0.00     0.064 A 
ATOM     65  C   UNL     1      -2.051 -13.582  11.206  1.00  0.00     0.173 A 
ATOM     66  C   UNL     1      -1.798 -12.584  13.377  1.00  0.00     0.173 A 
ATOM     67  F   UNL     1      -1.556 -13.949  10.014  1.00  0.00    -0.203 F 
ATOM     68  C   UNL     1      -3.404 -13.791  11.460  1.00  0.00     0.198 A 
ATOM     69  C   UNL     1      -3.144 -12.828  13.642  1.00  0.00     0.198 A 
ATOM     70  F   UNL     1      -1.054 -11.989  14.321  1.00  0.00    -0.203 F 
ATOM     71  F   UNL     1      -4.185 -14.337  10.518  1.00  0.00    -0.200 F 
ATOM     72  C   UNL     1      -3.947 -13.422  12.681  1.00  0.00     0.200 A 
ATOM     73  F   UNL     1      -3.664 -12.483  14.828  1.00  0.00    -0.200 F 
ATOM     74  F   UNL     1      -5.248 -13.632  12.928  1.00  0.00    -0.200 F 
ENDBRANCH  50  64
BRANCH  51  75
ATOM     75  C   UNL     1       8.371 -10.866  10.282  1.00  0.00     0.064 A 
ATOM     76  C   UNL     1       9.233 -11.832   9.744  1.00  0.00     0.173 A 
ATOM     77  C   UNL     1       8.908  -9.602  10.569  1.00  0.00     0.173 A 
ATOM     78  F   UNL     1       8.772 -13.061   9.468  1.00  0.00    -0.203 F 
ATOM     79  C   UNL     1      10.582 -11.557   9.532  1.00  0.00     0.198 A 
ATOM     80  C   UNL     1      10.249  -9.318  10.325  1.00  0.00     0.198 A 
ATOM     81  F   UNL     1       8.125  -8.639  11.076  1.00  0.00    -0.203 F 
ATOM     82  F   UNL     1      11.394 -12.517   9.069  1.00  0.00    -0.200 F 
ATOM     83  C   UNL     1      11.088 -10.298   9.817  1.00  0.00     0.200 A 
ATOM     84  F   UNL     1      10.730  -8.094  10.585  1.00  0.00    -0.200 F 
ATOM     85  F   UNL     1      12.385 -10.033   9.610  1.00  0.00    -0.200 F 
ENDBRANCH  51  75
BRANCH  63  86
ATOM     86  C   UNL     1       5.167 -15.269  14.620  1.00  0.00     0.064 A 
ATOM     87  C   UNL     1       5.848 -14.882  15.784  1.00  0.00     0.173 A 
ATOM     88  C   UNL     1       4.991 -16.643  14.391  1.00  0.00     0.173 A 
ATOM     89  F   UNL     1       6.053 -13.582  16.046  1.00  0.00    -0.203 F 
ATOM     90  C   UNL     1       6.380 -15.832  16.652  1.00  0.00     0.198 A 
ATOM     91  C   UNL     1       5.489 -17.589  15.282  1.00  0.00     0.198 A 
ATOM     92  F   UNL     1       4.337 -17.070  13.300  1.00  0.00    -0.203 F 
ATOM     93  F   UNL     1       7.095 -15.438  17.716  1.00  0.00    -0.200 F 
ATOM     94  C   UNL     1       6.197 -17.183  16.403  1.00  0.00     0.200 A 
ATOM     95  F   UNL     1       5.296 -18.894  15.049  1.00  0.00    -0.200 F 
ATOM     96  F   UNL     1       6.714 -18.096  17.237  1.00  0.00    -0.200 F 
ENDBRANCH  63  86
ENDBRANCH  37  38
ENDBRANCH  29  32
ENDBRANCH  27  28
ENDBRANCH  26  27
ENDBRANCH   1  26
TORSDOF 15
