REMARK SMILES Cc1nn(C)cc1C[NH+]1CCN(C(=O)c2cnn(CC(=O)NCCCCNC(=O)c3ccc(-c4c5nc(c(-c6c(F)c(F)c(F)c(F)c6F)c6ccc([nH]6)c(-c6c(F)c(F)c(F)c(F)c6F)c6nc(c(-c7c(F)c(F)c(F)c(F)c7F)c7ccc4[nH]7)C=C6)C=C5)cc3)c2)CC1
REMARK SMILES IDX 23 1 22 2 20 3 21 4 19 6 18 7 15 8 16 9 93 10 17 11 13 12
REMARK SMILES IDX 9 13 10 14 95 15 11 17 94 18 12 19 14 20 8 21 7 22 1 23 2 24
REMARK SMILES IDX 3 25 4 26 6 27 5 28 24 29 25 30 26 31 27 32 28 33 29 35
REMARK SMILES IDX 30 36 31 37 92 38 32 39 91 40 33 41 34 42 35 43 85 44 36 45
REMARK SMILES IDX 90 46 84 47 86 48 37 49 89 50 83 51 82 52 38 54 70 55 50 56
REMARK SMILES IDX 69 57 51 58 54 59 68 60 87 61 52 62 53 63 67 65 88 66 55 67
REMARK SMILES IDX 39 68 40 69 48 70 41 71 42 72 46 73 49 74 43 75 44 76 47 77
REMARK SMILES IDX 45 78 71 79 72 80 80 81 73 82 74 83 78 84 81 85 75 86 76 87
REMARK SMILES IDX 79 88 77 89 56 90 57 91 65 92 58 93 59 94 63 95 66 96 60 97
REMARK SMILES IDX 61 98 64 99 62 100
REMARK H PARENT 22 5 9 16 27 34 86 53 54 64
REMARK Flexibility Score: inf
ROOT
ATOM      1  C   UNL     1       5.551  -0.897  -0.445  1.00  0.00     0.116 C 
ENDROOT
BRANCH   1   2
ATOM      2  N   UNL     1       6.787  -1.574  -0.776  1.00  0.00    -0.354 N 
ATOM      3  C   UNL     1       7.307  -1.907  -1.997  1.00  0.00     0.241 C 
ATOM      4  O   UNL     1       8.383  -2.513  -1.994  1.00  0.00    -0.273 OA
ATOM      5  H   UNL     1       7.338  -1.836  -0.003  1.00  0.00     0.163 HD
BRANCH   3   6
ATOM      6  C   UNL     1       6.688  -1.427  -3.294  1.00  0.00     0.243 C 
BRANCH   6   7
ATOM      7  N   UNL     1       5.322  -1.866  -3.505  1.00  0.00    -0.262 N 
ATOM      8  C   UNL     1       3.126  -1.899  -3.711  1.00  0.00     0.078 A 
ATOM      9  C   UNL     1       3.699  -3.188  -3.756  1.00  0.00     0.149 A 
ATOM     10  C   UNL     1       4.227  -1.064  -3.666  1.00  0.00     0.123 A 
ATOM     11  N   UNL     1       5.026  -3.175  -3.595  1.00  0.00    -0.180 NA
BRANCH   8  12
ATOM     12  C   UNL     1       1.742  -1.457  -3.773  1.00  0.00     0.257 C 
ATOM     13  N   UNL     1      -1.282  -3.051  -1.056  1.00  0.00    -0.328 N 
ATOM     14  C   UNL     1      -1.642  -2.341  -2.288  1.00  0.00     0.284 C 
ATOM     15  C   UNL     1      -0.011  -3.754  -1.213  1.00  0.00     0.284 C 
ATOM     16  H   UNL     1      -1.994  -3.771  -0.934  1.00  0.00     0.348 HD
ATOM     17  C   UNL     1      -0.534  -1.475  -2.918  1.00  0.00     0.181 C 
ATOM     18  C   UNL     1       1.149  -2.957  -1.830  1.00  0.00     0.181 C 
ATOM     19  N   UNL     1       0.791  -2.104  -2.966  1.00  0.00    -0.327 N 
ATOM     20  O   UNL     1       1.449  -0.481  -4.462  1.00  0.00    -0.269 OA
BRANCH  13  21
ATOM     21  C   UNL     1      -1.496  -2.347   0.213  1.00  0.00     0.302 C 
BRANCH  21  22
ATOM     22  C   UNL     1      -0.837  -1.014   0.300  1.00  0.00     0.047 A 
ATOM     23  C   UNL     1      -2.841   0.654  -0.064  1.00  0.00     0.069 C 
ATOM     24  C   UNL     1      -1.422   0.278   0.143  1.00  0.00     0.068 A 
ATOM     25  N   UNL     1      -0.497   1.245   0.146  1.00  0.00    -0.178 NA
ATOM     26  N   UNL     1       0.657   0.593   0.324  1.00  0.00    -0.275 N 
ATOM     27  C   UNL     1       0.486  -0.734   0.580  1.00  0.00     0.118 A 
ATOM     28  C   UNL     1       1.900   1.280   0.076  1.00  0.00     0.173 C 
ENDBRANCH  21  22
ENDBRANCH  13  21
ENDBRANCH   8  12
ENDBRANCH   6   7
ENDBRANCH   3   6
ENDBRANCH   1   2
BRANCH   1  29
ATOM     29  C   UNL     1       4.462  -1.872   0.013  1.00  0.00     0.023 C 
BRANCH  29  30
ATOM     30  C   UNL     1       4.614  -2.490   1.410  1.00  0.00     0.023 C 
BRANCH  30  31
ATOM     31  C   UNL     1       4.731  -1.505   2.567  1.00  0.00     0.116 C 
BRANCH  31  32
ATOM     32  N   UNL     1       3.561  -0.635   2.750  1.00  0.00    -0.352 N 
ATOM     33  C   UNL     1       3.415   0.443   3.622  1.00  0.00     0.251 C 
ATOM     34  H   UNL     1       2.781  -0.839   2.185  1.00  0.00     0.163 HD
ATOM     35  O   UNL     1       2.319   0.851   3.952  1.00  0.00    -0.269 OA
BRANCH  33  36
ATOM     36  C   UNL     1       4.638   1.094   4.122  1.00  0.00     0.039 A 
ATOM     37  C   UNL     1       4.814   1.499   5.449  1.00  0.00     0.014 A 
ATOM     38  C   UNL     1       5.670   1.194   3.207  1.00  0.00     0.014 A 
ATOM     39  C   UNL     1       6.082   1.925   5.848  1.00  0.00     0.010 A 
ATOM     40  C   UNL     1       6.943   1.309   3.667  1.00  0.00     0.010 A 
ATOM     41  C   UNL     1       7.146   1.807   4.943  1.00  0.00    -0.014 A 
BRANCH  41  42
ATOM     42  C   UNL     1       8.524   2.134   5.273  1.00  0.00     0.031 A 
ATOM     43  C   UNL     1       9.091   1.376   6.416  1.00  0.00     0.074 A 
ATOM     44  C   UNL     1       9.299   2.841   4.417  1.00  0.00     0.049 A 
ATOM     45  N   UNL     1       9.479   1.841   7.555  1.00  0.00    -0.248 NA
ATOM     46  C   UNL     1       9.117  -0.094   6.333  1.00  0.00     0.031 C 
ATOM     47  C   UNL     1       8.973   3.355   3.077  1.00  0.00     0.029 A 
ATOM     48  N   UNL     1      10.615   3.151   4.527  1.00  0.00    -0.354 N 
ATOM     49  C   UNL     1       9.983   0.754   8.264  1.00  0.00     0.074 A 
ATOM     50  C   UNL     1       9.561  -0.422   7.549  1.00  0.00     0.031 C 
ATOM     51  C   UNL     1      10.109   3.680   2.421  1.00  0.00     0.029 A 
ATOM     52  C   UNL     1      11.216   3.580   3.349  1.00  0.00     0.049 A 
ATOM     53  H   UNL     1      11.108   3.077   5.377  1.00  0.00     0.167 HD
ATOM     54  C   UNL     1      10.916   0.927   9.242  1.00  0.00     0.037 A 
ATOM     55  C   UNL     1      12.542   3.798   3.164  1.00  0.00     0.037 A 
ATOM     56  C   UNL     1      10.985   2.310   9.650  1.00  0.00     0.049 A 
ATOM     57  C   UNL     1      13.141   3.951   4.518  1.00  0.00     0.074 A 
ATOM     58  C   UNL     1      10.073   3.209  10.171  1.00  0.00     0.029 A 
ATOM     59  N   UNL     1      12.015   3.079   9.163  1.00  0.00    -0.354 N 
ATOM     60  N   UNL     1      12.879   4.954   5.312  1.00  0.00    -0.248 NA
ATOM     61  C   UNL     1      13.628   2.744   5.169  1.00  0.00     0.031 C 
ATOM     62  C   UNL     1      10.348   4.438   9.500  1.00  0.00     0.029 A 
ATOM     63  C   UNL     1      11.458   4.237   8.680  1.00  0.00     0.049 A 
ATOM     64  H   UNL     1      12.971   2.843   9.160  1.00  0.00     0.167 HD
ATOM     65  C   UNL     1      12.761   4.385   6.572  1.00  0.00     0.074 A 
ATOM     66  C   UNL     1      13.295   3.030   6.431  1.00  0.00     0.031 C 
ATOM     67  C   UNL     1      11.969   4.947   7.532  1.00  0.00     0.037 A 
BRANCH  54  68
ATOM     68  C   UNL     1      12.017  -0.054   9.563  1.00  0.00     0.064 A 
ATOM     69  C   UNL     1      12.837   0.186  10.685  1.00  0.00     0.173 A 
ATOM     70  C   UNL     1      12.490  -1.035   8.665  1.00  0.00     0.173 A 
ATOM     71  F   UNL     1      12.492   1.104  11.600  1.00  0.00    -0.203 F 
ATOM     72  C   UNL     1      14.076  -0.440  10.842  1.00  0.00     0.198 A 
ATOM     73  C   UNL     1      13.701  -1.698   8.855  1.00  0.00     0.198 A 
ATOM     74  F   UNL     1      11.869  -1.312   7.514  1.00  0.00    -0.203 F 
ATOM     75  F   UNL     1      14.880  -0.078  11.851  1.00  0.00    -0.200 F 
ATOM     76  C   UNL     1      14.511  -1.375   9.922  1.00  0.00     0.200 A 
ATOM     77  F   UNL     1      14.112  -2.591   7.943  1.00  0.00    -0.200 F 
ATOM     78  F   UNL     1      15.727  -1.927  10.032  1.00  0.00    -0.200 F 
ENDBRANCH  54  68
BRANCH  55  79
ATOM     79  C   UNL     1      13.363   3.554   1.954  1.00  0.00     0.064 A 
ATOM     80  C   UNL     1      14.660   4.084   1.846  1.00  0.00     0.173 A 
ATOM     81  C   UNL     1      13.015   2.560   1.018  1.00  0.00     0.173 A 
ATOM     82  F   UNL     1      15.083   5.009   2.720  1.00  0.00    -0.203 F 
ATOM     83  C   UNL     1      15.566   3.620   0.886  1.00  0.00     0.198 A 
ATOM     84  C   UNL     1      13.920   2.101   0.058  1.00  0.00     0.198 A 
ATOM     85  F   UNL     1      11.825   1.946   1.078  1.00  0.00    -0.203 F 
ATOM     86  F   UNL     1      16.817   4.103   0.859  1.00  0.00    -0.200 F 
ATOM     87  C   UNL     1      15.200   2.619   0.003  1.00  0.00     0.200 A 
ATOM     88  F   UNL     1      13.564   1.108  -0.769  1.00  0.00    -0.200 F 
ATOM     89  F   UNL     1      16.090   2.125  -0.870  1.00  0.00    -0.200 F 
ENDBRANCH  55  79
BRANCH  67  90
ATOM     90  C   UNL     1      11.397   6.314   7.271  1.00  0.00     0.064 A 
ATOM     91  C   UNL     1      10.498   6.609   6.230  1.00  0.00     0.173 A 
ATOM     92  C   UNL     1      11.644   7.325   8.207  1.00  0.00     0.173 A 
ATOM     93  F   UNL     1      10.128   5.671   5.352  1.00  0.00    -0.203 F 
ATOM     94  C   UNL     1       9.909   7.867   6.112  1.00  0.00     0.198 A 
ATOM     95  C   UNL     1      11.028   8.570   8.108  1.00  0.00     0.198 A 
ATOM     96  F   UNL     1      12.448   7.087   9.255  1.00  0.00    -0.203 F 
ATOM     97  F   UNL     1       9.061   8.121   5.104  1.00  0.00    -0.200 F 
ATOM     98  C   UNL     1      10.169   8.845   7.056  1.00  0.00     0.200 A 
ATOM     99  F   UNL     1      11.244   9.496   9.053  1.00  0.00    -0.200 F 
ATOM    100  F   UNL     1       9.571  10.041   6.969  1.00  0.00    -0.200 F 
ENDBRANCH  67  90
ENDBRANCH  41  42
ENDBRANCH  33  36
ENDBRANCH  31  32
ENDBRANCH  30  31
ENDBRANCH  29  30
ENDBRANCH   1  29
TORSDOF 15
