REMARK SMILES O=C(NCCCCNC(=O)[C@@H]1C[C@@H](O)CN1C(=O)CSc1ccc(F)cc1F)c1ccc(-c2c3nc(c(-c4c(F)c(F)c(F)c(F)c4F)c4ccc([nH]4)c(-c4c(F)c(F)c(F)c(F)c4F)c4nc(c(-c5c(F)c(F)c(F)c(F)c5F)c5ccc2[nH]5)C=C4)C=C3)cc1
REMARK SMILES IDX 6 1 5 2 4 3 3 4 1 5 2 6 29 8 30 9 91 10 31 11 90 12 32 13
REMARK SMILES IDX 33 14 34 15 84 16 35 17 89 18 83 19 85 20 36 21 88 22 82 23
REMARK SMILES IDX 81 24 37 26 69 27 49 28 68 29 50 30 53 31 67 32 86 33 51 34
REMARK SMILES IDX 52 35 66 37 87 38 54 39 38 40 39 41 47 42 40 43 41 44 45 45
REMARK SMILES IDX 48 46 42 47 43 48 46 49 44 50 70 51 71 52 79 53 72 54 73 55
REMARK SMILES IDX 77 56 80 57 74 58 75 59 78 60 76 61 55 62 56 63 64 64 57 65
REMARK SMILES IDX 58 66 62 67 65 68 59 69 60 70 63 71 61 72 7 73 8 74 9 75
REMARK SMILES IDX 10 77 11 78 12 79 16 80 13 81 15 82 17 83 18 84 19 85 20 86
REMARK SMILES IDX 21 87 22 88 27 89 23 90 26 91 28 92 24 93 25 94 14 95
REMARK H PARENT 3 7 85 25 53 36 8 76 14 96
REMARK Flexibility Score: inf
ROOT
ATOM      1  C   UNL     1       5.639   4.524  -4.032  1.00  0.00     0.023 C 
ENDROOT
BRANCH   1   2
ATOM      2  C   UNL     1       5.345   5.034  -5.452  1.00  0.00     0.023 C 
BRANCH   2   3
ATOM      3  C   UNL     1       6.472   4.828  -6.457  1.00  0.00     0.116 C 
BRANCH   3   4
ATOM      4  N   UNL     1       6.756   3.423  -6.692  1.00  0.00    -0.352 N 
ATOM      5  O   UNL     1       7.032   1.552  -7.921  1.00  0.00    -0.269 OA
ATOM      6  C   UNL     1       6.960   2.777  -7.885  1.00  0.00     0.251 C 
ATOM      7  H   UNL     1       6.809   2.859  -5.887  1.00  0.00     0.163 HD
BRANCH   6   8
ATOM      8  C   UNL     1       7.072   3.560  -9.135  1.00  0.00     0.039 A 
ATOM      9  C   UNL     1       7.881   4.697  -9.196  1.00  0.00     0.014 A 
ATOM     10  C   UNL     1       6.371   3.133 -10.266  1.00  0.00     0.014 A 
ATOM     11  C   UNL     1       7.907   5.465 -10.355  1.00  0.00     0.010 A 
ATOM     12  C   UNL     1       6.450   3.869 -11.452  1.00  0.00     0.010 A 
ATOM     13  C   UNL     1       7.205   5.050 -11.499  1.00  0.00    -0.014 A 
BRANCH  13  14
ATOM     14  C   UNL     1       7.340   5.826 -12.757  1.00  0.00     0.031 A 
ATOM     15  C   UNL     1       6.179   6.580 -13.335  1.00  0.00     0.074 A 
ATOM     16  C   UNL     1       8.541   5.860 -13.364  1.00  0.00     0.049 A 
ATOM     17  N   UNL     1       6.135   7.322 -14.414  1.00  0.00    -0.248 NA
ATOM     18  C   UNL     1       4.899   6.490 -12.617  1.00  0.00     0.031 C 
ATOM     19  C   UNL     1       9.736   5.155 -12.896  1.00  0.00     0.029 A 
ATOM     20  N   UNL     1       8.964   6.524 -14.487  1.00  0.00    -0.354 N 
ATOM     21  C   UNL     1       4.827   7.777 -14.511  1.00  0.00     0.074 A 
ATOM     22  C   UNL     1       4.099   7.209 -13.396  1.00  0.00     0.031 C 
ATOM     23  C   UNL     1      10.768   5.461 -13.695  1.00  0.00     0.029 A 
ATOM     24  C   UNL     1      10.296   6.338 -14.762  1.00  0.00     0.049 A 
ATOM     25  H   UNL     1       8.370   7.079 -15.042  1.00  0.00     0.167 HD
ATOM     26  C   UNL     1       4.291   8.601 -15.442  1.00  0.00     0.037 A 
ATOM     27  C   UNL     1      11.055   6.812 -15.767  1.00  0.00     0.037 A 
ATOM     28  C   UNL     1       5.027   9.175 -16.540  1.00  0.00     0.049 A 
ATOM     29  C   UNL     1      10.429   7.707 -16.797  1.00  0.00     0.074 A 
ATOM     30  C   UNL     1       4.577  10.047 -17.516  1.00  0.00     0.029 A 
ATOM     31  N   UNL     1       6.367   8.935 -16.807  1.00  0.00    -0.354 N 
ATOM     32  N   UNL     1       9.197   8.148 -16.864  1.00  0.00    -0.248 NA
ATOM     33  C   UNL     1      11.294   8.165 -17.892  1.00  0.00     0.031 C 
ATOM     34  C   UNL     1       5.632  10.301 -18.398  1.00  0.00     0.029 A 
ATOM     35  C   UNL     1       6.753   9.625 -17.946  1.00  0.00     0.049 A 
ATOM     36  H   UNL     1       6.956   8.360 -16.268  1.00  0.00     0.167 HD
ATOM     37  C   UNL     1       9.138   8.941 -18.000  1.00  0.00     0.074 A 
ATOM     38  C   UNL     1      10.465   8.937 -18.582  1.00  0.00     0.031 C 
ATOM     39  C   UNL     1       8.077   9.609 -18.514  1.00  0.00     0.037 A 
BRANCH  26  40
ATOM     40  C   UNL     1       2.833   8.937 -15.329  1.00  0.00     0.064 A 
ATOM     41  C   UNL     1       1.913   8.435 -16.262  1.00  0.00     0.173 A 
ATOM     42  C   UNL     1       2.358   9.821 -14.349  1.00  0.00     0.173 A 
ATOM     43  F   UNL     1       2.318   7.592 -17.224  1.00  0.00    -0.203 F 
ATOM     44  C   UNL     1       0.575   8.816 -16.226  1.00  0.00     0.198 A 
ATOM     45  C   UNL     1       1.014  10.181 -14.301  1.00  0.00     0.198 A 
ATOM     46  F   UNL     1       3.196  10.321 -13.428  1.00  0.00    -0.203 F 
ATOM     47  F   UNL     1      -0.280   8.347 -17.146  1.00  0.00    -0.200 F 
ATOM     48  C   UNL     1       0.125   9.686 -15.245  1.00  0.00     0.200 A 
ATOM     49  F   UNL     1       0.577  11.007 -13.341  1.00  0.00    -0.200 F 
ATOM     50  F   UNL     1      -1.165  10.048 -15.207  1.00  0.00    -0.200 F 
ENDBRANCH  26  40
BRANCH  27  51
ATOM     51  C   UNL     1      12.494   6.453 -15.823  1.00  0.00     0.064 A 
ATOM     52  C   UNL     1      12.906   5.143 -16.106  1.00  0.00     0.173 A 
ATOM     53  C   UNL     1      13.483   7.404 -15.539  1.00  0.00     0.173 A 
ATOM     54  F   UNL     1      11.996   4.196 -16.378  1.00  0.00    -0.203 F 
ATOM     55  C   UNL     1      14.253   4.790 -16.074  1.00  0.00     0.198 A 
ATOM     56  C   UNL     1      14.832   7.056 -15.533  1.00  0.00     0.198 A 
ATOM     57  F   UNL     1      13.137   8.673 -15.280  1.00  0.00    -0.203 F 
ATOM     58  F   UNL     1      14.617   3.522 -16.305  1.00  0.00    -0.200 F 
ATOM     59  C   UNL     1      15.215   5.748 -15.791  1.00  0.00     0.200 A 
ATOM     60  F   UNL     1      15.761   7.988 -15.279  1.00  0.00    -0.200 F 
ATOM     61  F   UNL     1      16.511   5.410 -15.765  1.00  0.00    -0.200 F 
ENDBRANCH  27  51
BRANCH  39  62
ATOM     62  C   UNL     1       8.303  10.402 -19.765  1.00  0.00     0.064 A 
ATOM     63  C   UNL     1       8.317  11.804 -19.727  1.00  0.00     0.173 A 
ATOM     64  C   UNL     1       8.441   9.775 -21.012  1.00  0.00     0.173 A 
ATOM     65  F   UNL     1       8.184  12.449 -18.558  1.00  0.00    -0.203 F 
ATOM     66  C   UNL     1       8.447  12.550 -20.894  1.00  0.00     0.198 A 
ATOM     67  C   UNL     1       8.595  10.524 -22.175  1.00  0.00     0.198 A 
ATOM     68  F   UNL     1       8.448   8.436 -21.096  1.00  0.00    -0.203 F 
ATOM     69  F   UNL     1       8.430  13.889 -20.837  1.00  0.00    -0.200 F 
ATOM     70  C   UNL     1       8.589  11.910 -22.116  1.00  0.00     0.200 A 
ATOM     71  F   UNL     1       8.755   9.905 -23.352  1.00  0.00    -0.200 F 
ATOM     72  F   UNL     1       8.725  12.630 -23.238  1.00  0.00    -0.200 F 
ENDBRANCH  39  62
ENDBRANCH  13  14
ENDBRANCH   6   8
ENDBRANCH   3   4
ENDBRANCH   2   3
ENDBRANCH   1   2
BRANCH   1  73
ATOM     73  C   UNL     1       6.917   5.096  -3.410  1.00  0.00     0.116 C 
BRANCH  73  74
ATOM     74  N   UNL     1       6.847   6.540  -3.377  1.00  0.00    -0.354 N 
ATOM     75  C   UNL     1       6.513   7.388  -2.366  1.00  0.00     0.242 C 
ATOM     76  H   UNL     1       7.078   6.982  -4.226  1.00  0.00     0.163 HD
ATOM     77  O   UNL     1       6.193   8.528  -2.710  1.00  0.00    -0.273 OA
BRANCH  75  78
ATOM     78  C   UNL     1       6.614   6.934  -0.890  1.00  0.00     0.177 C 
ATOM     79  C   UNL     1       5.567   5.879  -0.508  1.00  0.00     0.069 C 
ATOM     80  N   UNL     1       6.346   8.037   0.054  1.00  0.00    -0.327 N 
ATOM     81  C   UNL     1       5.338   6.128   0.977  1.00  0.00     0.136 C 
ATOM     82  C   UNL     1       5.378   7.648   1.075  1.00  0.00     0.152 C 
BRANCH  80  83
ATOM     83  C   UNL     1       7.096   9.191   0.025  1.00  0.00     0.233 C 
ATOM     84  O   UNL     1       8.152   9.229  -0.617  1.00  0.00    -0.274 OA
BRANCH  83  85
ATOM     85  C   UNL     1       6.697  10.396   0.867  1.00  0.00     0.175 C 
BRANCH  85  86
ATOM     86  S   UNL     1       4.929  10.845   0.887  1.00  0.00    -0.113 SA
BRANCH  86  87
ATOM     87  C   UNL     1       4.615  11.215  -0.830  1.00  0.00     0.044 A 
ATOM     88  C   UNL     1       4.880  12.498  -1.322  1.00  0.00     0.021 A 
ATOM     89  C   UNL     1       3.987  10.287  -1.673  1.00  0.00     0.139 A 
ATOM     90  C   UNL     1       4.547  12.828  -2.640  1.00  0.00     0.040 A 
ATOM     91  C   UNL     1       3.672  10.602  -2.991  1.00  0.00     0.079 A 
ATOM     92  F   UNL     1       3.656   9.066  -1.222  1.00  0.00    -0.206 F 
ATOM     93  C   UNL     1       3.956  11.874  -3.463  1.00  0.00     0.126 A 
ATOM     94  F   UNL     1       3.637  12.197  -4.723  1.00  0.00    -0.207 F 
ENDBRANCH  86  87
ENDBRANCH  85  86
ENDBRANCH  83  85
ENDBRANCH  80  83
BRANCH  81  95
ATOM     95  O   UNL     1       6.393   5.531   1.732  1.00  0.00    -0.391 OA
ATOM     96  H   UNL     1       7.246   5.876   1.424  1.00  0.00     0.211 HD
ENDBRANCH  81  95
ENDBRANCH  75  78
ENDBRANCH  73  74
ENDBRANCH   1  73
TORSDOF 16
