REMARK SMILES Cc1ccccc1NC(=O)c1ccccc1NC(=O)CCC(=O)NCCCCNC(=O)c1ccc(-c2c3nc(c(-c4c(F)c(F)c(F)c(F)c4F)c4ccc([nH]4)c(-c4c(F)c(F)c(F)c(F)c4F)c4nc(c(-c5c(F)c(F)c(F)c(F)c5F)c5ccc2[nH]5)C=C4)C=C3)cc1
REMARK SMILES IDX 25 1 24 2 22 3 23 4 21 6 20 7 18 8 17 9 19 11 16 12 11 13
REMARK SMILES IDX 12 14 13 15 15 16 14 17 9 18 8 19 10 21 7 22 1 23 2 24 3 25
REMARK SMILES IDX 4 26 6 27 5 28 26 29 27 30 28 31 29 32 30 33 31 35 32 36
REMARK SMILES IDX 33 37 94 38 34 39 93 40 35 41 36 42 37 43 87 44 38 45 92 46
REMARK SMILES IDX 86 47 88 48 39 49 91 50 85 51 84 52 40 54 72 55 52 56 71 57
REMARK SMILES IDX 53 58 56 59 70 60 89 61 54 62 55 63 69 65 90 66 57 67 41 68
REMARK SMILES IDX 42 69 50 70 43 71 44 72 48 73 51 74 45 75 46 76 49 77 47 78
REMARK SMILES IDX 73 79 74 80 82 81 75 82 76 83 80 84 83 85 77 86 78 87 81 88
REMARK SMILES IDX 79 89 58 90 59 91 67 92 60 93 61 94 65 95 68 96 62 97 63 98
REMARK SMILES IDX 66 99 64 100
REMARK H PARENT 24 5 17 10 8 20 29 34 88 53 56 64
REMARK Flexibility Score: inf
ROOT
ATOM      1  C   UNL     1       1.470   2.403   4.230  1.00  0.00     0.116 C 
ENDROOT
BRANCH   1   2
ATOM      2  N   UNL     1       0.250   3.197   4.269  1.00  0.00    -0.356 N 
ATOM      3  C   UNL     1      -1.017   2.896   4.659  1.00  0.00     0.220 C 
ATOM      4  O   UNL     1      -1.850   3.804   4.704  1.00  0.00    -0.275 OA
ATOM      5  H   UNL     1       0.363   4.123   3.954  1.00  0.00     0.163 HD
BRANCH   3   6
ATOM      6  C   UNL     1      -1.403   1.482   5.010  1.00  0.00     0.110 C 
BRANCH   6   7
ATOM      7  C   UNL     1      -2.425   0.925   4.025  1.00  0.00     0.110 C 
BRANCH   7   8
ATOM      8  C   UNL     1      -1.779   0.657   2.693  1.00  0.00     0.224 C 
ATOM      9  N   UNL     1      -1.760   1.496   1.628  1.00  0.00    -0.325 N 
ATOM     10  H   UNL     1      -1.181   1.138   0.916  1.00  0.00     0.169 HD
ATOM     11  O   UNL     1      -1.115  -0.385   2.576  1.00  0.00    -0.275 OA
BRANCH   9  12
ATOM     12  C   UNL     1      -2.321   2.729   1.234  1.00  0.00     0.054 A 
ATOM     13  C   UNL     1      -1.867   3.395   0.059  1.00  0.00     0.063 A 
ATOM     14  C   UNL     1      -2.343   4.703  -0.210  1.00  0.00     0.016 A 
ATOM     15  C   UNL     1      -3.270   5.334   0.611  1.00  0.00     0.001 A 
ATOM     16  C   UNL     1      -3.315   3.361   1.993  1.00  0.00     0.027 A 
ATOM     17  C   UNL     1      -3.772   4.650   1.701  1.00  0.00     0.002 A 
BRANCH  13  18
ATOM     18  C   UNL     1      -0.762   2.988  -0.879  1.00  0.00     0.257 C 
ATOM     19  N   UNL     1      -0.417   1.706  -1.251  1.00  0.00    -0.322 N 
ATOM     20  H   UNL     1       0.489   1.649  -1.631  1.00  0.00     0.170 HD
ATOM     21  O   UNL     1      -0.020   3.890  -1.290  1.00  0.00    -0.269 OA
BRANCH  19  22
ATOM     22  C   UNL     1      -1.070   0.464  -1.209  1.00  0.00     0.044 A 
ATOM     23  C   UNL     1       1.199  -0.770  -1.208  1.00  0.00     0.046 C 
ATOM     24  C   UNL     1      -0.301  -0.721  -1.144  1.00  0.00    -0.027 A 
ATOM     25  C   UNL     1      -0.947  -1.936  -0.873  1.00  0.00     0.005 A 
ATOM     26  C   UNL     1      -2.330  -1.995  -0.754  1.00  0.00     0.000 A 
ATOM     27  C   UNL     1      -2.463   0.382  -1.161  1.00  0.00     0.026 A 
ATOM     28  C   UNL     1      -3.088  -0.843  -0.929  1.00  0.00     0.002 A 
ENDBRANCH  19  22
ENDBRANCH  13  18
ENDBRANCH   9  12
ENDBRANCH   7   8
ENDBRANCH   6   7
ENDBRANCH   3   6
ENDBRANCH   1   2
BRANCH   1  29
ATOM     29  C   UNL     1       1.761   1.683   2.904  1.00  0.00     0.023 C 
BRANCH  29  30
ATOM     30  C   UNL     1       1.314   2.409   1.635  1.00  0.00     0.023 C 
BRANCH  30  31
ATOM     31  C   UNL     1       2.384   2.994   0.722  1.00  0.00     0.116 C 
BRANCH  31  32
ATOM     32  N   UNL     1       2.730   2.105  -0.389  1.00  0.00    -0.352 N 
ATOM     33  C   UNL     1       3.363   2.374  -1.591  1.00  0.00     0.251 C 
ATOM     34  H   UNL     1       2.470   1.164  -0.261  1.00  0.00     0.163 HD
ATOM     35  O   UNL     1       3.414   1.536  -2.485  1.00  0.00    -0.269 OA
BRANCH  33  36
ATOM     36  C   UNL     1       4.191   3.591  -1.672  1.00  0.00     0.039 A 
ATOM     37  C   UNL     1       5.550   3.328  -1.452  1.00  0.00     0.014 A 
ATOM     38  C   UNL     1       3.614   4.807  -1.329  1.00  0.00     0.014 A 
ATOM     39  C   UNL     1       6.226   4.108  -0.533  1.00  0.00     0.010 A 
ATOM     40  C   UNL     1       4.274   5.561  -0.378  1.00  0.00     0.010 A 
ATOM     41  C   UNL     1       5.515   5.115   0.113  1.00  0.00    -0.014 A 
BRANCH  41  42
ATOM     42  C   UNL     1       5.870   5.544   1.461  1.00  0.00     0.031 A 
ATOM     43  C   UNL     1       6.408   6.893   1.693  1.00  0.00     0.074 A 
ATOM     44  C   UNL     1       5.653   4.716   2.513  1.00  0.00     0.049 A 
ATOM     45  N   UNL     1       7.020   7.240   2.775  1.00  0.00    -0.248 NA
ATOM     46  C   UNL     1       6.398   7.940   0.676  1.00  0.00     0.031 C 
ATOM     47  C   UNL     1       5.606   5.075   3.928  1.00  0.00     0.029 A 
ATOM     48  N   UNL     1       5.648   3.310   2.515  1.00  0.00    -0.354 N 
ATOM     49  C   UNL     1       7.170   8.602   2.736  1.00  0.00     0.074 A 
ATOM     50  C   UNL     1       6.935   8.955   1.361  1.00  0.00     0.031 C 
ATOM     51  C   UNL     1       5.843   3.979   4.665  1.00  0.00     0.029 A 
ATOM     52  C   UNL     1       6.189   2.907   3.752  1.00  0.00     0.049 A 
ATOM     53  H   UNL     1       5.328   2.722   1.794  1.00  0.00     0.167 HD
ATOM     54  C   UNL     1       7.295   9.267   3.917  1.00  0.00     0.037 A 
ATOM     55  C   UNL     1       7.307   2.133   3.818  1.00  0.00     0.037 A 
ATOM     56  C   UNL     1       7.702   8.350   4.992  1.00  0.00     0.049 A 
ATOM     57  C   UNL     1       8.451   2.777   4.561  1.00  0.00     0.074 A 
ATOM     58  C   UNL     1       7.092   7.862   6.135  1.00  0.00     0.029 A 
ATOM     59  N   UNL     1       8.864   7.595   4.823  1.00  0.00    -0.354 N 
ATOM     60  N   UNL     1       8.466   4.028   4.928  1.00  0.00    -0.248 NA
ATOM     61  C   UNL     1       9.694   2.085   4.887  1.00  0.00     0.031 C 
ATOM     62  C   UNL     1       7.853   6.750   6.598  1.00  0.00     0.029 A 
ATOM     63  C   UNL     1       8.942   6.584   5.759  1.00  0.00     0.049 A 
ATOM     64  H   UNL     1       9.540   7.763   4.127  1.00  0.00     0.167 HD
ATOM     65  C   UNL     1       9.701   4.342   5.422  1.00  0.00     0.074 A 
ATOM     66  C   UNL     1      10.416   3.079   5.431  1.00  0.00     0.031 C 
ATOM     67  C   UNL     1      10.045   5.628   5.725  1.00  0.00     0.037 A 
BRANCH  54  68
ATOM     68  C   UNL     1       6.823  10.696   4.149  1.00  0.00     0.064 A 
ATOM     69  C   UNL     1       6.885  11.264   5.441  1.00  0.00     0.173 A 
ATOM     70  C   UNL     1       6.167  11.511   3.196  1.00  0.00     0.173 A 
ATOM     71  F   UNL     1       7.478  10.620   6.456  1.00  0.00    -0.203 F 
ATOM     72  C   UNL     1       6.315  12.508   5.751  1.00  0.00     0.198 A 
ATOM     73  C   UNL     1       5.640  12.771   3.495  1.00  0.00     0.198 A 
ATOM     74  F   UNL     1       5.946  11.121   1.939  1.00  0.00    -0.203 F 
ATOM     75  F   UNL     1       6.350  12.960   7.012  1.00  0.00    -0.200 F 
ATOM     76  C   UNL     1       5.697  13.263   4.777  1.00  0.00     0.200 A 
ATOM     77  F   UNL     1       5.045  13.483   2.527  1.00  0.00    -0.200 F 
ATOM     78  F   UNL     1       5.146  14.448   5.070  1.00  0.00    -0.200 F 
ENDBRANCH  54  68
BRANCH  55  79
ATOM     79  C   UNL     1       7.448   1.205   2.666  1.00  0.00     0.064 A 
ATOM     80  C   UNL     1       6.506   0.169   2.523  1.00  0.00     0.173 A 
ATOM     81  C   UNL     1       8.228   1.530   1.550  1.00  0.00     0.173 A 
ATOM     82  F   UNL     1       5.715  -0.163   3.556  1.00  0.00    -0.203 F 
ATOM     83  C   UNL     1       6.290  -0.452   1.294  1.00  0.00     0.198 A 
ATOM     84  C   UNL     1       8.014   0.901   0.321  1.00  0.00     0.198 A 
ATOM     85  F   UNL     1       9.117   2.531   1.613  1.00  0.00    -0.203 F 
ATOM     86  F   UNL     1       5.317  -1.366   1.169  1.00  0.00    -0.200 F 
ATOM     87  C   UNL     1       7.030  -0.070   0.189  1.00  0.00     0.200 A 
ATOM     88  F   UNL     1       8.701   1.297  -0.759  1.00  0.00    -0.200 F 
ATOM     89  F   UNL     1       6.769  -0.605  -1.012  1.00  0.00    -0.200 F 
ENDBRANCH  55  79
BRANCH  67  90
ATOM     90  C   UNL     1      11.442   6.097   6.047  1.00  0.00     0.064 A 
ATOM     91  C   UNL     1      12.608   5.520   5.515  1.00  0.00     0.173 A 
ATOM     92  C   UNL     1      11.637   7.266   6.818  1.00  0.00     0.173 A 
ATOM     93  F   UNL     1      12.549   4.485   4.665  1.00  0.00    -0.203 F 
ATOM     94  C   UNL     1      13.880   6.030   5.793  1.00  0.00     0.198 A 
ATOM     95  C   UNL     1      12.903   7.806   7.045  1.00  0.00     0.198 A 
ATOM     96  F   UNL     1      10.600   7.928   7.352  1.00  0.00    -0.203 F 
ATOM     97  F   UNL     1      14.964   5.415   5.299  1.00  0.00    -0.200 F 
ATOM     98  C   UNL     1      14.026   7.178   6.548  1.00  0.00     0.200 A 
ATOM     99  F   UNL     1      13.025   8.950   7.734  1.00  0.00    -0.200 F 
ATOM    100  F   UNL     1      15.243   7.688   6.776  1.00  0.00    -0.200 F 
ENDBRANCH  67  90
ENDBRANCH  41  42
ENDBRANCH  33  36
ENDBRANCH  31  32
ENDBRANCH  30  31
ENDBRANCH  29  30
ENDBRANCH   1  29
TORSDOF 16
