REMARK SMILES CCOc1cc(OCC)cc(-c2ccc([C@@H](C)C(=O)NCCCCNC(=O)c3ccc(-c4c5nc(c(-c6c(F)c(F)c(F)c(F)c6F)c6ccc([nH]6)c(-c6c(F)c(F)c(F)c(F)c6F)c6nc(c(-c7c(F)c(F)c(F)c(F)c7F)c7ccc4[nH]7)C=C6)C=C5)cc3)cc2F)c1
REMARK SMILES IDX 21 1 20 2 18 3 19 4 16 6 17 7 15 8 12 9 13 10 92 11 14 12
REMARK SMILES IDX 91 13 93 14 11 15 4 16 5 17 94 18 6 19 10 20 3 21 2 22 1 23
REMARK SMILES IDX 7 24 8 25 9 26 22 27 23 28 24 29 25 30 26 31 27 33 28 34
REMARK SMILES IDX 29 35 90 36 30 37 89 38 31 39 32 40 33 41 83 42 34 43 88 44
REMARK SMILES IDX 82 45 84 46 35 47 87 48 81 49 80 50 36 52 68 53 48 54 67 55
REMARK SMILES IDX 49 56 52 57 66 58 85 59 50 60 51 61 65 63 86 64 53 65 37 66
REMARK SMILES IDX 38 67 46 68 39 69 40 70 44 71 47 72 41 73 42 74 45 75 43 76
REMARK SMILES IDX 69 77 70 78 78 79 71 80 72 81 76 82 79 83 73 84 74 85 77 86
REMARK SMILES IDX 75 87 54 88 55 89 63 90 56 91 57 92 61 93 64 94 58 95 59 96
REMARK SMILES IDX 62 97 60 98
REMARK H PARENT 20 5 25 32 84 51 52 62
REMARK Flexibility Score: inf
ROOT
ATOM      1  C   UNL     1       9.375   1.090   1.970  1.00  0.00     0.116 C 
ENDROOT
BRANCH   1   2
ATOM      2  N   UNL     1       8.665   1.168   3.230  1.00  0.00    -0.356 N 
ATOM      3  C   UNL     1       8.041   0.220   3.981  1.00  0.00     0.227 C 
ATOM      4  O   UNL     1       7.459   0.624   4.995  1.00  0.00    -0.274 OA
ATOM      5  H   UNL     1       8.627   2.074   3.614  1.00  0.00     0.163 HD
BRANCH   3   6
ATOM      6  C   UNL     1       8.029  -1.280   3.641  1.00  0.00     0.105 C 
ATOM      7  C   UNL     1       9.413  -1.929   3.619  1.00  0.00     0.023 C 
BRANCH   6   8
ATOM      8  C   UNL     1       7.125  -1.621   2.469  1.00  0.00    -0.033 A 
ATOM      9  C   UNL     1       5.318  -2.060   0.290  1.00  0.00     0.018 A 
ATOM     10  C   UNL     1       6.691  -1.825   0.088  1.00  0.00     0.012 A 
ATOM     11  C   UNL     1       4.890  -2.107   1.624  1.00  0.00     0.131 A 
ATOM     12  C   UNL     1       7.581  -1.659   1.152  1.00  0.00     0.005 A 
ATOM     13  C   UNL     1       5.763  -1.869   2.691  1.00  0.00     0.044 A 
ATOM     14  F   UNL     1       3.611  -2.378   1.926  1.00  0.00    -0.206 F 
BRANCH   9  15
ATOM     15  C   UNL     1       4.410  -2.215  -0.872  1.00  0.00    -0.008 A 
ATOM     16  C   UNL     1       2.260  -1.883  -1.972  1.00  0.00     0.123 A 
ATOM     17  C   UNL     1       2.769  -2.387  -3.167  1.00  0.00     0.092 A 
ATOM     18  C   UNL     1       3.068  -1.807  -0.837  1.00  0.00     0.055 A 
ATOM     19  C   UNL     1       4.091  -2.823  -3.232  1.00  0.00     0.123 A 
ATOM     20  C   UNL     1       4.885  -2.751  -2.086  1.00  0.00     0.055 A 
BRANCH  16  21
ATOM     21  O   UNL     1       0.924  -1.591  -1.912  1.00  0.00    -0.494 OA
BRANCH  21  22
ATOM     22  C   UNL     1       0.639  -0.200  -1.724  1.00  0.00     0.226 C 
ATOM     23  C   UNL     1       0.486   0.162  -0.254  1.00  0.00     0.049 C 
ENDBRANCH  21  22
ENDBRANCH  16  21
BRANCH  19  24
ATOM     24  O   UNL     1       4.513  -3.273  -4.455  1.00  0.00    -0.494 OA
BRANCH  24  25
ATOM     25  C   UNL     1       5.769  -3.952  -4.530  1.00  0.00     0.226 C 
ATOM     26  C   UNL     1       6.925  -2.983  -4.733  1.00  0.00     0.049 C 
ENDBRANCH  24  25
ENDBRANCH  19  24
ENDBRANCH   9  15
ENDBRANCH   6   8
ENDBRANCH   3   6
ENDBRANCH   1   2
BRANCH   1  27
ATOM     27  C   UNL     1       8.486   1.462   0.782  1.00  0.00     0.023 C 
BRANCH  27  28
ATOM     28  C   UNL     1       8.415   2.955   0.468  1.00  0.00     0.023 C 
BRANCH  28  29
ATOM     29  C   UNL     1       9.741   3.606   0.098  1.00  0.00     0.116 C 
BRANCH  29  30
ATOM     30  N   UNL     1      10.411   2.993  -1.039  1.00  0.00    -0.352 N 
ATOM     31  C   UNL     1      11.236   3.590  -1.968  1.00  0.00     0.251 C 
ATOM     32  H   UNL     1      10.255   2.028  -1.160  1.00  0.00     0.163 HD
ATOM     33  O   UNL     1      11.671   2.956  -2.915  1.00  0.00    -0.269 OA
BRANCH  31  34
ATOM     34  C   UNL     1      11.546   5.030  -1.826  1.00  0.00     0.039 A 
ATOM     35  C   UNL     1      11.372   5.868  -2.930  1.00  0.00     0.014 A 
ATOM     36  C   UNL     1      11.952   5.554  -0.597  1.00  0.00     0.014 A 
ATOM     37  C   UNL     1      11.531   7.246  -2.779  1.00  0.00     0.010 A 
ATOM     38  C   UNL     1      12.031   6.932  -0.429  1.00  0.00     0.010 A 
ATOM     39  C   UNL     1      11.823   7.792  -1.518  1.00  0.00    -0.014 A 
BRANCH  39  40
ATOM     40  C   UNL     1      11.926   9.258  -1.318  1.00  0.00     0.031 A 
ATOM     41  C   UNL     1      13.234   9.867  -0.898  1.00  0.00     0.074 A 
ATOM     42  C   UNL     1      10.829  10.029  -1.442  1.00  0.00     0.049 A 
ATOM     43  N   UNL     1      13.514  11.112  -0.607  1.00  0.00    -0.248 NA
ATOM     44  C   UNL     1      14.374   8.947  -0.752  1.00  0.00     0.031 C 
ATOM     45  C   UNL     1       9.489   9.548  -1.782  1.00  0.00     0.029 A 
ATOM     46  N   UNL     1      10.665  11.383  -1.287  1.00  0.00    -0.354 N 
ATOM     47  C   UNL     1      14.849  11.119  -0.227  1.00  0.00     0.074 A 
ATOM     48  C   UNL     1      15.309   9.749  -0.266  1.00  0.00     0.031 C 
ATOM     49  C   UNL     1       8.646  10.592  -1.836  1.00  0.00     0.029 A 
ATOM     50  C   UNL     1       9.378  11.811  -1.505  1.00  0.00     0.049 A 
ATOM     51  H   UNL     1      11.400  11.990  -1.042  1.00  0.00     0.167 HD
ATOM     52  C   UNL     1      15.629  12.177   0.098  1.00  0.00     0.037 A 
ATOM     53  C   UNL     1       8.851  13.049  -1.446  1.00  0.00     0.037 A 
ATOM     54  C   UNL     1      15.179  13.543   0.098  1.00  0.00     0.049 A 
ATOM     55  C   UNL     1       9.745  14.211  -1.108  1.00  0.00     0.074 A 
ATOM     56  C   UNL     1      15.907  14.693   0.342  1.00  0.00     0.029 A 
ATOM     57  N   UNL     1      13.876  13.941  -0.166  1.00  0.00    -0.354 N 
ATOM     58  N   UNL     1      11.025  14.215  -0.825  1.00  0.00    -0.248 NA
ATOM     59  C   UNL     1       9.123  15.542  -1.091  1.00  0.00     0.031 C 
ATOM     60  C   UNL     1      15.038  15.786   0.262  1.00  0.00     0.029 A 
ATOM     61  C   UNL     1      13.777  15.320  -0.075  1.00  0.00     0.049 A 
ATOM     62  H   UNL     1      13.133  13.335  -0.385  1.00  0.00     0.167 HD
ATOM     63  C   UNL     1      11.368  15.545  -0.624  1.00  0.00     0.074 A 
ATOM     64  C   UNL     1      10.163  16.322  -0.832  1.00  0.00     0.031 C 
ATOM     65  C   UNL     1      12.571  16.076  -0.297  1.00  0.00     0.037 A 
BRANCH  52  66
ATOM     66  C   UNL     1      17.056  11.895   0.468  1.00  0.00     0.064 A 
ATOM     67  C   UNL     1      17.990  11.464  -0.486  1.00  0.00     0.173 A 
ATOM     68  C   UNL     1      17.501  12.080   1.785  1.00  0.00     0.173 A 
ATOM     69  F   UNL     1      17.612  11.258  -1.757  1.00  0.00    -0.203 F 
ATOM     70  C   UNL     1      19.309  11.197  -0.129  1.00  0.00     0.198 A 
ATOM     71  C   UNL     1      18.828  11.841   2.133  1.00  0.00     0.198 A 
ATOM     72  F   UNL     1      16.650  12.495   2.736  1.00  0.00    -0.203 F 
ATOM     73  F   UNL     1      20.169  10.733  -1.046  1.00  0.00    -0.200 F 
ATOM     74  C   UNL     1      19.729  11.392   1.178  1.00  0.00     0.200 A 
ATOM     75  F   UNL     1      19.235  12.040   3.394  1.00  0.00    -0.200 F 
ATOM     76  F   UNL     1      20.999  11.137   1.520  1.00  0.00    -0.200 F 
ENDBRANCH  52  66
BRANCH  53  77
ATOM     77  C   UNL     1       7.413  13.260  -1.754  1.00  0.00     0.064 A 
ATOM     78  C   UNL     1       7.020  13.908  -2.933  1.00  0.00     0.173 A 
ATOM     79  C   UNL     1       6.405  12.826  -0.880  1.00  0.00     0.173 A 
ATOM     80  F   UNL     1       7.948  14.358  -3.790  1.00  0.00    -0.203 F 
ATOM     81  C   UNL     1       5.675  14.132  -3.218  1.00  0.00     0.198 A 
ATOM     82  C   UNL     1       5.059  13.028  -1.179  1.00  0.00     0.198 A 
ATOM     83  F   UNL     1       6.729  12.197   0.259  1.00  0.00    -0.203 F 
ATOM     84  F   UNL     1       5.329  14.792  -4.332  1.00  0.00    -0.200 F 
ATOM     85  C   UNL     1       4.695  13.688  -2.343  1.00  0.00     0.200 A 
ATOM     86  F   UNL     1       4.115  12.587  -0.337  1.00  0.00    -0.200 F 
ATOM     87  F   UNL     1       3.401  13.902  -2.618  1.00  0.00    -0.200 F 
ENDBRANCH  53  77
BRANCH  65  88
ATOM     88  C   UNL     1      12.654  17.568  -0.176  1.00  0.00     0.064 A 
ATOM     89  C   UNL     1      12.092  18.250   0.912  1.00  0.00     0.173 A 
ATOM     90  C   UNL     1      13.344  18.320  -1.140  1.00  0.00     0.173 A 
ATOM     91  F   UNL     1      11.410  17.576   1.851  1.00  0.00    -0.203 F 
ATOM     92  C   UNL     1      12.198  19.634   1.021  1.00  0.00     0.198 A 
ATOM     93  C   UNL     1      13.472  19.700  -1.013  1.00  0.00     0.198 A 
ATOM     94  F   UNL     1      13.905  17.713  -2.196  1.00  0.00    -0.203 F 
ATOM     95  F   UNL     1      11.617  20.270   2.047  1.00  0.00    -0.200 F 
ATOM     96  C   UNL     1      12.894  20.356   0.063  1.00  0.00     0.200 A 
ATOM     97  F   UNL     1      14.155  20.395  -1.933  1.00  0.00    -0.200 F 
ATOM     98  F   UNL     1      13.002  21.687   0.174  1.00  0.00    -0.200 F 
ENDBRANCH  65  88
ENDBRANCH  39  40
ENDBRANCH  31  34
ENDBRANCH  29  30
ENDBRANCH  28  29
ENDBRANCH  27  28
ENDBRANCH   1  27
TORSDOF 17
