REMARK SMILES C[C@H]1[C@H](C(=O)NCCCCNC(=O)c2ccc(-c3c4nc(c(-c5c(F)c(F)c(F)c(F)c5F)c5ccc([nH]5)c(-c5c(F)c(F)c(F)c(F)c5F)c5nc(c(-c6c(F)c(F)c(F)c(F)c6F)c6ccc3[nH]6)C=C5)C=C4)cc2)CCN1c1ncnc2sccc12
REMARK SMILES IDX 9 1 8 2 7 3 6 4 4 5 5 6 3 8 1 9 2 10 79 11 77 12 78 13 80 14
REMARK SMILES IDX 81 15 88 16 82 17 84 18 87 19 83 20 85 21 86 22 10 23 11 24
REMARK SMILES IDX 12 25 13 27 14 28 15 29 76 30 16 31 75 32 17 33 18 34 19 35
REMARK SMILES IDX 69 36 20 37 74 38 68 39 70 40 21 41 73 42 67 43 66 44 22 46
REMARK SMILES IDX 54 47 34 48 53 49 35 50 38 51 52 52 71 53 36 54 37 55 51 57
REMARK SMILES IDX 72 58 39 59 23 60 24 61 32 62 25 63 26 64 30 65 33 66 27 67
REMARK SMILES IDX 28 68 31 69 29 70 55 71 56 72 64 73 57 74 58 75 62 76 65 77
REMARK SMILES IDX 59 78 60 79 63 80 61 81 40 82 41 83 49 84 42 85 43 86 47 87
REMARK SMILES IDX 50 88 44 89 45 90 48 91 46 92
REMARK H PARENT 6 7 11 26 70 45 38 56
REMARK Flexibility Score: inf
ROOT
ATOM      1  C   UNL     1       0.119   0.608   5.235  1.00  0.00     0.023 C 
ENDROOT
BRANCH   1   2
ATOM      2  C   UNL     1       0.023  -0.118   3.893  1.00  0.00     0.023 C 
BRANCH   2   3
ATOM      3  C   UNL     1      -0.941   0.522   2.897  1.00  0.00     0.116 C 
BRANCH   3   4
ATOM      4  N   UNL     1      -0.447   1.795   2.404  1.00  0.00    -0.356 N 
ATOM      5  C   UNL     1       0.022   2.154   1.179  1.00  0.00     0.225 C 
ATOM      6  O   UNL     1       0.425   3.314   1.049  1.00  0.00    -0.275 OA
ATOM      7  H   UNL     1      -0.452   2.521   3.069  1.00  0.00     0.163 HD
BRANCH   5   8
ATOM      8  C   UNL     1       0.031   1.209  -0.014  1.00  0.00     0.102 C 
ATOM      9  C   UNL     1       2.036  -0.121  -0.769  1.00  0.00     0.032 C 
ATOM     10  C   UNL     1       0.872  -0.053   0.220  1.00  0.00     0.093 C 
ATOM     11  N   UNL     1      -0.061  -1.170   0.017  1.00  0.00    -0.352 N 
ATOM     12  C   UNL     1      -1.367   0.759  -0.425  1.00  0.00     0.037 C 
ATOM     13  C   UNL     1      -1.310  -0.754  -0.584  1.00  0.00     0.119 C 
BRANCH  11  14
ATOM     14  C   UNL     1       0.235  -2.436   0.474  1.00  0.00     0.141 A 
ATOM     15  N   UNL     1       1.402  -2.582   1.159  1.00  0.00    -0.219 NA
ATOM     16  C   UNL     1      -0.572  -3.600   0.328  1.00  0.00     0.054 A 
ATOM     17  C   UNL     1       1.754  -3.776   1.653  1.00  0.00     0.225 A 
ATOM     18  C   UNL     1      -0.088  -4.763   0.919  1.00  0.00     0.128 A 
ATOM     19  C   UNL     1      -1.831  -3.886  -0.318  1.00  0.00     0.026 A 
ATOM     20  N   UNL     1       1.065  -4.909   1.588  1.00  0.00    -0.225 NA
ATOM     21  S   UNL     1      -1.128  -6.103   0.740  1.00  0.00    -0.124 S 
ATOM     22  C   UNL     1      -2.252  -5.187  -0.153  1.00  0.00     0.068 A 
ENDBRANCH  11  14
ENDBRANCH   5   8
ENDBRANCH   3   4
ENDBRANCH   2   3
ENDBRANCH   1   2
BRANCH   1  23
ATOM     23  C   UNL     1      -1.204   0.785   5.970  1.00  0.00     0.116 C 
BRANCH  23  24
ATOM     24  N   UNL     1      -1.889  -0.472   6.232  1.00  0.00    -0.352 N 
ATOM     25  C   UNL     1      -2.534  -0.880   7.374  1.00  0.00     0.251 C 
ATOM     26  H   UNL     1      -1.890  -1.119   5.489  1.00  0.00     0.163 HD
ATOM     27  O   UNL     1      -2.968  -2.023   7.472  1.00  0.00    -0.269 OA
BRANCH  25  28
ATOM     28  C   UNL     1      -2.668   0.060   8.505  1.00  0.00     0.039 A 
ATOM     29  C   UNL     1      -2.308  -0.370   9.784  1.00  0.00     0.014 A 
ATOM     30  C   UNL     1      -3.113   1.368   8.297  1.00  0.00     0.014 A 
ATOM     31  C   UNL     1      -2.325   0.536  10.846  1.00  0.00     0.010 A 
ATOM     32  C   UNL     1      -3.059   2.287   9.339  1.00  0.00     0.010 A 
ATOM     33  C   UNL     1      -2.663   1.881  10.623  1.00  0.00    -0.014 A 
BRANCH  33  34
ATOM     34  C   UNL     1      -2.601   2.880  11.719  1.00  0.00     0.031 A 
ATOM     35  C   UNL     1      -3.854   3.567  12.185  1.00  0.00     0.074 A 
ATOM     36  C   UNL     1      -1.408   3.220  12.244  1.00  0.00     0.049 A 
ATOM     37  N   UNL     1      -3.996   4.516  13.075  1.00  0.00    -0.248 NA
ATOM     38  C   UNL     1      -5.111   3.151  11.544  1.00  0.00     0.031 C 
ATOM     39  C   UNL     1      -0.116   2.663  11.839  1.00  0.00     0.029 A 
ATOM     40  N   UNL     1      -1.086   4.125  13.225  1.00  0.00    -0.354 N 
ATOM     41  C   UNL     1      -5.351   4.820  13.089  1.00  0.00     0.074 A 
ATOM     42  C   UNL     1      -5.980   3.994  12.081  1.00  0.00     0.031 C 
ATOM     43  C   UNL     1       0.855   3.221  12.579  1.00  0.00     0.029 A 
ATOM     44  C   UNL     1       0.260   4.200  13.484  1.00  0.00     0.049 A 
ATOM     45  H   UNL     1      -1.757   4.668  13.697  1.00  0.00     0.167 HD
ATOM     46  C   UNL     1      -6.012   5.691  13.887  1.00  0.00     0.037 A 
ATOM     47  C   UNL     1       0.939   4.978  14.350  1.00  0.00     0.037 A 
ATOM     48  C   UNL     1      -5.386   6.490  14.907  1.00  0.00     0.049 A 
ATOM     49  C   UNL     1       0.179   5.937  15.225  1.00  0.00     0.074 A 
ATOM     50  C   UNL     1      -5.978   7.354  15.811  1.00  0.00     0.029 A 
ATOM     51  N   UNL     1      -4.021   6.524  15.155  1.00  0.00    -0.354 N 
ATOM     52  N   UNL     1      -1.111   6.163  15.281  1.00  0.00    -0.248 NA
ATOM     53  C   UNL     1       0.970   6.744  16.164  1.00  0.00     0.031 C 
ATOM     54  C   UNL     1      -4.968   7.944  16.578  1.00  0.00     0.029 A 
ATOM     55  C   UNL     1      -3.751   7.411  16.185  1.00  0.00     0.049 A 
ATOM     56  H   UNL     1      -3.346   5.996  14.672  1.00  0.00     0.167 HD
ATOM     57  C   UNL     1      -1.290   7.114  16.276  1.00  0.00     0.074 A 
ATOM     58  C   UNL     1       0.024   7.412  16.808  1.00  0.00     0.031 C 
ATOM     59  C   UNL     1      -2.438   7.690  16.709  1.00  0.00     0.037 A 
BRANCH  46  60
ATOM     60  C   UNL     1      -7.495   5.820  13.692  1.00  0.00     0.064 A 
ATOM     61  C   UNL     1      -8.376   4.786  14.045  1.00  0.00     0.173 A 
ATOM     62  C   UNL     1      -8.046   7.004  13.179  1.00  0.00     0.173 A 
ATOM     63  F   UNL     1      -7.900   3.629  14.528  1.00  0.00    -0.203 F 
ATOM     64  C   UNL     1      -9.750   4.921  13.863  1.00  0.00     0.198 A 
ATOM     65  C   UNL     1      -9.423   7.147  13.027  1.00  0.00     0.198 A 
ATOM     66  F   UNL     1      -7.250   8.026  12.831  1.00  0.00    -0.203 F 
ATOM     67  F   UNL     1     -10.567   3.901  14.159  1.00  0.00    -0.200 F 
ATOM     68  C   UNL     1     -10.273   6.104  13.361  1.00  0.00     0.200 A 
ATOM     69  F   UNL     1      -9.928   8.295  12.554  1.00  0.00    -0.200 F 
ATOM     70  F   UNL     1     -11.596   6.235  13.193  1.00  0.00    -0.200 F 
ENDBRANCH  46  60
BRANCH  47  71
ATOM     71  C   UNL     1       2.417   4.862  14.450  1.00  0.00     0.064 A 
ATOM     72  C   UNL     1       3.018   4.312  15.591  1.00  0.00     0.173 A 
ATOM     73  C   UNL     1       3.257   5.303  13.418  1.00  0.00     0.173 A 
ATOM     74  F   UNL     1       2.257   3.896  16.614  1.00  0.00    -0.203 F 
ATOM     75  C   UNL     1       4.404   4.225  15.703  1.00  0.00     0.198 A 
ATOM     76  C   UNL     1       4.642   5.190  13.519  1.00  0.00     0.198 A 
ATOM     77  F   UNL     1       2.731   5.833  12.303  1.00  0.00    -0.203 F 
ATOM     78  F   UNL     1       4.954   3.737  16.824  1.00  0.00    -0.200 F 
ATOM     79  C   UNL     1       5.215   4.659  14.665  1.00  0.00     0.200 A 
ATOM     80  F   UNL     1       5.421   5.598  12.508  1.00  0.00    -0.200 F 
ATOM     81  F   UNL     1       6.548   4.574  14.773  1.00  0.00    -0.200 F 
ENDBRANCH  47  71
BRANCH  59  82
ATOM     82  C   UNL     1      -2.331   8.675  17.836  1.00  0.00     0.064 A 
ATOM     83  C   UNL     1      -1.778   9.951  17.649  1.00  0.00     0.173 A 
ATOM     84  C   UNL     1      -2.824   8.353  19.109  1.00  0.00     0.173 A 
ATOM     85  F   UNL     1      -1.278  10.301  16.454  1.00  0.00    -0.203 F 
ATOM     86  C   UNL     1      -1.701  10.858  18.702  1.00  0.00     0.198 A 
ATOM     87  C   UNL     1      -2.773   9.273  20.152  1.00  0.00     0.198 A 
ATOM     88  F   UNL     1      -3.369   7.148  19.338  1.00  0.00    -0.203 F 
ATOM     89  F   UNL     1      -1.126  12.054  18.513  1.00  0.00    -0.200 F 
ATOM     90  C   UNL     1      -2.205  10.522  19.950  1.00  0.00     0.200 A 
ATOM     91  F   UNL     1      -3.273   8.951  21.353  1.00  0.00    -0.200 F 
ATOM     92  F   UNL     1      -2.137  11.399  20.960  1.00  0.00    -0.200 F 
ENDBRANCH  59  82
ENDBRANCH  33  34
ENDBRANCH  25  28
ENDBRANCH  23  24
ENDBRANCH   1  23
TORSDOF 12
