REMARK SMILES O=C(NCCCCNC(=O)[C@H]1CCCN(C(=O)c2ccc(NC(=O)c3ccccc3)cc2)C1)c1ccc(-c2c3nc(c(-c4c(F)c(F)c(F)c(F)c4F)c4ccc([nH]4)c(-c4c(F)c(F)c(F)c(F)c4F)c4nc(c(-c5c(F)c(F)c(F)c(F)c5F)c5ccc2[nH]5)C=C4)C=C3)cc1
REMARK SMILES IDX 6 1 5 2 4 3 3 4 1 5 2 6 34 8 35 9 96 10 36 11 95 12 37 13
REMARK SMILES IDX 38 14 39 15 89 16 40 17 94 18 88 19 90 20 41 21 93 22 87 23
REMARK SMILES IDX 86 24 42 26 74 27 54 28 73 29 55 30 58 31 72 32 91 33 56 34
REMARK SMILES IDX 57 35 71 37 92 38 59 39 43 40 44 41 52 42 45 43 46 44 50 45
REMARK SMILES IDX 53 46 47 47 48 48 51 49 49 50 75 51 76 52 84 53 77 54 78 55
REMARK SMILES IDX 82 56 85 57 79 58 80 59 83 60 81 61 60 62 61 63 69 64 62 65
REMARK SMILES IDX 63 66 67 67 70 68 64 69 65 70 68 71 66 72 7 73 8 74 9 75
REMARK SMILES IDX 10 77 11 78 12 79 33 80 13 81 15 82 14 83 16 84 17 85 18 86
REMARK SMILES IDX 19 87 32 88 20 89 31 90 21 91 22 92 23 93 24 95 25 96 26 97
REMARK SMILES IDX 30 98 27 99 29 100 28 101
REMARK H PARENT 3 7 90 25 58 36 8 76 22 94
REMARK Flexibility Score: inf
ROOT
ATOM      1  C   UNL     1       6.352  -3.238  -4.436  1.00  0.00     0.023 C 
ENDROOT
BRANCH   1   2
ATOM      2  C   UNL     1       6.298  -3.403  -5.952  1.00  0.00     0.023 C 
BRANCH   2   3
ATOM      3  C   UNL     1       4.910  -3.546  -6.561  1.00  0.00     0.116 C 
BRANCH   3   4
ATOM      4  N   UNL     1       4.049  -2.402  -6.316  1.00  0.00    -0.352 N 
ATOM      5  O   UNL     1       2.738  -0.639  -6.833  1.00  0.00    -0.269 OA
ATOM      6  C   UNL     1       3.342  -1.638  -7.213  1.00  0.00     0.251 C 
ATOM      7  H   UNL     1       3.959  -2.136  -5.372  1.00  0.00     0.163 HD
BRANCH   6   8
ATOM      8  C   UNL     1       3.342  -1.998  -8.647  1.00  0.00     0.039 A 
ATOM      9  C   UNL     1       3.125  -3.315  -9.057  1.00  0.00     0.014 A 
ATOM     10  C   UNL     1       3.581  -0.998  -9.594  1.00  0.00     0.014 A 
ATOM     11  C   UNL     1       3.301  -3.659 -10.393  1.00  0.00     0.010 A 
ATOM     12  C   UNL     1       3.673  -1.331 -10.948  1.00  0.00     0.010 A 
ATOM     13  C   UNL     1       3.573  -2.671 -11.353  1.00  0.00    -0.014 A 
BRANCH  13  14
ATOM     14  C   UNL     1       3.712  -3.057 -12.780  1.00  0.00     0.031 A 
ATOM     15  C   UNL     1       5.022  -2.907 -13.501  1.00  0.00     0.074 A 
ATOM     16  C   UNL     1       2.644  -3.571 -13.418  1.00  0.00     0.049 A 
ATOM     17  N   UNL     1       5.323  -3.213 -14.739  1.00  0.00    -0.248 NA
ATOM     18  C   UNL     1       6.139  -2.331 -12.739  1.00  0.00     0.031 C 
ATOM     19  C   UNL     1       1.320  -3.755 -12.823  1.00  0.00     0.029 A 
ATOM     20  N   UNL     1       2.506  -4.050 -14.695  1.00  0.00    -0.354 N 
ATOM     21  C   UNL     1       6.651  -2.847 -14.911  1.00  0.00     0.074 A 
ATOM     22  C   UNL     1       7.094  -2.273 -13.657  1.00  0.00     0.031 C 
ATOM     23  C   UNL     1       0.517  -4.352 -13.716  1.00  0.00     0.029 A 
ATOM     24  C   UNL     1       1.253  -4.540 -14.962  1.00  0.00     0.049 A 
ATOM     25  H   UNL     1       3.236  -4.042 -15.357  1.00  0.00     0.167 HD
ATOM     26  C   UNL     1       7.430  -2.984 -16.012  1.00  0.00     0.037 A 
ATOM     27  C   UNL     1       0.747  -5.075 -16.088  1.00  0.00     0.037 A 
ATOM     28  C   UNL     1       6.989  -3.576 -17.250  1.00  0.00     0.049 A 
ATOM     29  C   UNL     1       1.627  -5.202 -17.297  1.00  0.00     0.074 A 
ATOM     30  C   UNL     1       7.715  -3.801 -18.407  1.00  0.00     0.029 A 
ATOM     31  N   UNL     1       5.702  -4.034 -17.493  1.00  0.00    -0.354 N 
ATOM     32  N   UNL     1       2.890  -4.883 -17.436  1.00  0.00    -0.248 NA
ATOM     33  C   UNL     1       1.008  -5.760 -18.506  1.00  0.00     0.031 C 
ATOM     34  C   UNL     1       6.856  -4.354 -19.364  1.00  0.00     0.029 A 
ATOM     35  C   UNL     1       5.606  -4.518 -18.788  1.00  0.00     0.049 A 
ATOM     36  H   UNL     1       4.964  -4.017 -16.840  1.00  0.00     0.167 HD
ATOM     37  C   UNL     1       3.226  -5.218 -18.739  1.00  0.00     0.074 A 
ATOM     38  C   UNL     1       2.034  -5.779 -19.345  1.00  0.00     0.031 C 
ATOM     39  C   UNL     1       4.413  -5.074 -19.376  1.00  0.00     0.037 A 
BRANCH  26  40
ATOM     40  C   UNL     1       8.836  -2.462 -15.937  1.00  0.00     0.064 A 
ATOM     41  C   UNL     1       9.823  -3.099 -15.169  1.00  0.00     0.173 A 
ATOM     42  C   UNL     1       9.209  -1.323 -16.667  1.00  0.00     0.173 A 
ATOM     43  F   UNL     1       9.517  -4.185 -14.444  1.00  0.00    -0.203 F 
ATOM     44  C   UNL     1      11.121  -2.597 -15.112  1.00  0.00     0.198 A 
ATOM     45  C   UNL     1      10.515  -0.840 -16.629  1.00  0.00     0.198 A 
ATOM     46  F   UNL     1       8.307  -0.679 -17.423  1.00  0.00    -0.203 F 
ATOM     47  F   UNL     1      12.034  -3.193 -14.333  1.00  0.00    -0.200 F 
ATOM     48  C   UNL     1      11.467  -1.472 -15.845  1.00  0.00     0.200 A 
ATOM     49  F   UNL     1      10.850   0.241 -17.348  1.00  0.00    -0.200 F 
ATOM     50  F   UNL     1      12.717  -0.992 -15.789  1.00  0.00    -0.200 F 
ENDBRANCH  26  40
BRANCH  27  51
ATOM     51  C   UNL     1      -0.660  -5.546 -16.104  1.00  0.00     0.064 A 
ATOM     52  C   UNL     1      -0.958  -6.915 -16.144  1.00  0.00     0.173 A 
ATOM     53  C   UNL     1      -1.732  -4.644 -16.040  1.00  0.00     0.173 A 
ATOM     54  F   UNL     1       0.035  -7.814 -16.223  1.00  0.00    -0.203 F 
ATOM     55  C   UNL     1      -2.276  -7.363 -16.125  1.00  0.00     0.198 A 
ATOM     56  C   UNL     1      -3.049  -5.094 -15.994  1.00  0.00     0.198 A 
ATOM     57  F   UNL     1      -1.497  -3.324 -15.993  1.00  0.00    -0.203 F 
ATOM     58  F   UNL     1      -2.536  -8.676 -16.192  1.00  0.00    -0.200 F 
ATOM     59  C   UNL     1      -3.320  -6.453 -16.041  1.00  0.00     0.200 A 
ATOM     60  F   UNL     1      -4.053  -4.213 -15.896  1.00  0.00    -0.200 F 
ATOM     61  F   UNL     1      -4.587  -6.886 -16.007  1.00  0.00    -0.200 F 
ENDBRANCH  27  51
BRANCH  39  62
ATOM     62  C   UNL     1       4.489  -5.559 -20.794  1.00  0.00     0.064 A 
ATOM     63  C   UNL     1       3.869  -4.864 -21.842  1.00  0.00     0.173 A 
ATOM     64  C   UNL     1       5.208  -6.721 -21.108  1.00  0.00     0.173 A 
ATOM     65  F   UNL     1       3.155  -3.757 -21.589  1.00  0.00    -0.203 F 
ATOM     66  C   UNL     1       3.946  -5.330 -23.152  1.00  0.00     0.198 A 
ATOM     67  C   UNL     1       5.306  -7.169 -22.422  1.00  0.00     0.198 A 
ATOM     68  F   UNL     1       5.822  -7.419 -20.140  1.00  0.00    -0.203 F 
ATOM     69  F   UNL     1       3.305  -4.678 -24.132  1.00  0.00    -0.200 F 
ATOM     70  C   UNL     1       4.668  -6.478 -23.441  1.00  0.00     0.200 A 
ATOM     71  F   UNL     1       6.012  -8.273 -22.701  1.00  0.00    -0.200 F 
ATOM     72  F   UNL     1       4.742  -6.925 -24.703  1.00  0.00    -0.200 F 
ENDBRANCH  39  62
ENDBRANCH  13  14
ENDBRANCH   6   8
ENDBRANCH   3   4
ENDBRANCH   2   3
ENDBRANCH   1   2
BRANCH   1  73
ATOM     73  C   UNL     1       5.540  -4.235  -3.617  1.00  0.00     0.116 C 
BRANCH  73  74
ATOM     74  N   UNL     1       5.753  -5.614  -3.998  1.00  0.00    -0.356 N 
ATOM     75  C   UNL     1       6.006  -6.744  -3.296  1.00  0.00     0.224 C 
ATOM     76  H   UNL     1       5.706  -5.761  -4.970  1.00  0.00     0.163 HD
ATOM     77  O   UNL     1       5.965  -7.785  -3.961  1.00  0.00    -0.275 OA
BRANCH  75  78
ATOM     78  C   UNL     1       6.403  -6.751  -1.819  1.00  0.00     0.098 C 
ATOM     79  C   UNL     1       5.426  -6.067  -0.853  1.00  0.00     0.017 C 
ATOM     80  C   UNL     1       6.543  -8.232  -1.399  1.00  0.00     0.133 C 
ATOM     81  C   UNL     1       5.859  -6.253   0.602  1.00  0.00     0.022 C 
ATOM     82  N   UNL     1       6.923  -8.386   0.006  1.00  0.00    -0.338 N 
ATOM     83  C   UNL     1       6.045  -7.719   0.963  1.00  0.00     0.120 C 
BRANCH  82  84
ATOM     84  C   UNL     1       8.053  -9.152   0.290  1.00  0.00     0.253 C 
ATOM     85  O   UNL     1       8.789  -9.604  -0.587  1.00  0.00    -0.269 OA
BRANCH  84  86
ATOM     86  C   UNL     1       8.466  -9.411   1.688  1.00  0.00     0.040 A 
ATOM     87  C   UNL     1       9.823  -9.272   1.982  1.00  0.00     0.016 A 
ATOM     88  C   UNL     1       7.593  -9.855   2.683  1.00  0.00     0.016 A 
ATOM     89  C   UNL     1      10.285  -9.476   3.281  1.00  0.00     0.027 A 
ATOM     90  C   UNL     1       8.056 -10.011   3.997  1.00  0.00     0.027 A 
ATOM     91  C   UNL     1       9.397  -9.764   4.317  1.00  0.00     0.041 A 
BRANCH  91  92
ATOM     92  N   UNL     1       9.764  -9.840   5.674  1.00  0.00    -0.322 N 
ATOM     93  C   UNL     1      10.889  -9.411   6.349  1.00  0.00     0.255 C 
ATOM     94  H   UNL     1       9.096 -10.280   6.247  1.00  0.00     0.170 HD
ATOM     95  O   UNL     1      11.069  -9.740   7.520  1.00  0.00    -0.269 OA
BRANCH  93  96
ATOM     96  C   UNL     1      11.872  -8.515   5.710  1.00  0.00     0.040 A 
ATOM     97  C   UNL     1      13.198  -8.944   5.605  1.00  0.00     0.014 A 
ATOM     98  C   UNL     1      11.478  -7.281   5.175  1.00  0.00     0.014 A 
ATOM     99  C   UNL     1      14.116  -8.172   4.892  1.00  0.00     0.001 A 
ATOM    100  C   UNL     1      12.400  -6.517   4.458  1.00  0.00     0.001 A 
ATOM    101  C   UNL     1      13.712  -6.970   4.306  1.00  0.00     0.000 A 
ENDBRANCH  93  96
ENDBRANCH  91  92
ENDBRANCH  84  86
ENDBRANCH  82  84
ENDBRANCH  75  78
ENDBRANCH  73  74
ENDBRANCH   1  73
TORSDOF 15
