REMARK SMILES COc1ccc([N+](=O)[O-])cc1C(=O)N[C@@H](Cc1c[nH]c2ccccc12)C(=O)NCCCCNC(=O)c1ccc(-c2c3nc(c(-c4c(F)c(F)c(F)c(F)c4F)c4ccc([nH]4)c(-c4c(F)c(F)c(F)c(F)c4F)c4nc(c(-c5c(F)c(F)c(F)c(F)c5F)c5ccc2[nH]5)C=C4)C=C3)cc1
REMARK SMILES IDX 30 1 29 2 28 3 26 4 27 5 15 7 14 8 12 9 13 10 11 12 3 13
REMARK SMILES IDX 4 14 5 15 10 16 6 17 2 18 1 19 7 20 8 21 9 22 16 23 17 24
REMARK SMILES IDX 18 25 25 26 19 27 20 28 24 29 21 31 23 32 22 33 31 34 32 35
REMARK SMILES IDX 33 36 34 37 35 39 36 40 37 41 98 42 38 43 97 44 39 45 40 46
REMARK SMILES IDX 41 47 91 48 42 49 96 50 90 51 92 52 43 53 95 54 89 55 88 56
REMARK SMILES IDX 44 58 76 59 56 60 75 61 57 62 60 63 74 64 93 65 58 66 59 67
REMARK SMILES IDX 73 69 94 70 61 71 45 72 46 73 54 74 47 75 48 76 52 77 55 78
REMARK SMILES IDX 49 79 50 80 53 81 51 82 77 83 78 84 86 85 79 86 80 87 84 88
REMARK SMILES IDX 87 89 81 90 82 91 85 92 83 93 62 94 63 95 71 96 64 97 65 98
REMARK SMILES IDX 69 99 72 100 66 101 67 102 70 103 68 104
REMARK H PARENT 28 6 14 11 19 30 33 38 92 57 60 68
REMARK Flexibility Score: inf
ROOT
ATOM      1  C   UNL     1       2.900  -0.017  -3.751  1.00  0.00     0.023 C 
ENDROOT
BRANCH   1   2
ATOM      2  C   UNL     1       2.027   1.138  -3.248  1.00  0.00     0.116 C 
BRANCH   2   3
ATOM      3  N   UNL     1       1.030   0.730  -2.283  1.00  0.00    -0.354 N 
ATOM      4  C   UNL     1       0.900   0.890  -0.937  1.00  0.00     0.242 C 
ATOM      5  O   UNL     1      -0.289   0.914  -0.581  1.00  0.00    -0.273 OA
ATOM      6  H   UNL     1       0.285   0.228  -2.686  1.00  0.00     0.163 HD
BRANCH   4   7
ATOM      7  C   UNL     1       2.037   0.876   0.153  1.00  0.00     0.176 C 
BRANCH   7   8
ATOM      8  N   UNL     1       2.567  -0.498   0.230  1.00  0.00    -0.340 N 
ATOM      9  C   UNL     1       2.567  -1.521   1.136  1.00  0.00     0.255 C 
ATOM     10  O   UNL     1       3.212  -2.526   0.812  1.00  0.00    -0.269 OA
ATOM     11  H   UNL     1       3.050  -0.745  -0.592  1.00  0.00     0.164 HD
BRANCH   9  12
ATOM     12  C   UNL     1       1.891  -1.568   2.463  1.00  0.00     0.088 A 
ATOM     13  C   UNL     1       0.579  -1.161   2.729  1.00  0.00     0.132 A 
ATOM     14  C   UNL     1      -0.025  -1.415   3.974  1.00  0.00     0.054 A 
ATOM     15  C   UNL     1       0.630  -2.175   4.940  1.00  0.00     0.089 A 
ATOM     16  C   UNL     1       2.556  -2.320   3.460  1.00  0.00     0.103 A 
ATOM     17  C   UNL     1       1.918  -2.641   4.671  1.00  0.00     0.270 A 
BRANCH  13  18
ATOM     18  O   UNL     1      -0.192  -0.522   1.804  1.00  0.00    -0.496 OA
ATOM     19  C   UNL     1      -1.076  -1.440   1.157  1.00  0.00     0.278 C 
ENDBRANCH  13  18
BRANCH  17  20
ATOM     20  N   UNL     1       2.577  -3.529   5.638  1.00  0.00     0.062 N 
ATOM     21  O   UNL     1       1.893  -3.963   6.577  1.00  0.00    -0.258 OA
ATOM     22  O   UNL     1       3.771  -3.799   5.456  1.00  0.00    -0.258 OA
ENDBRANCH  17  20
ENDBRANCH   9  12
ENDBRANCH   7   8
BRANCH   7  23
ATOM     23  C   UNL     1       3.128   2.012   0.172  1.00  0.00     0.072 C 
BRANCH  23  24
ATOM     24  C   UNL     1       4.448   1.657  -0.459  1.00  0.00    -0.020 A 
ATOM     25  C   UNL     1       4.662   1.285  -1.761  1.00  0.00     0.087 A 
ATOM     26  C   UNL     1       5.744   1.352   0.052  1.00  0.00     0.003 A 
ATOM     27  N   UNL     1       5.203   0.032  -1.628  1.00  0.00    -0.361 N 
ATOM     28  C   UNL     1       6.070   0.144  -0.574  1.00  0.00     0.046 A 
ATOM     29  C   UNL     1       6.719   1.931   0.879  1.00  0.00     0.010 A 
ATOM     30  H   UNL     1       5.012  -0.768  -2.168  1.00  0.00     0.166 HD
ATOM     31  C   UNL     1       7.155  -0.656  -0.257  1.00  0.00     0.026 A 
ATOM     32  C   UNL     1       7.944   1.249   1.022  1.00  0.00     0.001 A 
ATOM     33  C   UNL     1       8.128  -0.045   0.520  1.00  0.00     0.002 A 
ENDBRANCH  23  24
ENDBRANCH   7  23
ENDBRANCH   4   7
ENDBRANCH   2   3
ENDBRANCH   1   2
BRANCH   1  34
ATOM     34  C   UNL     1       2.647  -0.541  -5.154  1.00  0.00     0.023 C 
BRANCH  34  35
ATOM     35  C   UNL     1       2.659   0.519  -6.245  1.00  0.00     0.116 C 
BRANCH  35  36
ATOM     36  N   UNL     1       3.753   1.488  -6.199  1.00  0.00    -0.352 N 
ATOM     37  C   UNL     1       4.224   2.245  -7.252  1.00  0.00     0.251 C 
ATOM     38  H   UNL     1       4.198   1.613  -5.329  1.00  0.00     0.163 HD
ATOM     39  O   UNL     1       5.151   3.038  -7.120  1.00  0.00    -0.269 OA
BRANCH  37  40
ATOM     40  C   UNL     1       3.603   2.018  -8.567  1.00  0.00     0.039 A 
ATOM     41  C   UNL     1       4.373   1.463  -9.590  1.00  0.00     0.014 A 
ATOM     42  C   UNL     1       2.217   2.136  -8.682  1.00  0.00     0.014 A 
ATOM     43  C   UNL     1       3.729   0.919 -10.700  1.00  0.00     0.010 A 
ATOM     44  C   UNL     1       1.578   1.501  -9.733  1.00  0.00     0.010 A 
ATOM     45  C   UNL     1       2.326   0.882 -10.748  1.00  0.00    -0.014 A 
BRANCH  45  46
ATOM     46  C   UNL     1       1.597   0.228 -11.859  1.00  0.00     0.031 A 
ATOM     47  C   UNL     1       0.682   1.060 -12.709  1.00  0.00     0.074 A 
ATOM     48  C   UNL     1       1.672  -1.106 -12.032  1.00  0.00     0.049 A 
ATOM     49  N   UNL     1      -0.183   0.684 -13.614  1.00  0.00    -0.248 NA
ATOM     50  C   UNL     1       0.713   2.514 -12.473  1.00  0.00     0.031 C 
ATOM     51  C   UNL     1       2.489  -2.025 -11.237  1.00  0.00     0.029 A 
ATOM     52  N   UNL     1       1.033  -1.925 -12.929  1.00  0.00    -0.354 N 
ATOM     53  C   UNL     1      -0.818   1.847 -14.026  1.00  0.00     0.074 A 
ATOM     54  C   UNL     1      -0.288   2.931 -13.231  1.00  0.00     0.031 C 
ATOM     55  C   UNL     1       2.320  -3.276 -11.697  1.00  0.00     0.029 A 
ATOM     56  C   UNL     1       1.352  -3.255 -12.789  1.00  0.00     0.049 A 
ATOM     57  H   UNL     1       0.404  -1.592 -13.609  1.00  0.00     0.167 HD
ATOM     58  C   UNL     1      -1.739   2.001 -15.005  1.00  0.00     0.037 A 
ATOM     59  C   UNL     1       0.903  -4.330 -13.465  1.00  0.00     0.037 A 
ATOM     60  C   UNL     1      -2.221   0.925 -15.825  1.00  0.00     0.049 A 
ATOM     61  C   UNL     1      -0.111  -4.130 -14.560  1.00  0.00     0.074 A 
ATOM     62  C   UNL     1      -3.112   0.977 -16.881  1.00  0.00     0.029 A 
ATOM     63  N   UNL     1      -1.837  -0.401 -15.685  1.00  0.00    -0.354 N 
ATOM     64  N   UNL     1      -0.671  -3.020 -14.976  1.00  0.00    -0.248 NA
ATOM     65  C   UNL     1      -0.555  -5.331 -15.281  1.00  0.00     0.031 C 
ATOM     66  C   UNL     1      -3.289  -0.323 -17.363  1.00  0.00     0.029 A 
ATOM     67  C   UNL     1      -2.478  -1.178 -16.633  1.00  0.00     0.049 A 
ATOM     68  H   UNL     1      -1.203  -0.738 -15.011  1.00  0.00     0.167 HD
ATOM     69  C   UNL     1      -1.503  -3.381 -16.026  1.00  0.00     0.074 A 
ATOM     70  C   UNL     1      -1.372  -4.815 -16.188  1.00  0.00     0.031 C 
ATOM     71  C   UNL     1      -2.305  -2.599 -16.789  1.00  0.00     0.037 A 
BRANCH  58  72
ATOM     72  C   UNL     1      -2.264   3.385 -15.244  1.00  0.00     0.064 A 
ATOM     73  C   UNL     1      -1.454   4.391 -15.793  1.00  0.00     0.173 A 
ATOM     74  C   UNL     1      -3.591   3.709 -14.926  1.00  0.00     0.173 A 
ATOM     75  F   UNL     1      -0.172   4.136 -16.095  1.00  0.00    -0.203 F 
ATOM     76  C   UNL     1      -1.944   5.680 -15.985  1.00  0.00     0.198 A 
ATOM     77  C   UNL     1      -4.086   4.991 -15.149  1.00  0.00     0.198 A 
ATOM     78  F   UNL     1      -4.406   2.784 -14.398  1.00  0.00    -0.203 F 
ATOM     79  F   UNL     1      -1.134   6.639 -16.454  1.00  0.00    -0.200 F 
ATOM     80  C   UNL     1      -3.261   5.977 -15.669  1.00  0.00     0.200 A 
ATOM     81  F   UNL     1      -5.362   5.275 -14.851  1.00  0.00    -0.200 F 
ATOM     82  F   UNL     1      -3.732   7.218 -15.855  1.00  0.00    -0.200 F 
ENDBRANCH  58  72
BRANCH  59  83
ATOM     83  C   UNL     1       1.427  -5.685 -13.152  1.00  0.00     0.064 A 
ATOM     84  C   UNL     1       2.259  -6.357 -14.059  1.00  0.00     0.173 A 
ATOM     85  C   UNL     1       1.101  -6.343 -11.958  1.00  0.00     0.173 A 
ATOM     86  F   UNL     1       2.583  -5.778 -15.224  1.00  0.00    -0.203 F 
ATOM     87  C   UNL     1       2.726  -7.643 -13.794  1.00  0.00     0.198 A 
ATOM     88  C   UNL     1       1.589  -7.619 -11.682  1.00  0.00     0.198 A 
ATOM     89  F   UNL     1       0.313  -5.743 -11.054  1.00  0.00    -0.203 F 
ATOM     90  F   UNL     1       3.482  -8.279 -14.700  1.00  0.00    -0.200 F 
ATOM     91  C   UNL     1       2.394  -8.272 -12.604  1.00  0.00     0.200 A 
ATOM     92  F   UNL     1       1.276  -8.219 -10.525  1.00  0.00    -0.200 F 
ATOM     93  F   UNL     1       2.843  -9.508 -12.349  1.00  0.00    -0.200 F 
ENDBRANCH  59  83
BRANCH  71  94
ATOM     94  C   UNL     1      -3.061  -3.262 -17.901  1.00  0.00     0.064 A 
ATOM     95  C   UNL     1      -4.188  -4.056 -17.651  1.00  0.00     0.173 A 
ATOM     96  C   UNL     1      -2.692  -3.037 -19.235  1.00  0.00     0.173 A 
ATOM     97  F   UNL     1      -4.570  -4.309 -16.390  1.00  0.00    -0.203 F 
ATOM     98  C   UNL     1      -4.914  -4.612 -18.700  1.00  0.00     0.198 A 
ATOM     99  C   UNL     1      -3.434  -3.573 -20.282  1.00  0.00     0.198 A 
ATOM    100  F   UNL     1      -1.624  -2.277 -19.523  1.00  0.00    -0.203 F 
ATOM    101  F   UNL     1      -5.971  -5.394 -18.441  1.00  0.00    -0.200 F 
ATOM    102  C   UNL     1      -4.542  -4.363 -20.014  1.00  0.00     0.200 A 
ATOM    103  F   UNL     1      -3.083  -3.320 -21.550  1.00  0.00    -0.200 F 
ATOM    104  F   UNL     1      -5.252  -4.887 -21.023  1.00  0.00    -0.200 F 
ENDBRANCH  71  94
ENDBRANCH  45  46
ENDBRANCH  37  40
ENDBRANCH  35  36
ENDBRANCH  34  35
ENDBRANCH   1  34
TORSDOF 17
