REMARK SMILES CC(=O)O[C@@H]1CC[C@@]23C(=O)O[C@]4(CC[C@]2(O)C1)[C@H]3CC[C@]1(C)[C@H](C(=O)NCCCCNC(=O)c2ccc(-c3c5nc(c(-c6c(F)c(F)c(F)c(F)c6F)c6ccc([nH]6)c(-c6c(F)c(F)c(F)c(F)c6F)c6nc(c(-c7c(F)c(F)c(F)c(F)c7F)c7ccc3[nH]7)C=C6)C=C5)cc2)CC[C@@H]14
REMARK SMILES IDX 28 1 27 2 26 3 24 4 25 5 23 7 5 8 6 9 17 10 7 11 15 12 8 13
REMARK SMILES IDX 14 14 9 15 18 16 13 17 10 18 11 19 12 20 19 21 99 22 20 23
REMARK SMILES IDX 21 24 98 25 22 26 97 27 4 28 2 29 1 30 3 31 16 32 29 34
REMARK SMILES IDX 30 35 31 36 32 37 33 39 34 40 35 41 96 42 36 43 95 44 37 45
REMARK SMILES IDX 38 46 39 47 89 48 40 49 94 50 88 51 90 52 41 53 93 54 87 55
REMARK SMILES IDX 86 56 42 58 74 59 54 60 73 61 55 62 58 63 72 64 91 65 56 66
REMARK SMILES IDX 57 67 71 69 92 70 59 71 43 72 44 73 52 74 45 75 46 76 50 77
REMARK SMILES IDX 53 78 47 79 48 80 51 81 49 82 75 83 76 84 84 85 77 86 78 87
REMARK SMILES IDX 82 88 85 89 79 90 80 91 83 92 81 93 60 94 61 95 69 96 62 97
REMARK SMILES IDX 63 98 67 99 70 100 64 101 65 102 68 103 66 104
REMARK H PARENT 26 6 16 33 31 38 90 57 58 68
REMARK Flexibility Score: inf
ROOT
ATOM      1  C   UNL     1       0.488 -10.832   3.718  1.00  0.00     0.023 C 
ENDROOT
BRANCH   1   2
ATOM      2  C   UNL     1       1.800 -10.137   4.126  1.00  0.00     0.116 C 
BRANCH   2   3
ATOM      3  N   UNL     1       2.930 -10.922   3.670  1.00  0.00    -0.356 N 
ATOM      4  C   UNL     1       3.667 -10.931   2.535  1.00  0.00     0.223 C 
ATOM      5  O   UNL     1       4.400 -11.924   2.409  1.00  0.00    -0.275 OA
ATOM      6  H   UNL     1       3.224 -11.593   4.327  1.00  0.00     0.163 HD
BRANCH   4   7
ATOM      7  C   UNL     1       3.745  -9.830   1.461  1.00  0.00     0.085 C 
ATOM      8  C   UNL     1      -0.329  -2.858   1.841  1.00  0.00     0.179 C 
ATOM      9  C   UNL     1       0.689  -3.625   2.658  1.00  0.00     0.047 C 
ATOM     10  C   UNL     1      -1.288  -3.809   1.121  1.00  0.00     0.081 C 
ATOM     11  C   UNL     1       1.310  -4.721   1.808  1.00  0.00     0.026 C 
ATOM     12  C   UNL     1      -0.707  -5.082   0.464  1.00  0.00     0.085 C 
ATOM     13  C   UNL     1       0.151  -5.930   1.320  1.00  0.00     0.103 C 
ATOM     14  C   UNL     1       0.322  -4.854  -0.756  1.00  0.00     0.041 C 
ATOM     15  C   UNL     1       0.625  -6.776   2.379  1.00  0.00     0.316 C 
ATOM     16  C   UNL     1       0.404  -7.281   0.253  1.00  0.00     0.054 C 
ATOM     17  C   UNL     1       1.770  -5.759  -0.690  1.00  0.00     0.052 C 
ATOM     18  O   UNL     1       0.237  -7.007   3.516  1.00  0.00    -0.251 OA
ATOM     19  O   UNL     1       1.869  -7.086   1.812  1.00  0.00    -0.458 OA
ATOM     20  C   UNL     1       1.834  -7.046   0.315  1.00  0.00     0.120 C 
ATOM     21  C   UNL     1       0.025  -8.748   0.515  1.00  0.00     0.009 C 
ATOM     22  C   UNL     1       2.908  -8.052  -0.071  1.00  0.00     0.040 C 
ATOM     23  C   UNL     1       1.177  -9.689   0.904  1.00  0.00     0.008 C 
ATOM     24  C   UNL     1       2.618  -9.514   0.393  1.00  0.00    -0.014 C 
ATOM     25  C   UNL     1       4.216  -7.648   0.671  1.00  0.00     0.009 C 
ATOM     26  C   UNL     1       2.847 -10.477  -0.791  1.00  0.00     0.012 C 
ATOM     27  C   UNL     1       4.260  -8.487   1.952  1.00  0.00     0.014 C 
BRANCH   8  28
ATOM     28  O   UNL     1       0.361  -2.055   0.857  1.00  0.00    -0.462 OA
BRANCH  28  29
ATOM     29  C   UNL     1       0.341  -0.704   1.037  1.00  0.00     0.302 C 
ATOM     30  C   UNL     1       1.100  -0.019  -0.060  1.00  0.00     0.139 C 
ATOM     31  O   UNL     1      -0.199  -0.114   1.962  1.00  0.00    -0.253 OA
ENDBRANCH  28  29
ENDBRANCH   8  28
BRANCH  12  32
ATOM     32  O   UNL     1      -1.834  -5.839   0.009  1.00  0.00    -0.389 OA
ATOM     33  H   UNL     1      -1.526  -6.655  -0.415  1.00  0.00     0.211 HD
ENDBRANCH  12  32
ENDBRANCH   4   7
ENDBRANCH   2   3
ENDBRANCH   1   2
BRANCH   1  34
ATOM     34  C   UNL     1      -0.004 -11.911   4.660  1.00  0.00     0.023 C 
BRANCH  34  35
ATOM     35  C   UNL     1      -0.380 -11.389   6.027  1.00  0.00     0.116 C 
BRANCH  35  36
ATOM     36  N   UNL     1      -1.426 -10.373   5.997  1.00  0.00    -0.352 N 
ATOM     37  C   UNL     1      -2.518 -10.268   6.827  1.00  0.00     0.251 C 
ATOM     38  H   UNL     1      -1.341  -9.682   5.301  1.00  0.00     0.163 HD
ATOM     39  O   UNL     1      -3.402  -9.445   6.629  1.00  0.00    -0.269 OA
BRANCH  37  40
ATOM     40  C   UNL     1      -2.614 -11.217   7.951  1.00  0.00     0.039 A 
ATOM     41  C   UNL     1      -3.780 -11.965   8.114  1.00  0.00     0.014 A 
ATOM     42  C   UNL     1      -1.490 -11.455   8.746  1.00  0.00     0.014 A 
ATOM     43  C   UNL     1      -3.789 -13.010   9.035  1.00  0.00     0.010 A 
ATOM     44  C   UNL     1      -1.460 -12.576   9.558  1.00  0.00     0.010 A 
ATOM     45  C   UNL     1      -2.615 -13.351   9.730  1.00  0.00    -0.014 A 
BRANCH  45  46
ATOM     46  C   UNL     1      -2.580 -14.497  10.669  1.00  0.00     0.031 A 
ATOM     47  C   UNL     1      -2.242 -14.261  12.114  1.00  0.00     0.074 A 
ATOM     48  C   UNL     1      -2.779 -15.747  10.211  1.00  0.00     0.049 A 
ATOM     49  N   UNL     1      -2.112 -15.126  13.087  1.00  0.00    -0.248 NA
ATOM     50  C   UNL     1      -1.967 -12.870  12.510  1.00  0.00     0.031 C 
ATOM     51  C   UNL     1      -3.030 -16.108   8.815  1.00  0.00     0.029 A 
ATOM     52  N   UNL     1      -2.791 -16.948  10.873  1.00  0.00    -0.354 N 
ATOM     53  C   UNL     1      -1.725 -14.385  14.195  1.00  0.00     0.074 A 
ATOM     54  C   UNL     1      -1.554 -13.020  13.757  1.00  0.00     0.031 C 
ATOM     55  C   UNL     1      -3.203 -17.436   8.730  1.00  0.00     0.029 A 
ATOM     56  C   UNL     1      -3.038 -18.023  10.056  1.00  0.00     0.049 A 
ATOM     57  H   UNL     1      -2.636 -17.031  11.842  1.00  0.00     0.167 HD
ATOM     58  C   UNL     1      -1.566 -14.798  15.474  1.00  0.00     0.037 A 
ATOM     59  C   UNL     1      -3.121 -19.335  10.347  1.00  0.00     0.037 A 
ATOM     60  C   UNL     1      -1.761 -16.156  15.904  1.00  0.00     0.049 A 
ATOM     61  C   UNL     1      -2.958 -19.776  11.776  1.00  0.00     0.074 A 
ATOM     62  C   UNL     1      -1.701 -16.674  17.184  1.00  0.00     0.029 A 
ATOM     63  N   UNL     1      -2.045 -17.217  15.054  1.00  0.00    -0.354 N 
ATOM     64  N   UNL     1      -2.691 -19.055  12.838  1.00  0.00    -0.248 NA
ATOM     65  C   UNL     1      -3.121 -21.210  12.049  1.00  0.00     0.031 C 
ATOM     66  C   UNL     1      -1.889 -18.058  17.102  1.00  0.00     0.029 A 
ATOM     67  C   UNL     1      -2.132 -18.394  15.778  1.00  0.00     0.049 A 
ATOM     68  H   UNL     1      -2.168 -17.143  14.080  1.00  0.00     0.167 HD
ATOM     69  C   UNL     1      -2.670 -19.940  13.907  1.00  0.00     0.074 A 
ATOM     70  C   UNL     1      -2.973 -21.250  13.366  1.00  0.00     0.031 C 
ATOM     71  C   UNL     1      -2.424 -19.691  15.218  1.00  0.00     0.037 A 
BRANCH  58  72
ATOM     72  C   UNL     1      -1.157 -13.761  16.483  1.00  0.00     0.064 A 
ATOM     73  C   UNL     1      -1.996 -12.687  16.824  1.00  0.00     0.173 A 
ATOM     74  C   UNL     1       0.101 -13.826  17.100  1.00  0.00     0.173 A 
ATOM     75  F   UNL     1      -3.206 -12.568  16.255  1.00  0.00    -0.203 F 
ATOM     76  C   UNL     1      -1.570 -11.691  17.698  1.00  0.00     0.198 A 
ATOM     77  C   UNL     1       0.508 -12.849  18.005  1.00  0.00     0.198 A 
ATOM     78  F   UNL     1       0.943 -14.832  16.817  1.00  0.00    -0.203 F 
ATOM     79  F   UNL     1      -2.357 -10.633  17.941  1.00  0.00    -0.200 F 
ATOM     80  C   UNL     1      -0.320 -11.775  18.291  1.00  0.00     0.200 A 
ATOM     81  F   UNL     1       1.711 -12.940  18.590  1.00  0.00    -0.200 F 
ATOM     82  F   UNL     1       0.091 -10.812  19.128  1.00  0.00    -0.200 F 
ENDBRANCH  58  72
BRANCH  59  83
ATOM     83  C   UNL     1      -3.404 -20.308   9.260  1.00  0.00     0.064 A 
ATOM     84  C   UNL     1      -4.646 -20.951   9.169  1.00  0.00     0.173 A 
ATOM     85  C   UNL     1      -2.454 -20.579   8.264  1.00  0.00     0.173 A 
ATOM     86  F   UNL     1      -5.581 -20.737  10.106  1.00  0.00    -0.203 F 
ATOM     87  C   UNL     1      -4.924 -21.835   8.128  1.00  0.00     0.198 A 
ATOM     88  C   UNL     1      -2.743 -21.441   7.208  1.00  0.00     0.198 A 
ATOM     89  F   UNL     1      -1.254 -19.982   8.301  1.00  0.00    -0.203 F 
ATOM     90  F   UNL     1      -6.108 -22.460   8.081  1.00  0.00    -0.200 F 
ATOM     91  C   UNL     1      -3.976 -22.072   7.143  1.00  0.00     0.200 A 
ATOM     92  F   UNL     1      -1.831 -21.653   6.250  1.00  0.00    -0.200 F 
ATOM     93  F   UNL     1      -4.250 -22.908   6.133  1.00  0.00    -0.200 F 
ENDBRANCH  59  83
BRANCH  71  94
ATOM     94  C   UNL     1      -2.489 -20.857  16.163  1.00  0.00     0.064 A 
ATOM     95  C   UNL     1      -1.512 -21.864  16.159  1.00  0.00     0.173 A 
ATOM     96  C   UNL     1      -3.515 -20.941  17.117  1.00  0.00     0.173 A 
ATOM     97  F   UNL     1      -0.517 -21.837  15.259  1.00  0.00    -0.203 F 
ATOM     98  C   UNL     1      -1.577 -22.926  17.057  1.00  0.00     0.198 A 
ATOM     99  C   UNL     1      -3.557 -21.986  18.035  1.00  0.00     0.198 A 
ATOM    100  F   UNL     1      -4.469 -20.000  17.169  1.00  0.00    -0.203 F 
ATOM    101  F   UNL     1      -0.661 -23.904  17.002  1.00  0.00    -0.200 F 
ATOM    102  C   UNL     1      -2.593 -22.982  17.999  1.00  0.00     0.200 A 
ATOM    103  F   UNL     1      -4.529 -22.027  18.956  1.00  0.00    -0.200 F 
ATOM    104  F   UNL     1      -2.647 -23.999  18.870  1.00  0.00    -0.200 F 
ENDBRANCH  71  94
ENDBRANCH  45  46
ENDBRANCH  37  40
ENDBRANCH  35  36
ENDBRANCH  34  35
ENDBRANCH   1  34
TORSDOF 14
