REMARK SMILES Cc1cc(C(=O)N[C@H](C(=O)NCCCCNC(=O)c2ccc(-c3c4nc(c(-c5c(F)c(F)c(F)c(F)c5F)c5ccc([nH]5)c(-c5c(F)c(F)c(F)c(F)c5F)c5nc(c(-c6c(F)c(F)c(F)c(F)c6F)c6ccc3[nH]6)C=C5)C=C4)cc2)c2c(C)n[nH]c2C)c2ccc(C)c(C)c2n1
REMARK SMILES IDX 13 1 12 2 11 3 9 4 10 5 8 7 7 8 5 9 6 10 4 12 1 13 2 14 3 15
REMARK SMILES IDX 97 16 96 17 89 18 94 19 90 20 92 21 95 22 91 23 93 24 82 25
REMARK SMILES IDX 83 26 87 27 84 28 85 29 86 30 88 31 14 33 15 34 16 35 17 36
REMARK SMILES IDX 18 38 19 39 20 40 81 41 21 42 80 43 22 44 23 45 24 46 74 47
REMARK SMILES IDX 25 48 79 49 73 50 75 51 26 52 78 53 72 54 71 55 27 57 59 58
REMARK SMILES IDX 39 59 58 60 40 61 43 62 57 63 76 64 41 65 42 66 56 68 77 69
REMARK SMILES IDX 44 70 28 71 29 72 37 73 30 74 31 75 35 76 38 77 32 78 33 79
REMARK SMILES IDX 36 80 34 81 60 82 61 83 69 84 62 85 63 86 67 87 70 88 64 89
REMARK SMILES IDX 65 90 68 91 66 92 45 93 46 94 54 95 47 96 48 97 52 98 55 99
REMARK SMILES IDX 49 100 50 101 53 102 51 103
REMARK H PARENT 11 6 7 11 86 32 16 37 75 56 43 67
REMARK Flexibility Score: inf
ROOT
ATOM      1  C   UNL     1      -5.814  -0.118  -5.972  1.00  0.00     0.023 C 
ENDROOT
BRANCH   1   2
ATOM      2  C   UNL     1      -4.619   0.062  -5.048  1.00  0.00     0.116 C 
BRANCH   2   3
ATOM      3  N   UNL     1      -3.699  -1.055  -5.030  1.00  0.00    -0.354 N 
ATOM      4  C   UNL     1      -2.567  -1.214  -4.282  1.00  0.00     0.247 C 
ATOM      5  O   UNL     1      -1.905  -2.238  -4.500  1.00  0.00    -0.272 OA
ATOM      6  H   UNL     1      -3.917  -1.798  -5.638  1.00  0.00     0.163 HD
BRANCH   4   7
ATOM      7  C   UNL     1      -2.009  -0.122  -3.319  1.00  0.00     0.206 C 
BRANCH   7   8
ATOM      8  N   UNL     1      -0.994   0.662  -4.030  1.00  0.00    -0.336 N 
ATOM      9  C   UNL     1      -0.025   1.549  -3.625  1.00  0.00     0.252 C 
ATOM     10  O   UNL     1       0.900   1.775  -4.403  1.00  0.00    -0.269 OA
ATOM     11  H   UNL     1      -1.010   0.523  -5.005  1.00  0.00     0.165 HD
BRANCH   9  12
ATOM     12  C   UNL     1      -0.109   2.293  -2.337  1.00  0.00     0.051 A 
ATOM     13  C   UNL     1      -1.491   1.656   1.084  1.00  0.00     0.067 C 
ATOM     14  C   UNL     1      -0.802   2.320  -0.069  1.00  0.00     0.039 A 
ATOM     15  C   UNL     1      -0.434   1.595  -1.180  1.00  0.00     0.038 A 
ATOM     16  N   UNL     1      -0.663   3.659  -0.005  1.00  0.00    -0.253 NA
ATOM     17  C   UNL     1      -0.208   4.347  -1.069  1.00  0.00     0.074 A 
ATOM     18  C   UNL     1       0.056   3.710  -2.300  1.00  0.00     0.013 A 
ATOM     19  C   UNL     1      -0.043   5.741  -0.948  1.00  0.00    -0.022 A 
ATOM     20  C   UNL     1       0.426   4.524  -3.400  1.00  0.00     0.011 A 
ATOM     21  C   UNL     1       0.322   6.534  -2.058  1.00  0.00    -0.046 A 
ATOM     22  C   UNL     1      -0.299   6.362   0.408  1.00  0.00     0.047 C 
ATOM     23  C   UNL     1       0.553   5.907  -3.281  1.00  0.00     0.004 A 
ATOM     24  C   UNL     1       0.481   8.027  -1.962  1.00  0.00     0.044 C 
ENDBRANCH   9  12
ENDBRANCH   7   8
BRANCH   7  25
ATOM     25  C   UNL     1      -3.054   0.647  -2.566  1.00  0.00     0.027 A 
ATOM     26  C   UNL     1      -3.902   0.069  -1.561  1.00  0.00     0.065 A 
ATOM     27  C   UNL     1      -3.498   1.963  -2.649  1.00  0.00     0.038 A 
ATOM     28  C   UNL     1      -3.968  -1.348  -1.109  1.00  0.00     0.069 C 
ATOM     29  N   UNL     1      -4.748   0.961  -1.046  1.00  0.00    -0.180 NA
ATOM     30  N   UNL     1      -4.449   2.103  -1.673  1.00  0.00    -0.282 N 
ATOM     31  C   UNL     1      -3.175   3.112  -3.529  1.00  0.00     0.066 C 
ATOM     32  H   UNL     1      -4.872   2.964  -1.455  1.00  0.00     0.190 HD
ENDBRANCH   7  25
ENDBRANCH   4   7
ENDBRANCH   2   3
ENDBRANCH   1   2
BRANCH   1  33
ATOM     33  C   UNL     1      -6.681  -1.348  -5.684  1.00  0.00     0.023 C 
BRANCH  33  34
ATOM     34  C   UNL     1      -7.010  -1.610  -4.214  1.00  0.00     0.116 C 
BRANCH  34  35
ATOM     35  N   UNL     1      -7.854  -0.587  -3.619  1.00  0.00    -0.352 N 
ATOM     36  C   UNL     1      -9.225  -0.511  -3.539  1.00  0.00     0.251 C 
ATOM     37  H   UNL     1      -7.370   0.168  -3.211  1.00  0.00     0.163 HD
ATOM     38  O   UNL     1      -9.772   0.507  -3.139  1.00  0.00    -0.269 OA
BRANCH  36  39
ATOM     39  C   UNL     1     -10.049  -1.663  -3.966  1.00  0.00     0.039 A 
ATOM     40  C   UNL     1     -11.105  -1.450  -4.856  1.00  0.00     0.014 A 
ATOM     41  C   UNL     1      -9.799  -2.943  -3.467  1.00  0.00     0.014 A 
ATOM     42  C   UNL     1     -11.864  -2.534  -5.304  1.00  0.00     0.010 A 
ATOM     43  C   UNL     1     -10.510  -4.032  -3.963  1.00  0.00     0.010 A 
ATOM     44  C   UNL     1     -11.552  -3.836  -4.883  1.00  0.00    -0.014 A 
BRANCH  44  45
ATOM     45  C   UNL     1     -12.333  -5.009  -5.348  1.00  0.00     0.031 A 
ATOM     46  C   UNL     1     -13.201  -5.754  -4.375  1.00  0.00     0.074 A 
ATOM     47  C   UNL     1     -12.219  -5.435  -6.620  1.00  0.00     0.049 A 
ATOM     48  N   UNL     1     -13.889  -6.854  -4.552  1.00  0.00    -0.248 NA
ATOM     49  C   UNL     1     -13.293  -5.198  -3.016  1.00  0.00     0.031 C 
ATOM     50  C   UNL     1     -11.398  -4.804  -7.653  1.00  0.00     0.029 A 
ATOM     51  N   UNL     1     -12.789  -6.510  -7.256  1.00  0.00    -0.354 N 
ATOM     52  C   UNL     1     -14.492  -7.118  -3.330  1.00  0.00     0.074 A 
ATOM     53  C   UNL     1     -14.045  -6.100  -2.405  1.00  0.00     0.031 C 
ATOM     54  C   UNL     1     -11.528  -5.495  -8.798  1.00  0.00     0.029 A 
ATOM     55  C   UNL     1     -12.411  -6.637  -8.570  1.00  0.00     0.049 A 
ATOM     56  H   UNL     1     -13.410  -7.132  -6.812  1.00  0.00     0.167 HD
ATOM     57  C   UNL     1     -15.363  -8.106  -3.016  1.00  0.00     0.037 A 
ATOM     58  C   UNL     1     -12.734  -7.574  -9.482  1.00  0.00     0.037 A 
ATOM     59  C   UNL     1     -15.814  -9.113  -3.939  1.00  0.00     0.049 A 
ATOM     60  C   UNL     1     -13.660  -8.695  -9.091  1.00  0.00     0.074 A 
ATOM     61  C   UNL     1     -16.717 -10.139  -3.723  1.00  0.00     0.029 A 
ATOM     62  N   UNL     1     -15.394  -9.220  -5.257  1.00  0.00    -0.354 N 
ATOM     63  N   UNL     1     -14.256  -8.916  -7.944  1.00  0.00    -0.248 NA
ATOM     64  C   UNL     1     -13.960  -9.697 -10.123  1.00  0.00     0.031 C 
ATOM     65  C   UNL     1     -16.809 -10.894  -4.896  1.00  0.00     0.029 A 
ATOM     66  C   UNL     1     -16.003 -10.310  -5.859  1.00  0.00     0.049 A 
ATOM     67  H   UNL     1     -14.758  -8.612  -5.699  1.00  0.00     0.167 HD
ATOM     68  C   UNL     1     -15.015 -10.065  -8.121  1.00  0.00     0.074 A 
ATOM     69  C   UNL     1     -14.822 -10.484  -9.494  1.00  0.00     0.031 C 
ATOM     70  C   UNL     1     -15.798 -10.716  -7.227  1.00  0.00     0.037 A 
BRANCH  57  71
ATOM     71  C   UNL     1     -15.896  -8.140  -1.613  1.00  0.00     0.064 A 
ATOM     72  C   UNL     1     -16.805  -7.174  -1.154  1.00  0.00     0.173 A 
ATOM     73  C   UNL     1     -15.535  -9.172  -0.735  1.00  0.00     0.173 A 
ATOM     74  F   UNL     1     -17.170  -6.159  -1.951  1.00  0.00    -0.203 F 
ATOM     75  C   UNL     1     -17.317  -7.231   0.139  1.00  0.00     0.198 A 
ATOM     76  C   UNL     1     -16.072  -9.242   0.547  1.00  0.00     0.198 A 
ATOM     77  F   UNL     1     -14.671 -10.122  -1.125  1.00  0.00    -0.203 F 
ATOM     78  F   UNL     1     -18.152  -6.274   0.569  1.00  0.00    -0.200 F 
ATOM     79  C   UNL     1     -16.958  -8.269   0.985  1.00  0.00     0.200 A 
ATOM     80  F   UNL     1     -15.734 -10.252   1.360  1.00  0.00    -0.200 F 
ATOM     81  F   UNL     1     -17.463  -8.329   2.225  1.00  0.00    -0.200 F 
ENDBRANCH  57  71
BRANCH  58  82
ATOM     82  C   UNL     1     -12.197  -7.480 -10.865  1.00  0.00     0.064 A 
ATOM     83  C   UNL     1     -13.043  -7.175 -11.941  1.00  0.00     0.173 A 
ATOM     84  C   UNL     1     -10.839  -7.690 -11.142  1.00  0.00     0.173 A 
ATOM     85  F   UNL     1     -14.354  -6.990 -11.730  1.00  0.00    -0.203 F 
ATOM     86  C   UNL     1     -12.552  -7.096 -13.243  1.00  0.00     0.198 A 
ATOM     87  C   UNL     1     -10.344  -7.584 -12.441  1.00  0.00     0.198 A 
ATOM     88  F   UNL     1      -9.988  -7.984 -10.148  1.00  0.00    -0.203 F 
ATOM     89  F   UNL     1     -13.389  -6.842 -14.257  1.00  0.00    -0.200 F 
ATOM     90  C   UNL     1     -11.202  -7.293 -13.491  1.00  0.00     0.200 A 
ATOM     91  F   UNL     1      -9.037  -7.763 -12.674  1.00  0.00    -0.200 F 
ATOM     92  F   UNL     1     -10.729  -7.209 -14.742  1.00  0.00    -0.200 F 
ENDBRANCH  58  82
BRANCH  70  93
ATOM     93  C   UNL     1     -16.518 -11.946  -7.703  1.00  0.00     0.064 A 
ATOM     94  C   UNL     1     -15.831 -13.140  -7.969  1.00  0.00     0.173 A 
ATOM     95  C   UNL     1     -17.915 -11.947  -7.841  1.00  0.00     0.173 A 
ATOM     96  F   UNL     1     -14.495 -13.188  -7.864  1.00  0.00    -0.203 F 
ATOM     97  C   UNL     1     -16.514 -14.282  -8.378  1.00  0.00     0.198 A 
ATOM     98  C   UNL     1     -18.597 -13.100  -8.219  1.00  0.00     0.198 A 
ATOM     99  F   UNL     1     -18.620 -10.834  -7.590  1.00  0.00    -0.203 F 
ATOM    100  F   UNL     1     -15.833 -15.399  -8.670  1.00  0.00    -0.200 F 
ATOM    101  C   UNL     1     -17.896 -14.264  -8.494  1.00  0.00     0.200 A 
ATOM    102  F   UNL     1     -19.934 -13.085  -8.314  1.00  0.00    -0.200 F 
ATOM    103  F   UNL     1     -18.552 -15.368  -8.876  1.00  0.00    -0.200 F 
ENDBRANCH  70  93
ENDBRANCH  44  45
ENDBRANCH  36  39
ENDBRANCH  34  35
ENDBRANCH  33  34
ENDBRANCH   1  33
TORSDOF 14
