REMARK SMILES C[C@@H](C(=O)NCCCCNC(=O)c1ccc(-c2c3nc(c(-c4c(F)c(F)c(F)c(F)c4F)c4ccc([nH]4)c(-c4c(F)c(F)c(F)c(F)c4F)c4nc(c(-c5c(F)c(F)c(F)c(F)c5F)c5ccc2[nH]5)C=C4)C=C3)cc1)[C@H](C)n1ncc2ccc([N+](=O)[O-])cc21
REMARK SMILES IDX 7 1 6 2 5 3 3 4 4 5 2 7 1 8 76 9 77 10 78 11 79 12 89 13
REMARK SMILES IDX 80 14 81 15 88 16 82 17 84 18 83 19 85 20 86 21 87 22 8 23
REMARK SMILES IDX 9 24 10 25 11 26 12 28 13 29 14 30 75 31 15 32 74 33 16 34
REMARK SMILES IDX 17 35 18 36 68 37 19 38 73 39 67 40 69 41 20 42 72 43 66 44
REMARK SMILES IDX 65 45 21 47 53 48 33 49 52 50 34 51 37 52 51 53 70 54 35 55
REMARK SMILES IDX 36 56 50 58 71 59 38 60 22 61 23 62 31 63 24 64 25 65 29 66
REMARK SMILES IDX 32 67 26 68 27 69 30 70 28 71 54 72 55 73 63 74 56 75 57 76
REMARK SMILES IDX 61 77 64 78 58 79 59 80 62 81 60 82 39 83 40 84 48 85 41 86
REMARK SMILES IDX 42 87 46 88 49 89 43 90 44 91 47 92 45 93
REMARK H PARENT 5 6 10 27 69 46 37 57
REMARK Flexibility Score: inf
ROOT
ATOM      1  C   UNL     1      -1.408   4.605   1.824  1.00  0.00     0.023 C 
ENDROOT
BRANCH   1   2
ATOM      2  C   UNL     1      -2.405   3.490   1.500  1.00  0.00     0.116 C 
BRANCH   2   3
ATOM      3  N   UNL     1      -2.770   3.429   0.099  1.00  0.00    -0.356 N 
ATOM      4  C   UNL     1      -2.546   2.470  -0.842  1.00  0.00     0.224 C 
ATOM      5  O   UNL     1      -3.317   2.480  -1.804  1.00  0.00    -0.275 OA
ATOM      6  H   UNL     1      -3.265   4.214  -0.228  1.00  0.00     0.163 HD
BRANCH   4   7
ATOM      7  C   UNL     1      -1.488   1.372  -0.654  1.00  0.00     0.100 C 
ATOM      8  C   UNL     1      -0.110   1.883  -0.229  1.00  0.00     0.020 C 
BRANCH   7   9
ATOM      9  C   UNL     1      -1.420   0.436  -1.907  1.00  0.00     0.117 C 
ATOM     10  C   UNL     1      -0.254  -0.564  -1.868  1.00  0.00     0.034 C 
BRANCH   9  11
ATOM     11  N   UNL     1      -1.402   1.103  -3.213  1.00  0.00    -0.261 N 
ATOM     12  N   UNL     1      -0.505   2.083  -3.457  1.00  0.00    -0.180 NA
ATOM     13  C   UNL     1      -2.127   0.728  -4.330  1.00  0.00     0.075 A 
ATOM     14  C   UNL     1      -0.696   2.371  -4.747  1.00  0.00     0.143 A 
ATOM     15  C   UNL     1      -1.665   1.546  -5.358  1.00  0.00     0.020 A 
ATOM     16  C   UNL     1      -3.125  -0.241  -4.532  1.00  0.00     0.114 A 
ATOM     17  C   UNL     1      -2.191   1.399  -6.656  1.00  0.00     0.019 A 
ATOM     18  C   UNL     1      -3.634  -0.373  -5.836  1.00  0.00     0.271 A 
ATOM     19  C   UNL     1      -3.174   0.427  -6.888  1.00  0.00     0.086 A 
BRANCH  18  20
ATOM     20  N   UNL     1      -4.671  -1.381  -6.096  1.00  0.00     0.062 N 
ATOM     21  O   UNL     1      -4.926  -1.655  -7.278  1.00  0.00    -0.258 OA
ATOM     22  O   UNL     1      -5.224  -1.906  -5.119  1.00  0.00    -0.258 OA
ENDBRANCH  18  20
ENDBRANCH   9  11
ENDBRANCH   7   9
ENDBRANCH   4   7
ENDBRANCH   2   3
ENDBRANCH   1   2
BRANCH   1  23
ATOM     23  C   UNL     1      -1.843   6.023   1.450  1.00  0.00     0.023 C 
BRANCH  23  24
ATOM     24  C   UNL     1      -3.180   6.487   2.015  1.00  0.00     0.116 C 
BRANCH  24  25
ATOM     25  N   UNL     1      -3.228   6.475   3.469  1.00  0.00    -0.352 N 
ATOM     26  C   UNL     1      -3.676   7.445   4.337  1.00  0.00     0.251 C 
ATOM     27  H   UNL     1      -2.890   5.654   3.893  1.00  0.00     0.163 HD
ATOM     28  O   UNL     1      -3.551   7.296   5.546  1.00  0.00    -0.269 OA
BRANCH  26  29
ATOM     29  C   UNL     1      -4.270   8.692   3.806  1.00  0.00     0.039 A 
ATOM     30  C   UNL     1      -3.800   9.917   4.290  1.00  0.00     0.014 A 
ATOM     31  C   UNL     1      -5.255   8.659   2.816  1.00  0.00     0.014 A 
ATOM     32  C   UNL     1      -4.241  11.108   3.708  1.00  0.00     0.010 A 
ATOM     33  C   UNL     1      -5.652   9.844   2.198  1.00  0.00     0.010 A 
ATOM     34  C   UNL     1      -5.128  11.076   2.620  1.00  0.00    -0.014 A 
BRANCH  34  35
ATOM     35  C   UNL     1      -5.461  12.307   1.857  1.00  0.00     0.031 A 
ATOM     36  C   UNL     1      -6.867  12.833   1.832  1.00  0.00     0.074 A 
ATOM     37  C   UNL     1      -4.510  12.883   1.095  1.00  0.00     0.049 A 
ATOM     38  N   UNL     1      -7.370  13.808   1.118  1.00  0.00    -0.248 NA
ATOM     39  C   UNL     1      -7.841  12.162   2.706  1.00  0.00     0.031 C 
ATOM     40  C   UNL     1      -3.119  12.435   0.996  1.00  0.00     0.029 A 
ATOM     41  N   UNL     1      -4.573  13.952   0.235  1.00  0.00    -0.354 N 
ATOM     42  C   UNL     1      -8.720  13.855   1.440  1.00  0.00     0.074 A 
ATOM     43  C   UNL     1      -8.965  12.794   2.394  1.00  0.00     0.031 C 
ATOM     44  C   UNL     1      -2.465  13.216   0.123  1.00  0.00     0.029 A 
ATOM     45  C   UNL     1      -3.396  14.193  -0.432  1.00  0.00     0.049 A 
ATOM     46  H   UNL     1      -5.386  14.494   0.108  1.00  0.00     0.167 HD
ATOM     47  C   UNL     1      -9.662  14.715   0.987  1.00  0.00     0.037 A 
ATOM     48  C   UNL     1      -3.105  15.081  -1.402  1.00  0.00     0.037 A 
ATOM     49  C   UNL     1      -9.407  15.793   0.069  1.00  0.00     0.049 A 
ATOM     50  C   UNL     1      -4.179  16.015  -1.891  1.00  0.00     0.074 A 
ATOM     51  C   UNL     1     -10.275  16.783  -0.359  1.00  0.00     0.029 A 
ATOM     52  N   UNL     1      -8.198  16.018  -0.571  1.00  0.00    -0.354 N 
ATOM     53  N   UNL     1      -5.428  16.109  -1.510  1.00  0.00    -0.248 NA
ATOM     54  C   UNL     1      -3.802  16.964  -2.949  1.00  0.00     0.031 C 
ATOM     55  C   UNL     1      -9.607  17.576  -1.297  1.00  0.00     0.029 A 
ATOM     56  C   UNL     1      -8.309  17.107  -1.421  1.00  0.00     0.049 A 
ATOM     57  H   UNL     1      -7.381  15.483  -0.441  1.00  0.00     0.167 HD
ATOM     58  C   UNL     1      -5.981  17.133  -2.265  1.00  0.00     0.074 A 
ATOM     59  C   UNL     1      -4.927  17.646  -3.114  1.00  0.00     0.031 C 
ATOM     60  C   UNL     1      -7.252  17.604  -2.261  1.00  0.00     0.037 A 
BRANCH  47  61
ATOM     61  C   UNL     1     -11.069  14.541   1.476  1.00  0.00     0.064 A 
ATOM     62  C   UNL     1     -11.444  14.905   2.777  1.00  0.00     0.173 A 
ATOM     63  C   UNL     1     -12.070  14.092   0.602  1.00  0.00     0.173 A 
ATOM     64  F   UNL     1     -10.521  15.334   3.651  1.00  0.00    -0.203 F 
ATOM     65  C   UNL     1     -12.771  14.817   3.189  1.00  0.00     0.198 A 
ATOM     66  C   UNL     1     -13.400  14.027   1.010  1.00  0.00     0.198 A 
ATOM     67  F   UNL     1     -11.762  13.738  -0.655  1.00  0.00    -0.203 F 
ATOM     68  F   UNL     1     -13.105  15.149   4.443  1.00  0.00    -0.200 F 
ATOM     69  C   UNL     1     -13.749  14.388   2.303  1.00  0.00     0.200 A 
ATOM     70  F   UNL     1     -14.345  13.624   0.149  1.00  0.00    -0.200 F 
ATOM     71  F   UNL     1     -15.028  14.322   2.696  1.00  0.00    -0.200 F 
ENDBRANCH  47  61
BRANCH  48  72
ATOM     72  C   UNL     1      -1.744  15.119  -1.997  1.00  0.00     0.064 A 
ATOM     73  C   UNL     1      -0.893  16.212  -1.783  1.00  0.00     0.173 A 
ATOM     74  C   UNL     1      -1.279  14.080  -2.817  1.00  0.00     0.173 A 
ATOM     75  F   UNL     1      -1.303  17.241  -1.027  1.00  0.00    -0.203 F 
ATOM     76  C   UNL     1       0.362  16.276  -2.386  1.00  0.00     0.198 A 
ATOM     77  C   UNL     1      -0.013  14.132  -3.396  1.00  0.00     0.198 A 
ATOM     78  F   UNL     1      -2.054  13.011  -3.052  1.00  0.00    -0.203 F 
ATOM     79  F   UNL     1       1.133  17.357  -2.208  1.00  0.00    -0.200 F 
ATOM     80  C   UNL     1       0.802  15.234  -3.188  1.00  0.00     0.200 A 
ATOM     81  F   UNL     1       0.414  13.118  -4.161  1.00  0.00    -0.200 F 
ATOM     82  F   UNL     1       2.007  15.298  -3.771  1.00  0.00    -0.200 F 
ENDBRANCH  48  72
BRANCH  60  83
ATOM     83  C   UNL     1      -7.570  18.734  -3.193  1.00  0.00     0.064 A 
ATOM     84  C   UNL     1      -7.689  18.528  -4.575  1.00  0.00     0.173 A 
ATOM     85  C   UNL     1      -7.803  20.025  -2.697  1.00  0.00     0.173 A 
ATOM     86  F   UNL     1      -7.457  17.314  -5.099  1.00  0.00    -0.203 F 
ATOM     87  C   UNL     1      -8.014  19.578  -5.429  1.00  0.00     0.198 A 
ATOM     88  C   UNL     1      -8.154  21.067  -3.550  1.00  0.00     0.198 A 
ATOM     89  F   UNL     1      -7.706  20.272  -1.382  1.00  0.00    -0.203 F 
ATOM     90  F   UNL     1      -8.083  19.367  -6.751  1.00  0.00    -0.200 F 
ATOM     91  C   UNL     1      -8.254  20.844  -4.915  1.00  0.00     0.200 A 
ATOM     92  F   UNL     1      -8.397  22.287  -3.052  1.00  0.00    -0.200 F 
ATOM     93  F   UNL     1      -8.576  21.852  -5.738  1.00  0.00    -0.200 F 
ENDBRANCH  60  83
ENDBRANCH  34  35
ENDBRANCH  26  29
ENDBRANCH  24  25
ENDBRANCH  23  24
ENDBRANCH   1  23
TORSDOF 14
