REMARK SMILES CC[NH+](CC)C[C@H](F)C(=O)NCCCCNC(=O)c1ccc(-c2c3nc(c(-c4c(F)c(F)c(F)c(F)c4F)c4ccc([nH]4)c(-c4c(F)c(F)c(F)c(F)c4F)c4nc(c(-c5c(F)c(F)c(F)c(F)c5F)c5ccc2[nH]5)C=C4)C=C3)cc1
REMARK SMILES IDX 13 1 12 2 11 3 9 4 10 5 7 7 8 8 6 9 3 10 2 12 1 13 4 14 5 15
REMARK SMILES IDX 14 16 15 17 16 18 17 19 18 21 19 22 20 23 81 24 21 25 80 26
REMARK SMILES IDX 22 27 23 28 24 29 74 30 25 31 79 32 73 33 75 34 26 35 78 36
REMARK SMILES IDX 72 37 71 38 27 40 59 41 39 42 58 43 40 44 43 45 57 46 76 47
REMARK SMILES IDX 41 48 42 49 56 51 77 52 44 53 28 54 29 55 37 56 30 57 31 58
REMARK SMILES IDX 35 59 38 60 32 61 33 62 36 63 34 64 60 65 61 66 69 67 62 68
REMARK SMILES IDX 63 69 67 70 70 71 64 72 65 73 68 74 66 75 45 76 46 77 54 78
REMARK SMILES IDX 47 79 48 80 52 81 55 82 49 83 50 84 53 85 51 86
REMARK H PARENT 11 6 3 11 16 20 75 39 43 50
REMARK Flexibility Score: inf
ROOT
ATOM      1  C   UNL     1       4.938   0.898   1.961  1.00  0.00     0.023 C 
ENDROOT
BRANCH   1   2
ATOM      2  C   UNL     1       4.327  -0.094   0.975  1.00  0.00     0.116 C 
BRANCH   2   3
ATOM      3  N   UNL     1       4.928  -1.406   1.082  1.00  0.00    -0.353 N 
ATOM      4  C   UNL     1       4.370  -2.629   0.853  1.00  0.00     0.260 C 
ATOM      5  O   UNL     1       5.095  -3.614   1.030  1.00  0.00    -0.271 OA
ATOM      6  H   UNL     1       5.873  -1.417   1.359  1.00  0.00     0.163 HD
BRANCH   4   7
ATOM      7  C   UNL     1       2.925  -2.774   0.388  1.00  0.00     0.309 C 
ATOM      8  F   UNL     1       2.073  -2.090   1.222  1.00  0.00    -0.230 F 
BRANCH   7   9
ATOM      9  C   UNL     1       2.622  -2.311  -1.051  1.00  0.00     0.310 C 
BRANCH   9  10
ATOM     10  N   UNL     1       3.414  -2.702  -2.228  1.00  0.00    -0.333 N 
ATOM     11  H   UNL     1       2.839  -2.308  -2.972  1.00  0.00     0.348 HD
BRANCH  10  12
ATOM     12  C   UNL     1       4.696  -2.024  -2.405  1.00  0.00     0.258 C 
ATOM     13  C   UNL     1       4.531  -0.560  -2.808  1.00  0.00     0.071 C 
ENDBRANCH  10  12
BRANCH  10  14
ATOM     14  C   UNL     1       3.443  -4.133  -2.539  1.00  0.00     0.258 C 
ATOM     15  C   UNL     1       4.301  -5.032  -1.658  1.00  0.00     0.071 C 
ENDBRANCH  10  14
ENDBRANCH   9  10
ENDBRANCH   7   9
ENDBRANCH   4   7
ENDBRANCH   2   3
ENDBRANCH   1   2
BRANCH   1  16
ATOM     16  C   UNL     1       6.435   1.166   1.776  1.00  0.00     0.023 C 
BRANCH  16  17
ATOM     17  C   UNL     1       6.854   1.624   0.381  1.00  0.00     0.116 C 
BRANCH  17  18
ATOM     18  N   UNL     1       6.236   2.883  -0.004  1.00  0.00    -0.352 N 
ATOM     19  C   UNL     1       6.815   4.098  -0.290  1.00  0.00     0.251 C 
ATOM     20  H   UNL     1       5.254   2.864  -0.069  1.00  0.00     0.163 HD
ATOM     21  O   UNL     1       6.119   5.095  -0.427  1.00  0.00    -0.269 OA
BRANCH  19  22
ATOM     22  C   UNL     1       8.286   4.207  -0.405  1.00  0.00     0.039 A 
ATOM     23  C   UNL     1       8.938   5.250   0.256  1.00  0.00     0.014 A 
ATOM     24  C   UNL     1       9.018   3.288  -1.161  1.00  0.00     0.014 A 
ATOM     25  C   UNL     1      10.333   5.327   0.223  1.00  0.00     0.010 A 
ATOM     26  C   UNL     1      10.411   3.322  -1.132  1.00  0.00     0.010 A 
ATOM     27  C   UNL     1      11.083   4.339  -0.436  1.00  0.00    -0.014 A 
BRANCH  27  28
ATOM     28  C   UNL     1      12.569   4.344  -0.390  1.00  0.00     0.031 A 
ATOM     29  C   UNL     1      13.369   4.515  -1.651  1.00  0.00     0.074 A 
ATOM     30  C   UNL     1      13.199   4.130   0.782  1.00  0.00     0.049 A 
ATOM     31  N   UNL     1      14.668   4.484  -1.819  1.00  0.00    -0.248 NA
ATOM     32  C   UNL     1      12.609   4.724  -2.893  1.00  0.00     0.031 C 
ATOM     33  C   UNL     1      12.539   3.905   2.068  1.00  0.00     0.029 A 
ATOM     34  N   UNL     1      14.538   4.055   1.081  1.00  0.00    -0.354 N 
ATOM     35  C   UNL     1      14.878   4.657  -3.181  1.00  0.00     0.074 A 
ATOM     36  C   UNL     1      13.573   4.739  -3.802  1.00  0.00     0.031 C 
ATOM     37  C   UNL     1      13.471   3.742   3.020  1.00  0.00     0.029 A 
ATOM     38  C   UNL     1      14.794   3.807   2.408  1.00  0.00     0.049 A 
ATOM     39  H   UNL     1      15.247   4.168   0.407  1.00  0.00     0.167 HD
ATOM     40  C   UNL     1      16.052   4.760  -3.850  1.00  0.00     0.037 A 
ATOM     41  C   UNL     1      15.963   3.642   3.056  1.00  0.00     0.037 A 
ATOM     42  C   UNL     1      17.348   4.698  -3.226  1.00  0.00     0.049 A 
ATOM     43  C   UNL     1      17.252   3.743   2.284  1.00  0.00     0.074 A 
ATOM     44  C   UNL     1      18.593   4.854  -3.810  1.00  0.00     0.029 A 
ATOM     45  N   UNL     1      17.567   4.455  -1.878  1.00  0.00    -0.354 N 
ATOM     46  N   UNL     1      17.439   3.982   1.009  1.00  0.00    -0.248 NA
ATOM     47  C   UNL     1      18.496   3.555   3.046  1.00  0.00     0.031 C 
ATOM     48  C   UNL     1      19.567   4.650  -2.827  1.00  0.00     0.029 A 
ATOM     49  C   UNL     1      18.928   4.429  -1.618  1.00  0.00     0.049 A 
ATOM     50  H   UNL     1      16.860   4.321  -1.206  1.00  0.00     0.167 HD
ATOM     51  C   UNL     1      18.814   4.008   0.822  1.00  0.00     0.074 A 
ATOM     52  C   UNL     1      19.416   3.774   2.118  1.00  0.00     0.031 C 
ATOM     53  C   UNL     1      19.516   4.207  -0.321  1.00  0.00     0.037 A 
BRANCH  40  54
ATOM     54  C   UNL     1      15.992   4.950  -5.339  1.00  0.00     0.064 A 
ATOM     55  C   UNL     1      15.528   6.144  -5.911  1.00  0.00     0.173 A 
ATOM     56  C   UNL     1      16.449   3.944  -6.204  1.00  0.00     0.173 A 
ATOM     57  F   UNL     1      15.070   7.135  -5.130  1.00  0.00    -0.203 F 
ATOM     58  C   UNL     1      15.498   6.313  -7.293  1.00  0.00     0.198 A 
ATOM     59  C   UNL     1      16.448   4.129  -7.584  1.00  0.00     0.198 A 
ATOM     60  F   UNL     1      16.910   2.785  -5.710  1.00  0.00    -0.203 F 
ATOM     61  F   UNL     1      15.005   7.444  -7.818  1.00  0.00    -0.200 F 
ATOM     62  C   UNL     1      15.966   5.309  -8.128  1.00  0.00     0.200 A 
ATOM     63  F   UNL     1      16.916   3.164  -8.388  1.00  0.00    -0.200 F 
ATOM     64  F   UNL     1      15.946   5.478  -9.457  1.00  0.00    -0.200 F 
ENDBRANCH  40  54
BRANCH  41  65
ATOM     65  C   UNL     1      15.975   3.382   4.520  1.00  0.00     0.064 A 
ATOM     66  C   UNL     1      16.482   4.334   5.416  1.00  0.00     0.173 A 
ATOM     67  C   UNL     1      15.501   2.174   5.053  1.00  0.00     0.173 A 
ATOM     68  F   UNL     1      16.966   5.496   4.955  1.00  0.00    -0.203 F 
ATOM     69  C   UNL     1      16.539   4.077   6.785  1.00  0.00     0.198 A 
ATOM     70  C   UNL     1      15.529   1.931   6.425  1.00  0.00     0.198 A 
ATOM     71  F   UNL     1      15.002   1.231   4.240  1.00  0.00    -0.203 F 
ATOM     72  F   UNL     1      17.079   4.983   7.612  1.00  0.00    -0.200 F 
ATOM     73  C   UNL     1      16.058   2.878   7.288  1.00  0.00     0.200 A 
ATOM     74  F   UNL     1      15.049   0.778   6.909  1.00  0.00    -0.200 F 
ATOM     75  F   UNL     1      16.112   2.632   8.604  1.00  0.00    -0.200 F 
ENDBRANCH  41  65
BRANCH  53  76
ATOM     76  C   UNL     1      21.014   4.226  -0.218  1.00  0.00     0.064 A 
ATOM     77  C   UNL     1      21.753   3.062   0.040  1.00  0.00     0.173 A 
ATOM     78  C   UNL     1      21.723   5.421  -0.418  1.00  0.00     0.173 A 
ATOM     79  F   UNL     1      21.124   1.896   0.254  1.00  0.00    -0.203 F 
ATOM     80  C   UNL     1      23.143   3.099   0.121  1.00  0.00     0.198 A 
ATOM     81  C   UNL     1      23.113   5.448  -0.371  1.00  0.00     0.198 A 
ATOM     82  F   UNL     1      21.065   6.562  -0.675  1.00  0.00    -0.203 F 
ATOM     83  F   UNL     1      23.825   1.985   0.420  1.00  0.00    -0.200 F 
ATOM     84  C   UNL     1      23.822   4.290  -0.093  1.00  0.00     0.200 A 
ATOM     85  F   UNL     1      23.768   6.596  -0.594  1.00  0.00    -0.200 F 
ATOM     86  F   UNL     1      25.160   4.322  -0.024  1.00  0.00    -0.200 F 
ENDBRANCH  53  76
ENDBRANCH  27  28
ENDBRANCH  19  22
ENDBRANCH  17  18
ENDBRANCH  16  17
ENDBRANCH   1  16
TORSDOF 15
