REMARK SMILES Cc1nccn1CCC[NH+]1CCC2(CC1)[C@@H](C(=O)NCCCCNC(=O)c1ccc(-c3c4nc(c(-c5c(F)c(F)c(F)c(F)c5F)c5ccc([nH]5)c(-c5c(F)c(F)c(F)c(F)c5F)c5nc(c(-c6c(F)c(F)c(F)c(F)c6F)c6ccc3[nH]6)C=C5)C=C4)cc1)CC(=O)N2C
REMARK SMILES IDX 20 1 19 2 17 3 18 4 16 6 10 7 11 8 15 9 12 11 14 12 13 13
REMARK SMILES IDX 93 14 90 15 91 16 94 17 92 18 9 19 8 20 7 21 6 22 1 23 2 24
REMARK SMILES IDX 3 25 4 26 5 27 21 28 22 29 23 30 24 31 25 32 26 34 27 35
REMARK SMILES IDX 28 36 89 37 29 38 88 39 30 40 31 41 32 42 82 43 33 44 87 45
REMARK SMILES IDX 81 46 83 47 34 48 86 49 80 50 79 51 35 53 67 54 47 55 66 56
REMARK SMILES IDX 48 57 51 58 65 59 84 60 49 61 50 62 64 64 85 65 52 66 36 67
REMARK SMILES IDX 37 68 45 69 38 70 39 71 43 72 46 73 40 74 41 75 44 76 42 77
REMARK SMILES IDX 68 78 69 79 77 80 70 81 71 82 75 83 78 84 72 85 73 86 76 87
REMARK SMILES IDX 74 88 53 89 54 90 62 91 55 92 56 93 60 94 63 95 57 96 58 97
REMARK SMILES IDX 61 98 59 99
REMARK H PARENT 19 5 10 10 24 33 83 52 51 63
REMARK Flexibility Score: inf
ROOT
ATOM      1  C   UNL     1      -1.466  -8.296   4.477  1.00  0.00     0.116 C 
ENDROOT
BRANCH   1   2
ATOM      2  N   UNL     1      -1.959  -7.864   3.185  1.00  0.00    -0.356 N 
ATOM      3  C   UNL     1      -3.055  -7.165   2.812  1.00  0.00     0.226 C 
ATOM      4  O   UNL     1      -3.201  -6.996   1.595  1.00  0.00    -0.275 OA
ATOM      5  H   UNL     1      -1.385  -8.132   2.432  1.00  0.00     0.163 HD
BRANCH   3   6
ATOM      6  C   UNL     1      -4.046  -6.510   3.771  1.00  0.00     0.114 C 
ATOM      7  N   UNL     1      -3.109  -2.266   3.806  1.00  0.00    -0.335 N 
ATOM      8  C   UNL     1      -4.325  -2.689   4.512  1.00  0.00     0.264 C 
ATOM      9  C   UNL     1      -2.001  -3.157   4.179  1.00  0.00     0.264 C 
ATOM     10  H   UNL     1      -2.843  -1.325   4.097  1.00  0.00     0.348 HD
ATOM     11  C   UNL     1      -4.724  -4.133   4.209  1.00  0.00     0.091 C 
ATOM     12  C   UNL     1      -2.255  -4.648   3.929  1.00  0.00     0.091 C 
ATOM     13  C   UNL     1      -3.601  -5.178   4.459  1.00  0.00     0.065 C 
ATOM     14  N   UNL     1      -3.561  -5.567   5.880  1.00  0.00    -0.339 N 
ATOM     15  C   UNL     1      -4.633  -7.397   4.859  1.00  0.00     0.116 C 
ATOM     16  C   UNL     1      -4.155  -6.792   6.146  1.00  0.00     0.223 C 
ATOM     17  C   UNL     1      -2.910  -4.829   6.946  1.00  0.00     0.147 C 
ATOM     18  O   UNL     1      -4.261  -7.321   7.236  1.00  0.00    -0.275 OA
BRANCH   7  19
ATOM     19  C   UNL     1      -3.336  -2.138   2.356  1.00  0.00     0.264 C 
BRANCH  19  20
ATOM     20  C   UNL     1      -2.675  -0.899   1.741  1.00  0.00     0.083 C 
BRANCH  20  21
ATOM     21  C   UNL     1      -1.175  -0.724   1.949  1.00  0.00     0.129 C 
BRANCH  21  22
ATOM     22  N   UNL     1      -0.307  -1.552   1.136  1.00  0.00    -0.335 N 
ATOM     23  C   UNL     1       1.126   0.286   0.090  1.00  0.00     0.087 C 
ATOM     24  C   UNL     1       0.770  -1.123   0.390  1.00  0.00     0.105 A 
ATOM     25  N   UNL     1       1.455  -2.155  -0.055  1.00  0.00    -0.242 NA
ATOM     26  C   UNL     1       0.788  -3.272   0.339  1.00  0.00     0.131 A 
ATOM     27  C   UNL     1      -0.319  -2.919   1.060  1.00  0.00     0.107 A 
ENDBRANCH  21  22
ENDBRANCH  20  21
ENDBRANCH  19  20
ENDBRANCH   7  19
ENDBRANCH   3   6
ENDBRANCH   1   2
BRANCH   1  28
ATOM     28  C   UNL     1      -1.671  -9.796   4.694  1.00  0.00     0.023 C 
BRANCH  28  29
ATOM     29  C   UNL     1      -0.907 -10.724   3.736  1.00  0.00     0.023 C 
BRANCH  29  30
ATOM     30  C   UNL     1       0.609 -10.575   3.755  1.00  0.00     0.116 C 
BRANCH  30  31
ATOM     31  N   UNL     1       1.190 -10.850   5.063  1.00  0.00    -0.352 N 
ATOM     32  C   UNL     1       2.495 -10.663   5.471  1.00  0.00     0.251 C 
ATOM     33  H   UNL     1       0.575 -11.216   5.739  1.00  0.00     0.163 HD
ATOM     34  O   UNL     1       2.949 -11.300   6.413  1.00  0.00    -0.269 OA
BRANCH  32  35
ATOM     35  C   UNL     1       3.347  -9.695   4.753  1.00  0.00     0.039 A 
ATOM     36  C   UNL     1       4.682  -9.999   4.491  1.00  0.00     0.014 A 
ATOM     37  C   UNL     1       2.808  -8.477   4.337  1.00  0.00     0.014 A 
ATOM     38  C   UNL     1       5.433  -9.110   3.726  1.00  0.00     0.010 A 
ATOM     39  C   UNL     1       3.517  -7.649   3.486  1.00  0.00     0.010 A 
ATOM     40  C   UNL     1       4.837  -7.951   3.184  1.00  0.00    -0.014 A 
BRANCH  40  41
ATOM     41  C   UNL     1       5.574  -7.181   2.176  1.00  0.00     0.031 A 
ATOM     42  C   UNL     1       6.208  -8.033   1.131  1.00  0.00     0.074 A 
ATOM     43  C   UNL     1       5.621  -5.836   2.046  1.00  0.00     0.049 A 
ATOM     44  N   UNL     1       7.471  -8.251   0.977  1.00  0.00    -0.248 NA
ATOM     45  C   UNL     1       5.349  -8.849   0.258  1.00  0.00     0.031 C 
ATOM     46  C   UNL     1       4.843  -4.813   2.748  1.00  0.00     0.029 A 
ATOM     47  N   UNL     1       6.360  -5.093   1.168  1.00  0.00    -0.354 N 
ATOM     48  C   UNL     1       7.589  -9.081  -0.131  1.00  0.00     0.074 A 
ATOM     49  C   UNL     1       6.258  -9.542  -0.433  1.00  0.00     0.031 C 
ATOM     50  C   UNL     1       4.978  -3.623   2.115  1.00  0.00     0.029 A 
ATOM     51  C   UNL     1       5.992  -3.754   1.082  1.00  0.00     0.049 A 
ATOM     52  H   UNL     1       7.096  -5.476   0.638  1.00  0.00     0.167 HD
ATOM     53  C   UNL     1       8.748  -9.107  -0.844  1.00  0.00     0.037 A 
ATOM     54  C   UNL     1       6.474  -2.821   0.218  1.00  0.00     0.037 A 
ATOM     55  C   UNL     1       9.851  -8.603  -0.057  1.00  0.00     0.049 A 
ATOM     56  C   UNL     1       7.777  -3.291  -0.293  1.00  0.00     0.074 A 
ATOM     57  C   UNL     1      10.378  -8.922   1.184  1.00  0.00     0.029 A 
ATOM     58  N   UNL     1      10.346  -7.353  -0.342  1.00  0.00    -0.354 N 
ATOM     59  N   UNL     1       8.860  -3.344   0.425  1.00  0.00    -0.248 NA
ATOM     60  C   UNL     1       7.762  -4.124  -1.484  1.00  0.00     0.031 C 
ATOM     61  C   UNL     1      10.691  -7.665   1.785  1.00  0.00     0.029 A 
ATOM     62  C   UNL     1      10.423  -6.673   0.845  1.00  0.00     0.049 A 
ATOM     63  H   UNL     1      10.598  -7.012  -1.231  1.00  0.00     0.167 HD
ATOM     64  C   UNL     1       9.438  -4.546   0.065  1.00  0.00     0.074 A 
ATOM     65  C   UNL     1       8.774  -4.938  -1.177  1.00  0.00     0.031 C 
ATOM     66  C   UNL     1      10.187  -5.256   0.956  1.00  0.00     0.037 A 
BRANCH  53  67
ATOM     67  C   UNL     1       8.800  -9.183  -2.353  1.00  0.00     0.064 A 
ATOM     68  C   UNL     1      10.057  -9.247  -2.988  1.00  0.00     0.173 A 
ATOM     69  C   UNL     1       7.712  -8.866  -3.196  1.00  0.00     0.173 A 
ATOM     70  F   UNL     1      11.164  -9.529  -2.284  1.00  0.00    -0.203 F 
ATOM     71  C   UNL     1      10.224  -8.908  -4.333  1.00  0.00     0.198 A 
ATOM     72  C   UNL     1       7.875  -8.582  -4.550  1.00  0.00     0.198 A 
ATOM     73  F   UNL     1       6.468  -8.702  -2.733  1.00  0.00    -0.203 F 
ATOM     74  F   UNL     1      11.457  -8.837  -4.852  1.00  0.00    -0.200 F 
ATOM     75  C   UNL     1       9.134  -8.565  -5.110  1.00  0.00     0.200 A 
ATOM     76  F   UNL     1       6.807  -8.235  -5.282  1.00  0.00    -0.200 F 
ATOM     77  F   UNL     1       9.298  -8.169  -6.379  1.00  0.00    -0.200 F 
ENDBRANCH  53  67
BRANCH  54  78
ATOM     78  C   UNL     1       5.753  -1.728  -0.469  1.00  0.00     0.064 A 
ATOM     79  C   UNL     1       6.417  -0.603  -0.982  1.00  0.00     0.173 A 
ATOM     80  C   UNL     1       4.450  -1.958  -0.939  1.00  0.00     0.173 A 
ATOM     81  F   UNL     1       7.708  -0.388  -0.688  1.00  0.00    -0.203 F 
ATOM     82  C   UNL     1       5.794   0.266  -1.885  1.00  0.00     0.198 A 
ATOM     83  C   UNL     1       3.830  -1.091  -1.843  1.00  0.00     0.198 A 
ATOM     84  F   UNL     1       3.837  -3.110  -0.634  1.00  0.00    -0.203 F 
ATOM     85  F   UNL     1       6.479   1.292  -2.412  1.00  0.00    -0.200 F 
ATOM     86  C   UNL     1       4.497   0.027  -2.304  1.00  0.00     0.200 A 
ATOM     87  F   UNL     1       2.620  -1.376  -2.343  1.00  0.00    -0.200 F 
ATOM     88  F   UNL     1       3.913   0.834  -3.201  1.00  0.00    -0.200 F 
ENDBRANCH  54  78
BRANCH  66  89
ATOM     89  C   UNL     1      10.603  -4.582   2.234  1.00  0.00     0.064 A 
ATOM     90  C   UNL     1       9.714  -4.057   3.190  1.00  0.00     0.173 A 
ATOM     91  C   UNL     1      11.967  -4.580   2.556  1.00  0.00     0.173 A 
ATOM     92  F   UNL     1       8.388  -4.107   3.009  1.00  0.00    -0.203 F 
ATOM     93  C   UNL     1      10.180  -3.514   4.388  1.00  0.00     0.198 A 
ATOM     94  C   UNL     1      12.425  -4.076   3.769  1.00  0.00     0.198 A 
ATOM     95  F   UNL     1      12.860  -5.108   1.704  1.00  0.00    -0.203 F 
ATOM     96  F   UNL     1       9.315  -3.001   5.276  1.00  0.00    -0.200 F 
ATOM     97  C   UNL     1      11.534  -3.532   4.679  1.00  0.00     0.200 A 
ATOM     98  F   UNL     1      13.730  -4.139   4.065  1.00  0.00    -0.200 F 
ATOM     99  F   UNL     1      11.978  -3.047   5.847  1.00  0.00    -0.200 F 
ENDBRANCH  66  89
ENDBRANCH  40  41
ENDBRANCH  32  35
ENDBRANCH  30  31
ENDBRANCH  29  30
ENDBRANCH  28  29
ENDBRANCH   1  28
TORSDOF 15
