REMARK SMILES C[C@H]1[C@@H](C(=O)NCCCCNC(=O)c2ccc(-c3c4nc(c(-c5c(F)c(F)c(F)c(F)c5F)c5ccc([nH]5)c(-c5c(F)c(F)c(F)c(F)c5F)c5nc(c(-c6c(F)c(F)c(F)c(F)c6F)c6ccc3[nH]6)C=C5)C=C4)cc2)CC[N@@H+]1CCO
REMARK SMILES IDX 8 1 7 2 6 3 4 4 5 5 3 7 1 8 2 9 79 10 77 11 78 12 80 14
REMARK SMILES IDX 81 15 82 16 9 18 10 19 11 20 12 21 13 23 14 24 15 25 76 26
REMARK SMILES IDX 16 27 75 28 17 29 18 30 19 31 69 32 20 33 74 34 68 35 70 36
REMARK SMILES IDX 21 37 73 38 67 39 66 40 22 42 54 43 34 44 53 45 35 46 38 47
REMARK SMILES IDX 52 48 71 49 36 50 37 51 51 53 72 54 39 55 23 56 24 57 32 58
REMARK SMILES IDX 25 59 26 60 30 61 33 62 27 63 28 64 31 65 29 66 55 67 56 68
REMARK SMILES IDX 64 69 57 70 58 71 62 72 65 73 59 74 60 75 63 76 61 77 40 78
REMARK SMILES IDX 41 79 49 80 42 81 43 82 47 83 50 84 44 85 45 86 48 87 46 88
REMARK H PARENT 6 6 79 13 82 17 11 22 70 41 38 52
REMARK Flexibility Score: inf
ROOT
ATOM      1  C   UNL     1       3.509   0.316  -1.761  1.00  0.00     0.023 C 
ENDROOT
BRANCH   1   2
ATOM      2  C   UNL     1       2.842   1.529  -1.105  1.00  0.00     0.116 C 
BRANCH   2   3
ATOM      3  N   UNL     1       1.585   1.777  -1.770  1.00  0.00    -0.356 N 
ATOM      4  C   UNL     1       0.352   1.279  -1.474  1.00  0.00     0.229 C 
ATOM      5  O   UNL     1      -0.461   1.256  -2.401  1.00  0.00    -0.275 OA
ATOM      6  H   UNL     1       1.625   2.388  -2.540  1.00  0.00     0.163 HD
BRANCH   4   7
ATOM      7  C   UNL     1      -0.034   0.944  -0.027  1.00  0.00     0.142 C 
ATOM      8  C   UNL     1       1.481  -1.246   0.113  1.00  0.00     0.076 C 
ATOM      9  C   UNL     1       0.346  -0.396   0.644  1.00  0.00     0.193 C 
ATOM     10  N   UNL     1      -0.853  -1.253   0.618  1.00  0.00    -0.330 N 
ATOM     11  C   UNL     1      -1.569   0.916   0.080  1.00  0.00     0.081 C 
ATOM     12  C   UNL     1      -1.899  -0.551  -0.111  1.00  0.00     0.263 C 
ATOM     13  H   UNL     1      -0.661  -2.110   0.100  1.00  0.00     0.348 HD
BRANCH  10  14
ATOM     14  C   UNL     1      -1.211  -1.842   1.915  1.00  0.00     0.290 C 
BRANCH  14  15
ATOM     15  C   UNL     1      -1.663  -0.900   3.047  1.00  0.00     0.217 C 
BRANCH  15  16
ATOM     16  O   UNL     1      -3.058  -0.631   2.997  1.00  0.00    -0.391 OA
ATOM     17  H   UNL     1      -3.273  -0.192   2.159  1.00  0.00     0.210 HD
ENDBRANCH  15  16
ENDBRANCH  14  15
ENDBRANCH  10  14
ENDBRANCH   4   7
ENDBRANCH   2   3
ENDBRANCH   1   2
BRANCH   1  18
ATOM     18  C   UNL     1       4.257   0.613  -3.051  1.00  0.00     0.023 C 
BRANCH  18  19
ATOM     19  C   UNL     1       5.515   1.435  -2.853  1.00  0.00     0.116 C 
BRANCH  19  20
ATOM     20  N   UNL     1       6.467   0.829  -1.929  1.00  0.00    -0.352 N 
ATOM     21  C   UNL     1       7.835   0.770  -2.035  1.00  0.00     0.251 C 
ATOM     22  H   UNL     1       6.079   0.409  -1.128  1.00  0.00     0.163 HD
ATOM     23  O   UNL     1       8.508   0.148  -1.220  1.00  0.00    -0.269 OA
BRANCH  21  24
ATOM     24  C   UNL     1       8.472   1.433  -3.185  1.00  0.00     0.039 A 
ATOM     25  C   UNL     1       9.333   0.698  -3.999  1.00  0.00     0.014 A 
ATOM     26  C   UNL     1       8.110   2.741  -3.517  1.00  0.00     0.014 A 
ATOM     27  C   UNL     1       9.769   1.251  -5.202  1.00  0.00     0.010 A 
ATOM     28  C   UNL     1       8.458   3.246  -4.759  1.00  0.00     0.010 A 
ATOM     29  C   UNL     1       9.295   2.509  -5.611  1.00  0.00    -0.014 A 
BRANCH  29  30
ATOM     30  C   UNL     1       9.676   3.094  -6.918  1.00  0.00     0.031 A 
ATOM     31  C   UNL     1      10.428   4.394  -6.952  1.00  0.00     0.074 A 
ATOM     32  C   UNL     1       9.270   2.507  -8.060  1.00  0.00     0.049 A 
ATOM     33  N   UNL     1      10.761   5.132  -7.979  1.00  0.00    -0.248 NA
ATOM     34  C   UNL     1      10.818   4.964  -5.652  1.00  0.00     0.031 C 
ATOM     35  C   UNL     1       8.472   1.283  -8.151  1.00  0.00     0.029 A 
ATOM     36  N   UNL     1       9.464   2.874  -9.368  1.00  0.00    -0.354 N 
ATOM     37  C   UNL     1      11.364   6.262  -7.446  1.00  0.00     0.074 A 
ATOM     38  C   UNL     1      11.299   6.145  -6.007  1.00  0.00     0.031 C 
ATOM     39  C   UNL     1       8.272   0.983  -9.445  1.00  0.00     0.029 A 
ATOM     40  C   UNL     1       8.898   2.009 -10.272  1.00  0.00     0.049 A 
ATOM     41  H   UNL     1       9.962   3.680  -9.633  1.00  0.00     0.167 HD
ATOM     42  C   UNL     1      11.951   7.292  -8.099  1.00  0.00     0.037 A 
ATOM     43  C   UNL     1       8.891   2.045 -11.618  1.00  0.00     0.037 A 
ATOM     44  C   UNL     1      12.066   7.372  -9.529  1.00  0.00     0.049 A 
ATOM     45  C   UNL     1       9.596   3.172 -12.321  1.00  0.00     0.074 A 
ATOM     46  C   UNL     1      12.712   8.329 -10.291  1.00  0.00     0.029 A 
ATOM     47  N   UNL     1      11.529   6.448 -10.413  1.00  0.00    -0.354 N 
ATOM     48  N   UNL     1      10.227   4.201 -11.808  1.00  0.00    -0.248 NA
ATOM     49  C   UNL     1       9.596   3.139 -13.790  1.00  0.00     0.031 C 
ATOM     50  C   UNL     1      12.542   7.997 -11.640  1.00  0.00     0.029 A 
ATOM     51  C   UNL     1      11.822   6.815 -11.715  1.00  0.00     0.049 A 
ATOM     52  H   UNL     1      11.016   5.649 -10.153  1.00  0.00     0.167 HD
ATOM     53  C   UNL     1      10.719   4.923 -12.886  1.00  0.00     0.074 A 
ATOM     54  C   UNL     1      10.326   4.207 -14.082  1.00  0.00     0.031 C 
ATOM     55  C   UNL     1      11.430   6.077 -12.887  1.00  0.00     0.037 A 
BRANCH  42  56
ATOM     56  C   UNL     1      12.527   8.398  -7.266  1.00  0.00     0.064 A 
ATOM     57  C   UNL     1      13.673   8.205  -6.479  1.00  0.00     0.173 A 
ATOM     58  C   UNL     1      11.934   9.669  -7.261  1.00  0.00     0.173 A 
ATOM     59  F   UNL     1      14.266   7.002  -6.436  1.00  0.00    -0.203 F 
ATOM     60  C   UNL     1      14.183   9.233  -5.692  1.00  0.00     0.198 A 
ATOM     61  C   UNL     1      12.465  10.704  -6.496  1.00  0.00     0.198 A 
ATOM     62  F   UNL     1      10.837   9.907  -7.997  1.00  0.00    -0.203 F 
ATOM     63  F   UNL     1      15.243   9.007  -4.904  1.00  0.00    -0.200 F 
ATOM     64  C   UNL     1      13.583  10.483  -5.705  1.00  0.00     0.200 A 
ATOM     65  F   UNL     1      11.890  11.914  -6.516  1.00  0.00    -0.200 F 
ATOM     66  F   UNL     1      14.076  11.472  -4.948  1.00  0.00    -0.200 F 
ENDBRANCH  42  56
BRANCH  43  67
ATOM     67  C   UNL     1       8.234   0.957 -12.387  1.00  0.00     0.064 A 
ATOM     68  C   UNL     1       9.000   0.020 -13.096  1.00  0.00     0.173 A 
ATOM     69  C   UNL     1       6.839   0.828 -12.432  1.00  0.00     0.173 A 
ATOM     70  F   UNL     1      10.338   0.114 -13.098  1.00  0.00    -0.203 F 
ATOM     71  C   UNL     1       8.394  -0.992 -13.838  1.00  0.00     0.198 A 
ATOM     72  C   UNL     1       6.235  -0.199 -13.155  1.00  0.00     0.198 A 
ATOM     73  F   UNL     1       6.063   1.695 -11.765  1.00  0.00    -0.203 F 
ATOM     74  F   UNL     1       9.149  -1.848 -14.540  1.00  0.00    -0.200 F 
ATOM     75  C   UNL     1       7.013  -1.103 -13.863  1.00  0.00     0.200 A 
ATOM     76  F   UNL     1       4.900  -0.311 -13.168  1.00  0.00    -0.200 F 
ATOM     77  F   UNL     1       6.430  -2.078 -14.575  1.00  0.00    -0.200 F 
ENDBRANCH  43  67
BRANCH  55  78
ATOM     78  C   UNL     1      11.855   6.617 -14.219  1.00  0.00     0.064 A 
ATOM     79  C   UNL     1      10.942   7.236 -15.084  1.00  0.00     0.173 A 
ATOM     80  C   UNL     1      13.201   6.559 -14.610  1.00  0.00     0.173 A 
ATOM     81  F   UNL     1       9.642   7.301 -14.758  1.00  0.00    -0.203 F 
ATOM     82  C   UNL     1      11.358   7.760 -16.304  1.00  0.00     0.198 A 
ATOM     83  C   UNL     1      13.618   7.108 -15.818  1.00  0.00     0.198 A 
ATOM     84  F   UNL     1      14.113   5.983 -13.812  1.00  0.00    -0.203 F 
ATOM     85  F   UNL     1      10.463   8.312 -17.134  1.00  0.00    -0.200 F 
ATOM     86  C   UNL     1      12.696   7.702 -16.666  1.00  0.00     0.200 A 
ATOM     87  F   UNL     1      14.912   7.062 -16.162  1.00  0.00    -0.200 F 
ATOM     88  F   UNL     1      13.096   8.216 -17.838  1.00  0.00    -0.200 F 
ENDBRANCH  55  78
ENDBRANCH  29  30
ENDBRANCH  21  24
ENDBRANCH  19  20
ENDBRANCH  18  19
ENDBRANCH   1  18
TORSDOF 14
