REMARK SMILES C[C@H](NC(=O)c1c(C(=O)NCCCCNC(=O)c2ccc(-c3c4nc(c(-c5c(F)c(F)c(F)c(F)c5F)c5ccc([nH]5)c(-c5c(F)c(F)c(F)c(F)c5F)c5nc(c(-c6c(F)c(F)c(F)c(F)c6F)c6ccc3[nH]6)C=C5)C=C4)cc2)cnn1C)[C@]12C[C@H]3C[C@H](C[C@H](C3)C1)C2
REMARK SMILES IDX 12 1 11 2 10 3 8 4 9 5 7 7 6 8 83 9 81 10 82 11 84 12 4 13
REMARK SMILES IDX 3 14 5 16 2 17 1 18 85 19 86 20 93 21 94 22 87 23 91 24
REMARK SMILES IDX 89 25 88 26 92 27 90 28 13 29 14 30 15 31 16 32 17 34 18 35
REMARK SMILES IDX 19 36 80 37 20 38 79 39 21 40 22 41 23 42 73 43 24 44 78 45
REMARK SMILES IDX 72 46 74 47 25 48 77 49 71 50 70 51 26 53 58 54 38 55 57 56
REMARK SMILES IDX 39 57 42 58 56 59 75 60 40 61 41 62 55 64 76 65 43 66 27 67
REMARK SMILES IDX 28 68 36 69 29 70 30 71 34 72 37 73 31 74 32 75 35 76 33 77
REMARK SMILES IDX 59 78 60 79 68 80 61 81 62 82 66 83 69 84 63 85 64 86 67 87
REMARK SMILES IDX 65 88 44 89 45 90 53 91 46 92 47 93 51 94 54 95 48 96 49 97
REMARK SMILES IDX 52 98 50 99
REMARK H PARENT 10 6 3 15 15 33 74 52 42 63
REMARK Flexibility Score: inf
ROOT
ATOM      1  C   UNL     1      -1.059  -1.271   2.857  1.00  0.00     0.023 C 
ENDROOT
BRANCH   1   2
ATOM      2  C   UNL     1       0.228  -1.801   2.236  1.00  0.00     0.116 C 
BRANCH   2   3
ATOM      3  N   UNL     1       0.225  -3.221   2.044  1.00  0.00    -0.352 N 
ATOM      4  C   UNL     1       0.663  -4.011   1.017  1.00  0.00     0.255 C 
ATOM      5  O   UNL     1       0.444  -5.216   1.182  1.00  0.00    -0.269 OA
ATOM      6  H   UNL     1      -0.167  -3.724   2.794  1.00  0.00     0.163 HD
BRANCH   4   7
ATOM      7  C   UNL     1       1.359  -3.567  -0.194  1.00  0.00     0.090 A 
ATOM      8  C   UNL     1       1.893  -2.374  -0.704  1.00  0.00     0.138 A 
ATOM      9  N   UNL     1       2.691  -2.780  -1.758  1.00  0.00    -0.262 N 
ATOM     10  C   UNL     1       1.690  -4.523  -1.202  1.00  0.00     0.149 A 
ATOM     11  N   UNL     1       2.448  -4.029  -2.175  1.00  0.00    -0.180 NA
ATOM     12  C   UNL     1       3.771  -2.062  -2.399  1.00  0.00     0.174 C 
BRANCH   8  13
ATOM     13  C   UNL     1       1.943  -1.034  -0.194  1.00  0.00     0.270 C 
ATOM     14  N   UNL     1       1.187  -0.017  -0.739  1.00  0.00    -0.348 N 
ATOM     15  H   UNL     1       1.235   0.804  -0.198  1.00  0.00     0.164 HD
ATOM     16  O   UNL     1       2.655  -0.739   0.767  1.00  0.00    -0.267 OA
BRANCH  14  17
ATOM     17  C   UNL     1       0.323   0.158  -1.928  1.00  0.00     0.085 C 
ATOM     18  C   UNL     1       0.811  -0.606  -3.154  1.00  0.00     0.031 C 
BRANCH  17  19
ATOM     19  C   UNL     1      -1.245   0.145  -1.688  1.00  0.00    -0.009 C 
ATOM     20  C   UNL     1      -1.691  -0.741  -0.508  1.00  0.00     0.012 C 
ATOM     21  C   UNL     1      -2.028  -0.325  -2.949  1.00  0.00     0.012 C 
ATOM     22  C   UNL     1      -1.728   1.594  -1.352  1.00  0.00     0.012 C 
ATOM     23  C   UNL     1      -3.219  -0.708  -0.294  1.00  0.00    -0.010 C 
ATOM     24  C   UNL     1      -3.548  -0.273  -2.739  1.00  0.00    -0.010 C 
ATOM     25  C   UNL     1      -3.255   1.653  -1.149  1.00  0.00    -0.010 C 
ATOM     26  C   UNL     1      -3.654   0.734   0.015  1.00  0.00     0.007 C 
ATOM     27  C   UNL     1      -3.926  -1.187  -1.566  1.00  0.00     0.007 C 
ATOM     28  C   UNL     1      -3.959   1.173  -2.427  1.00  0.00     0.007 C 
ENDBRANCH  17  19
ENDBRANCH  14  17
ENDBRANCH   8  13
ENDBRANCH   4   7
ENDBRANCH   2   3
ENDBRANCH   1   2
BRANCH   1  29
ATOM     29  C   UNL     1      -1.227  -1.526   4.342  1.00  0.00     0.023 C 
BRANCH  29  30
ATOM     30  C   UNL     1      -0.052  -1.082   5.199  1.00  0.00     0.116 C 
BRANCH  30  31
ATOM     31  N   UNL     1       0.325   0.314   5.006  1.00  0.00    -0.352 N 
ATOM     32  C   UNL     1       0.328   1.370   5.890  1.00  0.00     0.251 C 
ATOM     33  H   UNL     1       0.625   0.538   4.095  1.00  0.00     0.163 HD
ATOM     34  O   UNL     1       0.577   2.502   5.504  1.00  0.00    -0.269 OA
BRANCH  32  35
ATOM     35  C   UNL     1      -0.022   1.130   7.306  1.00  0.00     0.039 A 
ATOM     36  C   UNL     1      -0.923   1.991   7.937  1.00  0.00     0.014 A 
ATOM     37  C   UNL     1       0.486   0.024   7.987  1.00  0.00     0.014 A 
ATOM     38  C   UNL     1      -1.403   1.671   9.208  1.00  0.00     0.010 A 
ATOM     39  C   UNL     1      -0.082  -0.356   9.195  1.00  0.00     0.010 A 
ATOM     40  C   UNL     1      -1.036   0.460   9.818  1.00  0.00    -0.014 A 
BRANCH  40  41
ATOM     41  C   UNL     1      -1.644   0.019  11.100  1.00  0.00     0.031 A 
ATOM     42  C   UNL     1      -0.771  -0.241  12.297  1.00  0.00     0.074 A 
ATOM     43  C   UNL     1      -2.967  -0.232  11.160  1.00  0.00     0.049 A 
ATOM     44  N   UNL     1      -1.097  -0.718  13.472  1.00  0.00    -0.248 NA
ATOM     45  C   UNL     1       0.667   0.032  12.141  1.00  0.00     0.031 C 
ATOM     46  C   UNL     1      -3.910  -0.095  10.048  1.00  0.00     0.029 A 
ATOM     47  N   UNL     1      -3.749  -0.668  12.201  1.00  0.00    -0.354 N 
ATOM     48  C   UNL     1       0.093  -0.821  14.179  1.00  0.00     0.074 A 
ATOM     49  C   UNL     1       1.156  -0.421  13.284  1.00  0.00     0.031 C 
ATOM     50  C   UNL     1      -5.144  -0.408  10.473  1.00  0.00     0.029 A 
ATOM     51  C   UNL     1      -5.077  -0.803  11.876  1.00  0.00     0.049 A 
ATOM     52  H   UNL     1      -3.391  -0.865  13.097  1.00  0.00     0.167 HD
ATOM     53  C   UNL     1       0.281  -1.184  15.470  1.00  0.00     0.037 A 
ATOM     54  C   UNL     1      -6.122  -1.202  12.626  1.00  0.00     0.037 A 
ATOM     55  C   UNL     1      -0.782  -1.539  16.371  1.00  0.00     0.049 A 
ATOM     56  C   UNL     1      -5.890  -1.566  14.067  1.00  0.00     0.074 A 
ATOM     57  C   UNL     1      -0.704  -1.857  17.715  1.00  0.00     0.029 A 
ATOM     58  N   UNL     1      -2.121  -1.615  16.017  1.00  0.00    -0.354 N 
ATOM     59  N   UNL     1      -4.769  -1.587  14.746  1.00  0.00    -0.248 NA
ATOM     60  C   UNL     1      -7.072  -1.952  14.850  1.00  0.00     0.031 C 
ATOM     61  C   UNL     1      -1.993  -2.158  18.168  1.00  0.00     0.029 A 
ATOM     62  C   UNL     1      -2.878  -1.986  17.116  1.00  0.00     0.049 A 
ATOM     63  H   UNL     1      -2.480  -1.433  15.119  1.00  0.00     0.167 HD
ATOM     64  C   UNL     1      -5.112  -1.961  16.038  1.00  0.00     0.074 A 
ATOM     65  C   UNL     1      -6.549  -2.139  16.053  1.00  0.00     0.031 C 
ATOM     66  C   UNL     1      -4.309  -2.146  17.114  1.00  0.00     0.037 A 
BRANCH  53  67
ATOM     67  C   UNL     1       1.689  -1.191  15.990  1.00  0.00     0.064 A 
ATOM     68  C   UNL     1       2.400   0.002  16.192  1.00  0.00     0.173 A 
ATOM     69  C   UNL     1       2.322  -2.397  16.323  1.00  0.00     0.173 A 
ATOM     70  F   UNL     1       1.845   1.182  15.876  1.00  0.00    -0.203 F 
ATOM     71  C   UNL     1       3.703  -0.015  16.682  1.00  0.00     0.198 A 
ATOM     72  C   UNL     1       3.614  -2.408  16.842  1.00  0.00     0.198 A 
ATOM     73  F   UNL     1       1.685  -3.565  16.152  1.00  0.00    -0.203 F 
ATOM     74  F   UNL     1       4.379   1.134  16.820  1.00  0.00    -0.200 F 
ATOM     75  C   UNL     1       4.306  -1.218  17.014  1.00  0.00     0.200 A 
ATOM     76  F   UNL     1       4.192  -3.571  17.173  1.00  0.00    -0.200 F 
ATOM     77  F   UNL     1       5.557  -1.232  17.494  1.00  0.00    -0.200 F 
ENDBRANCH  53  67
BRANCH  54  78
ATOM     78  C   UNL     1      -7.488  -1.245  12.041  1.00  0.00     0.064 A 
ATOM     79  C   UNL     1      -8.470  -0.329  12.444  1.00  0.00     0.173 A 
ATOM     80  C   UNL     1      -7.845  -2.204  11.083  1.00  0.00     0.173 A 
ATOM     81  F   UNL     1      -8.182   0.596  13.372  1.00  0.00    -0.203 F 
ATOM     82  C   UNL     1      -9.764  -0.387  11.931  1.00  0.00     0.198 A 
ATOM     83  C   UNL     1      -9.131  -2.244  10.549  1.00  0.00     0.198 A 
ATOM     84  F   UNL     1      -6.940  -3.099  10.659  1.00  0.00    -0.203 F 
ATOM     85  F   UNL     1     -10.696   0.469  12.371  1.00  0.00    -0.200 F 
ATOM     86  C   UNL     1     -10.092  -1.342  10.980  1.00  0.00     0.200 A 
ATOM     87  F   UNL     1      -9.441  -3.159   9.621  1.00  0.00    -0.200 F 
ATOM     88  F   UNL     1     -11.337  -1.398  10.486  1.00  0.00    -0.200 F 
ENDBRANCH  54  78
BRANCH  66  89
ATOM     89  C   UNL     1      -4.971  -2.525  18.405  1.00  0.00     0.064 A 
ATOM     90  C   UNL     1      -5.507  -3.805  18.608  1.00  0.00     0.173 A 
ATOM     91  C   UNL     1      -5.036  -1.608  19.465  1.00  0.00     0.173 A 
ATOM     92  F   UNL     1      -5.482  -4.712  17.619  1.00  0.00    -0.203 F 
ATOM     93  C   UNL     1      -6.110  -4.144  19.816  1.00  0.00     0.198 A 
ATOM     94  C   UNL     1      -5.614  -1.960  20.681  1.00  0.00     0.198 A 
ATOM     95  F   UNL     1      -4.531  -0.373  19.323  1.00  0.00    -0.203 F 
ATOM     96  F   UNL     1      -6.660  -5.356  19.971  1.00  0.00    -0.200 F 
ATOM     97  C   UNL     1      -6.157  -3.224  20.853  1.00  0.00     0.200 A 
ATOM     98  F   UNL     1      -5.646  -1.074  21.686  1.00  0.00    -0.200 F 
ATOM     99  F   UNL     1      -6.733  -3.554  22.017  1.00  0.00    -0.200 F 
ENDBRANCH  66  89
ENDBRANCH  40  41
ENDBRANCH  32  35
ENDBRANCH  30  31
ENDBRANCH  29  30
ENDBRANCH   1  29
TORSDOF 14
