REMARK SMILES CC[C@@H](C)NC(=O)c1cccc(NC(=O)[C@H]2CCCC[C@@H]2C(=O)NCCCCNC(=O)c2ccc(-c3c4nc(c(-c5c(F)c(F)c(F)c(F)c5F)c5ccc([nH]5)c(-c5c(F)c(F)c(F)c(F)c5F)c5nc(c(-c6c(F)c(F)c(F)c(F)c6F)c6ccc3[nH]6)C=C5)C=C4)cc2)c1
REMARK SMILES IDX 25 1 24 2 22 3 23 4 21 6 16 7 17 8 18 9 20 10 19 11 14 12
REMARK SMILES IDX 13 13 15 15 12 16 8 17 9 18 95 19 10 20 11 21 6 22 5 23 7 25
REMARK SMILES IDX 3 26 4 27 2 28 1 29 26 30 27 31 28 32 29 33 30 34 31 36
REMARK SMILES IDX 32 37 33 38 94 39 34 40 93 41 35 42 36 43 37 44 87 45 38 46
REMARK SMILES IDX 92 47 86 48 88 49 39 50 91 51 85 52 84 53 40 55 72 56 52 57
REMARK SMILES IDX 71 58 53 59 56 60 70 61 89 62 54 63 55 64 69 66 90 67 57 68
REMARK SMILES IDX 41 69 42 70 50 71 43 72 44 73 48 74 51 75 45 76 46 77 49 78
REMARK SMILES IDX 47 79 73 80 74 81 82 82 75 83 76 84 80 85 83 86 77 87 78 88
REMARK SMILES IDX 81 89 79 90 58 91 59 92 67 93 60 94 61 95 65 96 68 97 62 98
REMARK SMILES IDX 63 99 66 100 64 101
REMARK H PARENT 24 5 13 14 5 24 29 35 88 54 56 65
REMARK Flexibility Score: inf
ROOT
ATOM      1  C   UNL     1       5.543   2.378   4.949  1.00  0.00     0.116 C 
ENDROOT
BRANCH   1   2
ATOM      2  N   UNL     1       5.921   1.408   5.962  1.00  0.00    -0.356 N 
ATOM      3  C   UNL     1       6.987   0.600   6.195  1.00  0.00     0.223 C 
ATOM      4  O   UNL     1       6.915  -0.035   7.254  1.00  0.00    -0.275 OA
ATOM      5  H   UNL     1       5.228   1.312   6.655  1.00  0.00     0.163 HD
BRANCH   3   6
ATOM      6  C   UNL     1       8.255   0.514   5.318  1.00  0.00     0.091 C 
ATOM      7  C   UNL     1       8.020   0.494   3.802  1.00  0.00     0.091 C 
ATOM      8  C   UNL     1       7.443  -0.875   3.365  1.00  0.00     0.014 C 
ATOM      9  C   UNL     1       8.225  -2.091   3.861  1.00  0.00     0.001 C 
ATOM     10  C   UNL     1       9.127  -0.691   5.742  1.00  0.00     0.014 C 
ATOM     11  C   UNL     1       8.511  -2.028   5.353  1.00  0.00     0.001 C 
BRANCH   7  12
ATOM     12  C   UNL     1       9.259   0.906   2.999  1.00  0.00     0.228 C 
ATOM     13  N   UNL     1       9.731   2.183   2.883  1.00  0.00    -0.326 N 
ATOM     14  H   UNL     1      10.492   2.218   2.259  1.00  0.00     0.169 HD
ATOM     15  O   UNL     1       9.871   0.063   2.331  1.00  0.00    -0.274 OA
BRANCH  13  16
ATOM     16  C   UNL     1       9.448   3.467   3.396  1.00  0.00     0.041 A 
ATOM     17  C   UNL     1       9.868   5.870   3.210  1.00  0.00     0.041 A 
ATOM     18  C   UNL     1       9.001   6.127   4.271  1.00  0.00     0.014 A 
ATOM     19  C   UNL     1      10.116   4.548   2.800  1.00  0.00     0.040 A 
ATOM     20  C   UNL     1       8.368   5.068   4.896  1.00  0.00     0.003 A 
ATOM     21  C   UNL     1       8.598   3.760   4.455  1.00  0.00     0.026 A 
BRANCH  17  22
ATOM     22  C   UNL     1      10.550   7.037   2.612  1.00  0.00     0.251 C 
ATOM     23  N   UNL     1      10.584   7.224   1.258  1.00  0.00    -0.350 N 
ATOM     24  H   UNL     1      11.091   8.016   0.967  1.00  0.00     0.164 HD
ATOM     25  O   UNL     1      11.052   7.878   3.355  1.00  0.00    -0.269 OA
BRANCH  23  26
ATOM     26  C   UNL     1       9.994   6.448   0.170  1.00  0.00     0.079 C 
ATOM     27  C   UNL     1      11.127   5.867  -0.673  1.00  0.00     0.031 C 
BRANCH  26  28
ATOM     28  C   UNL     1       9.041   7.336  -0.643  1.00  0.00     0.021 C 
ATOM     29  C   UNL     1       8.290   6.571  -1.724  1.00  0.00     0.006 C 
ENDBRANCH  26  28
ENDBRANCH  23  26
ENDBRANCH  17  22
ENDBRANCH  13  16
ENDBRANCH   7  12
ENDBRANCH   3   6
ENDBRANCH   1   2
BRANCH   1  30
ATOM     30  C   UNL     1       4.304   1.957   4.170  1.00  0.00     0.023 C 
BRANCH  30  31
ATOM     31  C   UNL     1       2.990   2.202   4.906  1.00  0.00     0.023 C 
BRANCH  31  32
ATOM     32  C   UNL     1       2.772   3.632   5.392  1.00  0.00     0.116 C 
BRANCH  32  33
ATOM     33  N   UNL     1       2.909   4.637   4.351  1.00  0.00    -0.352 N 
ATOM     34  C   UNL     1       2.146   5.774   4.149  1.00  0.00     0.251 C 
ATOM     35  H   UNL     1       3.639   4.490   3.707  1.00  0.00     0.163 HD
ATOM     36  O   UNL     1       2.332   6.490   3.183  1.00  0.00    -0.269 OA
BRANCH  34  37
ATOM     37  C   UNL     1       1.064   6.070   5.111  1.00  0.00     0.039 A 
ATOM     38  C   UNL     1      -0.233   6.245   4.625  1.00  0.00     0.014 A 
ATOM     39  C   UNL     1       1.323   6.080   6.481  1.00  0.00     0.014 A 
ATOM     40  C   UNL     1      -1.293   6.341   5.530  1.00  0.00     0.010 A 
ATOM     41  C   UNL     1       0.260   6.099   7.377  1.00  0.00     0.010 A 
ATOM     42  C   UNL     1      -1.058   6.219   6.909  1.00  0.00    -0.014 A 
BRANCH  42  43
ATOM     43  C   UNL     1      -2.177   6.195   7.882  1.00  0.00     0.031 A 
ATOM     44  C   UNL     1      -2.300   7.283   8.909  1.00  0.00     0.074 A 
ATOM     45  C   UNL     1      -3.030   5.153   7.893  1.00  0.00     0.049 A 
ATOM     46  N   UNL     1      -3.151   7.397   9.898  1.00  0.00    -0.248 NA
ATOM     47  C   UNL     1      -1.314   8.373   8.836  1.00  0.00     0.031 C 
ATOM     48  C   UNL     1      -2.980   4.007   6.983  1.00  0.00     0.029 A 
ATOM     49  N   UNL     1      -4.101   4.883   8.708  1.00  0.00    -0.354 N 
ATOM     50  C   UNL     1      -2.791   8.556  10.571  1.00  0.00     0.074 A 
ATOM     51  C   UNL     1      -1.613   9.080   9.914  1.00  0.00     0.031 C 
ATOM     52  C   UNL     1      -3.991   3.171   7.272  1.00  0.00     0.029 A 
ATOM     53  C   UNL     1      -4.738   3.703   8.408  1.00  0.00     0.049 A 
ATOM     54  H   UNL     1      -4.387   5.478   9.438  1.00  0.00     0.167 HD
ATOM     55  C   UNL     1      -3.404   9.145  11.625  1.00  0.00     0.037 A 
ATOM     56  C   UNL     1      -5.804   3.118   8.986  1.00  0.00     0.037 A 
ATOM     57  C   UNL     1      -4.594   8.638  12.256  1.00  0.00     0.049 A 
ATOM     58  C   UNL     1      -6.471   3.796  10.152  1.00  0.00     0.074 A 
ATOM     59  C   UNL     1      -5.328   9.194  13.288  1.00  0.00     0.029 A 
ATOM     60  N   UNL     1      -5.225   7.452  11.908  1.00  0.00    -0.354 N 
ATOM     61  N   UNL     1      -6.163   4.927  10.738  1.00  0.00    -0.248 NA
ATOM     62  C   UNL     1      -7.638   3.117  10.732  1.00  0.00     0.031 C 
ATOM     63  C   UNL     1      -6.384   8.327  13.589  1.00  0.00     0.029 A 
ATOM     64  C   UNL     1      -6.331   7.251  12.718  1.00  0.00     0.049 A 
ATOM     65  H   UNL     1      -4.930   6.844  11.193  1.00  0.00     0.167 HD
ATOM     66  C   UNL     1      -7.109   5.109  11.737  1.00  0.00     0.074 A 
ATOM     67  C   UNL     1      -8.011   3.977  11.669  1.00  0.00     0.031 C 
ATOM     68  C   UNL     1      -7.221   6.122  12.630  1.00  0.00     0.037 A 
BRANCH  55  69
ATOM     69  C   UNL     1      -2.796  10.411  12.154  1.00  0.00     0.064 A 
ATOM     70  C   UNL     1      -2.844  11.608  11.423  1.00  0.00     0.173 A 
ATOM     71  C   UNL     1      -2.172  10.432  13.410  1.00  0.00     0.173 A 
ATOM     72  F   UNL     1      -3.417  11.636  10.210  1.00  0.00    -0.203 F 
ATOM     73  C   UNL     1      -2.259  12.771  11.915  1.00  0.00     0.198 A 
ATOM     74  C   UNL     1      -1.615  11.605  13.912  1.00  0.00     0.198 A 
ATOM     75  F   UNL     1      -2.102   9.316  14.150  1.00  0.00    -0.203 F 
ATOM     76  F   UNL     1      -2.269  13.888  11.174  1.00  0.00    -0.200 F 
ATOM     77  C   UNL     1      -1.650  12.771  13.161  1.00  0.00     0.200 A 
ATOM     78  F   UNL     1      -1.035  11.607  15.120  1.00  0.00    -0.200 F 
ATOM     79  F   UNL     1      -1.089  13.892  13.633  1.00  0.00    -0.200 F 
ENDBRANCH  55  69
BRANCH  56  80
ATOM     80  C   UNL     1      -6.330   1.838   8.448  1.00  0.00     0.064 A 
ATOM     81  C   UNL     1      -7.550   1.802   7.757  1.00  0.00     0.173 A 
ATOM     82  C   UNL     1      -5.633   0.632   8.607  1.00  0.00     0.173 A 
ATOM     83  F   UNL     1      -8.262   2.927   7.598  1.00  0.00    -0.203 F 
ATOM     84  C   UNL     1      -8.060   0.605   7.260  1.00  0.00     0.198 A 
ATOM     85  C   UNL     1      -6.133  -0.560   8.088  1.00  0.00     0.198 A 
ATOM     86  F   UNL     1      -4.460   0.616   9.256  1.00  0.00    -0.203 F 
ATOM     87  F   UNL     1      -9.247   0.592   6.638  1.00  0.00    -0.200 F 
ATOM     88  C   UNL     1      -7.349  -0.575   7.421  1.00  0.00     0.200 A 
ATOM     89  F   UNL     1      -5.437  -1.696   8.235  1.00  0.00    -0.200 F 
ATOM     90  F   UNL     1      -7.838  -1.725   6.939  1.00  0.00    -0.200 F 
ENDBRANCH  56  80
BRANCH  68  91
ATOM     91  C   UNL     1      -8.376   6.070  13.585  1.00  0.00     0.064 A 
ATOM     92  C   UNL     1      -8.399   5.169  14.660  1.00  0.00     0.173 A 
ATOM     93  C   UNL     1      -9.452   6.959  13.447  1.00  0.00     0.173 A 
ATOM     94  F   UNL     1      -7.401   4.288  14.824  1.00  0.00    -0.203 F 
ATOM     95  C   UNL     1      -9.470   5.147  15.550  1.00  0.00     0.198 A 
ATOM     96  C   UNL     1     -10.508   6.952  14.354  1.00  0.00     0.198 A 
ATOM     97  F   UNL     1      -9.474   7.843  12.438  1.00  0.00    -0.203 F 
ATOM     98  F   UNL     1      -9.492   4.250  16.545  1.00  0.00    -0.200 F 
ATOM     99  C   UNL     1     -10.519   6.042  15.400  1.00  0.00     0.200 A 
ATOM    100  F   UNL     1     -11.515   7.825  14.214  1.00  0.00    -0.200 F 
ATOM    101  F   UNL     1     -11.545   6.024  16.262  1.00  0.00    -0.200 F 
ENDBRANCH  68  91
ENDBRANCH  42  43
ENDBRANCH  34  37
ENDBRANCH  32  33
ENDBRANCH  31  32
ENDBRANCH  30  31
ENDBRANCH   1  30
TORSDOF 16
