REMARK SMILES O=C(C[C@@H]([NH2+]Cc1ccccc1)C(=O)/N=c1/[nH]c(-c2ccccc2)cs1)NCCCCNC(=O)c1ccc(-c2c3nc(c(-c4c(F)c(F)c(F)c(F)c4F)c4ccc([nH]4)c(-c4c(F)c(F)c(F)c(F)c4F)c4nc(c(-c5c(F)c(F)c(F)c(F)c5F)c5ccc2[nH]5)C=C4)C=C3)cc1
REMARK SMILES IDX 28 1 27 2 1 3 2 4 3 6 4 7 5 8 6 11 7 12 8 13 12 14 9 15
REMARK SMILES IDX 11 16 10 17 13 18 14 19 15 20 16 21 17 22 26 23 18 24 25 26
REMARK SMILES IDX 19 27 20 28 24 29 21 30 23 31 22 32 29 33 30 34 31 35 32 36
REMARK SMILES IDX 33 37 34 39 35 40 36 41 97 42 37 43 96 44 38 45 39 46 40 47
REMARK SMILES IDX 90 48 41 49 95 50 89 51 91 52 42 53 94 54 88 55 87 56 43 58
REMARK SMILES IDX 75 59 55 60 74 61 56 62 59 63 73 64 92 65 57 66 58 67 72 69
REMARK SMILES IDX 93 70 60 71 44 72 45 73 53 74 46 75 47 76 51 77 54 78 48 79
REMARK SMILES IDX 49 80 52 81 50 82 76 83 77 84 85 85 78 86 79 87 83 88 86 89
REMARK SMILES IDX 80 90 81 91 84 92 82 93 61 94 62 95 70 96 63 97 64 98 68 99
REMARK SMILES IDX 71 100 65 101 66 102 69 103 67 104
REMARK H PARENT 27 5 5 9 5 10 17 25 32 38 91 57 59 68
REMARK Flexibility Score: inf
ROOT
ATOM      1  C   UNL     1       2.031  -1.695  -2.219  1.00  0.00     0.116 C 
ENDROOT
BRANCH   1   2
ATOM      2  N   UNL     1       2.702  -0.978  -1.161  1.00  0.00    -0.356 N 
ATOM      3  O   UNL     1       0.865  -0.694   0.194  1.00  0.00    -0.275 OA
ATOM      4  C   UNL     1       2.036  -0.469  -0.072  1.00  0.00     0.226 C 
ATOM      5  H   UNL     1       3.676  -0.847  -1.223  1.00  0.00     0.163 HD
BRANCH   4   6
ATOM      6  C   UNL     1       2.892   0.469   0.729  1.00  0.00     0.175 C 
BRANCH   6   7
ATOM      7  C   UNL     1       3.822  -0.206   1.732  1.00  0.00     0.284 C 
BRANCH   7   8
ATOM      8  N   UNL     1       4.829  -1.089   1.065  1.00  0.00    -0.332 N 
ATOM      9  H   UNL     1       5.392  -0.521   0.433  1.00  0.00     0.347 HD
ATOM     10  H   UNL     1       4.317  -1.816   0.565  1.00  0.00     0.347 HD
BRANCH   8  11
ATOM     11  C   UNL     1       5.727  -1.758   2.026  1.00  0.00     0.297 C 
BRANCH  11  12
ATOM     12  C   UNL     1       5.067  -2.920   2.732  1.00  0.00     0.006 A 
ATOM     13  C   UNL     1       4.276  -2.712   3.872  1.00  0.00     0.009 A 
ATOM     14  C   UNL     1       5.194  -4.224   2.231  1.00  0.00     0.009 A 
ATOM     15  C   UNL     1       3.587  -3.770   4.465  1.00  0.00     0.001 A 
ATOM     16  C   UNL     1       4.529  -5.287   2.844  1.00  0.00     0.001 A 
ATOM     17  C   UNL     1       3.714  -5.057   3.951  1.00  0.00     0.000 A 
ENDBRANCH  11  12
ENDBRANCH   8  11
ENDBRANCH   7   8
BRANCH   7  18
ATOM     18  C   UNL     1       4.488   0.909   2.594  1.00  0.00     0.307 C 
ATOM     19  O   UNL     1       4.157   1.082   3.763  1.00  0.00    -0.265 OA
BRANCH  18  20
ATOM     20  N   UNL     1       5.495   1.631   1.986  1.00  0.00    -0.180 NA
ATOM     21  C   UNL     1       5.196   2.785   1.496  1.00  0.00     0.190 A 
ATOM     22  N   UNL     1       6.043   3.608   0.794  1.00  0.00    -0.330 N 
ATOM     23  S   UNL     1       3.586   3.565   1.489  1.00  0.00    -0.105 S 
ATOM     24  C   UNL     1       5.452   4.661   0.120  1.00  0.00     0.058 A 
ATOM     25  H   UNL     1       7.015   3.457   0.773  1.00  0.00     0.169 HD
ATOM     26  C   UNL     1       4.122   4.731   0.314  1.00  0.00     0.095 A 
BRANCH  24  27
ATOM     27  C   UNL     1       6.208   5.612  -0.707  1.00  0.00    -0.001 A 
ATOM     28  C   UNL     1       7.394   5.266  -1.369  1.00  0.00     0.010 A 
ATOM     29  C   UNL     1       5.757   6.941  -0.808  1.00  0.00     0.010 A 
ATOM     30  C   UNL     1       8.101   6.224  -2.106  1.00  0.00     0.001 A 
ATOM     31  C   UNL     1       6.457   7.893  -1.548  1.00  0.00     0.001 A 
ATOM     32  C   UNL     1       7.633   7.534  -2.194  1.00  0.00     0.000 A 
ENDBRANCH  24  27
ENDBRANCH  18  20
ENDBRANCH   7  18
ENDBRANCH   6   7
ENDBRANCH   4   6
ENDBRANCH   1   2
BRANCH   1  33
ATOM     33  C   UNL     1       2.441  -1.149  -3.586  1.00  0.00     0.023 C 
BRANCH  33  34
ATOM     34  C   UNL     1       3.942  -1.229  -3.885  1.00  0.00     0.023 C 
BRANCH  34  35
ATOM     35  C   UNL     1       4.561  -2.610  -3.709  1.00  0.00     0.116 C 
BRANCH  35  36
ATOM     36  N   UNL     1       3.968  -3.599  -4.594  1.00  0.00    -0.352 N 
ATOM     37  C   UNL     1       4.575  -4.450  -5.484  1.00  0.00     0.251 C 
ATOM     38  H   UNL     1       2.987  -3.668  -4.549  1.00  0.00     0.163 HD
ATOM     39  O   UNL     1       3.898  -5.094  -6.278  1.00  0.00    -0.269 OA
BRANCH  37  40
ATOM     40  C   UNL     1       6.049  -4.571  -5.506  1.00  0.00     0.039 A 
ATOM     41  C   UNL     1       6.703  -4.586  -6.740  1.00  0.00     0.014 A 
ATOM     42  C   UNL     1       6.783  -4.676  -4.322  1.00  0.00     0.014 A 
ATOM     43  C   UNL     1       8.098  -4.639  -6.784  1.00  0.00     0.010 A 
ATOM     44  C   UNL     1       8.175  -4.649  -4.365  1.00  0.00     0.010 A 
ATOM     45  C   UNL     1       8.847  -4.631  -5.597  1.00  0.00    -0.014 A 
BRANCH  45  46
ATOM     46  C   UNL     1      10.333  -4.596  -5.626  1.00  0.00     0.031 A 
ATOM     47  C   UNL     1      11.132  -5.736  -5.057  1.00  0.00     0.074 A 
ATOM     48  C   UNL     1      10.963  -3.509  -6.113  1.00  0.00     0.049 A 
ATOM     49  N   UNL     1      12.430  -5.859  -4.938  1.00  0.00    -0.248 NA
ATOM     50  C   UNL     1      10.371  -6.877  -4.526  1.00  0.00     0.031 C 
ATOM     51  C   UNL     1      10.302  -2.322  -6.657  1.00  0.00     0.029 A 
ATOM     52  N   UNL     1      12.302  -3.222  -6.222  1.00  0.00    -0.354 N 
ATOM     53  C   UNL     1      12.639  -7.080  -4.310  1.00  0.00     0.074 A 
ATOM     54  C   UNL     1      11.334  -7.635  -4.023  1.00  0.00     0.031 C 
ATOM     55  C   UNL     1      11.235  -1.448  -7.066  1.00  0.00     0.029 A 
ATOM     56  C   UNL     1      12.558  -1.990  -6.774  1.00  0.00     0.049 A 
ATOM     57  H   UNL     1      13.011  -3.841  -5.933  1.00  0.00     0.167 HD
ATOM     58  C   UNL     1      13.812  -7.693  -4.020  1.00  0.00     0.037 A 
ATOM     59  C   UNL     1      13.727  -1.364  -7.008  1.00  0.00     0.037 A 
ATOM     60  C   UNL     1      15.108  -7.146  -4.325  1.00  0.00     0.049 A 
ATOM     61  C   UNL     1      15.015  -2.057  -6.652  1.00  0.00     0.074 A 
ATOM     62  C   UNL     1      16.353  -7.717  -4.128  1.00  0.00     0.029 A 
ATOM     63  N   UNL     1      15.328  -5.895  -4.885  1.00  0.00    -0.354 N 
ATOM     64  N   UNL     1      15.201  -3.244  -6.127  1.00  0.00    -0.248 NA
ATOM     65  C   UNL     1      16.259  -1.324  -6.928  1.00  0.00     0.031 C 
ATOM     66  C   UNL     1      17.327  -6.788  -4.510  1.00  0.00     0.029 A 
ATOM     67  C   UNL     1      16.689  -5.665  -5.009  1.00  0.00     0.049 A 
ATOM     68  H   UNL     1      14.621  -5.265  -5.155  1.00  0.00     0.167 HD
ATOM     69  C   UNL     1      16.576  -3.413  -6.041  1.00  0.00     0.074 A 
ATOM     70  C   UNL     1      17.178  -2.213  -6.583  1.00  0.00     0.031 C 
ATOM     71  C   UNL     1      17.277  -4.469  -5.558  1.00  0.00     0.037 A 
BRANCH  58  72
ATOM     72  C   UNL     1      13.750  -9.026  -3.329  1.00  0.00     0.064 A 
ATOM     73  C   UNL     1      13.264 -10.173  -3.976  1.00  0.00     0.173 A 
ATOM     74  C   UNL     1      14.223  -9.168  -2.015  1.00  0.00     0.173 A 
ATOM     75  F   UNL     1      12.791 -10.092  -5.229  1.00  0.00    -0.203 F 
ATOM     76  C   UNL     1      13.224 -11.403  -3.323  1.00  0.00     0.198 A 
ATOM     77  C   UNL     1      14.215 -10.406  -1.378  1.00  0.00     0.198 A 
ATOM     78  F   UNL     1      14.706  -8.107  -1.351  1.00  0.00    -0.203 F 
ATOM     79  F   UNL     1      12.705 -12.472  -3.943  1.00  0.00    -0.200 F 
ATOM     80  C   UNL     1      13.707 -11.520  -2.029  1.00  0.00     0.200 A 
ATOM     81  F   UNL     1      14.697 -10.521  -0.133  1.00  0.00    -0.200 F 
ATOM     82  F   UNL     1      13.676 -12.706  -1.405  1.00  0.00    -0.200 F 
ENDBRANCH  58  72
BRANCH  59  83
ATOM     83  C   UNL     1      13.738  -0.012  -7.628  1.00  0.00     0.064 A 
ATOM     84  C   UNL     1      14.248   0.183  -8.919  1.00  0.00     0.173 A 
ATOM     85  C   UNL     1      13.255   1.112  -6.942  1.00  0.00     0.173 A 
ATOM     86  F   UNL     1      14.741  -0.856  -9.609  1.00  0.00    -0.203 F 
ATOM     87  C   UNL     1      14.300   1.454  -9.490  1.00  0.00     0.198 A 
ATOM     88  C   UNL     1      13.276   2.377  -7.526  1.00  0.00     0.198 A 
ATOM     89  F   UNL     1      12.751   0.981  -5.706  1.00  0.00    -0.203 F 
ATOM     90  F   UNL     1      14.843   1.619 -10.704  1.00  0.00    -0.200 F 
ATOM     91  C   UNL     1      13.808   2.549  -8.795  1.00  0.00     0.200 A 
ATOM     92  F   UNL     1      12.785   3.429  -6.858  1.00  0.00    -0.200 F 
ATOM     93  F   UNL     1      13.855   3.770  -9.344  1.00  0.00    -0.200 F 
ENDBRANCH  59  83
BRANCH  71  94
ATOM     94  C   UNL     1      18.776  -4.396  -5.633  1.00  0.00     0.064 A 
ATOM     95  C   UNL     1      19.516  -3.516  -4.829  1.00  0.00     0.173 A 
ATOM     96  C   UNL     1      19.484  -5.247  -6.496  1.00  0.00     0.173 A 
ATOM     97  F   UNL     1      18.889  -2.671  -3.998  1.00  0.00    -0.203 F 
ATOM     98  C   UNL     1      20.906  -3.471  -4.907  1.00  0.00     0.198 A 
ATOM     99  C   UNL     1      20.875  -5.225  -6.545  1.00  0.00     0.198 A 
ATOM    100  F   UNL     1      18.827  -6.113  -7.282  1.00  0.00    -0.203 F 
ATOM    101  F   UNL     1      21.588  -2.585  -4.170  1.00  0.00    -0.200 F 
ATOM    102  C   UNL     1      21.584  -4.331  -5.758  1.00  0.00     0.200 A 
ATOM    103  F   UNL     1      21.529  -6.069  -7.356  1.00  0.00    -0.200 F 
ATOM    104  F   UNL     1      22.922  -4.292  -5.826  1.00  0.00    -0.200 F 
ENDBRANCH  71  94
ENDBRANCH  45  46
ENDBRANCH  37  40
ENDBRANCH  35  36
ENDBRANCH  34  35
ENDBRANCH  33  34
ENDBRANCH   1  33
TORSDOF 18
