REMARK SMILES Cc1ccc(S(=O)(=O)N2CCN(C(=O)[C@H]3CCCC[C@H]3C(=O)NCCCCNC(=O)c3ccc(-c4c5nc(c(-c6c(F)c(F)c(F)c(F)c6F)c6ccc([nH]6)c(-c6c(F)c(F)c(F)c(F)c6F)c6nc(c(-c7c(F)c(F)c(F)c(F)c7F)c7ccc4[nH]7)C=C6)C=C5)cc3)CC2)cc1C
REMARK SMILES IDX 25 1 24 2 23 3 21 4 22 5 20 7 15 8 16 9 17 10 19 11 18 12
REMARK SMILES IDX 13 13 9 14 10 15 95 16 11 17 94 18 12 19 14 20 6 21 7 22
REMARK SMILES IDX 8 23 5 24 1 25 2 26 3 27 97 28 4 29 96 30 98 31 26 32 27 33
REMARK SMILES IDX 28 34 29 35 30 37 31 38 32 39 93 40 33 41 92 42 34 43 35 44
REMARK SMILES IDX 36 45 86 46 37 47 91 48 85 49 87 50 38 51 90 52 84 53 83 54
REMARK SMILES IDX 39 56 71 57 51 58 70 59 52 60 55 61 69 62 88 63 53 64 54 65
REMARK SMILES IDX 68 67 89 68 56 69 40 70 41 71 49 72 42 73 43 74 47 75 50 76
REMARK SMILES IDX 44 77 45 78 48 79 46 80 72 81 73 82 81 83 74 84 75 85 79 86
REMARK SMILES IDX 82 87 76 88 77 89 80 90 78 91 57 92 58 93 66 94 59 95 60 96
REMARK SMILES IDX 64 97 67 98 61 99 62 100 65 101 63 102
REMARK H PARENT 23 6 28 36 87 55 55 66
REMARK Flexibility Score: inf
ROOT
ATOM      1  C   UNL     1      -5.202   7.597   2.992  1.00  0.00     0.023 C 
ENDROOT
BRANCH   1   2
ATOM      2  C   UNL     1      -5.028   7.495   1.479  1.00  0.00     0.116 C 
BRANCH   2   3
ATOM      3  N   UNL     1      -3.920   6.640   1.115  1.00  0.00    -0.356 N 
ATOM      4  C   UNL     1      -3.874   5.485   0.398  1.00  0.00     0.223 C 
ATOM      5  O   UNL     1      -2.789   4.895   0.363  1.00  0.00    -0.275 OA
ATOM      6  H   UNL     1      -3.045   6.948   1.444  1.00  0.00     0.163 HD
BRANCH   4   7
ATOM      7  C   UNL     1      -5.065   4.925  -0.395  1.00  0.00     0.091 C 
ATOM      8  C   UNL     1      -6.073   4.023   0.376  1.00  0.00     0.091 C 
ATOM      9  C   UNL     1      -7.286   3.637  -0.482  1.00  0.00     0.014 C 
ATOM     10  C   UNL     1      -7.881   4.813  -1.241  1.00  0.00     0.001 C 
ATOM     11  C   UNL     1      -5.660   5.957  -1.371  1.00  0.00     0.014 C 
ATOM     12  C   UNL     1      -6.838   5.417  -2.168  1.00  0.00     0.001 C 
BRANCH   8  13
ATOM     13  C   UNL     1      -6.378   4.428   1.819  1.00  0.00     0.226 C 
ATOM     14  N   UNL     1      -9.677   4.875   4.317  1.00  0.00    -0.194 NA
ATOM     15  C   UNL     1      -9.391   6.029   3.462  1.00  0.00     0.124 C 
ATOM     16  C   UNL     1      -9.594   3.579   3.622  1.00  0.00     0.124 C 
ATOM     17  C   UNL     1      -8.008   5.866   2.839  1.00  0.00     0.136 C 
ATOM     18  C   UNL     1      -8.234   3.396   2.931  1.00  0.00     0.136 C 
ATOM     19  N   UNL     1      -7.715   4.572   2.211  1.00  0.00    -0.340 N 
ATOM     20  O   UNL     1      -5.480   4.513   2.656  1.00  0.00    -0.275 OA
BRANCH  14  21
ATOM     21  S   UNL     1      -9.984   5.028   5.954  1.00  0.00     0.243 S 
ATOM     22  O   UNL     1     -10.574   3.785   6.414  1.00  0.00    -0.207 OA
ATOM     23  O   UNL     1     -10.657   6.294   6.141  1.00  0.00    -0.207 OA
BRANCH  21  24
ATOM     24  C   UNL     1      -8.419   5.171   6.797  1.00  0.00     0.082 A 
ATOM     25  C   UNL     1      -4.712   5.429   9.006  1.00  0.00     0.044 C 
ATOM     26  C   UNL     1      -6.019   5.377   8.264  1.00  0.00    -0.048 A 
ATOM     27  C   UNL     1      -6.022   4.925   6.935  1.00  0.00     0.005 A 
ATOM     28  C   UNL     1      -7.241   5.738   8.865  1.00  0.00    -0.047 A 
ATOM     29  C   UNL     1      -7.211   4.816   6.211  1.00  0.00     0.022 A 
ATOM     30  C   UNL     1      -8.431   5.644   8.116  1.00  0.00     0.025 A 
ATOM     31  C   UNL     1      -7.341   6.224  10.286  1.00  0.00     0.044 C 
ENDBRANCH  21  24
ENDBRANCH  14  21
ENDBRANCH   8  13
ENDBRANCH   4   7
ENDBRANCH   2   3
ENDBRANCH   1   2
BRANCH   1  32
ATOM     32  C   UNL     1      -4.322   8.603   3.702  1.00  0.00     0.023 C 
BRANCH  32  33
ATOM     33  C   UNL     1      -4.610  10.046   3.326  1.00  0.00     0.116 C 
BRANCH  33  34
ATOM     34  N   UNL     1      -6.014  10.431   3.470  1.00  0.00    -0.352 N 
ATOM     35  C   UNL     1      -6.579  11.449   4.203  1.00  0.00     0.251 C 
ATOM     36  H   UNL     1      -6.652   9.877   2.965  1.00  0.00     0.163 HD
ATOM     37  O   UNL     1      -7.798  11.553   4.290  1.00  0.00    -0.269 OA
BRANCH  35  38
ATOM     38  C   UNL     1      -5.696  12.398   4.904  1.00  0.00     0.039 A 
ATOM     39  C   UNL     1      -5.950  12.727   6.237  1.00  0.00     0.014 A 
ATOM     40  C   UNL     1      -4.569  12.896   4.253  1.00  0.00     0.014 A 
ATOM     41  C   UNL     1      -5.012  13.480   6.945  1.00  0.00     0.010 A 
ATOM     42  C   UNL     1      -3.581  13.524   4.990  1.00  0.00     0.010 A 
ATOM     43  C   UNL     1      -3.797  13.838   6.340  1.00  0.00    -0.014 A 
BRANCH  43  44
ATOM     44  C   UNL     1      -2.739  14.585   7.061  1.00  0.00     0.031 A 
ATOM     45  C   UNL     1      -2.278  15.908   6.511  1.00  0.00     0.074 A 
ATOM     46  C   UNL     1      -2.121  14.034   8.123  1.00  0.00     0.049 A 
ATOM     47  N   UNL     1      -1.248  16.637   6.852  1.00  0.00    -0.248 NA
ATOM     48  C   UNL     1      -3.048  16.452   5.378  1.00  0.00     0.031 C 
ATOM     49  C   UNL     1      -2.425  12.723   8.701  1.00  0.00     0.029 A 
ATOM     50  N   UNL     1      -1.089  14.504   8.895  1.00  0.00    -0.354 N 
ATOM     51  C   UNL     1      -1.221  17.691   5.947  1.00  0.00     0.074 A 
ATOM     52  C   UNL     1      -2.293  17.472   5.003  1.00  0.00     0.031 C 
ATOM     53  C   UNL     1      -1.616  12.506   9.752  1.00  0.00     0.029 A 
ATOM     54  C   UNL     1      -0.716  13.645   9.899  1.00  0.00     0.049 A 
ATOM     55  H   UNL     1      -0.657  15.375   8.744  1.00  0.00     0.167 HD
ATOM     56  C   UNL     1      -0.400  18.766   5.928  1.00  0.00     0.037 A 
ATOM     57  C   UNL     1       0.247  13.770  10.832  1.00  0.00     0.037 A 
ATOM     58  C   UNL     1       0.614  19.013   6.915  1.00  0.00     0.049 A 
ATOM     59  C   UNL     1       1.082  15.022  10.850  1.00  0.00     0.074 A 
ATOM     60  C   UNL     1       1.470  20.094   7.027  1.00  0.00     0.029 A 
ATOM     61  N   UNL     1       0.885  18.171   7.984  1.00  0.00    -0.354 N 
ATOM     62  N   UNL     1       1.074  16.032  10.014  1.00  0.00    -0.248 NA
ATOM     63  C   UNL     1       2.047  15.160  11.949  1.00  0.00     0.031 C 
ATOM     64  C   UNL     1       2.266  19.902   8.162  1.00  0.00     0.029 A 
ATOM     65  C   UNL     1       1.883  18.717   8.771  1.00  0.00     0.049 A 
ATOM     66  H   UNL     1       0.435  17.313   8.156  1.00  0.00     0.167 HD
ATOM     67  C   UNL     1       2.008  16.936  10.499  1.00  0.00     0.074 A 
ATOM     68  C   UNL     1       2.554  16.361  11.711  1.00  0.00     0.031 C 
ATOM     69  C   UNL     1       2.385  18.133   9.988  1.00  0.00     0.037 A 
BRANCH  56  70
ATOM     70  C   UNL     1      -0.595  19.762   4.823  1.00  0.00     0.064 A 
ATOM     71  C   UNL     1      -1.738  20.575   4.764  1.00  0.00     0.173 A 
ATOM     72  C   UNL     1       0.367  19.911   3.814  1.00  0.00     0.173 A 
ATOM     73  F   UNL     1      -2.698  20.457   5.694  1.00  0.00    -0.203 F 
ATOM     74  C   UNL     1      -1.929  21.471   3.716  1.00  0.00     0.198 A 
ATOM     75  C   UNL     1       0.189  20.832   2.785  1.00  0.00     0.198 A 
ATOM     76  F   UNL     1       1.480  19.161   3.823  1.00  0.00    -0.203 F 
ATOM     77  F   UNL     1      -3.058  22.189   3.649  1.00  0.00    -0.200 F 
ATOM     78  C   UNL     1      -0.962  21.604   2.731  1.00  0.00     0.200 A 
ATOM     79  F   UNL     1       1.128  20.967   1.838  1.00  0.00    -0.200 F 
ATOM     80  F   UNL     1      -1.146  22.468   1.724  1.00  0.00    -0.200 F 
ENDBRANCH  56  70
BRANCH  57  81
ATOM     81  C   UNL     1       0.438  12.708  11.853  1.00  0.00     0.064 A 
ATOM     82  C   UNL     1       0.061  12.921  13.186  1.00  0.00     0.173 A 
ATOM     83  C   UNL     1       0.997  11.465  11.524  1.00  0.00     0.173 A 
ATOM     84  F   UNL     1      -0.464  14.101  13.552  1.00  0.00    -0.203 F 
ATOM     85  C   UNL     1       0.259  11.943  14.158  1.00  0.00     0.198 A 
ATOM     86  C   UNL     1       1.172  10.477  12.492  1.00  0.00     0.198 A 
ATOM     87  F   UNL     1       1.365  11.207  10.261  1.00  0.00    -0.203 F 
ATOM     88  F   UNL     1      -0.069  12.191  15.433  1.00  0.00    -0.200 F 
ATOM     89  C   UNL     1       0.811  10.720  13.809  1.00  0.00     0.200 A 
ATOM     90  F   UNL     1       1.692   9.291  12.149  1.00  0.00    -0.200 F 
ATOM     91  F   UNL     1       1.001   9.778  14.743  1.00  0.00    -0.200 F 
ENDBRANCH  57  81
BRANCH  69  92
ATOM     92  C   UNL     1       3.397  18.920  10.762  1.00  0.00     0.064 A 
ATOM     93  C   UNL     1       4.752  18.564  10.772  1.00  0.00     0.173 A 
ATOM     94  C   UNL     1       3.009  20.073  11.460  1.00  0.00     0.173 A 
ATOM     95  F   UNL     1       5.165  17.462  10.129  1.00  0.00    -0.203 F 
ATOM     96  C   UNL     1       5.683  19.325  11.474  1.00  0.00     0.198 A 
ATOM     97  C   UNL     1       3.946  20.845  12.140  1.00  0.00     0.198 A 
ATOM     98  F   UNL     1       1.723  20.456  11.473  1.00  0.00    -0.203 F 
ATOM     99  F   UNL     1       6.968  18.946  11.503  1.00  0.00    -0.200 F 
ATOM    100  C   UNL     1       5.280  20.467  12.151  1.00  0.00     0.200 A 
ATOM    101  F   UNL     1       3.558  21.954  12.785  1.00  0.00    -0.200 F 
ATOM    102  F   UNL     1       6.180  21.201  12.819  1.00  0.00    -0.200 F 
ENDBRANCH  69  92
ENDBRANCH  43  44
ENDBRANCH  35  38
ENDBRANCH  33  34
ENDBRANCH  32  33
ENDBRANCH   1  32
TORSDOF 14
