REMARK SMILES Cc1ccc(S(=O)(=O)n2cc(C(=O)C(=O)N[C@@H](Cc3cnc[nH]3)C(=O)NCCCCNC(=O)c3ccc(-c4c5nc(c(-c6c(F)c(F)c(F)c(F)c6F)c6ccc([nH]6)c(-c6c(F)c(F)c(F)c(F)c6F)c6nc(c(-c7c(F)c(F)c(F)c(F)c7F)c7ccc4[nH]7)C=C6)C=C5)cc3)c3ccccc32)cc1
REMARK SMILES IDX 27 1 26 2 24 3 25 4 17 6 16 7 14 8 15 9 12 11 13 12 11 13
REMARK SMILES IDX 9 14 10 15 102 16 97 17 101 18 98 19 100 20 99 21 6 22 7 23
REMARK SMILES IDX 8 24 5 25 1 26 2 27 3 28 104 29 4 30 103 31 18 32 19 33
REMARK SMILES IDX 20 34 23 35 21 36 22 37 28 39 29 40 30 41 31 42 32 43 33 45
REMARK SMILES IDX 34 46 35 47 96 48 36 49 95 50 37 51 38 52 39 53 89 54 40 55
REMARK SMILES IDX 94 56 88 57 90 58 41 59 93 60 87 61 86 62 42 64 74 65 54 66
REMARK SMILES IDX 73 67 55 68 58 69 72 70 91 71 56 72 57 73 71 75 92 76 59 77
REMARK SMILES IDX 43 78 44 79 52 80 45 81 46 82 50 83 53 84 47 85 48 86 51 87
REMARK SMILES IDX 49 88 75 89 76 90 84 91 77 92 78 93 82 94 85 95 79 96 80 97
REMARK SMILES IDX 83 98 81 99 60 100 61 101 69 102 62 103 63 104 67 105 70 106
REMARK SMILES IDX 64 107 65 108 68 109 66 110
REMARK H PARENT 26 5 16 10 23 38 31 44 90 63 58 74
REMARK Flexibility Score: inf
ROOT
ATOM      1  C   UNL     1      -8.211   6.004   6.006  1.00  0.00     0.116 C 
ENDROOT
BRANCH   1   2
ATOM      2  N   UNL     1      -7.245   6.847   5.333  1.00  0.00    -0.354 N 
ATOM      3  C   UNL     1      -7.246   7.233   4.018  1.00  0.00     0.242 C 
ATOM      4  O   UNL     1      -6.839   8.377   3.781  1.00  0.00    -0.273 OA
ATOM      5  H   UNL     1      -6.502   7.181   5.885  1.00  0.00     0.163 HD
BRANCH   3   6
ATOM      6  C   UNL     1      -7.821   6.356   2.872  1.00  0.00     0.177 C 
BRANCH   6   7
ATOM      7  N   UNL     1      -7.592   4.918   3.083  1.00  0.00    -0.337 N 
ATOM      8  C   UNL     1      -6.738   4.034   2.469  1.00  0.00     0.293 C 
ATOM      9  O   UNL     1      -6.583   2.935   2.991  1.00  0.00    -0.265 OA
ATOM     10  H   UNL     1      -8.149   4.518   3.789  1.00  0.00     0.164 HD
BRANCH   8  11
ATOM     11  C   UNL     1      -6.030   4.388   1.141  1.00  0.00     0.252 C 
ATOM     12  O   UNL     1      -6.230   5.494   0.649  1.00  0.00    -0.283 OA
BRANCH  11  13
ATOM     13  C   UNL     1      -5.179   3.426   0.432  1.00  0.00     0.054 A 
ATOM     14  N   UNL     1      -4.122   1.572  -0.214  1.00  0.00    -0.240 N 
ATOM     15  C   UNL     1      -4.893   2.119   0.778  1.00  0.00     0.117 A 
ATOM     16  C   UNL     1      -3.862   2.490  -1.210  1.00  0.00     0.065 A 
ATOM     17  C   UNL     1      -4.484   3.678  -0.804  1.00  0.00     0.012 A 
ATOM     18  C   UNL     1      -3.131   2.411  -2.409  1.00  0.00     0.028 A 
ATOM     19  C   UNL     1      -4.346   4.823  -1.619  1.00  0.00     0.011 A 
ATOM     20  C   UNL     1      -3.006   3.566  -3.186  1.00  0.00     0.002 A 
ATOM     21  C   UNL     1      -3.600   4.759  -2.797  1.00  0.00     0.001 A 
BRANCH  14  22
ATOM     22  S   UNL     1      -3.536  -0.025  -0.177  1.00  0.00     0.268 S 
ATOM     23  O   UNL     1      -3.847  -0.574  -1.477  1.00  0.00    -0.201 OA
ATOM     24  O   UNL     1      -4.054  -0.608   1.053  1.00  0.00    -0.201 OA
BRANCH  22  25
ATOM     25  C   UNL     1      -1.773   0.041  -0.017  1.00  0.00     0.088 A 
ATOM     26  C   UNL     1       2.525  -0.045   0.029  1.00  0.00     0.044 C 
ATOM     27  C   UNL     1       1.025  -0.010   0.041  1.00  0.00    -0.051 A 
ATOM     28  C   UNL     1       0.300  -1.204  -0.045  1.00  0.00     0.005 A 
ATOM     29  C   UNL     1       0.335   1.205   0.136  1.00  0.00     0.005 A 
ATOM     30  C   UNL     1      -1.094  -1.181  -0.080  1.00  0.00     0.022 A 
ATOM     31  C   UNL     1      -1.062   1.234   0.121  1.00  0.00     0.022 A 
ENDBRANCH  22  25
ENDBRANCH  14  22
ENDBRANCH  11  13
ENDBRANCH   8  11
ENDBRANCH   6   7
BRANCH   6  32
ATOM     32  C   UNL     1      -9.271   6.691   2.457  1.00  0.00     0.090 C 
BRANCH  32  33
ATOM     33  C   UNL     1     -10.293   6.308   3.467  1.00  0.00     0.037 A 
ATOM     34  C   UNL     1     -10.874   5.095   3.773  1.00  0.00     0.134 A 
ATOM     35  N   UNL     1     -10.798   7.183   4.398  1.00  0.00    -0.348 N 
ATOM     36  N   UNL     1     -11.511   5.168   4.979  1.00  0.00    -0.245 NA
ATOM     37  C   UNL     1     -11.396   6.417   5.355  1.00  0.00     0.196 A 
ATOM     38  H   UNL     1     -10.740   8.166   4.378  1.00  0.00     0.167 HD
ENDBRANCH  32  33
ENDBRANCH   6  32
ENDBRANCH   3   6
ENDBRANCH   1   2
BRANCH   1  39
ATOM     39  C   UNL     1      -7.662   5.008   7.016  1.00  0.00     0.023 C 
BRANCH  39  40
ATOM     40  C   UNL     1      -7.262   5.596   8.360  1.00  0.00     0.023 C 
BRANCH  40  41
ATOM     41  C   UNL     1      -8.369   6.318   9.113  1.00  0.00     0.116 C 
BRANCH  41  42
ATOM     42  N   UNL     1      -9.355   5.489   9.782  1.00  0.00    -0.352 N 
ATOM     43  C   UNL     1     -10.346   5.859  10.680  1.00  0.00     0.251 C 
ATOM     44  H   UNL     1      -9.315   4.528   9.568  1.00  0.00     0.163 HD
ATOM     45  O   UNL     1     -10.926   4.990  11.325  1.00  0.00    -0.269 OA
BRANCH  43  46
ATOM     46  C   UNL     1     -10.852   7.261  10.728  1.00  0.00     0.039 A 
ATOM     47  C   UNL     1     -12.220   7.447  10.987  1.00  0.00     0.014 A 
ATOM     48  C   UNL     1     -10.110   8.316  10.218  1.00  0.00     0.014 A 
ATOM     49  C   UNL     1     -12.875   8.554  10.460  1.00  0.00     0.010 A 
ATOM     50  C   UNL     1     -10.762   9.307   9.540  1.00  0.00     0.010 A 
ATOM     51  C   UNL     1     -12.148   9.393   9.629  1.00  0.00    -0.014 A 
BRANCH  51  52
ATOM     52  C   UNL     1     -12.706  10.440   8.811  1.00  0.00     0.031 A 
ATOM     53  C   UNL     1     -12.674  11.801   9.344  1.00  0.00     0.074 A 
ATOM     54  C   UNL     1     -13.020  10.140   7.535  1.00  0.00     0.049 A 
ATOM     55  N   UNL     1     -13.527  12.701   9.019  1.00  0.00    -0.248 NA
ATOM     56  C   UNL     1     -11.702  12.250  10.340  1.00  0.00     0.031 C 
ATOM     57  C   UNL     1     -13.210  11.021   6.391  1.00  0.00     0.029 A 
ATOM     58  N   UNL     1     -13.313   8.869   7.036  1.00  0.00    -0.354 N 
ATOM     59  C   UNL     1     -13.030  13.896   9.481  1.00  0.00     0.074 A 
ATOM     60  C   UNL     1     -11.979  13.556  10.408  1.00  0.00     0.031 C 
ATOM     61  C   UNL     1     -13.833  10.336   5.412  1.00  0.00     0.029 A 
ATOM     62  C   UNL     1     -14.196   9.035   5.955  1.00  0.00     0.049 A 
ATOM     63  H   UNL     1     -12.965   8.014   7.379  1.00  0.00     0.167 HD
ATOM     64  C   UNL     1     -13.429  15.040   8.866  1.00  0.00     0.037 A 
ATOM     65  C   UNL     1     -15.470   8.545   6.041  1.00  0.00     0.037 A 
ATOM     66  C   UNL     1     -14.297  14.720   7.738  1.00  0.00     0.049 A 
ATOM     67  C   UNL     1     -16.486   9.658   6.075  1.00  0.00     0.074 A 
ATOM     68  C   UNL     1     -14.012  14.536   6.394  1.00  0.00     0.029 A 
ATOM     69  N   UNL     1     -15.533  14.126   7.964  1.00  0.00    -0.354 N 
ATOM     70  N   UNL     1     -16.226  10.855   6.524  1.00  0.00    -0.248 NA
ATOM     71  C   UNL     1     -17.850   9.522   5.580  1.00  0.00     0.031 C 
ATOM     72  C   UNL     1     -15.087  13.825   5.810  1.00  0.00     0.029 A 
ATOM     73  C   UNL     1     -16.025  13.577   6.796  1.00  0.00     0.049 A 
ATOM     74  H   UNL     1     -15.992  14.101   8.834  1.00  0.00     0.167 HD
ATOM     75  C   UNL     1     -17.336  11.644   6.376  1.00  0.00     0.074 A 
ATOM     76  C   UNL     1     -18.324  10.764   5.781  1.00  0.00     0.031 C 
ATOM     77  C   UNL     1     -17.339  12.957   6.752  1.00  0.00     0.037 A 
BRANCH  64  78
ATOM     78  C   UNL     1     -12.771  16.378   9.065  1.00  0.00     0.064 A 
ATOM     79  C   UNL     1     -12.677  17.298   7.999  1.00  0.00     0.173 A 
ATOM     80  C   UNL     1     -12.220  16.814  10.284  1.00  0.00     0.173 A 
ATOM     81  F   UNL     1     -13.205  17.038   6.797  1.00  0.00    -0.203 F 
ATOM     82  C   UNL     1     -12.027  18.525   8.123  1.00  0.00     0.198 A 
ATOM     83  C   UNL     1     -11.533  18.027  10.398  1.00  0.00     0.198 A 
ATOM     84  F   UNL     1     -12.362  16.094  11.406  1.00  0.00    -0.203 F 
ATOM     85  F   UNL     1     -11.972  19.354   7.072  1.00  0.00    -0.200 F 
ATOM     86  C   UNL     1     -11.436  18.882   9.317  1.00  0.00     0.200 A 
ATOM     87  F   UNL     1     -10.968  18.366  11.565  1.00  0.00    -0.200 F 
ATOM     88  F   UNL     1     -10.794  20.052   9.428  1.00  0.00    -0.200 F 
ENDBRANCH  64  78
BRANCH  65  89
ATOM     89  C   UNL     1     -15.543   7.293   6.854  1.00  0.00     0.064 A 
ATOM     90  C   UNL     1     -14.961   6.126   6.320  1.00  0.00     0.173 A 
ATOM     91  C   UNL     1     -15.727   7.344   8.242  1.00  0.00     0.173 A 
ATOM     92  F   UNL     1     -14.793   6.017   4.993  1.00  0.00    -0.203 F 
ATOM     93  C   UNL     1     -14.438   5.133   7.150  1.00  0.00     0.198 A 
ATOM     94  C   UNL     1     -15.204   6.346   9.068  1.00  0.00     0.198 A 
ATOM     95  F   UNL     1     -16.288   8.420   8.813  1.00  0.00    -0.203 F 
ATOM     96  F   UNL     1     -13.794   4.083   6.623  1.00  0.00    -0.200 F 
ATOM     97  C   UNL     1     -14.514   5.272   8.525  1.00  0.00     0.200 A 
ATOM     98  F   UNL     1     -15.289   6.472  10.400  1.00  0.00    -0.200 F 
ATOM     99  F   UNL     1     -13.895   4.394   9.326  1.00  0.00    -0.200 F 
ENDBRANCH  65  89
BRANCH  77 100
ATOM    100  C   UNL     1     -18.556  13.823   6.991  1.00  0.00     0.064 A 
ATOM    101  C   UNL     1     -19.845  13.319   7.219  1.00  0.00     0.173 A 
ATOM    102  C   UNL     1     -18.424  15.228   7.154  1.00  0.00     0.173 A 
ATOM    103  F   UNL     1     -20.092  12.004   7.242  1.00  0.00    -0.203 F 
ATOM    104  C   UNL     1     -20.929  14.154   7.500  1.00  0.00     0.198 A 
ATOM    105  C   UNL     1     -19.489  16.047   7.517  1.00  0.00     0.198 A 
ATOM    106  F   UNL     1     -17.250  15.857   7.001  1.00  0.00    -0.203 F 
ATOM    107  F   UNL     1     -22.150  13.622   7.644  1.00  0.00    -0.200 F 
ATOM    108  C   UNL     1     -20.749  15.514   7.663  1.00  0.00     0.200 A 
ATOM    109  F   UNL     1     -19.277  17.351   7.743  1.00  0.00    -0.200 F 
ATOM    110  F   UNL     1     -21.783  16.302   7.982  1.00  0.00    -0.200 F 
ENDBRANCH  77 100
ENDBRANCH  51  52
ENDBRANCH  43  46
ENDBRANCH  41  42
ENDBRANCH  40  41
ENDBRANCH  39  40
ENDBRANCH   1  39
TORSDOF 18
