REMARK SMILES COc1ccc(-c2noc(CC(=O)NCCCCNC(=O)c3ccc(-c4c5nc(c(-c6c(F)c(F)c(F)c(F)c6F)c6ccc([nH]6)c(-c6c(F)c(F)c(F)c(F)c6F)c6nc(c(-c7c(F)c(F)c(F)c(F)c7F)c7ccc4[nH]7)C=C6)C=C5)cc3)c2-c2ccc(OC)cc2)cc1
REMARK SMILES IDX 16 1 15 2 14 3 12 4 13 5 11 7 10 8 7 9 8 10 85 11 9 12 6 13
REMARK SMILES IDX 3 14 4 15 95 16 5 17 94 18 2 19 1 20 86 21 87 22 93 23 88 24
REMARK SMILES IDX 92 25 89 26 90 27 91 28 17 29 18 30 19 31 20 32 21 34 22 35
REMARK SMILES IDX 23 36 84 37 24 38 83 39 25 40 26 41 27 42 77 43 28 44 82 45
REMARK SMILES IDX 76 46 78 47 29 48 81 49 75 50 74 51 30 53 62 54 42 55 61 56
REMARK SMILES IDX 43 57 46 58 60 59 79 60 44 61 45 62 59 64 80 65 47 66 31 67
REMARK SMILES IDX 32 68 40 69 33 70 34 71 38 72 41 73 35 74 36 75 39 76 37 77
REMARK SMILES IDX 63 78 64 79 72 80 65 81 66 82 70 83 73 84 67 85 68 86 71 87
REMARK SMILES IDX 69 88 48 89 49 90 57 91 50 92 51 93 55 94 58 95 52 96 53 97
REMARK SMILES IDX 56 98 54 99
REMARK H PARENT 14 6 19 33 78 52 46 63
REMARK Flexibility Score: inf
ROOT
ATOM      1  C   UNL     1       1.236   6.820  -6.465  1.00  0.00     0.023 C 
ENDROOT
BRANCH   1   2
ATOM      2  C   UNL     1       2.626   7.281  -6.903  1.00  0.00     0.116 C 
BRANCH   2   3
ATOM      3  N   UNL     1       2.894   8.634  -6.463  1.00  0.00    -0.356 N 
ATOM      4  C   UNL     1       3.603   9.054  -5.372  1.00  0.00     0.227 C 
ATOM      5  O   UNL     1       3.654  10.265  -5.147  1.00  0.00    -0.275 OA
ATOM      6  H   UNL     1       2.515   9.348  -7.025  1.00  0.00     0.163 HD
BRANCH   4   7
ATOM      7  C   UNL     1       4.385   8.061  -4.533  1.00  0.00     0.179 C 
BRANCH   7   8
ATOM      8  C   UNL     1       3.504   7.162  -3.749  1.00  0.00     0.154 A 
ATOM      9  C   UNL     1       2.300   5.622  -2.703  1.00  0.00     0.122 A 
ATOM     10  N   UNL     1       1.836   6.808  -2.287  1.00  0.00    -0.079 NA
ATOM     11  C   UNL     1       3.356   5.794  -3.645  1.00  0.00     0.053 A 
ATOM     12  O   UNL     1       2.605   7.765  -2.922  1.00  0.00    -0.360 OA
BRANCH   9  13
ATOM     13  C   UNL     1       1.752   4.363  -2.220  1.00  0.00     0.005 A 
ATOM     14  C   UNL     1       0.766   1.864  -1.415  1.00  0.00     0.118 A 
ATOM     15  C   UNL     1      -0.083   2.800  -2.010  1.00  0.00     0.047 A 
ATOM     16  C   UNL     1       2.114   2.171  -1.235  1.00  0.00     0.047 A 
ATOM     17  C   UNL     1       0.401   4.053  -2.399  1.00  0.00     0.014 A 
ATOM     18  C   UNL     1       2.604   3.417  -1.635  1.00  0.00     0.014 A 
BRANCH  14  19
ATOM     19  O   UNL     1       0.188   0.668  -1.086  1.00  0.00    -0.497 OA
ATOM     20  C   UNL     1       0.771   0.002   0.029  1.00  0.00     0.278 C 
ENDBRANCH  14  19
ENDBRANCH   9  13
BRANCH  11  21
ATOM     21  C   UNL     1       4.066   4.809  -4.437  1.00  0.00    -0.012 A 
ATOM     22  C   UNL     1       3.342   3.918  -5.240  1.00  0.00     0.013 A 
ATOM     23  C   UNL     1       5.461   4.728  -4.419  1.00  0.00     0.013 A 
ATOM     24  C   UNL     1       4.007   2.986  -6.037  1.00  0.00     0.047 A 
ATOM     25  C   UNL     1       6.125   3.784  -5.214  1.00  0.00     0.047 A 
ATOM     26  C   UNL     1       5.400   2.916  -6.032  1.00  0.00     0.118 A 
BRANCH  26  27
ATOM     27  O   UNL     1       5.920   1.965  -6.864  1.00  0.00    -0.497 OA
ATOM     28  C   UNL     1       7.336   1.843  -6.901  1.00  0.00     0.278 C 
ENDBRANCH  26  27
ENDBRANCH  11  21
ENDBRANCH   7   8
ENDBRANCH   4   7
ENDBRANCH   2   3
ENDBRANCH   1   2
BRANCH   1  29
ATOM     29  C   UNL     1       0.087   7.450  -7.255  1.00  0.00     0.023 C 
BRANCH  29  30
ATOM     30  C   UNL     1       0.095   7.157  -8.752  1.00  0.00     0.116 C 
BRANCH  30  31
ATOM     31  N   UNL     1       0.037   5.735  -9.062  1.00  0.00    -0.352 N 
ATOM     32  C   UNL     1      -0.660   5.103 -10.064  1.00  0.00     0.251 C 
ATOM     33  H   UNL     1       0.569   5.149  -8.477  1.00  0.00     0.163 HD
ATOM     34  O   UNL     1      -0.688   3.879 -10.132  1.00  0.00    -0.269 OA
BRANCH  32  35
ATOM     35  C   UNL     1      -1.420   5.916 -11.035  1.00  0.00     0.039 A 
ATOM     36  C   UNL     1      -2.771   5.628 -11.242  1.00  0.00     0.014 A 
ATOM     37  C   UNL     1      -0.816   6.996 -11.684  1.00  0.00     0.014 A 
ATOM     38  C   UNL     1      -3.544   6.485 -12.026  1.00  0.00     0.010 A 
ATOM     39  C   UNL     1      -1.601   7.883 -12.415  1.00  0.00     0.010 A 
ATOM     40  C   UNL     1      -2.976   7.648 -12.572  1.00  0.00    -0.014 A 
BRANCH  40  41
ATOM     41  C   UNL     1      -3.814   8.668 -13.250  1.00  0.00     0.031 A 
ATOM     42  C   UNL     1      -3.624   8.962 -14.709  1.00  0.00     0.074 A 
ATOM     43  C   UNL     1      -4.685   9.392 -12.521  1.00  0.00     0.049 A 
ATOM     44  N   UNL     1      -4.191   9.883 -15.447  1.00  0.00    -0.248 NA
ATOM     45  C   UNL     1      -2.652   8.126 -15.430  1.00  0.00     0.031 C 
ATOM     46  C   UNL     1      -4.922   9.233 -11.084  1.00  0.00     0.029 A 
ATOM     47  N   UNL     1      -5.519  10.421 -12.882  1.00  0.00    -0.354 N 
ATOM     48  C   UNL     1      -3.641   9.743 -16.713  1.00  0.00     0.074 A 
ATOM     49  C   UNL     1      -2.663   8.680 -16.635  1.00  0.00     0.031 C 
ATOM     50  C   UNL     1      -5.848  10.122 -10.690  1.00  0.00     0.029 A 
ATOM     51  C   UNL     1      -6.240  10.939 -11.833  1.00  0.00     0.049 A 
ATOM     52  H   UNL     1      -5.594  10.756 -13.805  1.00  0.00     0.167 HD
ATOM     53  C   UNL     1      -3.941  10.429 -17.841  1.00  0.00     0.037 A 
ATOM     54  C   UNL     1      -7.107  11.969 -11.795  1.00  0.00     0.037 A 
ATOM     55  C   UNL     1      -4.930  11.473 -17.919  1.00  0.00     0.049 A 
ATOM     56  C   UNL     1      -7.401  12.729 -13.058  1.00  0.00     0.074 A 
ATOM     57  C   UNL     1      -5.356  12.175 -19.033  1.00  0.00     0.029 A 
ATOM     58  N   UNL     1      -5.641  11.969 -16.837  1.00  0.00    -0.354 N 
ATOM     59  N   UNL     1      -6.928  12.540 -14.266  1.00  0.00    -0.248 NA
ATOM     60  C   UNL     1      -8.349  13.847 -12.952  1.00  0.00     0.031 C 
ATOM     61  C   UNL     1      -6.294  13.127 -18.619  1.00  0.00     0.029 A 
ATOM     62  C   UNL     1      -6.483  12.990 -17.253  1.00  0.00     0.049 A 
ATOM     63  H   UNL     1      -5.561  11.645 -15.911  1.00  0.00     0.167 HD
ATOM     64  C   UNL     1      -7.530  13.502 -15.065  1.00  0.00     0.074 A 
ATOM     65  C   UNL     1      -8.419  14.260 -14.210  1.00  0.00     0.031 C 
ATOM     66  C   UNL     1      -7.358  13.738 -16.388  1.00  0.00     0.037 A 
BRANCH  53  67
ATOM     67  C   UNL     1      -3.198  10.068 -19.093  1.00  0.00     0.064 A 
ATOM     68  C   UNL     1      -3.445   8.864 -19.769  1.00  0.00     0.173 A 
ATOM     69  C   UNL     1      -2.268  10.957 -19.651  1.00  0.00     0.173 A 
ATOM     70  F   UNL     1      -4.318   7.976 -19.270  1.00  0.00    -0.203 F 
ATOM     71  C   UNL     1      -2.774   8.555 -20.949  1.00  0.00     0.198 A 
ATOM     72  C   UNL     1      -1.617  10.656 -20.845  1.00  0.00     0.198 A 
ATOM     73  F   UNL     1      -1.999  12.124 -19.046  1.00  0.00    -0.203 F 
ATOM     74  F   UNL     1      -2.998   7.383 -21.558  1.00  0.00    -0.200 F 
ATOM     75  C   UNL     1      -1.867   9.454 -21.490  1.00  0.00     0.200 A 
ATOM     76  F   UNL     1      -0.749  11.531 -21.372  1.00  0.00    -0.200 F 
ATOM     77  F   UNL     1      -1.229   9.159 -22.631  1.00  0.00    -0.200 F 
ENDBRANCH  53  67
BRANCH  54  78
ATOM     78  C   UNL     1      -7.763  12.340 -10.515  1.00  0.00     0.064 A 
ATOM     79  C   UNL     1      -9.134  12.121 -10.321  1.00  0.00     0.173 A 
ATOM     80  C   UNL     1      -7.041  12.929  -9.467  1.00  0.00     0.173 A 
ATOM     81  F   UNL     1      -9.870  11.582 -11.303  1.00  0.00    -0.203 F 
ATOM     82  C   UNL     1      -9.761  12.495  -9.134  1.00  0.00     0.198 A 
ATOM     83  C   UNL     1      -7.664  13.278  -8.271  1.00  0.00     0.198 A 
ATOM     84  F   UNL     1      -5.726  13.158  -9.603  1.00  0.00    -0.203 F 
ATOM     85  F   UNL     1     -11.082  12.315  -8.993  1.00  0.00    -0.200 F 
ATOM     86  C   UNL     1      -9.025  13.068  -8.108  1.00  0.00     0.200 A 
ATOM     87  F   UNL     1      -6.947  13.821  -7.277  1.00  0.00    -0.200 F 
ATOM     88  F   UNL     1      -9.629  13.425  -6.967  1.00  0.00    -0.200 F 
ENDBRANCH  54  78
BRANCH  66  89
ATOM     89  C   UNL     1      -8.155  14.855 -16.994  1.00  0.00     0.064 A 
ATOM     90  C   UNL     1      -7.837  16.198 -16.742  1.00  0.00     0.173 A 
ATOM     91  C   UNL     1      -9.220  14.582 -17.863  1.00  0.00     0.173 A 
ATOM     92  F   UNL     1      -6.838  16.509 -15.903  1.00  0.00    -0.203 F 
ATOM     93  C   UNL     1      -8.572  17.227 -17.325  1.00  0.00     0.198 A 
ATOM     94  C   UNL     1      -9.935  15.613 -18.465  1.00  0.00     0.198 A 
ATOM     95  F   UNL     1      -9.560  13.313 -18.139  1.00  0.00    -0.203 F 
ATOM     96  F   UNL     1      -8.278  18.503 -17.038  1.00  0.00    -0.200 F 
ATOM     97  C   UNL     1      -9.615  16.934 -18.191  1.00  0.00     0.200 A 
ATOM     98  F   UNL     1     -10.935  15.329 -19.311  1.00  0.00    -0.200 F 
ATOM     99  F   UNL     1     -10.316  17.926 -18.757  1.00  0.00    -0.200 F 
ENDBRANCH  66  89
ENDBRANCH  40  41
ENDBRANCH  32  35
ENDBRANCH  30  31
ENDBRANCH  29  30
ENDBRANCH   1  29
TORSDOF 16
