REMARK SMILES C[NH2+][C@]1(C(=O)NCCCCNC(=O)c2ccc(-c3c4nc(c(-c5c(F)c(F)c(F)c(F)c5F)c5ccc([nH]5)c(-c5c(F)c(F)c(F)c(F)c5F)c5nc(c(-c6c(F)c(F)c(F)c(F)c6F)c6ccc3[nH]6)C=C5)C=C4)cc2)CCC[C@@H](Sc2nccn2C)C1
REMARK SMILES IDX 8 1 7 2 6 3 4 4 5 5 3 7 77 8 88 9 78 10 80 11 79 12 2 13
REMARK SMILES IDX 1 14 81 17 82 18 83 19 86 20 84 21 85 22 87 23 9 24 10 25
REMARK SMILES IDX 11 26 12 27 13 29 14 30 15 31 76 32 16 33 75 34 17 35 18 36
REMARK SMILES IDX 19 37 69 38 20 39 74 40 68 41 70 42 21 43 73 44 67 45 66 46
REMARK SMILES IDX 22 48 54 49 34 50 53 51 35 52 38 53 52 54 71 55 36 56 37 57
REMARK SMILES IDX 51 59 72 60 39 61 23 62 24 63 32 64 25 65 26 66 30 67 33 68
REMARK SMILES IDX 27 69 28 70 31 71 29 72 55 73 56 74 64 75 57 76 58 77 62 78
REMARK SMILES IDX 65 79 59 80 60 81 63 82 61 83 40 84 41 85 49 86 42 87 43 88
REMARK SMILES IDX 47 89 50 90 44 91 45 92 48 93 46 94
REMARK H PARENT 6 6 2 15 2 16 11 28 70 47 38 58
REMARK Flexibility Score: inf
ROOT
ATOM      1  C   UNL     1       0.906  -2.602   2.302  1.00  0.00     0.023 C 
ENDROOT
BRANCH   1   2
ATOM      2  C   UNL     1       0.618  -1.234   1.682  1.00  0.00     0.116 C 
BRANCH   2   3
ATOM      3  N   UNL     1       1.103  -1.166   0.313  1.00  0.00    -0.351 N 
ATOM      4  C   UNL     1       0.444  -1.157  -0.880  1.00  0.00     0.281 C 
ATOM      5  O   UNL     1       1.153  -1.221  -1.895  1.00  0.00    -0.268 OA
ATOM      6  H   UNL     1       2.083  -1.119   0.234  1.00  0.00     0.163 HD
BRANCH   4   7
ATOM      7  C   UNL     1      -1.131  -1.083  -1.002  1.00  0.00     0.176 C 
ATOM      8  C   UNL     1      -1.734  -2.359  -0.360  1.00  0.00     0.079 C 
ATOM      9  C   UNL     1      -1.603   0.244  -0.351  1.00  0.00     0.094 C 
ATOM     10  C   UNL     1      -3.194  -2.267   0.071  1.00  0.00     0.008 C 
ATOM     11  C   UNL     1      -3.077   0.246   0.057  1.00  0.00     0.061 C 
ATOM     12  C   UNL     1      -3.474  -0.995   0.858  1.00  0.00     0.015 C 
BRANCH   7  13
ATOM     13  N   UNL     1      -1.415  -0.919  -2.463  1.00  0.00    -0.336 N 
ATOM     14  C   UNL     1      -2.474  -1.689  -3.077  1.00  0.00     0.331 C 
ATOM     15  H   UNL     1      -1.641   0.065  -2.612  1.00  0.00     0.346 HD
ATOM     16  H   UNL     1      -0.571  -1.275  -2.911  1.00  0.00     0.346 HD
ENDBRANCH   7  13
BRANCH  11  17
ATOM     17  S   UNL     1      -3.544   1.787   0.937  1.00  0.00    -0.084 SA
BRANCH  17  18
ATOM     18  C   UNL     1      -2.799   1.595   2.490  1.00  0.00     0.167 A 
ATOM     19  N   UNL     1      -1.508   1.456   2.699  1.00  0.00    -0.231 NA
ATOM     20  N   UNL     1      -3.500   1.595   3.667  1.00  0.00    -0.329 N 
ATOM     21  C   UNL     1      -1.362   1.405   4.060  1.00  0.00     0.132 A 
ATOM     22  C   UNL     1      -2.585   1.476   4.683  1.00  0.00     0.108 A 
ATOM     23  C   UNL     1      -4.924   1.676   3.878  1.00  0.00     0.152 C 
ENDBRANCH  17  18
ENDBRANCH  11  17
ENDBRANCH   4   7
ENDBRANCH   2   3
ENDBRANCH   1   2
BRANCH   1  24
ATOM     24  C   UNL     1       2.381  -2.870   2.593  1.00  0.00     0.023 C 
BRANCH  24  25
ATOM     25  C   UNL     1       3.039  -1.869   3.533  1.00  0.00     0.116 C 
BRANCH  25  26
ATOM     26  N   UNL     1       2.368  -1.768   4.821  1.00  0.00    -0.352 N 
ATOM     27  C   UNL     1       2.920  -1.706   6.079  1.00  0.00     0.251 C 
ATOM     28  H   UNL     1       1.385  -1.741   4.786  1.00  0.00     0.163 HD
ATOM     29  O   UNL     1       2.211  -1.744   7.073  1.00  0.00    -0.269 OA
BRANCH  27  30
ATOM     30  C   UNL     1       4.389  -1.628   6.215  1.00  0.00     0.039 A 
ATOM     31  C   UNL     1       5.032  -2.497   7.098  1.00  0.00     0.014 A 
ATOM     32  C   UNL     1       5.128  -0.727   5.444  1.00  0.00     0.014 A 
ATOM     33  C   UNL     1       6.427  -2.512   7.157  1.00  0.00     0.010 A 
ATOM     34  C   UNL     1       6.517  -0.796   5.446  1.00  0.00     0.010 A 
ATOM     35  C   UNL     1       7.179  -1.689   6.303  1.00  0.00    -0.014 A 
BRANCH  35  36
ATOM     36  C   UNL     1       8.662  -1.744   6.288  1.00  0.00     0.031 A 
ATOM     37  C   UNL     1       9.463  -0.542   6.699  1.00  0.00     0.074 A 
ATOM     38  C   UNL     1       9.284  -2.852   5.840  1.00  0.00     0.049 A 
ATOM     39  N   UNL     1      10.760  -0.365   6.684  1.00  0.00    -0.248 NA
ATOM     40  C   UNL     1       8.703   0.630   7.163  1.00  0.00     0.031 C 
ATOM     41  C   UNL     1       8.616  -4.066   5.369  1.00  0.00     0.029 A 
ATOM     42  N   UNL     1      10.620  -3.133   5.699  1.00  0.00    -0.354 N 
ATOM     43  C   UNL     1      10.968   0.936   7.120  1.00  0.00     0.074 A 
ATOM     44  C   UNL     1       9.664   1.524   7.339  1.00  0.00     0.031 C 
ATOM     45  C   UNL     1       9.544  -4.969   5.014  1.00  0.00     0.029 A 
ATOM     46  C   UNL     1      10.869  -4.386   5.196  1.00  0.00     0.049 A 
ATOM     47  H   UNL     1      11.332  -2.495   5.935  1.00  0.00     0.167 HD
ATOM     48  C   UNL     1      12.141   1.575   7.343  1.00  0.00     0.037 A 
ATOM     49  C   UNL     1      12.037  -4.994   4.911  1.00  0.00     0.037 A 
ATOM     50  C   UNL     1      13.436   0.979   7.148  1.00  0.00     0.049 A 
ATOM     51  C   UNL     1      13.326  -4.258   5.161  1.00  0.00     0.074 A 
ATOM     52  C   UNL     1      14.683   1.523   7.397  1.00  0.00     0.029 A 
ATOM     53  N   UNL     1      13.649  -0.300   6.654  1.00  0.00    -0.354 N 
ATOM     54  N   UNL     1      13.512  -3.051   5.636  1.00  0.00    -0.248 NA
ATOM     55  C   UNL     1      14.569  -4.975   4.839  1.00  0.00     0.031 C 
ATOM     56  C   UNL     1      15.652   0.590   7.014  1.00  0.00     0.029 A 
ATOM     57  C   UNL     1      15.008  -0.555   6.573  1.00  0.00     0.049 A 
ATOM     58  H   UNL     1      12.939  -0.932   6.398  1.00  0.00     0.167 HD
ATOM     59  C   UNL     1      14.888  -2.874   5.699  1.00  0.00     0.074 A 
ATOM     60  C   UNL     1      15.489  -4.103   5.226  1.00  0.00     0.031 C 
ATOM     61  C   UNL     1      15.589  -1.790   6.112  1.00  0.00     0.037 A 
BRANCH  48  62
ATOM     62  C   UNL     1      12.076   2.992   7.833  1.00  0.00     0.064 A 
ATOM     63  C   UNL     1      11.630   3.302   9.127  1.00  0.00     0.173 A 
ATOM     64  C   UNL     1      12.494   4.051   7.013  1.00  0.00     0.173 A 
ATOM     65  F   UNL     1      11.206   2.327   9.946  1.00  0.00    -0.203 F 
ATOM     66  C   UNL     1      11.578   4.620   9.572  1.00  0.00     0.198 A 
ATOM     67  C   UNL     1      12.470   5.365   7.472  1.00  0.00     0.198 A 
ATOM     68  F   UNL     1      12.935   3.811   5.769  1.00  0.00    -0.203 F 
ATOM     69  F   UNL     1      11.101   4.895  10.794  1.00  0.00    -0.200 F 
ATOM     70  C   UNL     1      12.005   5.650   8.747  1.00  0.00     0.200 A 
ATOM     71  F   UNL     1      12.896   6.359   6.679  1.00  0.00    -0.200 F 
ATOM     72  F   UNL     1      11.962   6.918   9.179  1.00  0.00    -0.200 F 
ENDBRANCH  48  62
BRANCH  49  73
ATOM     73  C   UNL     1      12.044  -6.384   4.387  1.00  0.00     0.064 A 
ATOM     74  C   UNL     1      12.513  -7.445   5.175  1.00  0.00     0.173 A 
ATOM     75  C   UNL     1      11.592  -6.682   3.093  1.00  0.00     0.173 A 
ATOM     76  F   UNL     1      12.974  -7.206   6.411  1.00  0.00    -0.203 F 
ATOM     77  C   UNL     1      12.550  -8.747   4.682  1.00  0.00     0.198 A 
ATOM     78  C   UNL     1      11.603  -7.990   2.611  1.00  0.00     0.198 A 
ATOM     79  F   UNL     1      11.129  -5.704   2.301  1.00  0.00    -0.203 F 
ATOM     80  F   UNL     1      13.046  -9.734   5.440  1.00  0.00    -0.200 F 
ATOM     81  C   UNL     1      12.090  -9.020   3.402  1.00  0.00     0.200 A 
ATOM     82  F   UNL     1      11.146  -8.251   1.379  1.00  0.00    -0.200 F 
ATOM     83  F   UNL     1      12.123 -10.273   2.929  1.00  0.00    -0.200 F 
ENDBRANCH  49  73
BRANCH  61  84
ATOM     84  C   UNL     1      17.086  -1.897   6.109  1.00  0.00     0.064 A 
ATOM     85  C   UNL     1      17.823  -1.899   4.915  1.00  0.00     0.173 A 
ATOM     86  C   UNL     1      17.794  -1.958   7.319  1.00  0.00     0.173 A 
ATOM     87  F   UNL     1      17.191  -1.858   3.732  1.00  0.00    -0.203 F 
ATOM     88  C   UNL     1      19.212  -1.982   4.934  1.00  0.00     0.198 A 
ATOM     89  C   UNL     1      19.184  -2.010   7.334  1.00  0.00     0.198 A 
ATOM     90  F   UNL     1      17.136  -1.953   8.488  1.00  0.00    -0.203 F 
ATOM     91  F   UNL     1      19.894  -2.029   3.780  1.00  0.00    -0.200 F 
ATOM     92  C   UNL     1      19.892  -2.029   6.142  1.00  0.00     0.200 A 
ATOM     93  F   UNL     1      19.840  -2.042   8.502  1.00  0.00    -0.200 F 
ATOM     94  F   UNL     1      21.230  -2.101   6.157  1.00  0.00    -0.200 F 
ENDBRANCH  61  84
ENDBRANCH  35  36
ENDBRANCH  27  30
ENDBRANCH  25  26
ENDBRANCH  24  25
ENDBRANCH   1  24
TORSDOF 14
