REMARK SMILES O=C(NCCCCNC(=O)c1cc(S(=O)(=O)Nc2ccc(F)c(C(F)(F)F)c2)c[nH]1)c1ccc(-c2c3nc(c(-c4c(F)c(F)c(F)c(F)c4F)c4ccc([nH]4)c(-c4c(F)c(F)c(F)c(F)c4F)c4nc(c(-c5c(F)c(F)c(F)c(F)c5F)c5ccc2[nH]5)C=C4)C=C3)cc1
REMARK SMILES IDX 6 1 5 2 4 3 3 4 1 5 2 6 31 8 32 9 93 10 33 11 92 12 34 13
REMARK SMILES IDX 35 14 36 15 86 16 37 17 91 18 85 19 87 20 38 21 90 22 84 23
REMARK SMILES IDX 83 24 39 26 71 27 51 28 70 29 52 30 55 31 69 32 88 33 53 34
REMARK SMILES IDX 54 35 68 37 89 38 56 39 40 40 41 41 49 42 42 43 43 44 47 45
REMARK SMILES IDX 50 46 44 47 45 48 48 49 46 50 72 51 73 52 81 53 74 54 75 55
REMARK SMILES IDX 79 56 82 57 76 58 77 59 80 60 78 61 57 62 58 63 66 64 59 65
REMARK SMILES IDX 60 66 64 67 67 68 61 69 62 70 65 71 63 72 7 73 8 74 9 75
REMARK SMILES IDX 10 77 11 78 12 79 30 80 13 81 29 82 14 84 15 85 16 86 17 87
REMARK SMILES IDX 18 89 19 90 28 91 20 92 23 93 21 94 22 95 24 96 25 97 26 98
REMARK SMILES IDX 27 99
REMARK H PARENT 3 7 87 25 55 36 8 76 30 83 17 88
REMARK Flexibility Score: inf
ROOT
ATOM      1  C   UNL     1       4.476  -0.659   3.463  1.00  0.00     0.023 C 
ENDROOT
BRANCH   1   2
ATOM      2  C   UNL     1       5.013   0.013   2.206  1.00  0.00     0.023 C 
BRANCH   2   3
ATOM      3  C   UNL     1       4.681  -0.687   0.885  1.00  0.00     0.116 C 
BRANCH   3   4
ATOM      4  N   UNL     1       3.280  -0.745   0.504  1.00  0.00    -0.352 N 
ATOM      5  O   UNL     1       1.287  -0.141  -0.334  1.00  0.00    -0.269 OA
ATOM      6  C   UNL     1       2.377   0.210   0.114  1.00  0.00     0.251 C 
ATOM      7  H   UNL     1       2.903  -1.654   0.532  1.00  0.00     0.163 HD
BRANCH   6   8
ATOM      8  C   UNL     1       2.638   1.648   0.312  1.00  0.00     0.039 A 
ATOM      9  C   UNL     1       3.896   2.218   0.119  1.00  0.00     0.014 A 
ATOM     10  C   UNL     1       1.562   2.442   0.737  1.00  0.00     0.014 A 
ATOM     11  C   UNL     1       4.123   3.526   0.508  1.00  0.00     0.010 A 
ATOM     12  C   UNL     1       1.767   3.776   1.073  1.00  0.00     0.010 A 
ATOM     13  C   UNL     1       3.057   4.305   0.976  1.00  0.00    -0.014 A 
BRANCH  13  14
ATOM     14  C   UNL     1       3.304   5.757   1.046  1.00  0.00     0.031 A 
ATOM     15  C   UNL     1       3.298   6.351  -0.392  1.00  0.00     0.074 A 
ATOM     16  C   UNL     1       3.588   6.273   2.284  1.00  0.00     0.049 A 
ATOM     17  N   UNL     1       3.912   7.388  -0.870  1.00  0.00    -0.248 NA
ATOM     18  C   UNL     1       2.552   5.644  -1.479  1.00  0.00     0.031 C 
ATOM     19  C   UNL     1       3.489   5.530   3.564  1.00  0.00     0.029 A 
ATOM     20  N   UNL     1       4.028   7.505   2.734  1.00  0.00    -0.354 N 
ATOM     21  C   UNL     1       3.492   7.566  -2.210  1.00  0.00     0.074 A 
ATOM     22  C   UNL     1       2.741   6.404  -2.561  1.00  0.00     0.031 C 
ATOM     23  C   UNL     1       3.941   6.275   4.600  1.00  0.00     0.029 A 
ATOM     24  C   UNL     1       4.367   7.575   4.119  1.00  0.00     0.049 A 
ATOM     25  H   UNL     1       4.103   8.284   2.137  1.00  0.00     0.167 HD
ATOM     26  C   UNL     1       3.697   8.726  -2.904  1.00  0.00     0.037 A 
ATOM     27  C   UNL     1       4.992   8.591   4.802  1.00  0.00     0.037 A 
ATOM     28  C   UNL     1       4.437   9.633  -2.099  1.00  0.00     0.049 A 
ATOM     29  C   UNL     1       5.055   9.690   3.831  1.00  0.00     0.074 A 
ATOM     30  C   UNL     1       5.758   9.640  -1.740  1.00  0.00     0.029 A 
ATOM     31  N   UNL     1       3.720  10.424  -1.237  1.00  0.00    -0.354 N 
ATOM     32  N   UNL     1       4.032  10.392   3.446  1.00  0.00    -0.248 NA
ATOM     33  C   UNL     1       6.335   9.960   3.165  1.00  0.00     0.031 C 
ATOM     34  C   UNL     1       5.706  10.003  -0.383  1.00  0.00     0.029 A 
ATOM     35  C   UNL     1       4.429  10.485  -0.066  1.00  0.00     0.049 A 
ATOM     36  H   UNL     1       2.859  10.864  -1.424  1.00  0.00     0.167 HD
ATOM     37  C   UNL     1       4.487  10.924   2.266  1.00  0.00     0.074 A 
ATOM     38  C   UNL     1       5.932  10.911   2.327  1.00  0.00     0.031 C 
ATOM     39  C   UNL     1       3.726  10.803   1.150  1.00  0.00     0.037 A 
BRANCH  26  40
ATOM     40  C   UNL     1       3.139   9.274  -4.185  1.00  0.00     0.064 A 
ATOM     41  C   UNL     1       1.809   9.091  -4.576  1.00  0.00     0.173 A 
ATOM     42  C   UNL     1       3.845  10.324  -4.826  1.00  0.00     0.173 A 
ATOM     43  F   UNL     1       1.053   8.136  -4.019  1.00  0.00    -0.203 F 
ATOM     44  C   UNL     1       1.194   9.966  -5.479  1.00  0.00     0.198 A 
ATOM     45  C   UNL     1       3.217  11.220  -5.687  1.00  0.00     0.198 A 
ATOM     46  F   UNL     1       5.141  10.549  -4.552  1.00  0.00    -0.203 F 
ATOM     47  F   UNL     1      -0.100   9.800  -5.784  1.00  0.00    -0.200 F 
ATOM     48  C   UNL     1       1.883  11.052  -5.998  1.00  0.00     0.200 A 
ATOM     49  F   UNL     1       3.888  12.284  -6.152  1.00  0.00    -0.200 F 
ATOM     50  F   UNL     1       1.254  11.950  -6.768  1.00  0.00    -0.200 F 
ENDBRANCH  26  40
BRANCH  27  51
ATOM     51  C   UNL     1       5.678   8.860   6.134  1.00  0.00     0.064 A 
ATOM     52  C   UNL     1       6.476  10.037   6.296  1.00  0.00     0.173 A 
ATOM     53  C   UNL     1       5.714   8.005   7.240  1.00  0.00     0.173 A 
ATOM     54  F   UNL     1       6.411  11.059   5.431  1.00  0.00    -0.203 F 
ATOM     55  C   UNL     1       7.383  10.228   7.337  1.00  0.00     0.198 A 
ATOM     56  C   UNL     1       6.581   8.233   8.333  1.00  0.00     0.198 A 
ATOM     57  F   UNL     1       4.914   6.936   7.307  1.00  0.00    -0.203 F 
ATOM     58  F   UNL     1       8.198  11.294   7.324  1.00  0.00    -0.200 F 
ATOM     59  C   UNL     1       7.453   9.310   8.353  1.00  0.00     0.200 A 
ATOM     60  F   UNL     1       6.585   7.381   9.368  1.00  0.00    -0.200 F 
ATOM     61  F   UNL     1       8.339   9.470   9.345  1.00  0.00    -0.200 F 
ENDBRANCH  27  51
BRANCH  39  62
ATOM     62  C   UNL     1       2.238  10.660   1.406  1.00  0.00     0.064 A 
ATOM     63  C   UNL     1       1.491   9.500   1.143  1.00  0.00     0.173 A 
ATOM     64  C   UNL     1       1.542  11.703   2.034  1.00  0.00     0.173 A 
ATOM     65  F   UNL     1       2.049   8.454   0.541  1.00  0.00    -0.203 F 
ATOM     66  C   UNL     1       0.140   9.379   1.484  1.00  0.00     0.198 A 
ATOM     67  C   UNL     1       0.192  11.588   2.378  1.00  0.00     0.198 A 
ATOM     68  F   UNL     1       2.174  12.854   2.310  1.00  0.00    -0.203 F 
ATOM     69  F   UNL     1      -0.527   8.250   1.199  1.00  0.00    -0.200 F 
ATOM     70  C   UNL     1      -0.510  10.427   2.103  1.00  0.00     0.200 A 
ATOM     71  F   UNL     1      -0.435  12.616   2.967  1.00  0.00    -0.200 F 
ATOM     72  F   UNL     1      -1.810  10.325   2.416  1.00  0.00    -0.200 F 
ENDBRANCH  39  62
ENDBRANCH  13  14
ENDBRANCH   6   8
ENDBRANCH   3   4
ENDBRANCH   2   3
ENDBRANCH   1   2
BRANCH   1  73
ATOM     73  C   UNL     1       4.889  -2.108   3.648  1.00  0.00     0.116 C 
BRANCH  73  74
ATOM     74  N   UNL     1       6.319  -2.284   3.818  1.00  0.00    -0.351 N 
ATOM     75  C   UNL     1       6.993  -3.081   4.710  1.00  0.00     0.267 C 
ATOM     76  H   UNL     1       6.885  -1.757   3.209  1.00  0.00     0.163 HD
ATOM     77  O   UNL     1       8.208  -2.929   4.819  1.00  0.00    -0.268 OA
BRANCH  75  78
ATOM     78  C   UNL     1       6.278  -4.084   5.466  1.00  0.00     0.105 A 
ATOM     79  C   UNL     1       5.092  -4.748   5.209  1.00  0.00     0.055 A 
ATOM     80  N   UNL     1       6.772  -4.632   6.632  1.00  0.00    -0.356 N 
ATOM     81  C   UNL     1       4.923  -5.781   6.151  1.00  0.00     0.106 A 
ATOM     82  C   UNL     1       5.945  -5.636   7.069  1.00  0.00     0.105 A 
ATOM     83  H   UNL     1       7.597  -4.344   7.085  1.00  0.00     0.166 HD
BRANCH  81  84
ATOM     84  S   UNL     1       3.685  -6.990   6.163  1.00  0.00     0.263 S 
ATOM     85  O   UNL     1       4.400  -8.207   6.461  1.00  0.00    -0.201 OA
ATOM     86  O   UNL     1       2.696  -6.446   7.077  1.00  0.00    -0.201 OA
BRANCH  84  87
ATOM     87  N   UNL     1       2.856  -7.235   4.708  1.00  0.00    -0.280 N 
ATOM     88  H   UNL     1       2.070  -7.829   4.707  1.00  0.00     0.180 HD
BRANCH  87  89
ATOM     89  C   UNL     1       3.244  -6.621   3.489  1.00  0.00     0.050 A 
ATOM     90  C   UNL     1       4.502  -6.838   2.927  1.00  0.00     0.030 A 
ATOM     91  C   UNL     1       2.350  -5.735   2.876  1.00  0.00     0.043 A 
ATOM     92  C   UNL     1       4.894  -6.104   1.803  1.00  0.00     0.042 A 
ATOM     93  C   UNL     1       2.730  -5.007   1.734  1.00  0.00     0.093 A 
ATOM     94  C   UNL     1       4.013  -5.191   1.224  1.00  0.00     0.135 A 
ATOM     95  F   UNL     1       4.443  -4.459   0.189  1.00  0.00    -0.206 F 
BRANCH  93  96
ATOM     96  C   UNL     1       1.777  -4.026   1.120  1.00  0.00     0.419 C 
ATOM     97  F   UNL     1       0.655  -4.622   0.637  1.00  0.00    -0.166 F 
ATOM     98  F   UNL     1       1.354  -3.109   2.036  1.00  0.00    -0.166 F 
ATOM     99  F   UNL     1       2.297  -3.297   0.096  1.00  0.00    -0.166 F 
ENDBRANCH  93  96
ENDBRANCH  87  89
ENDBRANCH  84  87
ENDBRANCH  81  84
ENDBRANCH  75  78
ENDBRANCH  73  74
ENDBRANCH   1  73
TORSDOF 15
