REMARK SMILES CC1(C(=O)N[C@@H](C(=O)NCCCCNC(=O)c2ccc(-c3c4nc(c(-c5c(F)c(F)c(F)c(F)c5F)c5ccc([nH]5)c(-c5c(F)c(F)c(F)c(F)c5F)c5nc(c(-c6c(F)c(F)c(F)c(F)c6F)c6ccc3[nH]6)C=C5)C=C4)cc2)c2ccccc2)CCCC1
REMARK SMILES IDX 11 1 10 2 9 3 7 4 8 5 6 7 5 8 3 9 4 10 2 12 1 13 86 14 89 15
REMARK SMILES IDX 87 16 88 17 80 18 81 19 85 20 82 21 84 22 83 23 12 24 13 25
REMARK SMILES IDX 14 26 15 27 16 29 17 30 18 31 79 32 19 33 78 34 20 35 21 36
REMARK SMILES IDX 22 37 72 38 23 39 77 40 71 41 73 42 24 43 76 44 70 45 69 46
REMARK SMILES IDX 25 48 57 49 37 50 56 51 38 52 41 53 55 54 74 55 39 56 40 57
REMARK SMILES IDX 54 59 75 60 42 61 26 62 27 63 35 64 28 65 29 66 33 67 36 68
REMARK SMILES IDX 30 69 31 70 34 71 32 72 58 73 59 74 67 75 60 76 61 77 65 78
REMARK SMILES IDX 68 79 62 80 63 81 66 82 64 83 43 84 44 85 52 86 45 87 46 88
REMARK SMILES IDX 50 89 53 90 47 91 48 92 51 93 49 94
REMARK H PARENT 9 6 5 11 14 28 73 47 41 58
REMARK Flexibility Score: inf
ROOT
ATOM      1  C   UNL     1       5.159   1.521   0.113  1.00  0.00     0.023 C 
ENDROOT
BRANCH   1   2
ATOM      2  C   UNL     1       4.361   0.355  -0.447  1.00  0.00     0.116 C 
BRANCH   2   3
ATOM      3  N   UNL     1       4.986  -0.930  -0.243  1.00  0.00    -0.354 N 
ATOM      4  C   UNL     1       4.444  -2.128   0.137  1.00  0.00     0.247 C 
ATOM      5  O   UNL     1       5.156  -3.114  -0.095  1.00  0.00    -0.272 OA
ATOM      6  H   UNL     1       5.957  -0.948  -0.403  1.00  0.00     0.163 HD
BRANCH   4   7
ATOM      7  C   UNL     1       2.964  -2.269   0.660  1.00  0.00     0.202 C 
BRANCH   7   8
ATOM      8  N   UNL     1       2.553  -1.172   1.537  1.00  0.00    -0.340 N 
ATOM      9  C   UNL     1       1.599  -0.211   1.455  1.00  0.00     0.226 C 
ATOM     10  O   UNL     1       1.677   0.677   2.311  1.00  0.00    -0.274 OA
ATOM     11  H   UNL     1       3.083  -1.121   2.365  1.00  0.00     0.164 HD
BRANCH   9  12
ATOM     12  C   UNL     1       0.520  -0.163   0.353  1.00  0.00     0.046 C 
ATOM     13  C   UNL     1       1.080   0.068  -1.062  1.00  0.00     0.022 C 
ATOM     14  C   UNL     1      -0.474   0.982   0.670  1.00  0.00     0.016 C 
ATOM     15  C   UNL     1      -0.414  -1.376   0.412  1.00  0.00     0.016 C 
ATOM     16  C   UNL     1      -1.752   0.622  -0.073  1.00  0.00     0.001 C 
ATOM     17  C   UNL     1      -1.744  -0.901  -0.180  1.00  0.00     0.001 C 
ENDBRANCH   9  12
ENDBRANCH   7   8
BRANCH   7  18
ATOM     18  C   UNL     1       2.783  -3.615   1.362  1.00  0.00    -0.016 A 
ATOM     19  C   UNL     1       3.164  -3.816   2.700  1.00  0.00     0.006 A 
ATOM     20  C   UNL     1       2.321  -4.722   0.628  1.00  0.00     0.006 A 
ATOM     21  C   UNL     1       3.074  -5.081   3.287  1.00  0.00     0.000 A 
ATOM     22  C   UNL     1       2.238  -5.987   1.216  1.00  0.00     0.000 A 
ATOM     23  C   UNL     1       2.615  -6.165   2.545  1.00  0.00     0.000 A 
ENDBRANCH   7  18
ENDBRANCH   4   7
ENDBRANCH   2   3
ENDBRANCH   1   2
BRANCH   1  24
ATOM     24  C   UNL     1       6.373   1.914  -0.718  1.00  0.00     0.023 C 
BRANCH  24  25
ATOM     25  C   UNL     1       6.087   2.216  -2.185  1.00  0.00     0.116 C 
BRANCH  25  26
ATOM     26  N   UNL     1       5.099   3.268  -2.388  1.00  0.00    -0.352 N 
ATOM     27  C   UNL     1       5.160   4.353  -3.232  1.00  0.00     0.251 C 
ATOM     28  H   UNL     1       4.279   3.192  -1.850  1.00  0.00     0.163 HD
ATOM     29  O   UNL     1       4.277   5.203  -3.230  1.00  0.00    -0.269 OA
BRANCH  27  30
ATOM     30  C   UNL     1       6.333   4.505  -4.116  1.00  0.00     0.039 A 
ATOM     31  C   UNL     1       7.051   5.702  -4.085  1.00  0.00     0.014 A 
ATOM     32  C   UNL     1       6.763   3.437  -4.907  1.00  0.00     0.014 A 
ATOM     33  C   UNL     1       8.257   5.796  -4.781  1.00  0.00     0.010 A 
ATOM     34  C   UNL     1       8.002   3.506  -5.534  1.00  0.00     0.010 A 
ATOM     35  C   UNL     1       8.765   4.683  -5.470  1.00  0.00    -0.014 A 
BRANCH  35  36
ATOM     36  C   UNL     1      10.098   4.719  -6.121  1.00  0.00     0.031 A 
ATOM     37  C   UNL     1      10.210   4.553  -7.610  1.00  0.00     0.074 A 
ATOM     38  C   UNL     1      11.209   4.816  -5.365  1.00  0.00     0.049 A 
ATOM     39  N   UNL     1      11.282   4.460  -8.355  1.00  0.00    -0.248 NA
ATOM     40  C   UNL     1       8.948   4.444  -8.358  1.00  0.00     0.031 C 
ATOM     41  C   UNL     1      11.235   4.923  -3.905  1.00  0.00     0.029 A 
ATOM     42  N   UNL     1      12.535   4.824  -5.721  1.00  0.00    -0.354 N 
ATOM     43  C   UNL     1      10.824   4.260  -9.650  1.00  0.00     0.074 A 
ATOM     44  C   UNL     1       9.381   4.195  -9.585  1.00  0.00     0.031 C 
ATOM     45  C   UNL     1      12.510   5.008  -3.493  1.00  0.00     0.029 A 
ATOM     46  C   UNL     1      13.393   4.926  -4.653  1.00  0.00     0.049 A 
ATOM     47  H   UNL     1      12.843   4.763  -6.654  1.00  0.00     0.167 HD
ATOM     48  C   UNL     1      11.542   4.165 -10.794  1.00  0.00     0.037 A 
ATOM     49  C   UNL     1      14.739   4.945  -4.614  1.00  0.00     0.037 A 
ATOM     50  C   UNL     1      12.975   4.270 -10.861  1.00  0.00     0.049 A 
ATOM     51  C   UNL     1      15.511   4.857  -5.902  1.00  0.00     0.074 A 
ATOM     52  C   UNL     1      13.790   4.257 -11.980  1.00  0.00     0.029 A 
ATOM     53  N   UNL     1      13.807   4.410  -9.761  1.00  0.00    -0.354 N 
ATOM     54  N   UNL     1      15.065   4.739  -7.129  1.00  0.00    -0.248 NA
ATOM     55  C   UNL     1      16.977   4.912  -5.801  1.00  0.00     0.031 C 
ATOM     56  C   UNL     1      15.119   4.354 -11.553  1.00  0.00     0.029 A 
ATOM     57  C   UNL     1      15.129   4.470 -10.173  1.00  0.00     0.049 A 
ATOM     58  H   UNL     1      13.504   4.460  -8.825  1.00  0.00     0.167 HD
ATOM     59  C   UNL     1      16.187   4.733  -7.945  1.00  0.00     0.074 A 
ATOM     60  C   UNL     1      17.337   4.873  -7.076  1.00  0.00     0.031 C 
ATOM     61  C   UNL     1      16.259   4.621  -9.294  1.00  0.00     0.037 A 
BRANCH  48  62
ATOM     62  C   UNL     1      10.784   3.948 -12.070  1.00  0.00     0.064 A 
ATOM     63  C   UNL     1       9.993   4.960 -12.634  1.00  0.00     0.173 A 
ATOM     64  C   UNL     1      10.874   2.727 -12.753  1.00  0.00     0.173 A 
ATOM     65  F   UNL     1       9.863   6.142 -12.012  1.00  0.00    -0.203 F 
ATOM     66  C   UNL     1       9.297   4.747 -13.821  1.00  0.00     0.198 A 
ATOM     67  C   UNL     1      10.200   2.527 -13.955  1.00  0.00     0.198 A 
ATOM     68  F   UNL     1      11.620   1.728 -12.259  1.00  0.00    -0.203 F 
ATOM     69  F   UNL     1       8.508   5.712 -14.315  1.00  0.00    -0.200 F 
ATOM     70  C   UNL     1       9.407   3.534 -14.484  1.00  0.00     0.200 A 
ATOM     71  F   UNL     1      10.316   1.359 -14.601  1.00  0.00    -0.200 F 
ATOM     72  F   UNL     1       8.741   3.333 -15.630  1.00  0.00    -0.200 F 
ENDBRANCH  48  62
BRANCH  49  73
ATOM     73  C   UNL     1      15.444   5.083  -3.314  1.00  0.00     0.064 A 
ATOM     74  C   UNL     1      16.119   6.267  -2.986  1.00  0.00     0.173 A 
ATOM     75  C   UNL     1      15.466   4.038  -2.379  1.00  0.00     0.173 A 
ATOM     76  F   UNL     1      16.144   7.286  -3.858  1.00  0.00    -0.203 F 
ATOM     77  C   UNL     1      16.807   6.394  -1.782  1.00  0.00     0.198 A 
ATOM     78  C   UNL     1      16.133   4.176  -1.163  1.00  0.00     0.198 A 
ATOM     79  F   UNL     1      14.831   2.887  -2.643  1.00  0.00    -0.203 F 
ATOM     80  F   UNL     1      17.482   7.520  -1.514  1.00  0.00    -0.200 F 
ATOM     81  C   UNL     1      16.809   5.350  -0.869  1.00  0.00     0.200 A 
ATOM     82  F   UNL     1      16.122   3.170  -0.278  1.00  0.00    -0.200 F 
ATOM     83  F   UNL     1      17.470   5.473   0.290  1.00  0.00    -0.200 F 
ENDBRANCH  49  73
BRANCH  61  84
ATOM     84  C   UNL     1      17.622   4.681  -9.916  1.00  0.00     0.064 A 
ATOM     85  C   UNL     1      18.524   3.612  -9.815  1.00  0.00     0.173 A 
ATOM     86  C   UNL     1      18.013   5.805 -10.659  1.00  0.00     0.173 A 
ATOM     87  F   UNL     1      18.201   2.522  -9.101  1.00  0.00    -0.203 F 
ATOM     88  C   UNL     1      19.777   3.675 -10.418  1.00  0.00     0.198 A 
ATOM     89  C   UNL     1      19.256   5.853 -11.284  1.00  0.00     0.198 A 
ATOM     90  F   UNL     1      17.184   6.851 -10.791  1.00  0.00    -0.203 F 
ATOM     91  F   UNL     1      20.640   2.659 -10.273  1.00  0.00    -0.200 F 
ATOM     92  C   UNL     1      20.139   4.791 -11.157  1.00  0.00     0.200 A 
ATOM     93  F   UNL     1      19.600   6.927 -12.008  1.00  0.00    -0.200 F 
ATOM     94  F   UNL     1      21.343   4.847 -11.743  1.00  0.00    -0.200 F 
ENDBRANCH  61  84
ENDBRANCH  35  36
ENDBRANCH  27  30
ENDBRANCH  25  26
ENDBRANCH  24  25
ENDBRANCH   1  24
TORSDOF 14
