REMARK SMILES CC(C)N1C[C@@]2(CCCN(c3ccc(C(=O)NCCCCNC(=O)c4ccc(-c5c6nc(c(-c7c(F)c(F)c(F)c(F)c7F)c7ccc([nH]7)c(-c7c(F)c(F)c(F)c(F)c7F)c7nc(c(-c8c(F)c(F)c(F)c(F)c8F)c8ccc5[nH]8)C=C7)C=C6)cc4)cn3)C2)CCC1=O
REMARK SMILES IDX 19 1 18 2 17 3 15 4 16 5 14 7 11 8 12 9 89 10 13 11 88 12
REMARK SMILES IDX 10 13 4 14 5 15 93 16 6 17 92 18 94 19 7 20 90 21 91 22 8 23
REMARK SMILES IDX 9 24 2 25 1 26 3 27 20 28 21 29 22 30 23 31 24 33 25 34
REMARK SMILES IDX 26 35 87 36 27 37 86 38 28 39 29 40 30 41 80 42 31 43 85 44
REMARK SMILES IDX 79 45 81 46 32 47 84 48 78 49 77 50 33 52 65 53 45 54 64 55
REMARK SMILES IDX 46 56 49 57 63 58 82 59 47 60 48 61 62 63 83 64 50 65 34 66
REMARK SMILES IDX 35 67 43 68 36 69 37 70 41 71 44 72 38 73 39 74 42 75 40 76
REMARK SMILES IDX 66 77 67 78 75 79 68 80 69 81 73 82 76 83 70 84 71 85 74 86
REMARK SMILES IDX 72 87 51 88 52 89 60 90 53 91 54 92 58 93 61 94 55 95 56 96
REMARK SMILES IDX 59 97 57 98
REMARK H PARENT 17 6 22 32 81 51 49 62
REMARK Flexibility Score: inf
ROOT
ATOM      1  C   UNL     1      -6.478   1.663   1.365  1.00  0.00     0.023 C 
ENDROOT
BRANCH   1   2
ATOM      2  C   UNL     1      -6.759   1.910  -0.116  1.00  0.00     0.116 C 
BRANCH   2   3
ATOM      3  N   UNL     1      -6.577   3.301  -0.508  1.00  0.00    -0.352 N 
ATOM      4  C   UNL     1      -5.882   3.809  -1.582  1.00  0.00     0.252 C 
ATOM      5  O   UNL     1      -5.732   5.018  -1.719  1.00  0.00    -0.269 OA
ATOM      6  H   UNL     1      -7.009   3.967   0.073  1.00  0.00     0.163 HD
BRANCH   4   7
ATOM      7  C   UNL     1      -5.272   2.883  -2.542  1.00  0.00     0.058 A 
ATOM      8  C   UNL     1      -3.931   0.897  -3.909  1.00  0.00     0.128 A 
ATOM      9  C   UNL     1      -5.326   0.943  -3.946  1.00  0.00     0.048 A 
ATOM     10  N   UNL     1      -3.235   1.911  -3.344  1.00  0.00    -0.239 NA
ATOM     11  C   UNL     1      -6.007   1.932  -3.236  1.00  0.00     0.019 A 
ATOM     12  C   UNL     1      -3.903   2.889  -2.691  1.00  0.00     0.127 A 
BRANCH   8  13
ATOM     13  N   UNL     1      -3.219  -0.224  -4.297  1.00  0.00    -0.356 N 
ATOM     14  N   UNL     1      -0.783  -1.205  -0.693  1.00  0.00    -0.340 N 
ATOM     15  C   UNL     1      -1.385  -2.187  -1.593  1.00  0.00     0.128 C 
ATOM     16  C   UNL     1      -1.607  -0.506   0.186  1.00  0.00     0.222 C 
ATOM     17  C   UNL     1      -2.602  -1.658  -2.368  1.00  0.00     0.006 C 
ATOM     18  C   UNL     1      -2.940  -0.079  -0.391  1.00  0.00     0.101 C 
ATOM     19  O   UNL     1      -1.262  -0.113   1.297  1.00  0.00    -0.275 OA
ATOM     20  C   UNL     1      -3.272  -2.839  -3.129  1.00  0.00     0.012 C 
ATOM     21  C   UNL     1      -2.112  -0.609  -3.410  1.00  0.00     0.127 C 
ATOM     22  C   UNL     1      -3.580  -1.110  -1.304  1.00  0.00     0.020 C 
ATOM     23  C   UNL     1      -4.325  -2.392  -4.152  1.00  0.00     0.022 C 
ATOM     24  C   UNL     1      -3.777  -1.312  -5.085  1.00  0.00     0.118 C 
BRANCH  14  25
ATOM     25  C   UNL     1       0.671  -1.301  -0.476  1.00  0.00     0.078 C 
ATOM     26  C   UNL     1       1.313  -0.022   0.073  1.00  0.00     0.031 C 
ATOM     27  C   UNL     1       1.052  -2.514   0.367  1.00  0.00     0.031 C 
ENDBRANCH  14  25
ENDBRANCH   8  13
ENDBRANCH   4   7
ENDBRANCH   2   3
ENDBRANCH   1   2
BRANCH   1  28
ATOM     28  C   UNL     1      -7.405   2.381   2.346  1.00  0.00     0.023 C 
BRANCH  28  29
ATOM     29  C   UNL     1      -8.896   2.114   2.167  1.00  0.00     0.116 C 
BRANCH  29  30
ATOM     30  N   UNL     1      -9.262   0.719   2.352  1.00  0.00    -0.352 N 
ATOM     31  C   UNL     1     -10.290   0.173   3.089  1.00  0.00     0.251 C 
ATOM     32  H   UNL     1      -8.692   0.069   1.881  1.00  0.00     0.163 HD
ATOM     33  O   UNL     1     -10.385  -1.042   3.203  1.00  0.00    -0.269 OA
BRANCH  31  34
ATOM     34  C   UNL     1     -11.260   1.055   3.778  1.00  0.00     0.039 A 
ATOM     35  C   UNL     1     -11.598   0.775   5.106  1.00  0.00     0.014 A 
ATOM     36  C   UNL     1     -11.826   2.155   3.131  1.00  0.00     0.014 A 
ATOM     37  C   UNL     1     -12.438   1.644   5.808  1.00  0.00     0.010 A 
ATOM     38  C   UNL     1     -12.602   3.060   3.853  1.00  0.00     0.010 A 
ATOM     39  C   UNL     1     -12.914   2.817   5.200  1.00  0.00    -0.014 A 
BRANCH  39  40
ATOM     40  C   UNL     1     -13.729   3.804   5.955  1.00  0.00     0.031 A 
ATOM     41  C   UNL     1     -15.144   4.097   5.537  1.00  0.00     0.074 A 
ATOM     42  C   UNL     1     -13.173   4.495   6.970  1.00  0.00     0.049 A 
ATOM     43  N   UNL     1     -15.984   4.981   6.013  1.00  0.00    -0.248 NA
ATOM     44  C   UNL     1     -15.676   3.310   4.413  1.00  0.00     0.031 C 
ATOM     45  C   UNL     1     -11.795   4.344   7.441  1.00  0.00     0.029 A 
ATOM     46  N   UNL     1     -13.694   5.473   7.781  1.00  0.00    -0.354 N 
ATOM     47  C   UNL     1     -17.131   4.870   5.238  1.00  0.00     0.074 A 
ATOM     48  C   UNL     1     -16.862   3.869   4.227  1.00  0.00     0.031 C 
ATOM     49  C   UNL     1     -11.587   5.183   8.468  1.00  0.00     0.029 A 
ATOM     50  C   UNL     1     -12.802   5.957   8.706  1.00  0.00     0.049 A 
ATOM     51  H   UNL     1     -14.621   5.797   7.706  1.00  0.00     0.167 HD
ATOM     52  C   UNL     1     -18.309   5.524   5.371  1.00  0.00     0.037 A 
ATOM     53  C   UNL     1     -12.944   6.920   9.636  1.00  0.00     0.037 A 
ATOM     54  C   UNL     1     -18.586   6.497   6.395  1.00  0.00     0.049 A 
ATOM     55  C   UNL     1     -14.266   7.627   9.768  1.00  0.00     0.074 A 
ATOM     56  C   UNL     1     -19.769   7.168   6.651  1.00  0.00     0.029 A 
ATOM     57  N   UNL     1     -17.665   6.937   7.335  1.00  0.00    -0.354 N 
ATOM     58  N   UNL     1     -15.366   7.463   9.074  1.00  0.00    -0.248 NA
ATOM     59  C   UNL     1     -14.369   8.649  10.819  1.00  0.00     0.031 C 
ATOM     60  C   UNL     1     -19.552   8.046   7.718  1.00  0.00     0.029 A 
ATOM     61  C   UNL     1     -18.249   7.885   8.161  1.00  0.00     0.049 A 
ATOM     62  H   UNL     1     -16.735   6.623   7.405  1.00  0.00     0.167 HD
ATOM     63  C   UNL     1     -16.298   8.333   9.623  1.00  0.00     0.074 A 
ATOM     64  C   UNL     1     -15.639   9.016  10.716  1.00  0.00     0.031 C 
ATOM     65  C   UNL     1     -17.585   8.545   9.255  1.00  0.00     0.037 A 
BRANCH  52  66
ATOM     66  C   UNL     1     -19.396   5.205   4.385  1.00  0.00     0.064 A 
ATOM     67  C   UNL     1     -20.054   3.965   4.392  1.00  0.00     0.173 A 
ATOM     68  C   UNL     1     -19.811   6.161   3.446  1.00  0.00     0.173 A 
ATOM     69  F   UNL     1     -19.688   3.011   5.262  1.00  0.00    -0.203 F 
ATOM     70  C   UNL     1     -21.065   3.684   3.476  1.00  0.00     0.198 A 
ATOM     71  C   UNL     1     -20.844   5.889   2.553  1.00  0.00     0.198 A 
ATOM     72  F   UNL     1     -19.221   7.365   3.400  1.00  0.00    -0.203 F 
ATOM     73  F   UNL     1     -21.643   2.475   3.469  1.00  0.00    -0.200 F 
ATOM     74  C   UNL     1     -21.464   4.648   2.563  1.00  0.00     0.200 A 
ATOM     75  F   UNL     1     -21.238   6.826   1.679  1.00  0.00    -0.200 F 
ATOM     76  F   UNL     1     -22.442   4.379   1.687  1.00  0.00    -0.200 F 
ENDBRANCH  52  66
BRANCH  53  77
ATOM     77  C   UNL     1     -11.812   7.255  10.539  1.00  0.00     0.064 A 
ATOM     78  C   UNL     1     -11.861   6.933  11.903  1.00  0.00     0.173 A 
ATOM     79  C   UNL     1     -10.665   7.907  10.065  1.00  0.00     0.173 A 
ATOM     80  F   UNL     1     -12.947   6.329  12.409  1.00  0.00    -0.203 F 
ATOM     81  C   UNL     1     -10.818   7.271  12.762  1.00  0.00     0.198 A 
ATOM     82  C   UNL     1      -9.609   8.219  10.919  1.00  0.00     0.198 A 
ATOM     83  F   UNL     1     -10.565   8.233   8.768  1.00  0.00    -0.203 F 
ATOM     84  F   UNL     1     -10.913   6.995  14.069  1.00  0.00    -0.200 F 
ATOM     85  C   UNL     1      -9.690   7.909  12.268  1.00  0.00     0.200 A 
ATOM     86  F   UNL     1      -8.515   8.823  10.436  1.00  0.00    -0.200 F 
ATOM     87  F   UNL     1      -8.685   8.232  13.094  1.00  0.00    -0.200 F 
ENDBRANCH  53  77
BRANCH  65  88
ATOM     88  C   UNL     1     -18.383   9.524  10.067  1.00  0.00     0.064 A 
ATOM     89  C   UNL     1     -18.153  10.905   9.993  1.00  0.00     0.173 A 
ATOM     90  C   UNL     1     -19.420   9.073  10.898  1.00  0.00     0.173 A 
ATOM     91  F   UNL     1     -17.163  11.385   9.225  1.00  0.00    -0.203 F 
ATOM     92  C   UNL     1     -18.917  11.798  10.741  1.00  0.00     0.198 A 
ATOM     93  C   UNL     1     -20.201   9.970  11.620  1.00  0.00     0.198 A 
ATOM     94  F   UNL     1     -19.685   7.762  10.999  1.00  0.00    -0.203 F 
ATOM     95  F   UNL     1     -18.650  13.110  10.690  1.00  0.00    -0.200 F 
ATOM     96  C   UNL     1     -19.945  11.331  11.547  1.00  0.00     0.200 A 
ATOM     97  F   UNL     1     -21.203   9.518  12.388  1.00  0.00    -0.200 F 
ATOM     98  F   UNL     1     -20.684  12.192  12.259  1.00  0.00    -0.200 F 
ENDBRANCH  65  88
ENDBRANCH  39  40
ENDBRANCH  31  34
ENDBRANCH  29  30
ENDBRANCH  28  29
ENDBRANCH   1  28
TORSDOF 13
