REMARK SMILES C[C@@H]1[C@@H](C(=O)NCCCCNC(=O)c2ccc(-c3c4nc(c(-c5c(F)c(F)c(F)c(F)c5F)c5ccc([nH]5)c(-c5c(F)c(F)c(F)c(F)c5F)c5nc(c(-c6c(F)c(F)c(F)c(F)c6F)c6ccc3[nH]6)C=C5)C=C4)cc2)CCN1C(=O)N(C)Cc1ccsc1
REMARK SMILES IDX 7 1 6 2 4 3 5 4 3 6 1 7 2 8 79 9 77 10 78 11 80 12 81 13
REMARK SMILES IDX 82 14 83 15 84 16 85 17 86 18 89 19 87 20 88 21 8 22 9 23
REMARK SMILES IDX 10 24 11 25 12 26 13 28 14 29 15 30 76 31 16 32 75 33 17 34
REMARK SMILES IDX 18 35 19 36 69 37 20 38 74 39 68 40 70 41 21 42 73 43 67 44
REMARK SMILES IDX 66 45 22 47 54 48 34 49 53 50 35 51 38 52 52 53 71 54 36 55
REMARK SMILES IDX 37 56 51 58 72 59 39 60 23 61 24 62 32 63 25 64 26 65 30 66
REMARK SMILES IDX 33 67 27 68 28 69 31 70 29 71 55 72 56 73 64 74 57 75 58 76
REMARK SMILES IDX 62 77 65 78 59 79 60 80 63 81 61 82 40 83 41 84 49 85 42 86
REMARK SMILES IDX 43 87 47 88 50 89 44 90 45 91 48 92 46 93
REMARK H PARENT 6 5 11 27 70 46 38 57
REMARK Flexibility Score: inf
ROOT
ATOM      1  C   UNL     1      -2.507   3.002  -0.746  1.00  0.00     0.116 C 
ENDROOT
BRANCH   1   2
ATOM      2  N   UNL     1      -1.796   2.296  -1.791  1.00  0.00    -0.356 N 
ATOM      3  C   UNL     1      -0.775   1.398  -1.685  1.00  0.00     0.225 C 
ATOM      4  O   UNL     1      -0.319   0.940  -2.733  1.00  0.00    -0.275 OA
ATOM      5  H   UNL     1      -2.091   2.492  -2.709  1.00  0.00     0.163 HD
BRANCH   3   6
ATOM      6  C   UNL     1      -0.199   1.069  -0.308  1.00  0.00     0.102 C 
ATOM      7  C   UNL     1       1.878   0.091   0.747  1.00  0.00     0.032 C 
ATOM      8  C   UNL     1       0.866  -0.051  -0.399  1.00  0.00     0.096 C 
ATOM      9  N   UNL     1       0.088  -1.294  -0.285  1.00  0.00    -0.321 N 
ATOM     10  C   UNL     1      -1.219   0.454   0.649  1.00  0.00     0.037 C 
ATOM     11  C   UNL     1      -1.241  -0.999   0.230  1.00  0.00     0.122 C 
BRANCH   9  12
ATOM     12  C   UNL     1       0.293  -2.587  -0.682  1.00  0.00     0.320 C 
ATOM     13  O   UNL     1      -0.673  -3.363  -0.630  1.00  0.00    -0.248 OA
BRANCH  12  14
ATOM     14  N   UNL     1       1.520  -3.074  -1.063  1.00  0.00    -0.323 N 
ATOM     15  C   UNL     1       2.769  -2.400  -1.375  1.00  0.00     0.149 C 
BRANCH  14  16
ATOM     16  C   UNL     1       1.588  -4.530  -1.213  1.00  0.00     0.157 C 
BRANCH  16  17
ATOM     17  C   UNL     1       1.659  -5.244   0.119  1.00  0.00    -0.018 A 
ATOM     18  C   UNL     1       1.683  -6.677   0.235  1.00  0.00     0.017 A 
ATOM     19  C   UNL     1       1.663  -4.668   1.380  1.00  0.00     0.070 A 
ATOM     20  C   UNL     1       1.683  -7.112   1.541  1.00  0.00     0.065 A 
ATOM     21  S   UNL     1       1.675  -5.813   2.648  1.00  0.00    -0.152 S 
ENDBRANCH  16  17
ENDBRANCH  14  16
ENDBRANCH  12  14
ENDBRANCH   9  12
ENDBRANCH   3   6
ENDBRANCH   1   2
BRANCH   1  22
ATOM     22  C   UNL     1      -2.871   4.429  -1.135  1.00  0.00     0.023 C 
BRANCH  22  23
ATOM     23  C   UNL     1      -3.735   4.563  -2.387  1.00  0.00     0.023 C 
BRANCH  23  24
ATOM     24  C   UNL     1      -4.986   3.693  -2.414  1.00  0.00     0.116 C 
BRANCH  24  25
ATOM     25  N   UNL     1      -5.901   3.983  -1.321  1.00  0.00    -0.352 N 
ATOM     26  C   UNL     1      -7.197   4.443  -1.356  1.00  0.00     0.251 C 
ATOM     27  H   UNL     1      -5.538   3.826  -0.420  1.00  0.00     0.163 HD
ATOM     28  O   UNL     1      -7.759   4.779  -0.323  1.00  0.00    -0.269 OA
BRANCH  26  29
ATOM     29  C   UNL     1      -7.901   4.559  -2.652  1.00  0.00     0.039 A 
ATOM     30  C   UNL     1      -8.629   5.721  -2.924  1.00  0.00     0.014 A 
ATOM     31  C   UNL     1      -7.836   3.535  -3.598  1.00  0.00     0.014 A 
ATOM     32  C   UNL     1      -9.228   5.884  -4.175  1.00  0.00     0.010 A 
ATOM     33  C   UNL     1      -8.350   3.739  -4.874  1.00  0.00     0.010 A 
ATOM     34  C   UNL     1      -9.059   4.912  -5.175  1.00  0.00    -0.014 A 
BRANCH  34  35
ATOM     35  C   UNL     1      -9.630   5.091  -6.535  1.00  0.00     0.031 A 
ATOM     36  C   UNL     1     -10.656   4.121  -7.053  1.00  0.00     0.074 A 
ATOM     37  C   UNL     1      -9.179   6.083  -7.328  1.00  0.00     0.049 A 
ATOM     38  N   UNL     1     -11.218   4.059  -8.234  1.00  0.00    -0.248 NA
ATOM     39  C   UNL     1     -11.086   3.060  -6.128  1.00  0.00     0.031 C 
ATOM     40  C   UNL     1      -8.154   7.061  -6.961  1.00  0.00     0.029 A 
ATOM     41  N   UNL     1      -9.520   6.427  -8.613  1.00  0.00    -0.354 N 
ATOM     42  C   UNL     1     -12.050   2.947  -8.197  1.00  0.00     0.074 A 
ATOM     43  C   UNL     1     -11.871   2.327  -6.903  1.00  0.00     0.031 C 
ATOM     44  C   UNL     1      -7.969   7.910  -7.985  1.00  0.00     0.029 A 
ATOM     45  C   UNL     1      -8.829   7.512  -9.095  1.00  0.00     0.049 A 
ATOM     46  H   UNL     1     -10.197   5.942  -9.139  1.00  0.00     0.167 HD
ATOM     47  C   UNL     1     -12.907   2.498  -9.145  1.00  0.00     0.037 A 
ATOM     48  C   UNL     1      -8.880   8.113 -10.299  1.00  0.00     0.037 A 
ATOM     49  C   UNL     1     -13.097   3.130 -10.425  1.00  0.00     0.049 A 
ATOM     50  C   UNL     1      -9.830   7.587 -11.342  1.00  0.00     0.074 A 
ATOM     51  C   UNL     1     -13.977   2.785 -11.435  1.00  0.00     0.029 A 
ATOM     52  N   UNL     1     -12.390   4.238 -10.870  1.00  0.00    -0.354 N 
ATOM     53  N   UNL     1     -10.660   6.575 -11.273  1.00  0.00    -0.248 NA
ATOM     54  C   UNL     1      -9.854   8.294 -12.630  1.00  0.00     0.031 C 
ATOM     55  C   UNL     1     -13.765   3.650 -12.514  1.00  0.00     0.029 A 
ATOM     56  C   UNL     1     -12.799   4.576 -12.151  1.00  0.00     0.049 A 
ATOM     57  H   UNL     1     -11.700   4.714 -10.354  1.00  0.00     0.167 HD
ATOM     58  C   UNL     1     -11.332   6.548 -12.488  1.00  0.00     0.074 A 
ATOM     59  C   UNL     1     -10.819   7.651 -13.272  1.00  0.00     0.031 C 
ATOM     60  C   UNL     1     -12.290   5.688 -12.914  1.00  0.00     0.037 A 
BRANCH  47  61
ATOM     61  C   UNL     1     -13.703   1.263  -8.831  1.00  0.00     0.064 A 
ATOM     62  C   UNL     1     -14.700   1.259  -7.842  1.00  0.00     0.173 A 
ATOM     63  C   UNL     1     -13.484   0.073  -9.542  1.00  0.00     0.173 A 
ATOM     64  F   UNL     1     -14.944   2.366  -7.124  1.00  0.00    -0.203 F 
ATOM     65  C   UNL     1     -15.418   0.102  -7.550  1.00  0.00     0.198 A 
ATOM     66  C   UNL     1     -14.229  -1.072  -9.273  1.00  0.00     0.198 A 
ATOM     67  F   UNL     1     -12.549   0.021 -10.503  1.00  0.00    -0.203 F 
ATOM     68  F   UNL     1     -16.320   0.107  -6.559  1.00  0.00    -0.200 F 
ATOM     69  C   UNL     1     -15.187  -1.060  -8.271  1.00  0.00     0.200 A 
ATOM     70  F   UNL     1     -14.016  -2.189  -9.981  1.00  0.00    -0.200 F 
ATOM     71  F   UNL     1     -15.883  -2.171  -7.993  1.00  0.00    -0.200 F 
ENDBRANCH  47  61
BRANCH  48  72
ATOM     72  C   UNL     1      -8.027   9.300 -10.575  1.00  0.00     0.064 A 
ATOM     73  C   UNL     1      -8.596  10.570 -10.744  1.00  0.00     0.173 A 
ATOM     74  C   UNL     1      -6.633   9.191 -10.685  1.00  0.00     0.173 A 
ATOM     75  F   UNL     1      -9.926  10.723 -10.669  1.00  0.00    -0.203 F 
ATOM     76  C   UNL     1      -7.806  11.681 -11.036  1.00  0.00     0.198 A 
ATOM     77  C   UNL     1      -5.842  10.308 -10.945  1.00  0.00     0.198 A 
ATOM     78  F   UNL     1      -6.037   8.000 -10.526  1.00  0.00    -0.203 F 
ATOM     79  F   UNL     1      -8.382  12.873 -11.242  1.00  0.00    -0.200 F 
ATOM     80  C   UNL     1      -6.429  11.550 -11.130  1.00  0.00     0.200 A 
ATOM     81  F   UNL     1      -4.510  10.180 -11.019  1.00  0.00    -0.200 F 
ATOM     82  F   UNL     1      -5.670  12.619 -11.406  1.00  0.00    -0.200 F 
ENDBRANCH  48  72
BRANCH  60  83
ATOM     83  C   UNL     1     -12.890   5.937 -14.269  1.00  0.00     0.064 A 
ATOM     84  C   UNL     1     -12.165   5.730 -15.452  1.00  0.00     0.173 A 
ATOM     85  C   UNL     1     -14.226   6.352 -14.383  1.00  0.00     0.173 A 
ATOM     86  F   UNL     1     -10.881   5.346 -15.399  1.00  0.00    -0.203 F 
ATOM     87  C   UNL     1     -12.746   5.960 -16.697  1.00  0.00     0.198 A 
ATOM     88  C   UNL     1     -14.814   6.547 -15.629  1.00  0.00     0.198 A 
ATOM     89  F   UNL     1     -14.967   6.557 -13.283  1.00  0.00    -0.203 F 
ATOM     90  F   UNL     1     -12.018   5.809 -17.812  1.00  0.00    -0.200 F 
ATOM     91  C   UNL     1     -14.071   6.360 -16.785  1.00  0.00     0.200 A 
ATOM     92  F   UNL     1     -16.100   6.916 -15.711  1.00  0.00    -0.200 F 
ATOM     93  F   UNL     1     -14.631   6.573 -17.983  1.00  0.00    -0.200 F 
ENDBRANCH  60  83
ENDBRANCH  34  35
ENDBRANCH  26  29
ENDBRANCH  24  25
ENDBRANCH  23  24
ENDBRANCH  22  23
ENDBRANCH   1  22
TORSDOF 15
