REMARK SMILES C[C@@]1(C[NH2+]CC(=O)NCCCCNC(=O)c2ccc(-c3c4nc(c(-c5c(F)c(F)c(F)c(F)c5F)c5ccc([nH]5)c(-c5c(F)c(F)c(F)c(F)c5F)c5nc(c(-c6c(F)c(F)c(F)c(F)c6F)c6ccc3[nH]6)C=C5)C=C4)cc2)CCCO1
REMARK SMILES IDX 10 1 9 2 8 3 6 4 7 5 5 7 4 8 3 11 2 12 1 13 79 14 82 15
REMARK SMILES IDX 80 16 81 17 11 18 12 19 13 20 14 21 15 23 16 24 17 25 78 26
REMARK SMILES IDX 18 27 77 28 19 29 20 30 21 31 71 32 22 33 76 34 70 35 72 36
REMARK SMILES IDX 23 37 75 38 69 39 68 40 24 42 56 43 36 44 55 45 37 46 40 47
REMARK SMILES IDX 54 48 73 49 38 50 39 51 53 53 74 54 41 55 25 56 26 57 34 58
REMARK SMILES IDX 27 59 28 60 32 61 35 62 29 63 30 64 33 65 31 66 57 67 58 68
REMARK SMILES IDX 66 69 59 70 60 71 64 72 67 73 61 74 62 75 65 76 63 77 42 78
REMARK SMILES IDX 43 79 51 80 44 81 45 82 49 83 52 84 46 85 47 86 50 87 48 88
REMARK H PARENT 8 6 4 9 4 10 13 22 72 41 40 52
REMARK Flexibility Score: inf
ROOT
ATOM      1  C   UNL     1      -1.354   2.098  -3.695  1.00  0.00     0.023 C 
ENDROOT
BRANCH   1   2
ATOM      2  C   UNL     1      -0.758   1.103  -4.695  1.00  0.00     0.116 C 
BRANCH   2   3
ATOM      3  N   UNL     1       0.559   1.536  -5.128  1.00  0.00    -0.351 N 
ATOM      4  C   UNL     1       1.797   1.124  -4.716  1.00  0.00     0.275 C 
ATOM      5  O   UNL     1       2.773   1.783  -5.086  1.00  0.00    -0.269 OA
ATOM      6  H   UNL     1       0.561   2.232  -5.824  1.00  0.00     0.163 HD
BRANCH   4   7
ATOM      7  C   UNL     1       1.966  -0.117  -3.826  1.00  0.00     0.361 C 
BRANCH   7   8
ATOM      8  N   UNL     1       2.173   0.206  -2.398  1.00  0.00    -0.336 N 
ATOM      9  H   UNL     1       2.448  -0.644  -1.904  1.00  0.00     0.346 HD
ATOM     10  H   UNL     1       2.901   0.918  -2.337  1.00  0.00     0.346 HD
BRANCH   8  11
ATOM     11  C   UNL     1       0.960   0.742  -1.777  1.00  0.00     0.296 C 
BRANCH  11  12
ATOM     12  C   UNL     1       0.993   1.027  -0.252  1.00  0.00     0.114 C 
ATOM     13  C   UNL     1       1.566  -0.147   0.533  1.00  0.00     0.048 C 
ATOM     14  C   UNL     1      -0.404   1.402   0.256  1.00  0.00     0.043 C 
ATOM     15  O   UNL     1       1.786   2.206  -0.006  1.00  0.00    -0.369 OA
ATOM     16  C   UNL     1      -0.509   2.882  -0.022  1.00  0.00     0.032 C 
ATOM     17  C   UNL     1       0.930   3.358  -0.037  1.00  0.00     0.161 C 
ENDBRANCH  11  12
ENDBRANCH   8  11
ENDBRANCH   7   8
ENDBRANCH   4   7
ENDBRANCH   2   3
ENDBRANCH   1   2
BRANCH   1  18
ATOM     18  C   UNL     1      -2.226   3.187  -4.295  1.00  0.00     0.023 C 
BRANCH  18  19
ATOM     19  C   UNL     1      -3.555   2.693  -4.834  1.00  0.00     0.116 C 
BRANCH  19  20
ATOM     20  N   UNL     1      -4.431   2.143  -3.800  1.00  0.00    -0.352 N 
ATOM     21  C   UNL     1      -5.676   2.551  -3.384  1.00  0.00     0.251 C 
ATOM     22  H   UNL     1      -4.072   1.358  -3.328  1.00  0.00     0.163 HD
ATOM     23  O   UNL     1      -6.209   2.025  -2.416  1.00  0.00    -0.269 OA
BRANCH  21  24
ATOM     24  C   UNL     1      -6.348   3.671  -4.081  1.00  0.00     0.039 A 
ATOM     25  C   UNL     1      -6.912   4.702  -3.325  1.00  0.00     0.014 A 
ATOM     26  C   UNL     1      -6.342   3.741  -5.473  1.00  0.00     0.014 A 
ATOM     27  C   UNL     1      -7.344   5.865  -3.966  1.00  0.00     0.010 A 
ATOM     28  C   UNL     1      -6.664   4.939  -6.095  1.00  0.00     0.010 A 
ATOM     29  C   UNL     1      -7.150   6.022  -5.347  1.00  0.00    -0.014 A 
BRANCH  29  30
ATOM     30  C   UNL     1      -7.404   7.312  -6.039  1.00  0.00     0.031 A 
ATOM     31  C   UNL     1      -8.370   7.367  -7.189  1.00  0.00     0.074 A 
ATOM     32  C   UNL     1      -6.668   8.396  -5.720  1.00  0.00     0.049 A 
ATOM     33  N   UNL     1      -8.592   8.337  -8.038  1.00  0.00    -0.248 NA
ATOM     34  C   UNL     1      -9.157   6.150  -7.448  1.00  0.00     0.031 C 
ATOM     35  C   UNL     1      -5.645   8.453  -4.674  1.00  0.00     0.029 A 
ATOM     36  N   UNL     1      -6.649   9.656  -6.267  1.00  0.00    -0.354 N 
ATOM     37  C   UNL     1      -9.508   7.834  -8.951  1.00  0.00     0.074 A 
ATOM     38  C   UNL     1      -9.770   6.461  -8.581  1.00  0.00     0.031 C 
ATOM     39  C   UNL     1      -5.112   9.685  -4.642  1.00  0.00     0.029 A 
ATOM     40  C   UNL     1      -5.720  10.492  -5.694  1.00  0.00     0.049 A 
ATOM     41  H   UNL     1      -7.244   9.935  -7.000  1.00  0.00     0.167 HD
ATOM     42  C   UNL     1     -10.095   8.469  -9.993  1.00  0.00     0.037 A 
ATOM     43  C   UNL     1      -5.384  11.761  -5.995  1.00  0.00     0.037 A 
ATOM     44  C   UNL     1      -9.886   9.854 -10.316  1.00  0.00     0.049 A 
ATOM     45  C   UNL     1      -6.084  12.456  -7.130  1.00  0.00     0.074 A 
ATOM     46  C   UNL     1     -10.524  10.621 -11.274  1.00  0.00     0.029 A 
ATOM     47  N   UNL     1      -8.973  10.682  -9.680  1.00  0.00    -0.354 N 
ATOM     48  N   UNL     1      -7.005  11.992  -7.939  1.00  0.00    -0.248 NA
ATOM     49  C   UNL     1      -5.695  13.848  -7.396  1.00  0.00     0.031 C 
ATOM     50  C   UNL     1      -9.973  11.906 -11.241  1.00  0.00     0.029 A 
ATOM     51  C   UNL     1      -9.015  11.947 -10.241  1.00  0.00     0.049 A 
ATOM     52  H   UNL     1      -8.383  10.411  -8.940  1.00  0.00     0.167 HD
ATOM     53  C   UNL     1      -7.314  13.035  -8.800  1.00  0.00     0.074 A 
ATOM     54  C   UNL     1      -6.498  14.163  -8.403  1.00  0.00     0.031 C 
ATOM     55  C   UNL     1      -8.192  13.055  -9.832  1.00  0.00     0.037 A 
BRANCH  42  56
ATOM     56  C   UNL     1     -11.036   7.677 -10.850  1.00  0.00     0.064 A 
ATOM     57  C   UNL     1     -12.302   7.290 -10.387  1.00  0.00     0.173 A 
ATOM     58  C   UNL     1     -10.684   7.338 -12.164  1.00  0.00     0.173 A 
ATOM     59  F   UNL     1     -12.679   7.578  -9.132  1.00  0.00    -0.203 F 
ATOM     60  C   UNL     1     -13.172   6.570 -11.201  1.00  0.00     0.198 A 
ATOM     61  C   UNL     1     -11.567   6.641 -12.985  1.00  0.00     0.198 A 
ATOM     62  F   UNL     1      -9.485   7.687 -12.655  1.00  0.00    -0.203 F 
ATOM     63  F   UNL     1     -14.360   6.173 -10.723  1.00  0.00    -0.200 F 
ATOM     64  C   UNL     1     -12.807   6.253 -12.501  1.00  0.00     0.200 A 
ATOM     65  F   UNL     1     -11.216   6.342 -14.243  1.00  0.00    -0.200 F 
ATOM     66  F   UNL     1     -13.649   5.566 -13.285  1.00  0.00    -0.200 F 
ENDBRANCH  42  56
BRANCH  43  67
ATOM     67  C   UNL     1      -4.337  12.461  -5.207  1.00  0.00     0.064 A 
ATOM     68  C   UNL     1      -4.677  13.495  -4.324  1.00  0.00     0.173 A 
ATOM     69  C   UNL     1      -2.982  12.119  -5.324  1.00  0.00     0.173 A 
ATOM     70  F   UNL     1      -5.958  13.871  -4.196  1.00  0.00    -0.203 F 
ATOM     71  C   UNL     1      -3.699  14.175  -3.601  1.00  0.00     0.198 A 
ATOM     72  C   UNL     1      -2.007  12.783  -4.582  1.00  0.00     0.198 A 
ATOM     73  F   UNL     1      -2.607  11.133  -6.152  1.00  0.00    -0.203 F 
ATOM     74  F   UNL     1      -4.046  15.188  -2.796  1.00  0.00    -0.200 F 
ATOM     75  C   UNL     1      -2.365  13.815  -3.727  1.00  0.00     0.200 A 
ATOM     76  F   UNL     1      -0.721  12.425  -4.697  1.00  0.00    -0.200 F 
ATOM     77  F   UNL     1      -1.425  14.468  -3.030  1.00  0.00    -0.200 F 
ENDBRANCH  43  67
BRANCH  55  78
ATOM     78  C   UNL     1      -8.320  14.336 -10.597  1.00  0.00     0.064 A 
ATOM     79  C   UNL     1      -7.335  14.741 -11.508  1.00  0.00     0.173 A 
ATOM     80  C   UNL     1      -9.460  15.141 -10.455  1.00  0.00     0.173 A 
ATOM     81  F   UNL     1      -6.220  14.011 -11.664  1.00  0.00    -0.203 F 
ATOM     82  C   UNL     1      -7.479  15.915 -12.241  1.00  0.00     0.198 A 
ATOM     83  C   UNL     1      -9.612  16.302 -11.207  1.00  0.00     0.198 A 
ATOM     84  F   UNL     1     -10.432  14.792  -9.598  1.00  0.00    -0.203 F 
ATOM     85  F   UNL     1      -6.510  16.301 -13.081  1.00  0.00    -0.200 F 
ATOM     86  C   UNL     1      -8.621  16.690 -12.095  1.00  0.00     0.200 A 
ATOM     87  F   UNL     1     -10.720  17.045 -11.073  1.00  0.00    -0.200 F 
ATOM     88  F   UNL     1      -8.762  17.815 -12.809  1.00  0.00    -0.200 F 
ENDBRANCH  55  78
ENDBRANCH  29  30
ENDBRANCH  21  24
ENDBRANCH  19  20
ENDBRANCH  18  19
ENDBRANCH   1  18
TORSDOF 14
