REMARK SMILES C[C@@H](C(=O)NCCCCNC(=O)c1ccc(-c2c3nc(c(-c4c(F)c(F)c(F)c(F)c4F)c4ccc([nH]4)c(-c4c(F)c(F)c(F)c(F)c4F)c4nc(c(-c5c(F)c(F)c(F)c(F)c5F)c5ccc2[nH]5)C=C4)C=C3)cc1)c1ccc(C[C@H]2CCC[C@H]2O)cc1
REMARK SMILES IDX 6 1 5 2 3 3 4 4 2 6 1 7 76 8 77 9 88 10 78 11 87 12 79 13
REMARK SMILES IDX 80 14 81 15 82 16 85 17 83 18 84 19 86 20 7 22 8 23 9 24
REMARK SMILES IDX 10 25 11 26 12 28 13 29 14 30 75 31 15 32 74 33 16 34 17 35
REMARK SMILES IDX 18 36 68 37 19 38 73 39 67 40 69 41 20 42 72 43 66 44 65 45
REMARK SMILES IDX 21 47 53 48 33 49 52 50 34 51 37 52 51 53 70 54 35 55 36 56
REMARK SMILES IDX 50 58 71 59 38 60 22 61 23 62 31 63 24 64 25 65 29 66 32 67
REMARK SMILES IDX 26 68 27 69 30 70 28 71 54 72 55 73 63 74 56 75 57 76 61 77
REMARK SMILES IDX 64 78 58 79 59 80 62 81 60 82 39 83 40 84 48 85 41 86 42 87
REMARK SMILES IDX 46 88 49 89 43 90 44 91 47 92 45 93
REMARK H PARENT 5 5 86 21 10 27 69 46 37 57
REMARK Flexibility Score: inf
ROOT
ATOM      1  C   UNL     1       3.496   0.238  -1.772  1.00  0.00     0.116 C 
ENDROOT
BRANCH   1   2
ATOM      2  N   UNL     1       2.501  -0.491  -2.531  1.00  0.00    -0.356 N 
ATOM      3  C   UNL     1       1.159  -0.633  -2.313  1.00  0.00     0.227 C 
ATOM      4  O   UNL     1       0.562  -1.430  -3.038  1.00  0.00    -0.274 OA
ATOM      5  H   UNL     1       2.844  -0.958  -3.326  1.00  0.00     0.163 HD
BRANCH   3   6
ATOM      6  C   UNL     1       0.476   0.203  -1.225  1.00  0.00     0.105 C 
ATOM      7  C   UNL     1       0.829  -0.280   0.187  1.00  0.00     0.023 C 
BRANCH   6   8
ATOM      8  C   UNL     1      -1.039   0.255  -1.380  1.00  0.00    -0.036 A 
ATOM      9  C   UNL     1      -1.662   1.445  -1.777  1.00  0.00     0.005 A 
ATOM     10  C   UNL     1      -1.841  -0.853  -1.072  1.00  0.00     0.005 A 
ATOM     11  C   UNL     1      -3.053   1.551  -1.764  1.00  0.00     0.004 A 
ATOM     12  C   UNL     1      -3.230  -0.737  -1.039  1.00  0.00     0.004 A 
ATOM     13  C   UNL     1      -3.845   0.487  -1.323  1.00  0.00    -0.048 A 
BRANCH  13  14
ATOM     14  C   UNL     1      -5.325   0.668  -1.095  1.00  0.00     0.041 C 
BRANCH  14  15
ATOM     15  C   UNL     1      -5.757   1.167   0.299  1.00  0.00     0.022 C 
ATOM     16  C   UNL     1      -5.194   0.401   1.510  1.00  0.00     0.007 C 
ATOM     17  C   UNL     1      -5.518   2.647   0.639  1.00  0.00     0.117 C 
ATOM     18  C   UNL     1      -5.128   1.410   2.661  1.00  0.00     0.003 C 
ATOM     19  C   UNL     1      -5.779   2.688   2.140  1.00  0.00     0.032 C 
BRANCH  17  20
ATOM     20  O   UNL     1      -4.200   3.108   0.398  1.00  0.00    -0.393 OA
ATOM     21  H   UNL     1      -3.573   2.583   0.920  1.00  0.00     0.210 HD
ENDBRANCH  17  20
ENDBRANCH  14  15
ENDBRANCH  13  14
ENDBRANCH   6   8
ENDBRANCH   3   6
ENDBRANCH   1   2
BRANCH   1  22
ATOM     22  C   UNL     1       4.320  -0.705  -0.892  1.00  0.00     0.023 C 
BRANCH  22  23
ATOM     23  C   UNL     1       5.122  -1.758  -1.661  1.00  0.00     0.023 C 
BRANCH  23  24
ATOM     24  C   UNL     1       6.075  -1.208  -2.715  1.00  0.00     0.116 C 
BRANCH  24  25
ATOM     25  N   UNL     1       7.075  -0.309  -2.159  1.00  0.00    -0.352 N 
ATOM     26  C   UNL     1       8.432  -0.280  -2.379  1.00  0.00     0.251 C 
ATOM     27  H   UNL     1       6.732   0.374  -1.538  1.00  0.00     0.163 HD
ATOM     28  O   UNL     1       9.153   0.465  -1.733  1.00  0.00    -0.269 OA
BRANCH  26  29
ATOM     29  C   UNL     1       9.019  -1.195  -3.381  1.00  0.00     0.039 A 
ATOM     30  C   UNL     1      10.091  -2.008  -3.002  1.00  0.00     0.014 A 
ATOM     31  C   UNL     1       8.482  -1.284  -4.668  1.00  0.00     0.014 A 
ATOM     32  C   UNL     1      10.563  -2.981  -3.885  1.00  0.00     0.010 A 
ATOM     33  C   UNL     1       8.917  -2.290  -5.526  1.00  0.00     0.010 A 
ATOM     34  C   UNL     1       9.945  -3.162  -5.132  1.00  0.00    -0.014 A 
BRANCH  34  35
ATOM     35  C   UNL     1      10.304  -4.299  -6.016  1.00  0.00     0.031 A 
ATOM     36  C   UNL     1      10.924  -4.050  -7.360  1.00  0.00     0.074 A 
ATOM     37  C   UNL     1       9.965  -5.551  -5.646  1.00  0.00     0.049 A 
ATOM     38  N   UNL     1      11.179  -4.900  -8.321  1.00  0.00    -0.248 NA
ATOM     39  C   UNL     1      11.282  -2.659  -7.676  1.00  0.00     0.031 C 
ATOM     40  C   UNL     1       9.311  -5.912  -4.387  1.00  0.00     0.029 A 
ATOM     41  N   UNL     1      10.093  -6.747  -6.308  1.00  0.00    -0.354 N 
ATOM     42  C   UNL     1      11.705  -4.147  -9.362  1.00  0.00     0.074 A 
ATOM     43  C   UNL     1      11.709  -2.767  -8.927  1.00  0.00     0.031 C 
ATOM     44  C   UNL     1       9.090  -7.237  -4.369  1.00  0.00     0.029 A 
ATOM     45  C   UNL     1       9.547  -7.811  -5.630  1.00  0.00     0.049 A 
ATOM     46  H   UNL     1      10.533  -6.835  -7.184  1.00  0.00     0.167 HD
ATOM     47  C   UNL     1      12.153  -4.576 -10.565  1.00  0.00     0.037 A 
ATOM     48  C   UNL     1       9.405  -9.100  -5.996  1.00  0.00     0.037 A 
ATOM     49  C   UNL     1      12.186  -5.955 -10.976  1.00  0.00     0.049 A 
ATOM     50  C   UNL     1       9.908  -9.542  -7.343  1.00  0.00     0.074 A 
ATOM     51  C   UNL     1      12.729  -6.496 -12.128  1.00  0.00     0.029 A 
ATOM     52  N   UNL     1      11.645  -7.007 -10.255  1.00  0.00    -0.354 N 
ATOM     53  N   UNL     1      10.491  -8.835  -8.280  1.00  0.00    -0.248 NA
ATOM     54  C   UNL     1       9.731 -10.961  -7.685  1.00  0.00     0.031 C 
ATOM     55  C   UNL     1      12.473  -7.871 -12.128  1.00  0.00     0.029 A 
ATOM     56  C   UNL     1      11.807  -8.191 -10.956  1.00  0.00     0.049 A 
ATOM     57  H   UNL     1      11.211  -6.926  -9.375  1.00  0.00     0.167 HD
ATOM     58  C   UNL     1      10.763  -9.722  -9.312  1.00  0.00     0.074 A 
ATOM     59  C   UNL     1      10.302 -11.024  -8.880  1.00  0.00     0.031 C 
ATOM     60  C   UNL     1      11.340  -9.478 -10.513  1.00  0.00     0.037 A 
BRANCH  47  61
ATOM     61  C   UNL     1      12.657  -3.551 -11.535  1.00  0.00     0.064 A 
ATOM     62  C   UNL     1      13.898  -2.922 -11.360  1.00  0.00     0.173 A 
ATOM     63  C   UNL     1      11.929  -3.261 -12.698  1.00  0.00     0.173 A 
ATOM     64  F   UNL     1      14.627  -3.161 -10.260  1.00  0.00    -0.203 F 
ATOM     65  C   UNL     1      14.388  -2.032 -12.312  1.00  0.00     0.198 A 
ATOM     66  C   UNL     1      12.432  -2.388 -13.659  1.00  0.00     0.198 A 
ATOM     67  F   UNL     1      10.739  -3.842 -12.914  1.00  0.00    -0.203 F 
ATOM     68  F   UNL     1      15.566  -1.425 -12.116  1.00  0.00    -0.200 F 
ATOM     69  C   UNL     1      13.660  -1.774 -13.465  1.00  0.00     0.200 A 
ATOM     70  F   UNL     1      11.733  -2.149 -14.777  1.00  0.00    -0.200 F 
ATOM     71  F   UNL     1      14.142  -0.931 -14.389  1.00  0.00    -0.200 F 
ENDBRANCH  47  61
BRANCH  48  72
ATOM     72  C   UNL     1       8.737 -10.065  -5.085  1.00  0.00     0.064 A 
ATOM     73  C   UNL     1       9.460 -11.097  -4.472  1.00  0.00     0.173 A 
ATOM     74  C   UNL     1       7.359  -9.993  -4.832  1.00  0.00     0.173 A 
ATOM     75  F   UNL     1      10.776 -11.221  -4.703  1.00  0.00    -0.203 F 
ATOM     76  C   UNL     1       8.827 -12.036  -3.660  1.00  0.00     0.198 A 
ATOM     77  C   UNL     1       6.732 -10.916  -3.998  1.00  0.00     0.198 A 
ATOM     78  F   UNL     1       6.623  -9.023  -5.393  1.00  0.00    -0.203 F 
ATOM     79  F   UNL     1       9.533 -13.044  -3.130  1.00  0.00    -0.200 F 
ATOM     80  C   UNL     1       7.464 -11.943  -3.421  1.00  0.00     0.200 A 
ATOM     81  F   UNL     1       5.417 -10.815  -3.759  1.00  0.00    -0.200 F 
ATOM     82  F   UNL     1       6.855 -12.848  -2.643  1.00  0.00    -0.200 F 
ENDBRANCH  48  72
BRANCH  60  83
ATOM     83  C   UNL     1      11.514 -10.643 -11.441  1.00  0.00     0.064 A 
ATOM     84  C   UNL     1      10.422 -11.200 -12.123  1.00  0.00     0.173 A 
ATOM     85  C   UNL     1      12.788 -11.175 -11.687  1.00  0.00     0.173 A 
ATOM     86  F   UNL     1       9.183 -10.735 -11.906  1.00  0.00    -0.203 F 
ATOM     87  C   UNL     1      10.599 -12.261 -13.007  1.00  0.00     0.198 A 
ATOM     88  C   UNL     1      12.964 -12.219 -12.592  1.00  0.00     0.198 A 
ATOM     89  F   UNL     1      13.863 -10.674 -11.062  1.00  0.00    -0.203 F 
ATOM     90  F   UNL     1       9.537 -12.803 -13.619  1.00  0.00    -0.200 F 
ATOM     91  C   UNL     1      11.869 -12.763 -13.247  1.00  0.00     0.200 A 
ATOM     92  F   UNL     1      14.193 -12.696 -12.831  1.00  0.00    -0.200 F 
ATOM     93  F   UNL     1      12.038 -13.778 -14.106  1.00  0.00    -0.200 F 
ENDBRANCH  60  83
ENDBRANCH  34  35
ENDBRANCH  26  29
ENDBRANCH  24  25
ENDBRANCH  23  24
ENDBRANCH  22  23
ENDBRANCH   1  22
TORSDOF 15
