REMARK SMILES CC(=O)N[C@H]1[C@@H](Oc2ccc(C)c(C)c2)O[C@H]2CO[C@H](c3ccco3)O[C@@H]2[C@H]1OCC(=O)NCCCCNC(=O)c1ccc(-c2c3nc(c(-c4c(F)c(F)c(F)c(F)c4F)c4ccc([nH]4)c(-c4c(F)c(F)c(F)c(F)c4F)c4nc(c(-c5c(F)c(F)c(F)c(F)c5F)c5ccc2[nH]5)C=C4)C=C3)cc1
REMARK SMILES IDX 34 1 33 2 31 3 32 4 30 6 29 7 28 8 5 9 6 10 16 11 27 12
REMARK SMILES IDX 17 13 26 14 18 15 20 16 19 17 4 18 1 19 2 20 3 21 7 23 8 24
REMARK SMILES IDX 9 25 15 26 10 27 13 28 11 29 14 30 12 31 21 32 22 33 25 34
REMARK SMILES IDX 23 35 24 36 35 37 36 38 37 39 38 40 39 41 40 43 41 44 42 45
REMARK SMILES IDX 103 46 43 47 102 48 44 49 45 50 46 51 96 52 47 53 101 54
REMARK SMILES IDX 95 55 97 56 48 57 100 58 94 59 93 60 49 62 81 63 61 64 80 65
REMARK SMILES IDX 62 66 65 67 79 68 98 69 63 70 64 71 78 73 99 74 66 75 50 76
REMARK SMILES IDX 51 77 59 78 52 79 53 80 57 81 60 82 54 83 55 84 58 85 56 86
REMARK SMILES IDX 82 87 83 88 91 89 84 90 85 91 89 92 92 93 86 94 87 95 90 96
REMARK SMILES IDX 88 97 67 98 68 99 76 100 69 101 70 102 74 103 77 104 71 105
REMARK SMILES IDX 72 106 75 107 73 108
REMARK H PARENT 33 5 4 22 38 42 97 61 65 72
REMARK Flexibility Score: inf
ROOT
ATOM      1  C   UNL     1      -0.332   6.179   1.825  1.00  0.00     0.116 C 
ENDROOT
BRANCH   1   2
ATOM      2  N   UNL     1       0.363   7.110   0.965  1.00  0.00    -0.354 N 
ATOM      3  C   UNL     1       0.497   7.077  -0.388  1.00  0.00     0.246 C 
ATOM      4  O   UNL     1       1.165   7.969  -0.907  1.00  0.00    -0.272 OA
ATOM      5  H   UNL     1       0.796   7.868   1.419  1.00  0.00     0.163 HD
BRANCH   3   6
ATOM      6  C   UNL     1      -0.214   5.971  -1.175  1.00  0.00     0.260 C 
BRANCH   6   7
ATOM      7  O   UNL     1       0.196   4.631  -0.946  1.00  0.00    -0.363 OA
BRANCH   7   8
ATOM      8  C   UNL     1       1.560   4.283  -1.279  1.00  0.00     0.179 C 
ATOM      9  C   UNL     1       1.741   2.762  -0.931  1.00  0.00     0.182 C 
ATOM     10  C   UNL     1       3.061   2.177  -1.576  1.00  0.00     0.333 C 
ATOM     11  O   UNL     1       3.353   2.622  -2.902  1.00  0.00    -0.332 OA
ATOM     12  C   UNL     1       1.917   4.547  -2.758  1.00  0.00     0.184 C 
ATOM     13  C   UNL     1       3.321   4.029  -3.039  1.00  0.00     0.180 C 
ATOM     14  O   UNL     1       1.894   5.938  -3.048  1.00  0.00    -0.337 OA
ATOM     15  C   UNL     1       3.720   4.413  -4.467  1.00  0.00     0.199 C 
ATOM     16  C   UNL     1       2.189   6.184  -4.420  1.00  0.00     0.319 C 
ATOM     17  O   UNL     1       3.531   5.804  -4.711  1.00  0.00    -0.343 OA
BRANCH   9  18
ATOM     18  N   UNL     1       0.491   2.037  -1.250  1.00  0.00    -0.345 N 
ATOM     19  C   UNL     1       0.566   0.328   0.553  1.00  0.00     0.114 C 
ATOM     20  C   UNL     1      -0.107   0.988  -0.620  1.00  0.00     0.217 C 
ATOM     21  O   UNL     1      -1.220   0.624  -1.003  1.00  0.00    -0.275 OA
ATOM     22  H   UNL     1       0.014   2.366  -2.046  1.00  0.00     0.164 HD
ENDBRANCH   9  18
BRANCH  10  23
ATOM     23  O   UNL     1       3.222   0.753  -1.460  1.00  0.00    -0.463 OA
BRANCH  23  24
ATOM     24  C   UNL     1       2.492  -0.087  -2.259  1.00  0.00     0.123 A 
ATOM     25  C   UNL     1       1.702   0.281  -3.343  1.00  0.00     0.047 A 
ATOM     26  C   UNL     1       2.497  -1.426  -1.860  1.00  0.00     0.050 A 
ATOM     27  C   UNL     1       0.810  -0.632  -3.907  1.00  0.00     0.007 A 
ATOM     28  C   UNL     1       1.623  -2.368  -2.436  1.00  0.00    -0.045 A 
ATOM     29  C   UNL     1       0.721  -1.944  -3.427  1.00  0.00    -0.048 A 
ATOM     30  C   UNL     1       1.671  -3.780  -1.922  1.00  0.00     0.045 C 
ATOM     31  C   UNL     1      -0.355  -2.838  -3.976  1.00  0.00     0.044 C 
ENDBRANCH  23  24
ENDBRANCH  10  23
BRANCH  16  32
ATOM     32  C   UNL     1       2.053   7.643  -4.693  1.00  0.00     0.159 A 
ATOM     33  C   UNL     1       2.248   8.411  -5.827  1.00  0.00     0.051 A 
ATOM     34  O   UNL     1       1.596   8.444  -3.685  1.00  0.00    -0.464 OA
ATOM     35  C   UNL     1       1.911   9.744  -5.480  1.00  0.00     0.042 A 
ATOM     36  C   UNL     1       1.531   9.710  -4.161  1.00  0.00     0.195 A 
ENDBRANCH  16  32
ENDBRANCH   7   8
ENDBRANCH   6   7
ENDBRANCH   3   6
ENDBRANCH   1   2
BRANCH   1  37
ATOM     37  C   UNL     1       0.646   5.425   2.720  1.00  0.00     0.023 C 
BRANCH  37  38
ATOM     38  C   UNL     1       1.555   6.322   3.567  1.00  0.00     0.023 C 
BRANCH  38  39
ATOM     39  C   UNL     1       0.848   7.437   4.329  1.00  0.00     0.116 C 
BRANCH  39  40
ATOM     40  N   UNL     1      -0.182   6.941   5.225  1.00  0.00    -0.352 N 
ATOM     41  C   UNL     1      -0.420   7.267   6.536  1.00  0.00     0.251 C 
ATOM     42  H   UNL     1      -0.797   6.277   4.837  1.00  0.00     0.163 HD
ATOM     43  O   UNL     1      -1.255   6.643   7.185  1.00  0.00    -0.269 OA
BRANCH  41  44
ATOM     44  C   UNL     1       0.358   8.346   7.179  1.00  0.00     0.039 A 
ATOM     45  C   UNL     1       0.898   8.115   8.445  1.00  0.00     0.014 A 
ATOM     46  C   UNL     1       0.568   9.569   6.535  1.00  0.00     0.014 A 
ATOM     47  C   UNL     1       1.704   9.087   9.039  1.00  0.00     0.010 A 
ATOM     48  C   UNL     1       1.436  10.504   7.093  1.00  0.00     0.010 A 
ATOM     49  C   UNL     1       2.013  10.273   8.351  1.00  0.00    -0.014 A 
BRANCH  49  50
ATOM     50  C   UNL     1       2.951  11.267   8.934  1.00  0.00     0.031 A 
ATOM     51  C   UNL     1       2.479  12.651   9.279  1.00  0.00     0.074 A 
ATOM     52  C   UNL     1       4.245  10.932   9.109  1.00  0.00     0.049 A 
ATOM     53  N   UNL     1       3.156  13.657   9.775  1.00  0.00    -0.248 NA
ATOM     54  C   UNL     1       1.066  12.957   9.008  1.00  0.00     0.031 C 
ATOM     55  C   UNL     1       4.836   9.639   8.762  1.00  0.00     0.029 A 
ATOM     56  N   UNL     1       5.297  11.652   9.618  1.00  0.00    -0.354 N 
ATOM     57  C   UNL     1       2.256  14.710   9.868  1.00  0.00     0.074 A 
ATOM     58  C   UNL     1       1.001  14.243   9.321  1.00  0.00     0.031 C 
ATOM     59  C   UNL     1       6.136   9.645   9.098  1.00  0.00     0.029 A 
ATOM     60  C   UNL     1       6.480  10.954   9.644  1.00  0.00     0.049 A 
ATOM     61  H   UNL     1       5.212  12.580   9.935  1.00  0.00     0.167 HD
ATOM     62  C   UNL     1       2.452  15.946  10.387  1.00  0.00     0.037 A 
ATOM     63  C   UNL     1       7.706  11.329  10.057  1.00  0.00     0.037 A 
ATOM     64  C   UNL     1       3.700  16.402  10.943  1.00  0.00     0.049 A 
ATOM     65  C   UNL     1       7.899  12.713  10.617  1.00  0.00     0.074 A 
ATOM     66  C   UNL     1       3.985  17.616  11.543  1.00  0.00     0.029 A 
ATOM     67  N   UNL     1       4.875  15.664  10.958  1.00  0.00    -0.354 N 
ATOM     68  N   UNL     1       7.021  13.673  10.773  1.00  0.00    -0.248 NA
ATOM     69  C   UNL     1       9.254  13.060  11.067  1.00  0.00     0.031 C 
ATOM     70  C   UNL     1       5.345  17.636  11.868  1.00  0.00     0.029 A 
ATOM     71  C   UNL     1       5.893  16.409  11.533  1.00  0.00     0.049 A 
ATOM     72  H   UNL     1       4.971  14.748  10.613  1.00  0.00     0.167 HD
ATOM     73  C   UNL     1       7.706  14.724  11.368  1.00  0.00     0.074 A 
ATOM     74  C   UNL     1       9.070  14.277  11.559  1.00  0.00     0.031 C 
ATOM     75  C   UNL     1       7.246  15.949  11.725  1.00  0.00     0.037 A 
BRANCH  62  76
ATOM     76  C   UNL     1       1.288  16.897  10.378  1.00  0.00     0.064 A 
ATOM     77  C   UNL     1       0.158  16.688  11.183  1.00  0.00     0.173 A 
ATOM     78  C   UNL     1       1.320  18.054   9.585  1.00  0.00     0.173 A 
ATOM     79  F   UNL     1       0.071  15.593  11.954  1.00  0.00    -0.203 F 
ATOM     80  C   UNL     1      -0.909  17.582  11.170  1.00  0.00     0.198 A 
ATOM     81  C   UNL     1       0.266  18.965   9.600  1.00  0.00     0.198 A 
ATOM     82  F   UNL     1       2.378  18.309   8.801  1.00  0.00    -0.203 F 
ATOM     83  F   UNL     1      -2.000  17.332  11.907  1.00  0.00    -0.200 F 
ATOM     84  C   UNL     1      -0.851  18.724  10.385  1.00  0.00     0.200 A 
ATOM     85  F   UNL     1       0.332  20.076   8.854  1.00  0.00    -0.200 F 
ATOM     86  F   UNL     1      -1.874  19.589  10.381  1.00  0.00    -0.200 F 
ENDBRANCH  62  76
BRANCH  63  87
ATOM     87  C   UNL     1       8.841  10.371   9.982  1.00  0.00     0.064 A 
ATOM     88  C   UNL     1       9.429   9.856  11.145  1.00  0.00     0.173 A 
ATOM     89  C   UNL     1       9.366   9.957   8.748  1.00  0.00     0.173 A 
ATOM     90  F   UNL     1       8.976  10.235  12.349  1.00  0.00    -0.203 F 
ATOM     91  C   UNL     1      10.514   8.984  11.079  1.00  0.00     0.198 A 
ATOM     92  C   UNL     1      10.430   9.060   8.683  1.00  0.00     0.198 A 
ATOM     93  F   UNL     1       8.836  10.415   7.605  1.00  0.00    -0.203 F 
ATOM     94  F   UNL     1      11.090   8.548  12.208  1.00  0.00    -0.200 F 
ATOM     95  C   UNL     1      11.010   8.582   9.848  1.00  0.00     0.200 A 
ATOM     96  F   UNL     1      10.894   8.660   7.491  1.00  0.00    -0.200 F 
ATOM     97  F   UNL     1      12.050   7.740   9.785  1.00  0.00    -0.200 F 
ENDBRANCH  63  87
BRANCH  75  98
ATOM     98  C   UNL     1       8.213  16.879  12.402  1.00  0.00     0.064 A 
ATOM     99  C   UNL     1       9.286  17.463  11.712  1.00  0.00     0.173 A 
ATOM    100  C   UNL     1       8.042  17.216  13.754  1.00  0.00     0.173 A 
ATOM    101  F   UNL     1       9.503  17.164  10.422  1.00  0.00    -0.203 F 
ATOM    102  C   UNL     1      10.169  18.324  12.358  1.00  0.00     0.198 A 
ATOM    103  C   UNL     1       8.906  18.105  14.387  1.00  0.00     0.198 A 
ATOM    104  F   UNL     1       7.028  16.692  14.459  1.00  0.00    -0.203 F 
ATOM    105  F   UNL     1      11.219  18.826  11.694  1.00  0.00    -0.200 F 
ATOM    106  C   UNL     1       9.974  18.650  13.692  1.00  0.00     0.200 A 
ATOM    107  F   UNL     1       8.705  18.431  15.671  1.00  0.00    -0.200 F 
ATOM    108  F   UNL     1      10.821  19.485  14.310  1.00  0.00    -0.200 F 
ENDBRANCH  75  98
ENDBRANCH  49  50
ENDBRANCH  41  44
ENDBRANCH  39  40
ENDBRANCH  38  39
ENDBRANCH  37  38
ENDBRANCH   1  37
TORSDOF 17
