REMARK SMILES O=C(NCCCCNC(=O)[C@H]1CC[C@@H](CNc2ccccc2C(F)(F)F)O1)c1ccc(-c2c3nc(c(-c4c(F)c(F)c(F)c(F)c4F)c4ccc([nH]4)c(-c4c(F)c(F)c(F)c(F)c4F)c4nc(c(-c5c(F)c(F)c(F)c(F)c5F)c5ccc2[nH]5)C=C4)C=C3)cc1
REMARK SMILES IDX 6 1 5 2 4 3 3 4 1 5 2 6 28 8 29 9 90 10 30 11 89 12 31 13
REMARK SMILES IDX 32 14 33 15 83 16 34 17 88 18 82 19 84 20 35 21 87 22 81 23
REMARK SMILES IDX 80 24 36 26 68 27 48 28 67 29 49 30 52 31 66 32 85 33 50 34
REMARK SMILES IDX 51 35 65 37 86 38 53 39 37 40 38 41 46 42 39 43 40 44 44 45
REMARK SMILES IDX 47 46 41 47 42 48 45 49 43 50 69 51 70 52 78 53 71 54 72 55
REMARK SMILES IDX 76 56 79 57 73 58 74 59 77 60 75 61 54 62 55 63 63 64 56 65
REMARK SMILES IDX 57 66 61 67 64 68 58 69 59 70 62 71 60 72 7 73 8 74 9 75
REMARK SMILES IDX 10 77 11 78 12 79 27 80 13 81 14 82 15 83 16 84 17 86 18 87
REMARK SMILES IDX 22 88 19 89 21 90 20 91 23 92 24 93 25 94 26 95
REMARK H PARENT 3 7 84 25 52 36 8 76 16 85
REMARK Flexibility Score: inf
ROOT
ATOM      1  C   UNL     1       6.748  -9.918   2.812  1.00  0.00     0.023 C 
ENDROOT
BRANCH   1   2
ATOM      2  C   UNL     1       6.556 -10.255   4.291  1.00  0.00     0.023 C 
BRANCH   2   3
ATOM      3  C   UNL     1       5.289 -11.040   4.607  1.00  0.00     0.116 C 
BRANCH   3   4
ATOM      4  N   UNL     1       5.165 -12.276   3.848  1.00  0.00    -0.352 N 
ATOM      5  O   UNL     1       4.659 -14.462   3.546  1.00  0.00    -0.269 OA
ATOM      6  C   UNL     1       4.620 -13.471   4.258  1.00  0.00     0.251 C 
ATOM      7  H   UNL     1       5.514 -12.254   2.928  1.00  0.00     0.163 HD
BRANCH   6   8
ATOM      8  C   UNL     1       4.022 -13.537   5.606  1.00  0.00     0.039 A 
ATOM      9  C   UNL     1       3.088 -12.577   6.000  1.00  0.00     0.014 A 
ATOM     10  C   UNL     1       4.466 -14.515   6.498  1.00  0.00     0.014 A 
ATOM     11  C   UNL     1       2.710 -12.503   7.332  1.00  0.00     0.010 A 
ATOM     12  C   UNL     1       4.019 -14.489   7.819  1.00  0.00     0.010 A 
ATOM     13  C   UNL     1       3.167 -13.461   8.254  1.00  0.00    -0.014 A 
BRANCH  13  14
ATOM     14  C   UNL     1       2.697 -13.390   9.658  1.00  0.00     0.031 A 
ATOM     15  C   UNL     1       3.647 -13.095  10.782  1.00  0.00     0.074 A 
ATOM     16  C   UNL     1       1.384 -13.561   9.899  1.00  0.00     0.049 A 
ATOM     17  N   UNL     1       3.399 -12.994  12.064  1.00  0.00    -0.248 NA
ATOM     18  C   UNL     1       5.060 -12.892  10.428  1.00  0.00     0.031 C 
ATOM     19  C   UNL     1       0.376 -13.856   8.879  1.00  0.00     0.029 A 
ATOM     20  N   UNL     1       0.669 -13.491  11.065  1.00  0.00    -0.354 N 
ATOM     21  C   UNL     1       4.623 -12.742  12.671  1.00  0.00     0.074 A 
ATOM     22  C   UNL     1       5.618 -12.720  11.620  1.00  0.00     0.031 C 
ATOM     23  C   UNL     1      -0.834 -13.893   9.454  1.00  0.00     0.029 A 
ATOM     24  C   UNL     1      -0.678 -13.690  10.890  1.00  0.00     0.049 A 
ATOM     25  H   UNL     1       1.080 -13.315  11.942  1.00  0.00     0.167 HD
ATOM     26  C   UNL     1       4.884 -12.546  13.985  1.00  0.00     0.037 A 
ATOM     27  C   UNL     1      -1.677 -13.724  11.790  1.00  0.00     0.037 A 
ATOM     28  C   UNL     1       3.881 -12.546  15.020  1.00  0.00     0.049 A 
ATOM     29  C   UNL     1      -1.355 -13.511  13.239  1.00  0.00     0.074 A 
ATOM     30  C   UNL     1       4.038 -12.322  16.377  1.00  0.00     0.029 A 
ATOM     31  N   UNL     1       2.529 -12.782  14.809  1.00  0.00    -0.354 N 
ATOM     32  N   UNL     1      -0.196 -13.261  13.798  1.00  0.00    -0.248 NA
ATOM     33  C   UNL     1      -2.476 -13.593  14.182  1.00  0.00     0.031 C 
ATOM     34  C   UNL     1       2.789 -12.460  16.992  1.00  0.00     0.029 A 
ATOM     35  C   UNL     1       1.845 -12.729  16.014  1.00  0.00     0.049 A 
ATOM     36  H   UNL     1       2.117 -12.961  13.934  1.00  0.00     0.167 HD
ATOM     37  C   UNL     1      -0.447 -13.151  15.157  1.00  0.00     0.074 A 
ATOM     38  C   UNL     1      -1.873 -13.335  15.334  1.00  0.00     0.031 C 
ATOM     39  C   UNL     1       0.427 -12.925  16.168  1.00  0.00     0.037 A 
BRANCH  26  40
ATOM     40  C   UNL     1       6.313 -12.332  14.391  1.00  0.00     0.064 A 
ATOM     41  C   UNL     1       6.984 -11.130  14.126  1.00  0.00     0.173 A 
ATOM     42  C   UNL     1       7.002 -13.325  15.105  1.00  0.00     0.173 A 
ATOM     43  F   UNL     1       6.375 -10.154  13.437  1.00  0.00    -0.203 F 
ATOM     44  C   UNL     1       8.299 -10.935  14.546  1.00  0.00     0.198 A 
ATOM     45  C   UNL     1       8.308 -13.118  15.544  1.00  0.00     0.198 A 
ATOM     46  F   UNL     1       6.404 -14.491  15.389  1.00  0.00    -0.203 F 
ATOM     47  F   UNL     1       8.932  -9.791  14.252  1.00  0.00    -0.200 F 
ATOM     48  C   UNL     1       8.956 -11.926  15.261  1.00  0.00     0.200 A 
ATOM     49  F   UNL     1       8.937 -14.072  16.244  1.00  0.00    -0.200 F 
ATOM     50  F   UNL     1      10.217 -11.733  15.673  1.00  0.00    -0.200 F 
ENDBRANCH  26  40
BRANCH  27  51
ATOM     51  C   UNL     1      -3.065 -13.977  11.330  1.00  0.00     0.064 A 
ATOM     52  C   UNL     1      -4.029 -12.962  11.357  1.00  0.00     0.173 A 
ATOM     53  C   UNL     1      -3.442 -15.228  10.819  1.00  0.00     0.173 A 
ATOM     54  F   UNL     1      -3.719 -11.756  11.854  1.00  0.00    -0.203 F 
ATOM     55  C   UNL     1      -5.324 -13.191  10.896  1.00  0.00     0.198 A 
ATOM     56  C   UNL     1      -4.728 -15.446  10.331  1.00  0.00     0.198 A 
ATOM     57  F   UNL     1      -2.551 -16.228  10.765  1.00  0.00    -0.203 F 
ATOM     58  F   UNL     1      -6.237 -12.213  10.960  1.00  0.00    -0.200 F 
ATOM     59  C   UNL     1      -5.669 -14.429  10.375  1.00  0.00     0.200 A 
ATOM     60  F   UNL     1      -5.051 -16.638   9.812  1.00  0.00    -0.200 F 
ATOM     61  F   UNL     1      -6.910 -14.643   9.917  1.00  0.00    -0.200 F 
ENDBRANCH  27  51
BRANCH  39  62
ATOM     62  C   UNL     1      -0.146 -12.857  17.551  1.00  0.00     0.064 A 
ATOM     63  C   UNL     1      -0.573 -14.012  18.222  1.00  0.00     0.173 A 
ATOM     64  C   UNL     1      -0.252 -11.628  18.218  1.00  0.00     0.173 A 
ATOM     65  F   UNL     1      -0.508 -15.207  17.616  1.00  0.00    -0.203 F 
ATOM     66  C   UNL     1      -1.111 -13.935  19.503  1.00  0.00     0.198 A 
ATOM     67  C   UNL     1      -0.766 -11.558  19.509  1.00  0.00     0.198 A 
ATOM     68  F   UNL     1       0.147 -10.496  17.618  1.00  0.00    -0.203 F 
ATOM     69  F   UNL     1      -1.557 -15.044  20.108  1.00  0.00    -0.200 F 
ATOM     70  C   UNL     1      -1.202 -12.710  20.147  1.00  0.00     0.200 A 
ATOM     71  F   UNL     1      -0.846 -10.375  20.134  1.00  0.00    -0.200 F 
ATOM     72  F   UNL     1      -1.720 -12.638  21.381  1.00  0.00    -0.200 F 
ENDBRANCH  39  62
ENDBRANCH  13  14
ENDBRANCH   6   8
ENDBRANCH   3   4
ENDBRANCH   2   3
ENDBRANCH   1   2
BRANCH   1  73
ATOM     73  C   UNL     1       5.617  -9.081   2.215  1.00  0.00     0.116 C 
BRANCH  73  74
ATOM     74  N   UNL     1       5.766  -7.693   2.580  1.00  0.00    -0.354 N 
ATOM     75  C   UNL     1       6.277  -6.643   1.881  1.00  0.00     0.249 C 
ATOM     76  H   UNL     1       5.447  -7.469   3.484  1.00  0.00     0.163 HD
ATOM     77  O   UNL     1       6.418  -5.585   2.506  1.00  0.00    -0.272 OA
BRANCH  75  78
ATOM     78  C   UNL     1       6.592  -6.702   0.373  1.00  0.00     0.207 C 
ATOM     79  C   UNL     1       7.436  -7.837  -0.188  1.00  0.00     0.045 C 
ATOM     80  O   UNL     1       5.365  -6.670  -0.362  1.00  0.00    -0.363 OA
ATOM     81  C   UNL     1       6.557  -8.525  -1.216  1.00  0.00     0.037 C 
ATOM     82  C   UNL     1       5.492  -7.494  -1.532  1.00  0.00     0.138 C 
BRANCH  82  83
ATOM     83  C   UNL     1       4.111  -8.086  -1.853  1.00  0.00     0.145 C 
BRANCH  83  84
ATOM     84  N   UNL     1       3.175  -6.992  -2.110  1.00  0.00    -0.382 N 
ATOM     85  H   UNL     1       3.078  -6.282  -1.435  1.00  0.00     0.160 HD
BRANCH  84  86
ATOM     86  C   UNL     1       2.423  -6.920  -3.266  1.00  0.00     0.046 A 
ATOM     87  C   UNL     1       2.611  -5.795  -4.089  1.00  0.00     0.026 A 
ATOM     88  C   UNL     1       1.547  -7.928  -3.699  1.00  0.00     0.079 A 
ATOM     89  C   UNL     1       1.967  -5.670  -5.320  1.00  0.00     0.002 A 
ATOM     90  C   UNL     1       0.911  -7.796  -4.954  1.00  0.00     0.015 A 
ATOM     91  C   UNL     1       1.119  -6.677  -5.758  1.00  0.00     0.001 A 
BRANCH  88  92
ATOM     92  C   UNL     1       1.234  -9.154  -2.877  1.00  0.00     0.418 C 
ATOM     93  F   UNL     1      -0.014  -9.653  -3.130  1.00  0.00    -0.166 F 
ATOM     94  F   UNL     1       2.090 -10.186  -3.143  1.00  0.00    -0.166 F 
ATOM     95  F   UNL     1       1.272  -8.983  -1.526  1.00  0.00    -0.166 F 
ENDBRANCH  88  92
ENDBRANCH  84  86
ENDBRANCH  83  84
ENDBRANCH  82  83
ENDBRANCH  75  78
ENDBRANCH  73  74
ENDBRANCH   1  73
TORSDOF 15
