REMARK SMILES CN(C)Nc1ncnc(Nc2ccc(C(=O)NCCCCNC(=O)c3ccc(-c4c5nc(c(-c6c(F)c(F)c(F)c(F)c6F)c6ccc([nH]6)c(-c6c(F)c(F)c(F)c(F)c6F)c6nc(c(-c7c(F)c(F)c(F)c(F)c7F)c7ccc4[nH]7)C=C6)C=C5)cc3)cc2)c1[N+](=O)[O-]
REMARK SMILES IDX 18 1 17 2 15 3 16 4 14 6 11 7 12 8 89 9 13 10 88 11 10 12
REMARK SMILES IDX 9 14 5 15 6 16 90 17 7 18 8 19 4 20 2 22 1 23 3 24 91 25
REMARK SMILES IDX 92 26 93 27 19 28 20 29 21 30 22 31 23 32 24 34 25 35 26 36
REMARK SMILES IDX 87 37 27 38 86 39 28 40 29 41 30 42 80 43 31 44 85 45 79 46
REMARK SMILES IDX 81 47 32 48 84 49 78 50 77 51 33 53 65 54 45 55 64 56 46 57
REMARK SMILES IDX 49 58 63 59 82 60 47 61 48 62 62 64 83 65 50 66 34 67 35 68
REMARK SMILES IDX 43 69 36 70 37 71 41 72 44 73 38 74 39 75 42 76 40 77 66 78
REMARK SMILES IDX 67 79 75 80 68 81 69 82 73 83 76 84 70 85 71 86 74 87 72 88
REMARK SMILES IDX 51 89 52 90 60 91 53 92 54 93 58 94 61 95 55 96 56 97 59 98
REMARK SMILES IDX 57 99
REMARK H PARENT 17 5 10 13 4 21 22 33 81 52 49 63
REMARK Flexibility Score: inf
ROOT
ATOM      1  C   UNL     1       5.905   7.452  -3.570  1.00  0.00     0.116 C 
ENDROOT
BRANCH   1   2
ATOM      2  N   UNL     1       7.281   7.167  -3.212  1.00  0.00    -0.352 N 
ATOM      3  C   UNL     1       7.870   6.081  -2.614  1.00  0.00     0.251 C 
ATOM      4  O   UNL     1       9.090   6.114  -2.450  1.00  0.00    -0.269 OA
ATOM      5  H   UNL     1       7.911   7.887  -3.442  1.00  0.00     0.163 HD
BRANCH   3   6
ATOM      6  C   UNL     1       7.119   4.856  -2.221  1.00  0.00     0.039 A 
ATOM      7  C   UNL     1       5.801   2.418  -1.692  1.00  0.00     0.040 A 
ATOM      8  C   UNL     1       7.164   2.430  -1.978  1.00  0.00     0.027 A 
ATOM      9  C   UNL     1       5.135   3.641  -1.546  1.00  0.00     0.027 A 
ATOM     10  C   UNL     1       7.813   3.637  -2.264  1.00  0.00     0.016 A 
ATOM     11  C   UNL     1       5.792   4.850  -1.790  1.00  0.00     0.016 A 
BRANCH   7  12
ATOM     12  N   UNL     1       5.135   1.200  -1.454  1.00  0.00    -0.334 N 
ATOM     13  H   UNL     1       5.522   0.584  -0.790  1.00  0.00     0.168 HD
BRANCH  12  14
ATOM     14  C   UNL     1       3.947   0.807  -2.106  1.00  0.00     0.215 A 
ATOM     15  C   UNL     1       1.915  -0.408  -2.290  1.00  0.00     0.225 A 
ATOM     16  N   UNL     1       1.648   0.193  -3.470  1.00  0.00    -0.212 NA
ATOM     17  C   UNL     1       3.111  -0.191  -1.634  1.00  0.00     0.354 A 
ATOM     18  C   UNL     1       2.542   1.078  -3.912  1.00  0.00     0.227 A 
ATOM     19  N   UNL     1       3.652   1.439  -3.267  1.00  0.00    -0.212 NA
BRANCH  15  20
ATOM     20  N   UNL     1       0.812  -1.112  -1.796  1.00  0.00    -0.298 N 
ATOM     21  H   UNL     1       0.285  -1.645  -2.434  1.00  0.00     0.184 HD
BRANCH  20  22
ATOM     22  N   UNL     1       0.402  -1.110  -0.438  1.00  0.00    -0.228 NA
ATOM     23  C   UNL     1       0.276   0.263   0.086  1.00  0.00     0.130 C 
ATOM     24  C   UNL     1      -0.932  -1.738  -0.389  1.00  0.00     0.130 C 
ENDBRANCH  20  22
ENDBRANCH  15  20
BRANCH  17  25
ATOM     25  N   UNL     1       3.492  -0.984  -0.506  1.00  0.00     0.070 N 
ATOM     26  O   UNL     1       3.845  -0.374   0.517  1.00  0.00    -0.258 OA
ATOM     27  O   UNL     1       3.560  -2.211  -0.661  1.00  0.00    -0.258 OA
ENDBRANCH  17  25
ENDBRANCH  12  14
ENDBRANCH   7  12
ENDBRANCH   3   6
ENDBRANCH   1   2
BRANCH   1  28
ATOM     28  C   UNL     1       5.254   8.356  -2.519  1.00  0.00     0.023 C 
BRANCH  28  29
ATOM     29  C   UNL     1       5.715   9.816  -2.575  1.00  0.00     0.023 C 
BRANCH  29  30
ATOM     30  C   UNL     1       5.324  10.559  -3.847  1.00  0.00     0.116 C 
BRANCH  30  31
ATOM     31  N   UNL     1       3.886  10.635  -4.048  1.00  0.00    -0.352 N 
ATOM     32  C   UNL     1       3.164  11.626  -4.674  1.00  0.00     0.251 C 
ATOM     33  H   UNL     1       3.362   9.881  -3.692  1.00  0.00     0.163 HD
ATOM     34  O   UNL     1       1.945  11.605  -4.678  1.00  0.00    -0.269 OA
BRANCH  32  35
ATOM     35  C   UNL     1       3.894  12.743  -5.308  1.00  0.00     0.039 A 
ATOM     36  C   UNL     1       3.537  14.053  -4.980  1.00  0.00     0.014 A 
ATOM     37  C   UNL     1       4.948  12.494  -6.190  1.00  0.00     0.014 A 
ATOM     38  C   UNL     1       4.282  15.119  -5.490  1.00  0.00     0.010 A 
ATOM     39  C   UNL     1       5.727  13.551  -6.646  1.00  0.00     0.010 A 
ATOM     40  C   UNL     1       5.402  14.873  -6.300  1.00  0.00    -0.014 A 
BRANCH  40  41
ATOM     41  C   UNL     1       6.244  15.979  -6.818  1.00  0.00     0.031 A 
ATOM     42  C   UNL     1       6.312  16.229  -8.298  1.00  0.00     0.074 A 
ATOM     43  C   UNL     1       7.010  16.693  -5.971  1.00  0.00     0.049 A 
ATOM     44  N   UNL     1       7.086  17.046  -8.966  1.00  0.00    -0.248 NA
ATOM     45  C   UNL     1       5.410  15.429  -9.142  1.00  0.00     0.031 C 
ATOM     46  C   UNL     1       7.060  16.516  -4.519  1.00  0.00     0.029 A 
ATOM     47  N   UNL     1       7.913  17.698  -6.214  1.00  0.00    -0.354 N 
ATOM     48  C   UNL     1       6.784  16.838 -10.305  1.00  0.00     0.074 A 
ATOM     49  C   UNL     1       5.787  15.791 -10.359  1.00  0.00     0.031 C 
ATOM     50  C   UNL     1       7.940  17.388  -4.000  1.00  0.00     0.029 A 
ATOM     51  C   UNL     1       8.544  18.158  -5.084  1.00  0.00     0.049 A 
ATOM     52  H   UNL     1       8.091  18.056  -7.114  1.00  0.00     0.167 HD
ATOM     53  C   UNL     1       7.281  17.477 -11.390  1.00  0.00     0.037 A 
ATOM     54  C   UNL     1       9.510  19.085  -4.943  1.00  0.00     0.037 A 
ATOM     55  C   UNL     1       8.241  18.546 -11.327  1.00  0.00     0.049 A 
ATOM     56  C   UNL     1      10.033  19.792  -6.165  1.00  0.00     0.074 A 
ATOM     57  C   UNL     1       8.763  19.299 -12.364  1.00  0.00     0.029 A 
ATOM     58  N   UNL     1       8.819  19.019 -10.158  1.00  0.00    -0.354 N 
ATOM     59  N   UNL     1       9.699  19.628  -7.422  1.00  0.00    -0.248 NA
ATOM     60  C   UNL     1      11.063  20.818  -5.949  1.00  0.00     0.031 C 
ATOM     61  C   UNL     1       9.682  20.206 -11.827  1.00  0.00     0.029 A 
ATOM     62  C   UNL     1       9.699  20.047 -10.450  1.00  0.00     0.049 A 
ATOM     63  H   UNL     1       8.631  18.674  -9.255  1.00  0.00     0.167 HD
ATOM     64  C   UNL     1      10.446  20.552  -8.140  1.00  0.00     0.074 A 
ATOM     65  C   UNL     1      11.249  21.277  -7.179  1.00  0.00     0.031 C 
ATOM     66  C   UNL     1      10.465  20.779  -9.475  1.00  0.00     0.037 A 
BRANCH  53  67
ATOM     67  C   UNL     1       6.791  17.044 -12.739  1.00  0.00     0.064 A 
ATOM     68  C   UNL     1       5.487  17.325 -13.172  1.00  0.00     0.173 A 
ATOM     69  C   UNL     1       7.650  16.380 -13.628  1.00  0.00     0.173 A 
ATOM     70  F   UNL     1       4.624  17.946 -12.354  1.00  0.00    -0.203 F 
ATOM     71  C   UNL     1       5.053  16.937 -14.437  1.00  0.00     0.198 A 
ATOM     72  C   UNL     1       7.221  16.019 -14.903  1.00  0.00     0.198 A 
ATOM     73  F   UNL     1       8.908  16.091 -13.265  1.00  0.00    -0.203 F 
ATOM     74  F   UNL     1       3.789  17.179 -14.812  1.00  0.00    -0.200 F 
ATOM     75  C   UNL     1       5.922  16.292 -15.303  1.00  0.00     0.200 A 
ATOM     76  F   UNL     1       8.066  15.406 -15.744  1.00  0.00    -0.200 F 
ATOM     77  F   UNL     1       5.505  15.929 -16.524  1.00  0.00    -0.200 F 
ENDBRANCH  53  67
BRANCH  54  78
ATOM     78  C   UNL     1      10.035  19.417  -3.593  1.00  0.00     0.064 A 
ATOM     79  C   UNL     1       9.763  20.659  -3.002  1.00  0.00     0.173 A 
ATOM     80  C   UNL     1      10.832  18.514  -2.875  1.00  0.00     0.173 A 
ATOM     81  F   UNL     1       9.023  21.564  -3.659  1.00  0.00    -0.203 F 
ATOM     82  C   UNL     1      10.290  20.996  -1.757  1.00  0.00     0.198 A 
ATOM     83  C   UNL     1      11.336  18.841  -1.618  1.00  0.00     0.198 A 
ATOM     84  F   UNL     1      11.118  17.311  -3.394  1.00  0.00    -0.203 F 
ATOM     85  F   UNL     1      10.055  22.209  -1.239  1.00  0.00    -0.200 F 
ATOM     86  C   UNL     1      11.072  20.085  -1.064  1.00  0.00     0.200 A 
ATOM     87  F   UNL     1      12.081  17.953  -0.945  1.00  0.00    -0.200 F 
ATOM     88  F   UNL     1      11.580  20.409   0.133  1.00  0.00    -0.200 F 
ENDBRANCH  54  78
BRANCH  66  89
ATOM     89  C   UNL     1      11.333  21.894  -9.976  1.00  0.00     0.064 A 
ATOM     90  C   UNL     1      12.728  21.773 -10.034  1.00  0.00     0.173 A 
ATOM     91  C   UNL     1      10.751  23.075 -10.462  1.00  0.00     0.173 A 
ATOM     92  F   UNL     1      13.331  20.669  -9.568  1.00  0.00    -0.203 F 
ATOM     93  C   UNL     1      13.512  22.803 -10.548  1.00  0.00     0.198 A 
ATOM     94  C   UNL     1      11.536  24.091 -10.999  1.00  0.00     0.198 A 
ATOM     95  F   UNL     1       9.420  23.234 -10.434  1.00  0.00    -0.203 F 
ATOM     96  F   UNL     1      14.847  22.682 -10.563  1.00  0.00    -0.200 F 
ATOM     97  C   UNL     1      12.916  23.956 -11.038  1.00  0.00     0.200 A 
ATOM     98  F   UNL     1      10.957  25.198 -11.484  1.00  0.00    -0.200 F 
ATOM     99  F   UNL     1      13.672  24.940 -11.544  1.00  0.00    -0.200 F 
ENDBRANCH  66  89
ENDBRANCH  40  41
ENDBRANCH  32  35
ENDBRANCH  30  31
ENDBRANCH  29  30
ENDBRANCH  28  29
ENDBRANCH   1  28
TORSDOF 16
