REMARK SMILES [NH3+][C@]1(C(=O)NCCCCNC(=O)c2ccc(-c3c4nc(c(-c5c(F)c(F)c(F)c(F)c5F)c5ccc([nH]5)c(-c5c(F)c(F)c(F)c(F)c5F)c5nc(c(-c6c(F)c(F)c(F)c(F)c6F)c6ccc3[nH]6)C=C5)C=C4)cc2)CC[N@H+](Cc2ccccc2O)C1
REMARK SMILES IDX 7 1 6 2 5 3 3 4 4 5 2 7 76 8 87 9 77 10 78 11 1 13 79 17
REMARK SMILES IDX 80 18 81 19 85 20 82 21 84 22 83 23 86 24 8 26 9 27 10 28
REMARK SMILES IDX 11 29 12 31 13 32 14 33 75 34 15 35 74 36 16 37 17 38 18 39
REMARK SMILES IDX 68 40 19 41 73 42 67 43 69 44 20 45 72 46 66 47 65 48 21 50
REMARK SMILES IDX 53 51 33 52 52 53 34 54 37 55 51 56 70 57 35 58 36 59 50 61
REMARK SMILES IDX 71 62 38 63 22 64 23 65 31 66 24 67 25 68 29 69 32 70 26 71
REMARK SMILES IDX 27 72 30 73 28 74 54 75 55 76 63 77 56 78 57 79 61 80 64 81
REMARK SMILES IDX 58 82 59 83 62 84 60 85 39 86 40 87 48 88 41 89 42 90 46 91
REMARK SMILES IDX 49 92 43 93 44 94 47 95 45 96
REMARK H PARENT 5 6 78 12 1 14 1 15 1 16 86 25 10 30 69 49 37 60
REMARK Flexibility Score: inf
ROOT
ATOM      1  C   UNL     1       3.797   1.802  -1.481  1.00  0.00     0.023 C 
ENDROOT
BRANCH   1   2
ATOM      2  C   UNL     1       2.731   0.760  -1.821  1.00  0.00     0.116 C 
BRANCH   2   3
ATOM      3  N   UNL     1       2.316   0.011  -0.652  1.00  0.00    -0.350 N 
ATOM      4  C   UNL     1       1.262   0.226   0.199  1.00  0.00     0.287 C 
ATOM      5  O   UNL     1       1.120  -0.575   1.128  1.00  0.00    -0.268 OA
ATOM      6  H   UNL     1       2.875  -0.770  -0.436  1.00  0.00     0.163 HD
BRANCH   4   7
ATOM      7  C   UNL     1       0.293   1.419  -0.020  1.00  0.00     0.228 C 
ATOM      8  C   UNL     1      -0.681   1.617   1.147  1.00  0.00     0.146 C 
ATOM      9  C   UNL     1       1.037   2.765   0.055  1.00  0.00     0.342 C 
ATOM     10  C   UNL     1      -1.097   3.084   1.020  1.00  0.00     0.270 C 
ATOM     11  N   UNL     1       0.079   3.780   0.499  1.00  0.00    -0.325 N 
ATOM     12  H   UNL     1       0.476   4.320   1.268  1.00  0.00     0.348 HD
BRANCH   7  13
ATOM     13  N   UNL     1      -0.472   1.196  -1.278  1.00  0.00    -0.340 N 
ATOM     14  H   UNL     1      -1.112   1.975  -1.430  1.00  0.00     0.345 HD
ATOM     15  H   UNL     1      -1.005   0.329  -1.203  1.00  0.00     0.345 HD
ATOM     16  H   UNL     1       0.176   1.130  -2.063  1.00  0.00     0.345 HD
ENDBRANCH   7  13
BRANCH  11  17
ATOM     17  C   UNL     1      -0.135   4.903  -0.418  1.00  0.00     0.303 C 
BRANCH  17  18
ATOM     18  C   UNL     1      -0.532   4.565  -1.845  1.00  0.00     0.048 A 
ATOM     19  C   UNL     1       0.483   4.418  -2.816  1.00  0.00     0.013 A 
ATOM     20  C   UNL     1      -1.852   4.342  -2.255  1.00  0.00     0.124 A 
ATOM     21  C   UNL     1       0.196   3.988  -4.114  1.00  0.00     0.001 A 
ATOM     22  C   UNL     1      -2.141   3.905  -3.549  1.00  0.00     0.046 A 
ATOM     23  C   UNL     1      -1.119   3.716  -4.475  1.00  0.00     0.004 A 
BRANCH  20  24
ATOM     24  O   UNL     1      -2.936   4.527  -1.446  1.00  0.00    -0.507 OA
ATOM     25  H   UNL     1      -2.817   4.820  -0.564  1.00  0.00     0.293 HD
ENDBRANCH  20  24
ENDBRANCH  17  18
ENDBRANCH  11  17
ENDBRANCH   4   7
ENDBRANCH   2   3
ENDBRANCH   1   2
BRANCH   1  26
ATOM     26  C   UNL     1       5.211   1.255  -1.351  1.00  0.00     0.023 C 
BRANCH  26  27
ATOM     27  C   UNL     1       5.750   0.586  -2.603  1.00  0.00     0.116 C 
BRANCH  27  28
ATOM     28  N   UNL     1       5.687   1.425  -3.792  1.00  0.00    -0.352 N 
ATOM     29  C   UNL     1       6.596   1.500  -4.822  1.00  0.00     0.251 C 
ATOM     30  H   UNL     1       4.899   2.010  -3.867  1.00  0.00     0.163 HD
ATOM     31  O   UNL     1       6.464   2.308  -5.730  1.00  0.00    -0.269 OA
BRANCH  29  32
ATOM     32  C   UNL     1       7.766   0.604  -4.774  1.00  0.00     0.039 A 
ATOM     33  C   UNL     1       9.045   1.160  -4.812  1.00  0.00     0.014 A 
ATOM     34  C   UNL     1       7.581  -0.765  -4.567  1.00  0.00     0.014 A 
ATOM     35  C   UNL     1      10.148   0.345  -4.558  1.00  0.00     0.010 A 
ATOM     36  C   UNL     1       8.670  -1.554  -4.230  1.00  0.00     0.010 A 
ATOM     37  C   UNL     1       9.963  -1.006  -4.222  1.00  0.00    -0.014 A 
BRANCH  37  38
ATOM     38  C   UNL     1      11.106  -1.880  -3.869  1.00  0.00     0.031 A 
ATOM     39  C   UNL     1      11.421  -3.064  -4.737  1.00  0.00     0.074 A 
ATOM     40  C   UNL     1      11.790  -1.664  -2.730  1.00  0.00     0.049 A 
ATOM     41  N   UNL     1      12.293  -4.021  -4.548  1.00  0.00    -0.248 NA
ATOM     42  C   UNL     1      10.618  -3.215  -5.961  1.00  0.00     0.031 C 
ATOM     43  C   UNL     1      11.533  -0.584  -1.776  1.00  0.00     0.029 A 
ATOM     44  N   UNL     1      12.836  -2.356  -2.174  1.00  0.00    -0.354 N 
ATOM     45  C   UNL     1      12.119  -4.899  -5.609  1.00  0.00     0.074 A 
ATOM     46  C   UNL     1      11.027  -4.391  -6.410  1.00  0.00     0.031 C 
ATOM     47  C   UNL     1      12.412  -0.672  -0.764  1.00  0.00     0.029 A 
ATOM     48  C   UNL     1      13.272  -1.832  -0.982  1.00  0.00     0.049 A 
ATOM     49  H   UNL     1      13.237  -3.153  -2.590  1.00  0.00     0.167 HD
ATOM     50  C   UNL     1      12.826  -6.015  -5.903  1.00  0.00     0.037 A 
ATOM     51  C   UNL     1      14.254  -2.245  -0.160  1.00  0.00     0.037 A 
ATOM     52  C   UNL     1      13.945  -6.483  -5.133  1.00  0.00     0.049 A 
ATOM     53  C   UNL     1      15.055  -3.462  -0.533  1.00  0.00     0.074 A 
ATOM     54  C   UNL     1      14.779  -7.558  -5.386  1.00  0.00     0.029 A 
ATOM     55  N   UNL     1      14.392  -5.894  -3.959  1.00  0.00    -0.354 N 
ATOM     56  N   UNL     1      14.927  -4.249  -1.573  1.00  0.00    -0.248 NA
ATOM     57  C   UNL     1      16.142  -3.846   0.379  1.00  0.00     0.031 C 
ATOM     58  C   UNL     1      15.716  -7.634  -4.350  1.00  0.00     0.029 A 
ATOM     59  C   UNL     1      15.487  -6.587  -3.471  1.00  0.00     0.049 A 
ATOM     60  H   UNL     1      13.991  -5.100  -3.537  1.00  0.00     0.167 HD
ATOM     61  C   UNL     1      15.928  -5.203  -1.457  1.00  0.00     0.074 A 
ATOM     62  C   UNL     1      16.664  -4.890  -0.249  1.00  0.00     0.031 C 
ATOM     63  C   UNL     1      16.211  -6.246  -2.274  1.00  0.00     0.037 A 
BRANCH  50  64
ATOM     64  C   UNL     1      12.414  -6.791  -7.117  1.00  0.00     0.064 A 
ATOM     65  C   UNL     1      12.627  -6.296  -8.412  1.00  0.00     0.173 A 
ATOM     66  C   UNL     1      11.809  -8.050  -6.986  1.00  0.00     0.173 A 
ATOM     67  F   UNL     1      13.186  -5.089  -8.589  1.00  0.00    -0.203 F 
ATOM     68  C   UNL     1      12.223  -7.018  -9.531  1.00  0.00     0.198 A 
ATOM     69  C   UNL     1      11.431  -8.782  -8.108  1.00  0.00     0.198 A 
ATOM     70  F   UNL     1      11.583  -8.569  -5.770  1.00  0.00    -0.203 F 
ATOM     71  F   UNL     1      12.388  -6.500 -10.756  1.00  0.00    -0.200 F 
ATOM     72  C   UNL     1      11.631  -8.263  -9.379  1.00  0.00     0.200 A 
ATOM     73  F   UNL     1      10.867  -9.989  -7.960  1.00  0.00    -0.200 F 
ATOM     74  F   UNL     1      11.243  -8.957 -10.457  1.00  0.00    -0.200 F 
ENDBRANCH  50  64
BRANCH  51  75
ATOM     75  C   UNL     1      14.562  -1.479   1.075  1.00  0.00     0.064 A 
ATOM     76  C   UNL     1      15.729  -0.709   1.165  1.00  0.00     0.173 A 
ATOM     77  C   UNL     1      13.703  -1.497   2.182  1.00  0.00     0.173 A 
ATOM     78  F   UNL     1      16.590  -0.676   0.137  1.00  0.00    -0.203 F 
ATOM     79  C   UNL     1      16.036   0.002   2.324  1.00  0.00     0.198 A 
ATOM     80  C   UNL     1      13.999  -0.768   3.333  1.00  0.00     0.198 A 
ATOM     81  F   UNL     1      12.570  -2.214   2.143  1.00  0.00    -0.203 F 
ATOM     82  F   UNL     1      17.177   0.699   2.397  1.00  0.00    -0.200 F 
ATOM     83  C   UNL     1      15.168  -0.025   3.405  1.00  0.00     0.200 A 
ATOM     84  F   UNL     1      13.152  -0.786   4.371  1.00  0.00    -0.200 F 
ATOM     85  F   UNL     1      15.461   0.661   4.519  1.00  0.00    -0.200 F 
ENDBRANCH  51  75
BRANCH  63  86
ATOM     86  C   UNL     1      17.385  -7.103  -1.910  1.00  0.00     0.064 A 
ATOM     87  C   UNL     1      17.317  -8.029  -0.860  1.00  0.00     0.173 A 
ATOM     88  C   UNL     1      18.571  -7.033  -2.655  1.00  0.00     0.173 A 
ATOM     89  F   UNL     1      16.207  -8.119  -0.111  1.00  0.00    -0.203 F 
ATOM     90  C   UNL     1      18.403  -8.845  -0.558  1.00  0.00     0.198 A 
ATOM     91  C   UNL     1      19.646  -7.867  -2.365  1.00  0.00     0.198 A 
ATOM     92  F   UNL     1      18.681  -6.165  -3.672  1.00  0.00    -0.203 F 
ATOM     93  F   UNL     1      18.330  -9.699   0.472  1.00  0.00    -0.200 F 
ATOM     94  C   UNL     1      19.563  -8.769  -1.315  1.00  0.00     0.200 A 
ATOM     95  F   UNL     1      20.763  -7.800  -3.104  1.00  0.00    -0.200 F 
ATOM     96  F   UNL     1      20.604  -9.562  -1.028  1.00  0.00    -0.200 F 
ENDBRANCH  63  86
ENDBRANCH  37  38
ENDBRANCH  29  32
ENDBRANCH  27  28
ENDBRANCH  26  27
ENDBRANCH   1  26
TORSDOF 15
