REMARK SMILES [NH3+]CCOCC(=O)Nc1cc(C(=O)NCCCCNC(=O)c2ccc(-c3c4nc(c(-c5c(F)c(F)c(F)c(F)c5F)c5ccc([nH]5)c(-c5c(F)c(F)c(F)c(F)c5F)c5nc(c(-c6c(F)c(F)c(F)c(F)c6F)c6ccc3[nH]6)C=C5)C=C4)cc2)ccc1Cl
REMARK SMILES IDX 12 1 13 2 14 3 11 5 9 6 10 7 87 8 86 9 88 10 85 11 8 12 6 13
REMARK SMILES IDX 7 14 5 16 4 17 3 18 2 19 1 20 15 24 16 25 17 26 18 27 19 28
REMARK SMILES IDX 20 29 21 31 22 32 23 33 84 34 24 35 83 36 25 37 26 38 27 39
REMARK SMILES IDX 77 40 28 41 82 42 76 43 78 44 29 45 81 46 75 47 74 48 30 50
REMARK SMILES IDX 62 51 42 52 61 53 43 54 46 55 60 56 79 57 44 58 45 59 59 61
REMARK SMILES IDX 80 62 47 63 31 64 32 65 40 66 33 67 34 68 38 69 41 70 35 71
REMARK SMILES IDX 36 72 39 73 37 74 63 75 64 76 72 77 65 78 66 79 70 80 73 81
REMARK SMILES IDX 67 82 68 83 71 84 69 85 48 86 49 87 57 88 50 89 51 90 55 91
REMARK SMILES IDX 58 92 52 93 53 94 56 95 54 96
REMARK H PARENT 14 4 8 15 1 21 1 22 1 23 19 30 78 49 46 60
REMARK Flexibility Score: inf
ROOT
ATOM      1  C   UNL     1       2.178   2.377   8.039  1.00  0.00     0.251 C 
ATOM      2  O   UNL     1       2.962   3.315   7.893  1.00  0.00    -0.269 OA
ATOM      3  N   UNL     1       1.653   2.167   9.294  1.00  0.00    -0.352 N 
ATOM      4  H   UNL     1       1.982   2.806   9.967  1.00  0.00     0.163 HD
ENDROOT
BRANCH   1   5
ATOM      5  C   UNL     1       1.913   1.480   6.880  1.00  0.00     0.041 A 
ATOM      6  C   UNL     1       2.715   0.500   4.820  1.00  0.00     0.060 A 
ATOM      7  C   UNL     1       2.879   1.413   5.862  1.00  0.00     0.041 A 
ATOM      8  C   UNL     1       1.755  -0.507   4.952  1.00  0.00     0.064 A 
ATOM      9  C   UNL     1       0.715  -0.348   5.851  1.00  0.00     0.023 A 
ATOM     10  Cl  UNL     1       1.950  -2.041   4.187  1.00  0.00    -0.082 Cl
ATOM     11  C   UNL     1       0.748   0.724   6.734  1.00  0.00     0.015 A 
BRANCH   6  12
ATOM     12  N   UNL     1       3.448   0.683   3.637  1.00  0.00    -0.323 N 
ATOM     13  C   UNL     1       2.901   0.794   2.374  1.00  0.00     0.250 C 
ATOM     14  O   UNL     1       3.645   0.868   1.392  1.00  0.00    -0.272 OA
ATOM     15  H   UNL     1       4.428   0.737   3.714  1.00  0.00     0.170 HD
BRANCH  13  16
ATOM     16  C   UNL     1       1.364   0.970   2.209  1.00  0.00     0.260 C 
BRANCH  16  17
ATOM     17  O   UNL     1       0.481  -0.132   2.163  1.00  0.00    -0.366 OA
BRANCH  17  18
ATOM     18  C   UNL     1       0.872  -1.198   1.298  1.00  0.00     0.222 C 
BRANCH  18  19
ATOM     19  C   UNL     1       0.365  -1.052  -0.139  1.00  0.00     0.287 C 
BRANCH  19  20
ATOM     20  N   UNL     1       1.014   0.014  -0.900  1.00  0.00    -0.356 N 
ATOM     21  H   UNL     1       0.623   0.046  -1.842  1.00  0.00     0.344 HD
ATOM     22  H   UNL     1       2.016  -0.169  -0.954  1.00  0.00     0.344 HD
ATOM     23  H   UNL     1       0.856   0.908  -0.436  1.00  0.00     0.344 HD
ENDBRANCH  19  20
ENDBRANCH  18  19
ENDBRANCH  17  18
ENDBRANCH  16  17
ENDBRANCH  13  16
ENDBRANCH   6  12
ENDBRANCH   1   5
BRANCH   3  24
ATOM     24  C   UNL     1       0.714   1.196   9.830  1.00  0.00     0.116 C 
BRANCH  24  25
ATOM     25  C   UNL     1       1.314   0.225  10.836  1.00  0.00     0.023 C 
BRANCH  25  26
ATOM     26  C   UNL     1       1.543   0.785  12.234  1.00  0.00     0.023 C 
BRANCH  26  27
ATOM     27  C   UNL     1       0.370   1.546  12.841  1.00  0.00     0.116 C 
BRANCH  27  28
ATOM     28  N   UNL     1      -0.895   0.825  12.812  1.00  0.00    -0.352 N 
ATOM     29  C   UNL     1      -1.920   0.852  13.726  1.00  0.00     0.251 C 
ATOM     30  H   UNL     1      -1.034   0.240  12.032  1.00  0.00     0.163 HD
ATOM     31  O   UNL     1      -2.905   0.135  13.575  1.00  0.00    -0.269 OA
BRANCH  29  32
ATOM     32  C   UNL     1      -1.810   1.716  14.920  1.00  0.00     0.039 A 
ATOM     33  C   UNL     1      -2.110   1.173  16.171  1.00  0.00     0.014 A 
ATOM     34  C   UNL     1      -1.382   3.042  14.812  1.00  0.00     0.014 A 
ATOM     35  C   UNL     1      -1.921   1.942  17.320  1.00  0.00     0.010 A 
ATOM     36  C   UNL     1      -1.111   3.776  15.961  1.00  0.00     0.010 A 
ATOM     37  C   UNL     1      -1.391   3.240  17.226  1.00  0.00    -0.014 A 
BRANCH  37  38
ATOM     38  C   UNL     1      -1.156   4.056  18.443  1.00  0.00     0.031 A 
ATOM     39  C   UNL     1      -1.930   5.328  18.656  1.00  0.00     0.074 A 
ATOM     40  C   UNL     1      -0.225   3.672  19.337  1.00  0.00     0.049 A 
ATOM     41  N   UNL     1      -1.867   6.180  19.648  1.00  0.00    -0.248 NA
ATOM     42  C   UNL     1      -2.881   5.710  17.599  1.00  0.00     0.031 C 
ATOM     43  C   UNL     1       0.633   2.492  19.213  1.00  0.00     0.029 A 
ATOM     44  N   UNL     1       0.155   4.233  20.530  1.00  0.00    -0.354 N 
ATOM     45  C   UNL     1      -2.761   7.194  19.331  1.00  0.00     0.074 A 
ATOM     46  C   UNL     1      -3.299   6.892  18.023  1.00  0.00     0.031 C 
ATOM     47  C   UNL     1       1.410   2.396  20.304  1.00  0.00     0.029 A 
ATOM     48  C   UNL     1       1.128   3.521  21.190  1.00  0.00     0.049 A 
ATOM     49  H   UNL     1      -0.232   5.068  20.881  1.00  0.00     0.167 HD
ATOM     50  C   UNL     1      -3.130   8.262  20.077  1.00  0.00     0.037 A 
ATOM     51  C   UNL     1       1.715   3.749  22.380  1.00  0.00     0.037 A 
ATOM     52  C   UNL     1      -2.613   8.546  21.389  1.00  0.00     0.049 A 
ATOM     53  C   UNL     1       1.287   4.944  23.190  1.00  0.00     0.074 A 
ATOM     54  C   UNL     1      -2.957   9.573  22.250  1.00  0.00     0.029 A 
ATOM     55  N   UNL     1      -1.638   7.795  22.030  1.00  0.00    -0.354 N 
ATOM     56  N   UNL     1       0.382   5.852  22.914  1.00  0.00    -0.248 NA
ATOM     57  C   UNL     1       1.954   5.136  24.485  1.00  0.00     0.031 C 
ATOM     58  C   UNL     1      -2.160   9.467  23.395  1.00  0.00     0.029 A 
ATOM     59  C   UNL     1      -1.355   8.346  23.269  1.00  0.00     0.049 A 
ATOM     60  H   UNL     1      -1.211   6.989  21.659  1.00  0.00     0.167 HD
ATOM     61  C   UNL     1       0.351   6.705  24.009  1.00  0.00     0.074 A 
ATOM     62  C   UNL     1       1.312   6.191  24.964  1.00  0.00     0.031 C 
ATOM     63  C   UNL     1      -0.401   7.816  24.208  1.00  0.00     0.037 A 
BRANCH  50  64
ATOM     64  C   UNL     1      -4.156   9.191  19.495  1.00  0.00     0.064 A 
ATOM     65  C   UNL     1      -5.492   8.794  19.322  1.00  0.00     0.173 A 
ATOM     66  C   UNL     1      -3.810  10.500  19.127  1.00  0.00     0.173 A 
ATOM     67  F   UNL     1      -5.872   7.548  19.645  1.00  0.00    -0.203 F 
ATOM     68  C   UNL     1      -6.434   9.660  18.773  1.00  0.00     0.198 A 
ATOM     69  C   UNL     1      -4.763  11.374  18.608  1.00  0.00     0.198 A 
ATOM     70  F   UNL     1      -2.549  10.933  19.273  1.00  0.00    -0.203 F 
ATOM     71  F   UNL     1      -7.689   9.238  18.567  1.00  0.00    -0.200 F 
ATOM     72  C   UNL     1      -6.070  10.951  18.424  1.00  0.00     0.200 A 
ATOM     73  F   UNL     1      -4.413  12.626  18.282  1.00  0.00    -0.200 F 
ATOM     74  F   UNL     1      -6.979  11.785  17.901  1.00  0.00    -0.200 F 
ENDBRANCH  50  64
BRANCH  51  75
ATOM     75  C   UNL     1       2.741   2.808  22.901  1.00  0.00     0.064 A 
ATOM     76  C   UNL     1       2.477   2.006  24.021  1.00  0.00     0.173 A 
ATOM     77  C   UNL     1       4.008   2.704  22.311  1.00  0.00     0.173 A 
ATOM     78  F   UNL     1       1.286   2.083  24.633  1.00  0.00    -0.203 F 
ATOM     79  C   UNL     1       3.450   1.159  24.548  1.00  0.00     0.198 A 
ATOM     80  C   UNL     1       4.971   1.835  22.820  1.00  0.00     0.198 A 
ATOM     81  F   UNL     1       4.311   3.444  21.234  1.00  0.00    -0.203 F 
ATOM     82  F   UNL     1       3.188   0.446  25.651  1.00  0.00    -0.200 F 
ATOM     83  C   UNL     1       4.695   1.071  23.944  1.00  0.00     0.200 A 
ATOM     84  F   UNL     1       6.168   1.742  22.226  1.00  0.00    -0.200 F 
ATOM     85  F   UNL     1       5.631   0.258  24.452  1.00  0.00    -0.200 F 
ENDBRANCH  51  75
BRANCH  63  86
ATOM     86  C   UNL     1      -0.235   8.529  25.518  1.00  0.00     0.064 A 
ATOM     87  C   UNL     1       0.930   9.248  25.823  1.00  0.00     0.173 A 
ATOM     88  C   UNL     1      -1.266   8.512  26.471  1.00  0.00     0.173 A 
ATOM     89  F   UNL     1       1.949   9.282  24.952  1.00  0.00    -0.203 F 
ATOM     90  C   UNL     1       1.071   9.896  27.047  1.00  0.00     0.198 A 
ATOM     91  C   UNL     1      -1.134   9.188  27.680  1.00  0.00     0.198 A 
ATOM     92  F   UNL     1      -2.404   7.846  26.225  1.00  0.00    -0.203 F 
ATOM     93  F   UNL     1       2.215  10.528  27.340  1.00  0.00    -0.200 F 
ATOM     94  C   UNL     1       0.037   9.871  27.971  1.00  0.00     0.200 A 
ATOM     95  F   UNL     1      -2.140   9.176  28.566  1.00  0.00    -0.200 F 
ATOM     96  F   UNL     1       0.173  10.497  29.148  1.00  0.00    -0.200 F 
ENDBRANCH  63  86
ENDBRANCH  37  38
ENDBRANCH  29  32
ENDBRANCH  27  28
ENDBRANCH  26  27
ENDBRANCH  25  26
ENDBRANCH  24  25
ENDBRANCH   3  24
TORSDOF 17
