REMARK SMILES CCn1cccc1C(=O)N1CC[C@H](C(=O)NCCCCNC(=O)c2ccc(-c3c4nc(c(-c5c(F)c(F)c(F)c(F)c5F)c5ccc([nH]5)c(-c5c(F)c(F)c(F)c(F)c5F)c5nc(c(-c6c(F)c(F)c(F)c(F)c6F)c6ccc3[nH]6)C=C5)C=C4)cc2)[C@H]1C
REMARK SMILES IDX 18 1 17 2 16 3 14 4 15 5 13 7 10 8 11 9 87 10 12 11 88 12
REMARK SMILES IDX 8 13 9 14 7 15 3 16 4 17 5 18 6 19 2 20 1 21 19 22 20 23
REMARK SMILES IDX 21 24 22 25 23 27 24 28 25 29 86 30 26 31 85 32 27 33 28 34
REMARK SMILES IDX 29 35 79 36 30 37 84 38 78 39 80 40 31 41 83 42 77 43 76 44
REMARK SMILES IDX 32 46 64 47 44 48 63 49 45 50 48 51 62 52 81 53 46 54 47 55
REMARK SMILES IDX 61 57 82 58 49 59 33 60 34 61 42 62 35 63 36 64 40 65 43 66
REMARK SMILES IDX 37 67 38 68 41 69 39 70 65 71 66 72 74 73 67 74 68 75 72 76
REMARK SMILES IDX 75 77 69 78 70 79 73 80 71 81 50 82 51 83 59 84 52 85 53 86
REMARK SMILES IDX 57 87 60 88 54 89 55 90 58 91 56 92
REMARK H PARENT 16 6 21 26 80 45 48 56
REMARK Flexibility Score: inf
ROOT
ATOM      1  C   UNL     1      -5.757   1.869  -0.091  1.00  0.00     0.023 C 
ENDROOT
BRANCH   1   2
ATOM      2  C   UNL     1      -4.752   1.776   1.054  1.00  0.00     0.116 C 
BRANCH   2   3
ATOM      3  N   UNL     1      -4.623   0.417   1.547  1.00  0.00    -0.356 N 
ATOM      4  C   UNL     1      -3.536  -0.394   1.643  1.00  0.00     0.225 C 
ATOM      5  O   UNL     1      -3.693  -1.506   2.144  1.00  0.00    -0.275 OA
ATOM      6  H   UNL     1      -5.464   0.016   1.865  1.00  0.00     0.163 HD
BRANCH   4   7
ATOM      7  C   UNL     1      -2.192   0.073   1.121  1.00  0.00     0.102 C 
ATOM      8  N   UNL     1      -0.624  -1.363   0.009  1.00  0.00    -0.334 N 
ATOM      9  C   UNL     1      -0.526  -1.607   1.440  1.00  0.00     0.121 C 
ATOM     10  C   UNL     1      -1.877  -0.627  -0.220  1.00  0.00     0.094 C 
ATOM     11  C   UNL     1      -1.057  -0.340   2.063  1.00  0.00     0.037 C 
ATOM     12  C   UNL     1      -1.816   0.392  -1.354  1.00  0.00     0.032 C 
BRANCH   8  13
ATOM     13  C   UNL     1      -0.356  -2.482  -0.781  1.00  0.00     0.270 C 
ATOM     14  O   UNL     1      -0.962  -3.534  -0.576  1.00  0.00    -0.267 OA
BRANCH  13  15
ATOM     15  C   UNL     1       0.671  -2.377  -1.812  1.00  0.00     0.107 A 
ATOM     16  N   UNL     1       1.548  -1.354  -2.138  1.00  0.00    -0.344 N 
ATOM     17  C   UNL     1       2.296  -1.714  -3.239  1.00  0.00     0.086 A 
ATOM     18  C   UNL     1       1.975  -3.002  -3.585  1.00  0.00     0.020 A 
ATOM     19  C   UNL     1       0.976  -3.421  -2.686  1.00  0.00     0.033 A 
BRANCH  16  20
ATOM     20  C   UNL     1       1.691  -0.053  -1.514  1.00  0.00     0.119 C 
ATOM     21  C   UNL     1       2.387  -0.069  -0.166  1.00  0.00     0.027 C 
ENDBRANCH  16  20
ENDBRANCH  13  15
ENDBRANCH   8  13
ENDBRANCH   4   7
ENDBRANCH   2   3
ENDBRANCH   1   2
BRANCH   1  22
ATOM     22  C   UNL     1      -7.184   1.423   0.264  1.00  0.00     0.023 C 
BRANCH  22  23
ATOM     23  C   UNL     1      -7.813   2.182   1.433  1.00  0.00     0.116 C 
BRANCH  23  24
ATOM     24  N   UNL     1      -7.958   3.592   1.116  1.00  0.00    -0.352 N 
ATOM     25  C   UNL     1      -8.593   4.590   1.807  1.00  0.00     0.251 C 
ATOM     26  H   UNL     1      -7.533   3.874   0.274  1.00  0.00     0.163 HD
ATOM     27  O   UNL     1      -8.944   5.597   1.203  1.00  0.00    -0.269 OA
BRANCH  25  28
ATOM     28  C   UNL     1      -8.866   4.489   3.256  1.00  0.00     0.039 A 
ATOM     29  C   UNL     1     -10.056   5.060   3.732  1.00  0.00     0.014 A 
ATOM     30  C   UNL     1      -7.932   3.961   4.154  1.00  0.00     0.014 A 
ATOM     31  C   UNL     1     -10.335   5.056   5.094  1.00  0.00     0.010 A 
ATOM     32  C   UNL     1      -8.211   3.942   5.518  1.00  0.00     0.010 A 
ATOM     33  C   UNL     1      -9.423   4.471   5.982  1.00  0.00    -0.014 A 
BRANCH  33  34
ATOM     34  C   UNL     1      -9.867   4.201   7.369  1.00  0.00     0.031 A 
ATOM     35  C   UNL     1     -10.727   2.906   7.426  1.00  0.00     0.074 A 
ATOM     36  C   UNL     1      -9.469   5.095   8.329  1.00  0.00     0.049 A 
ATOM     37  N   UNL     1     -11.563   2.488   8.327  1.00  0.00    -0.248 NA
ATOM     38  C   UNL     1     -10.667   1.938   6.289  1.00  0.00     0.031 C 
ATOM     39  C   UNL     1      -8.588   6.261   8.083  1.00  0.00     0.029 A 
ATOM     40  N   UNL     1      -9.705   5.228   9.687  1.00  0.00    -0.354 N 
ATOM     41  C   UNL     1     -11.937   1.160   7.992  1.00  0.00     0.074 A 
ATOM     42  C   UNL     1     -11.444   0.923   6.674  1.00  0.00     0.031 C 
ATOM     43  C   UNL     1      -8.441   7.011   9.199  1.00  0.00     0.029 A 
ATOM     44  C   UNL     1      -9.182   6.411  10.291  1.00  0.00     0.049 A 
ATOM     45  H   UNL     1     -10.200   4.551  10.201  1.00  0.00     0.167 HD
ATOM     46  C   UNL     1     -12.501   0.296   8.890  1.00  0.00     0.037 A 
ATOM     47  C   UNL     1      -9.367   6.885  11.568  1.00  0.00     0.037 A 
ATOM     48  C   UNL     1     -12.735   0.977  10.115  1.00  0.00     0.049 A 
ATOM     49  C   UNL     1     -10.020   5.779  12.274  1.00  0.00     0.074 A 
ATOM     50  C   UNL     1     -13.645   1.939  10.461  1.00  0.00     0.029 A 
ATOM     51  N   UNL     1     -11.722   0.948  11.039  1.00  0.00    -0.354 N 
ATOM     52  N   UNL     1      -9.410   4.693  12.640  1.00  0.00    -0.248 NA
ATOM     53  C   UNL     1     -11.464   5.843  12.518  1.00  0.00     0.031 C 
ATOM     54  C   UNL     1     -12.891   2.796  11.283  1.00  0.00     0.029 A 
ATOM     55  C   UNL     1     -11.673   2.188  11.617  1.00  0.00     0.049 A 
ATOM     56  H   UNL     1     -11.140   0.181  11.248  1.00  0.00     0.167 HD
ATOM     57  C   UNL     1     -10.460   3.831  12.824  1.00  0.00     0.074 A 
ATOM     58  C   UNL     1     -11.630   4.646  13.073  1.00  0.00     0.031 C 
ATOM     59  C   UNL     1     -10.432   2.622  12.208  1.00  0.00     0.037 A 
BRANCH  46  60
ATOM     60  C   UNL     1     -12.670  -1.202   8.924  1.00  0.00     0.064 A 
ATOM     61  C   UNL     1     -13.544  -1.747   9.903  1.00  0.00     0.173 A 
ATOM     62  C   UNL     1     -11.751  -2.091   8.357  1.00  0.00     0.173 A 
ATOM     63  F   UNL     1     -14.507  -0.996  10.462  1.00  0.00    -0.203 F 
ATOM     64  C   UNL     1     -13.381  -3.036  10.407  1.00  0.00     0.198 A 
ATOM     65  C   UNL     1     -11.629  -3.404   8.828  1.00  0.00     0.198 A 
ATOM     66  F   UNL     1     -10.886  -1.688   7.419  1.00  0.00    -0.203 F 
ATOM     67  F   UNL     1     -14.117  -3.444  11.451  1.00  0.00    -0.200 F 
ATOM     68  C   UNL     1     -12.405  -3.857   9.884  1.00  0.00     0.200 A 
ATOM     69  F   UNL     1     -10.690  -4.208   8.309  1.00  0.00    -0.200 F 
ATOM     70  F   UNL     1     -12.186  -5.067  10.417  1.00  0.00    -0.200 F 
ENDBRANCH  46  60
BRANCH  47  71
ATOM     71  C   UNL     1      -9.150   8.142  12.394  1.00  0.00     0.064 A 
ATOM     72  C   UNL     1      -8.449   9.286  12.000  1.00  0.00     0.173 A 
ATOM     73  C   UNL     1      -9.781   8.270  13.672  1.00  0.00     0.173 A 
ATOM     74  F   UNL     1      -7.696   9.285  10.895  1.00  0.00    -0.203 F 
ATOM     75  C   UNL     1      -8.490  10.484  12.748  1.00  0.00     0.198 A 
ATOM     76  C   UNL     1      -9.874   9.467  14.381  1.00  0.00     0.198 A 
ATOM     77  F   UNL     1     -10.345   7.225  14.291  1.00  0.00    -0.203 F 
ATOM     78  F   UNL     1      -7.807  11.557  12.324  1.00  0.00    -0.200 F 
ATOM     79  C   UNL     1      -9.242  10.587  13.907  1.00  0.00     0.200 A 
ATOM     80  F   UNL     1     -10.600   9.518  15.508  1.00  0.00    -0.200 F 
ATOM     81  F   UNL     1      -9.345  11.748  14.568  1.00  0.00    -0.200 F 
ENDBRANCH  47  71
BRANCH  59  82
ATOM     82  C   UNL     1      -9.033   2.121  11.879  1.00  0.00     0.064 A 
ATOM     83  C   UNL     1      -8.089   1.962  12.907  1.00  0.00     0.173 A 
ATOM     84  C   UNL     1      -8.550   1.917  10.575  1.00  0.00     0.173 A 
ATOM     85  F   UNL     1      -8.467   2.101  14.187  1.00  0.00    -0.203 F 
ATOM     86  C   UNL     1      -6.748   1.663  12.642  1.00  0.00     0.198 A 
ATOM     87  C   UNL     1      -7.211   1.616  10.305  1.00  0.00     0.198 A 
ATOM     88  F   UNL     1      -9.365   1.992   9.527  1.00  0.00    -0.203 F 
ATOM     89  F   UNL     1      -5.882   1.531  13.656  1.00  0.00    -0.200 F 
ATOM     90  C   UNL     1      -6.308   1.498  11.340  1.00  0.00     0.200 A 
ATOM     91  F   UNL     1      -6.806   1.438   9.037  1.00  0.00    -0.200 F 
ATOM     92  F   UNL     1      -5.024   1.205  11.086  1.00  0.00    -0.200 F 
ENDBRANCH  59  82
ENDBRANCH  33  34
ENDBRANCH  25  28
ENDBRANCH  23  24
ENDBRANCH  22  23
ENDBRANCH   1  22
TORSDOF 14
