REMARK SMILES Cc1cccc(NS(=O)(=O)Cc2ccc(C(=O)NCCCCNC(=O)c3ccc(-c4c5nc(c(-c6c(F)c(F)c(F)c(F)c6F)c6ccc([nH]6)c(-c6c(F)c(F)c(F)c(F)c6F)c6nc(c(-c7c(F)c(F)c(F)c(F)c7F)c7ccc4[nH]7)C=C6)C=C5)cc3)cc2)n1
REMARK SMILES IDX 19 1 18 2 16 3 17 4 15 6 12 7 13 8 90 9 14 10 89 11 11 12
REMARK SMILES IDX 8 13 9 14 10 15 7 16 6 18 1 19 2 20 3 21 91 22 4 23 5 24
REMARK SMILES IDX 20 25 21 26 22 27 23 28 24 29 25 31 26 32 27 33 88 34 28 35
REMARK SMILES IDX 87 36 29 37 30 38 31 39 81 40 32 41 86 42 80 43 82 44 33 45
REMARK SMILES IDX 85 46 79 47 78 48 34 50 66 51 46 52 65 53 47 54 50 55 64 56
REMARK SMILES IDX 83 57 48 58 49 59 63 61 84 62 51 63 35 64 36 65 44 66 37 67
REMARK SMILES IDX 38 68 42 69 45 70 39 71 40 72 43 73 41 74 67 75 68 76 76 77
REMARK SMILES IDX 69 78 70 79 74 80 77 81 71 82 72 83 75 84 73 85 52 86 53 87
REMARK SMILES IDX 61 88 54 89 55 90 59 91 62 92 56 93 57 94 60 95 58 96
REMARK H PARENT 18 5 7 17 23 30 82 49 50 60
REMARK Flexibility Score: inf
ROOT
ATOM      1  C   UNL     1       1.773   2.361   6.506  1.00  0.00     0.116 C 
ENDROOT
BRANCH   1   2
ATOM      2  N   UNL     1       1.643   0.996   6.043  1.00  0.00    -0.352 N 
ATOM      3  C   UNL     1       1.510   0.526   4.763  1.00  0.00     0.251 C 
ATOM      4  O   UNL     1       1.469  -0.687   4.569  1.00  0.00    -0.269 OA
ATOM      5  H   UNL     1       1.652   0.308   6.747  1.00  0.00     0.163 HD
BRANCH   3   6
ATOM      6  C   UNL     1       1.474   1.453   3.606  1.00  0.00     0.039 A 
ATOM      7  C   UNL     1       1.347   3.014   1.275  1.00  0.00    -0.031 A 
ATOM      8  C   UNL     1       2.217   1.915   1.360  1.00  0.00     0.005 A 
ATOM      9  C   UNL     1       0.614   3.381   2.407  1.00  0.00     0.005 A 
ATOM     10  C   UNL     1       2.263   1.125   2.506  1.00  0.00     0.014 A 
ATOM     11  C   UNL     1       0.650   2.582   3.552  1.00  0.00     0.014 A 
BRANCH   7  12
ATOM     12  C   UNL     1       1.188   3.719  -0.050  1.00  0.00     0.195 C 
BRANCH  12  13
ATOM     13  S   UNL     1      -0.526   3.703  -0.641  1.00  0.00     0.238 S 
ATOM     14  O   UNL     1      -0.546   3.599  -2.085  1.00  0.00    -0.206 OA
ATOM     15  O   UNL     1      -1.204   4.826  -0.011  1.00  0.00    -0.206 OA
BRANCH  13  16
ATOM     16  N   UNL     1      -1.278   2.380   0.010  1.00  0.00    -0.267 N 
ATOM     17  H   UNL     1      -1.972   2.521   0.694  1.00  0.00     0.181 HD
BRANCH  16  18
ATOM     18  C   UNL     1      -0.965   1.063  -0.375  1.00  0.00     0.139 A 
ATOM     19  C   UNL     1       2.146  -0.728  -1.147  1.00  0.00     0.067 C 
ATOM     20  C   UNL     1       0.704  -0.471  -0.818  1.00  0.00     0.040 A 
ATOM     21  C   UNL     1      -0.122  -1.534  -0.469  1.00  0.00     0.023 A 
ATOM     22  N   UNL     1       0.297   0.823  -0.770  1.00  0.00    -0.235 NA
ATOM     23  C   UNL     1      -1.427  -1.264  -0.080  1.00  0.00     0.006 A 
ATOM     24  C   UNL     1      -1.854   0.058  -0.019  1.00  0.00     0.048 A 
ENDBRANCH  16  18
ENDBRANCH  13  16
ENDBRANCH  12  13
ENDBRANCH   7  12
ENDBRANCH   3   6
ENDBRANCH   1   2
BRANCH   1  25
ATOM     25  C   UNL     1       0.441   2.866   7.062  1.00  0.00     0.023 C 
BRANCH  25  26
ATOM     26  C   UNL     1       0.112   2.362   8.466  1.00  0.00     0.023 C 
BRANCH  26  27
ATOM     27  C   UNL     1       1.128   2.747   9.531  1.00  0.00     0.116 C 
BRANCH  27  28
ATOM     28  N   UNL     1       1.384   4.178   9.593  1.00  0.00    -0.352 N 
ATOM     29  C   UNL     1       1.792   4.921  10.673  1.00  0.00     0.251 C 
ATOM     30  H   UNL     1       1.249   4.676   8.754  1.00  0.00     0.163 HD
ATOM     31  O   UNL     1       1.870   6.139  10.603  1.00  0.00    -0.269 OA
BRANCH  29  32
ATOM     32  C   UNL     1       2.088   4.225  11.940  1.00  0.00     0.039 A 
ATOM     33  C   UNL     1       1.482   4.684  13.110  1.00  0.00     0.014 A 
ATOM     34  C   UNL     1       2.917   3.100  11.959  1.00  0.00     0.014 A 
ATOM     35  C   UNL     1       1.665   3.977  14.297  1.00  0.00     0.010 A 
ATOM     36  C   UNL     1       3.035   2.353  13.124  1.00  0.00     0.010 A 
ATOM     37  C   UNL     1       2.418   2.790  14.305  1.00  0.00    -0.014 A 
BRANCH  37  38
ATOM     38  C   UNL     1       2.573   2.004  15.552  1.00  0.00     0.031 A 
ATOM     39  C   UNL     1       3.925   1.862  16.189  1.00  0.00     0.074 A 
ATOM     40  C   UNL     1       1.500   1.389  16.084  1.00  0.00     0.049 A 
ATOM     41  N   UNL     1       4.260   1.227  17.284  1.00  0.00    -0.248 NA
ATOM     42  C   UNL     1       5.058   2.488  15.489  1.00  0.00     0.031 C 
ATOM     43  C   UNL     1       0.151   1.398  15.513  1.00  0.00     0.029 A 
ATOM     44  N   UNL     1       1.373   0.639  17.224  1.00  0.00    -0.354 N 
ATOM     45  C   UNL     1       5.636   1.372  17.397  1.00  0.00     0.074 A 
ATOM     46  C   UNL     1       6.084   2.097  16.229  1.00  0.00     0.031 C 
ATOM     47  C   UNL     1      -0.673   0.717  16.325  1.00  0.00     0.029 A 
ATOM     48  C   UNL     1       0.091   0.206  17.458  1.00  0.00     0.049 A 
ATOM     49  H   UNL     1       2.130   0.430  17.819  1.00  0.00     0.167 HD
ATOM     50  C   UNL     1       6.448   0.964  18.401  1.00  0.00     0.037 A 
ATOM     51  C   UNL     1      -0.410  -0.511  18.481  1.00  0.00     0.037 A 
ATOM     52  C   UNL     1       5.991   0.267  19.573  1.00  0.00     0.049 A 
ATOM     53  C   UNL     1       0.507  -0.922  19.601  1.00  0.00     0.074 A 
ATOM     54  C   UNL     1       6.720  -0.142  20.675  1.00  0.00     0.029 A 
ATOM     55  N   UNL     1       4.678  -0.123  19.794  1.00  0.00    -0.354 N 
ATOM     56  N   UNL     1       1.793  -0.707  19.740  1.00  0.00    -0.248 NA
ATOM     57  C   UNL     1      -0.102  -1.659  20.716  1.00  0.00     0.031 C 
ATOM     58  C   UNL     1       5.855  -0.813  21.547  1.00  0.00     0.029 A 
ATOM     59  C   UNL     1       4.578  -0.779  21.010  1.00  0.00     0.049 A 
ATOM     60  H   UNL     1       3.928   0.042  19.178  1.00  0.00     0.167 HD
ATOM     61  C   UNL     1       2.141  -1.252  20.968  1.00  0.00     0.074 A 
ATOM     62  C   UNL     1       0.926  -1.794  21.541  1.00  0.00     0.031 C 
ATOM     63  C   UNL     1       3.356  -1.301  21.567  1.00  0.00     0.037 A 
BRANCH  50  64
ATOM     64  C   UNL     1       7.912   1.275  18.276  1.00  0.00     0.064 A 
ATOM     65  C   UNL     1       8.394   2.590  18.371  1.00  0.00     0.173 A 
ATOM     66  C   UNL     1       8.846   0.247  18.082  1.00  0.00     0.173 A 
ATOM     67  F   UNL     1       7.541   3.611  18.541  1.00  0.00    -0.203 F 
ATOM     68  C   UNL     1       9.753   2.866  18.247  1.00  0.00     0.198 A 
ATOM     69  C   UNL     1      10.207   0.524  17.989  1.00  0.00     0.198 A 
ATOM     70  F   UNL     1       8.440  -1.028  17.986  1.00  0.00    -0.203 F 
ATOM     71  F   UNL     1      10.183   4.135  18.288  1.00  0.00    -0.200 F 
ATOM     72  C   UNL     1      10.659   1.833  18.063  1.00  0.00     0.200 A 
ATOM     73  F   UNL     1      11.084  -0.477  17.822  1.00  0.00    -0.200 F 
ATOM     74  F   UNL     1      11.967   2.100  17.948  1.00  0.00    -0.200 F 
ENDBRANCH  50  64
BRANCH  51  75
ATOM     75  C   UNL     1      -1.859  -0.835  18.522  1.00  0.00     0.064 A 
ATOM     76  C   UNL     1      -2.706  -0.224  19.458  1.00  0.00     0.173 A 
ATOM     77  C   UNL     1      -2.427  -1.757  17.631  1.00  0.00     0.173 A 
ATOM     78  F   UNL     1      -2.205   0.652  20.341  1.00  0.00    -0.203 F 
ATOM     79  C   UNL     1      -4.061  -0.542  19.517  1.00  0.00     0.198 A 
ATOM     80  C   UNL     1      -3.788  -2.053  17.674  1.00  0.00     0.198 A 
ATOM     81  F   UNL     1      -1.661  -2.361  16.711  1.00  0.00    -0.203 F 
ATOM     82  F   UNL     1      -4.838   0.022  20.452  1.00  0.00    -0.200 F 
ATOM     83  C   UNL     1      -4.602  -1.452  18.622  1.00  0.00     0.200 A 
ATOM     84  F   UNL     1      -4.310  -2.922  16.798  1.00  0.00    -0.200 F 
ATOM     85  F   UNL     1      -5.906  -1.755  18.678  1.00  0.00    -0.200 F 
ENDBRANCH  51  75
BRANCH  63  86
ATOM     86  C   UNL     1       3.421  -1.926  22.930  1.00  0.00     0.064 A 
ATOM     87  C   UNL     1       3.276  -3.308  23.116  1.00  0.00     0.173 A 
ATOM     88  C   UNL     1       3.657  -1.131  24.062  1.00  0.00     0.173 A 
ATOM     89  F   UNL     1       3.035  -4.108  22.066  1.00  0.00    -0.203 F 
ATOM     90  C   UNL     1       3.332  -3.868  24.389  1.00  0.00     0.198 A 
ATOM     91  C   UNL     1       3.743  -1.698  25.330  1.00  0.00     0.198 A 
ATOM     92  F   UNL     1       3.811   0.196  23.937  1.00  0.00    -0.203 F 
ATOM     93  F   UNL     1       3.136  -5.184  24.549  1.00  0.00    -0.200 F 
ATOM     94  C   UNL     1       3.571  -3.064  25.494  1.00  0.00     0.200 A 
ATOM     95  F   UNL     1       3.988  -0.921  26.394  1.00  0.00    -0.200 F 
ATOM     96  F   UNL     1       3.627  -3.605  26.718  1.00  0.00    -0.200 F 
ENDBRANCH  63  86
ENDBRANCH  37  38
ENDBRANCH  29  32
ENDBRANCH  27  28
ENDBRANCH  26  27
ENDBRANCH  25  26
ENDBRANCH   1  25
TORSDOF 15
