REMARK SMILES CC(C)C[C@H](C[NH3+])C(=O)N1CCSC[C@@H]1CC(=O)NCCCCNC(=O)c1ccc(-c2c3nc(c(-c4c(F)c(F)c(F)c(F)c4F)c4ccc([nH]4)c(-c4c(F)c(F)c(F)c(F)c4F)c4nc(c(-c5c(F)c(F)c(F)c(F)c5F)c5ccc2[nH]5)C=C4)C=C3)cc1
REMARK SMILES IDX 20 1 19 2 17 3 18 4 16 6 15 7 10 8 11 9 12 10 14 11 13 12
REMARK SMILES IDX 8 13 9 14 5 15 4 16 2 17 1 18 3 19 6 20 7 21 21 25 22 26
REMARK SMILES IDX 23 27 24 28 25 29 26 31 27 32 28 33 89 34 29 35 88 36 30 37
REMARK SMILES IDX 31 38 32 39 82 40 33 41 87 42 81 43 83 44 34 45 86 46 80 47
REMARK SMILES IDX 79 48 35 50 67 51 47 52 66 53 48 54 51 55 65 56 84 57 49 58
REMARK SMILES IDX 50 59 64 61 85 62 52 63 36 64 37 65 45 66 38 67 39 68 43 69
REMARK SMILES IDX 46 70 40 71 41 72 44 73 42 74 68 75 69 76 77 77 70 78 71 79
REMARK SMILES IDX 75 80 78 81 72 82 73 83 76 84 74 85 53 86 54 87 62 88 55 89
REMARK SMILES IDX 56 90 60 91 63 92 57 93 58 94 61 95 59 96
REMARK H PARENT 19 5 7 22 7 23 7 24 24 30 83 49 51 60
REMARK Flexibility Score: inf
ROOT
ATOM      1  C   UNL     1      -5.275  -2.815  -3.319  1.00  0.00     0.116 C 
ENDROOT
BRANCH   1   2
ATOM      2  N   UNL     1      -4.145  -3.396  -2.620  1.00  0.00    -0.356 N 
ATOM      3  C   UNL     1      -4.150  -4.197  -1.515  1.00  0.00     0.222 C 
ATOM      4  O   UNL     1      -3.255  -5.036  -1.406  1.00  0.00    -0.275 OA
ATOM      5  H   UNL     1      -3.258  -3.186  -2.992  1.00  0.00     0.163 HD
BRANCH   3   6
ATOM      6  C   UNL     1      -5.209  -4.039  -0.448  1.00  0.00     0.126 C 
BRANCH   6   7
ATOM      7  C   UNL     1      -5.085  -2.681   0.258  1.00  0.00     0.104 C 
ATOM      8  N   UNL     1      -3.785  -2.506   0.949  1.00  0.00    -0.337 N 
ATOM      9  C   UNL     1      -3.656  -3.098   2.282  1.00  0.00     0.130 C 
ATOM     10  C   UNL     1      -4.683  -2.551   3.276  1.00  0.00     0.091 C 
ATOM     11  C   UNL     1      -6.326  -2.348   1.114  1.00  0.00     0.095 C 
ATOM     12  S   UNL     1      -6.345  -3.096   2.771  1.00  0.00    -0.158 SA
BRANCH   8  13
ATOM     13  C   UNL     1      -3.027  -1.402   0.599  1.00  0.00     0.231 C 
ATOM     14  O   UNL     1      -3.583  -0.318   0.387  1.00  0.00    -0.274 OA
BRANCH  13  15
ATOM     15  C   UNL     1      -1.508  -1.533   0.372  1.00  0.00     0.133 C 
BRANCH  15  16
ATOM     16  C   UNL     1      -0.904  -2.833  -0.218  1.00  0.00     0.022 C 
BRANCH  16  17
ATOM     17  C   UNL     1      -0.197  -3.870   0.680  1.00  0.00    -0.016 C 
ATOM     18  C   UNL     1      -1.076  -5.075   1.007  1.00  0.00     0.007 C 
ATOM     19  C   UNL     1       1.041  -4.428  -0.046  1.00  0.00     0.007 C 
ENDBRANCH  16  17
ENDBRANCH  15  16
BRANCH  15  20
ATOM     20  C   UNL     1      -0.635  -0.744   1.360  1.00  0.00     0.272 C 
BRANCH  20  21
ATOM     21  N   UNL     1      -0.897  -0.915   2.781  1.00  0.00    -0.357 N 
ATOM     22  H   UNL     1      -1.830  -0.565   2.999  1.00  0.00     0.344 HD
ATOM     23  H   UNL     1      -0.204  -0.395   3.320  1.00  0.00     0.344 HD
ATOM     24  H   UNL     1      -0.841  -1.905   3.020  1.00  0.00     0.344 HD
ENDBRANCH  20  21
ENDBRANCH  15  20
ENDBRANCH  13  15
ENDBRANCH   8  13
ENDBRANCH   6   7
ENDBRANCH   3   6
ENDBRANCH   1   2
BRANCH   1  25
ATOM     25  C   UNL     1      -5.530  -1.323  -3.111  1.00  0.00     0.023 C 
BRANCH  25  26
ATOM     26  C   UNL     1      -4.317  -0.393  -3.108  1.00  0.00     0.023 C 
BRANCH  26  27
ATOM     27  C   UNL     1      -3.337  -0.545  -4.262  1.00  0.00     0.116 C 
BRANCH  27  28
ATOM     28  N   UNL     1      -3.969  -0.459  -5.567  1.00  0.00    -0.352 N 
ATOM     29  C   UNL     1      -3.763   0.412  -6.606  1.00  0.00     0.251 C 
ATOM     30  H   UNL     1      -4.662  -1.138  -5.733  1.00  0.00     0.163 HD
ATOM     31  O   UNL     1      -4.509   0.377  -7.580  1.00  0.00    -0.269 OA
BRANCH  29  32
ATOM     32  C   UNL     1      -2.670   1.409  -6.561  1.00  0.00     0.039 A 
ATOM     33  C   UNL     1      -2.934   2.705  -7.016  1.00  0.00     0.014 A 
ATOM     34  C   UNL     1      -1.389   1.075  -6.115  1.00  0.00     0.014 A 
ATOM     35  C   UNL     1      -1.933   3.677  -6.970  1.00  0.00     0.010 A 
ATOM     36  C   UNL     1      -0.415   2.063  -5.997  1.00  0.00     0.010 A 
ATOM     37  C   UNL     1      -0.674   3.372  -6.430  1.00  0.00    -0.014 A 
BRANCH  37  38
ATOM     38  C   UNL     1       0.390   4.403  -6.333  1.00  0.00     0.031 A 
ATOM     39  C   UNL     1       1.657   4.254  -7.127  1.00  0.00     0.074 A 
ATOM     40  C   UNL     1       0.238   5.442  -5.489  1.00  0.00     0.049 A 
ATOM     41  N   UNL     1       2.732   5.002  -7.122  1.00  0.00    -0.248 NA
ATOM     42  C   UNL     1       1.740   3.092  -8.026  1.00  0.00     0.031 C 
ATOM     43  C   UNL     1      -0.924   5.669  -4.629  1.00  0.00     0.029 A 
ATOM     44  N   UNL     1       1.073   6.494  -5.205  1.00  0.00    -0.354 N 
ATOM     45  C   UNL     1       3.620   4.393  -7.999  1.00  0.00     0.074 A 
ATOM     46  C   UNL     1       2.982   3.187  -8.479  1.00  0.00     0.031 C 
ATOM     47  C   UNL     1      -0.736   6.797  -3.925  1.00  0.00     0.029 A 
ATOM     48  C   UNL     1       0.572   7.354  -4.260  1.00  0.00     0.049 A 
ATOM     49  H   UNL     1       1.948   6.619  -5.638  1.00  0.00     0.167 HD
ATOM     50  C   UNL     1       4.847   4.815  -8.388  1.00  0.00     0.037 A 
ATOM     51  C   UNL     1       1.110   8.464  -3.719  1.00  0.00     0.037 A 
ATOM     52  C   UNL     1       5.466   6.031  -7.933  1.00  0.00     0.049 A 
ATOM     53  C   UNL     1       2.467   8.920  -4.180  1.00  0.00     0.074 A 
ATOM     54  C   UNL     1       6.682   6.575  -8.308  1.00  0.00     0.029 A 
ATOM     55  N   UNL     1       4.910   6.896  -7.002  1.00  0.00    -0.354 N 
ATOM     56  N   UNL     1       3.272   8.367  -5.054  1.00  0.00    -0.248 NA
ATOM     57  C   UNL     1       2.987  10.159  -3.585  1.00  0.00     0.031 C 
ATOM     58  C   UNL     1       6.878   7.752  -7.578  1.00  0.00     0.029 A 
ATOM     59  C   UNL     1       5.765   7.964  -6.780  1.00  0.00     0.049 A 
ATOM     60  H   UNL     1       4.038   6.771  -6.564  1.00  0.00     0.167 HD
ATOM     61  C   UNL     1       4.381   9.198  -5.131  1.00  0.00     0.074 A 
ATOM     62  C   UNL     1       4.138  10.304  -4.228  1.00  0.00     0.031 C 
ATOM     63  C   UNL     1       5.502   9.058  -5.881  1.00  0.00     0.037 A 
BRANCH  50  64
ATOM     64  C   UNL     1       5.595   3.957  -9.366  1.00  0.00     0.064 A 
ATOM     65  C   UNL     1       5.189   3.845 -10.705  1.00  0.00     0.173 A 
ATOM     66  C   UNL     1       6.747   3.260  -8.970  1.00  0.00     0.173 A 
ATOM     67  F   UNL     1       4.087   4.480 -11.130  1.00  0.00    -0.203 F 
ATOM     68  C   UNL     1       5.889   3.044 -11.603  1.00  0.00     0.198 A 
ATOM     69  C   UNL     1       7.462   2.484  -9.879  1.00  0.00     0.198 A 
ATOM     70  F   UNL     1       7.182   3.337  -7.704  1.00  0.00    -0.203 F 
ATOM     71  F   UNL     1       5.453   2.913 -12.863  1.00  0.00    -0.200 F 
ATOM     72  C   UNL     1       7.029   2.370 -11.191  1.00  0.00     0.200 A 
ATOM     73  F   UNL     1       8.570   1.841  -9.482  1.00  0.00    -0.200 F 
ATOM     74  F   UNL     1       7.705   1.603 -12.058  1.00  0.00    -0.200 F 
ENDBRANCH  50  64
BRANCH  51  75
ATOM     75  C   UNL     1       0.353   9.231  -2.697  1.00  0.00     0.064 A 
ATOM     76  C   UNL     1      -0.188  10.489  -2.996  1.00  0.00     0.173 A 
ATOM     77  C   UNL     1       0.153   8.725  -1.405  1.00  0.00     0.173 A 
ATOM     78  F   UNL     1      -0.005  11.024  -4.212  1.00  0.00    -0.203 F 
ATOM     79  C   UNL     1      -0.884  11.220  -2.036  1.00  0.00     0.198 A 
ATOM     80  C   UNL     1      -0.566   9.445  -0.453  1.00  0.00     0.198 A 
ATOM     81  F   UNL     1       0.647   7.524  -1.070  1.00  0.00    -0.203 F 
ATOM     82  F   UNL     1      -1.354  12.439  -2.335  1.00  0.00    -0.200 F 
ATOM     83  C   UNL     1      -1.078  10.695  -0.767  1.00  0.00     0.200 A 
ATOM     84  F   UNL     1      -0.762   8.929   0.768  1.00  0.00    -0.200 F 
ATOM     85  F   UNL     1      -1.751  11.397   0.155  1.00  0.00    -0.200 F 
ENDBRANCH  51  75
BRANCH  63  86
ATOM     86  C   UNL     1       6.537  10.137  -5.776  1.00  0.00     0.064 A 
ATOM     87  C   UNL     1       7.354  10.262  -4.644  1.00  0.00     0.173 A 
ATOM     88  C   UNL     1       6.744  11.029  -6.840  1.00  0.00     0.173 A 
ATOM     89  F   UNL     1       7.184   9.442  -3.595  1.00  0.00    -0.203 F 
ATOM     90  C   UNL     1       8.328  11.254  -4.571  1.00  0.00     0.198 A 
ATOM     91  C   UNL     1       7.736  12.002  -6.775  1.00  0.00     0.198 A 
ATOM     92  F   UNL     1       5.991  10.946  -7.947  1.00  0.00    -0.203 F 
ATOM     93  F   UNL     1       9.070  11.382  -3.463  1.00  0.00    -0.200 F 
ATOM     94  C   UNL     1       8.523  12.118  -5.639  1.00  0.00     0.200 A 
ATOM     95  F   UNL     1       7.931  12.829  -7.811  1.00  0.00    -0.200 F 
ATOM     96  F   UNL     1       9.466  13.068  -5.570  1.00  0.00    -0.200 F 
ENDBRANCH  63  86
ENDBRANCH  37  38
ENDBRANCH  29  32
ENDBRANCH  27  28
ENDBRANCH  26  27
ENDBRANCH  25  26
ENDBRANCH   1  25
TORSDOF 18
