REMARK SMILES CCCC(=O)Nc1cccc(C(=O)N[C@@H](C(=O)NCCCCNC(=O)c2ccc(-c3c4nc(c(-c5c(F)c(F)c(F)c(F)c5F)c5ccc([nH]5)c(-c5c(F)c(F)c(F)c(F)c5F)c5nc(c(-c6c(F)c(F)c(F)c(F)c6F)c6ccc3[nH]6)C=C5)C=C4)cc2)c2c(C)n[nH]c2C)c1
REMARK SMILES IDX 19 1 18 2 16 3 17 4 15 6 14 7 12 8 13 9 11 11 7 12 8 13
REMARK SMILES IDX 96 14 9 15 10 16 6 17 4 18 5 19 3 21 2 22 1 23 89 24 90 25
REMARK SMILES IDX 94 26 91 27 92 28 93 29 95 30 20 32 21 33 22 34 23 35 24 36
REMARK SMILES IDX 25 38 26 39 27 40 88 41 28 42 87 43 29 44 30 45 31 46 81 47
REMARK SMILES IDX 32 48 86 49 80 50 82 51 33 52 85 53 79 54 78 55 34 57 66 58
REMARK SMILES IDX 46 59 65 60 47 61 50 62 64 63 83 64 48 65 49 66 63 68 84 69
REMARK SMILES IDX 51 70 35 71 36 72 44 73 37 74 38 75 42 76 45 77 39 78 40 79
REMARK SMILES IDX 43 80 41 81 67 82 68 83 76 84 69 85 70 86 74 87 77 88 71 89
REMARK SMILES IDX 72 90 75 91 73 92 52 93 53 94 61 95 54 96 55 97 59 98 62 99
REMARK SMILES IDX 56 100 57 101 60 102 58 103
REMARK H PARENT 18 5 14 10 6 20 93 31 23 37 82 56 50 67
REMARK Flexibility Score: inf
ROOT
ATOM      1  C   UNL     1      -1.337  -0.395  -2.748  1.00  0.00     0.116 C 
ENDROOT
BRANCH   1   2
ATOM      2  N   UNL     1      -2.101  -1.261  -1.882  1.00  0.00    -0.354 N 
ATOM      3  C   UNL     1      -1.757  -1.831  -0.686  1.00  0.00     0.247 C 
ATOM      4  O   UNL     1      -2.698  -2.301  -0.038  1.00  0.00    -0.272 OA
ATOM      5  H   UNL     1      -3.008  -1.474  -2.200  1.00  0.00     0.163 HD
BRANCH   3   6
ATOM      6  C   UNL     1      -0.303  -1.727  -0.110  1.00  0.00     0.206 C 
BRANCH   6   7
ATOM      7  N   UNL     1       0.730  -1.988  -1.128  1.00  0.00    -0.336 N 
ATOM      8  C   UNL     1       1.720  -1.312  -1.791  1.00  0.00     0.252 C 
ATOM      9  O   UNL     1       2.303  -1.954  -2.670  1.00  0.00    -0.269 OA
ATOM     10  H   UNL     1       0.700  -2.928  -1.417  1.00  0.00     0.165 HD
BRANCH   8  11
ATOM     11  C   UNL     1       2.152   0.105  -1.571  1.00  0.00     0.041 A 
ATOM     12  C   UNL     1       1.990   2.322  -0.596  1.00  0.00     0.041 A 
ATOM     13  C   UNL     1       3.194   2.711  -1.166  1.00  0.00     0.026 A 
ATOM     14  C   UNL     1       1.447   1.057  -0.841  1.00  0.00     0.040 A 
ATOM     15  C   UNL     1       3.889   1.795  -1.948  1.00  0.00     0.003 A 
ATOM     16  C   UNL     1       3.378   0.503  -2.138  1.00  0.00     0.014 A 
BRANCH  12  17
ATOM     17  N   UNL     1       1.308   3.182   0.270  1.00  0.00    -0.326 N 
ATOM     18  C   UNL     1       1.105   2.891   1.599  1.00  0.00     0.224 C 
ATOM     19  O   UNL     1       0.075   3.268   2.158  1.00  0.00    -0.275 OA
ATOM     20  H   UNL     1       0.958   4.030  -0.087  1.00  0.00     0.169 HD
BRANCH  18  21
ATOM     21  C   UNL     1       2.203   2.138   2.341  1.00  0.00     0.100 C 
BRANCH  21  22
ATOM     22  C   UNL     1       1.946   0.639   2.481  1.00  0.00     0.006 C 
ATOM     23  C   UNL     1       3.015  -0.253   1.860  1.00  0.00     0.004 C 
ENDBRANCH  21  22
ENDBRANCH  18  21
ENDBRANCH  12  17
ENDBRANCH   8  11
ENDBRANCH   6   7
BRANCH   6  24
ATOM     24  C   UNL     1      -0.132  -2.700   1.041  1.00  0.00     0.027 A 
ATOM     25  C   UNL     1      -0.383  -2.439   2.431  1.00  0.00     0.065 A 
ATOM     26  C   UNL     1       0.149  -4.061   1.020  1.00  0.00     0.038 A 
ATOM     27  C   UNL     1      -0.936  -1.228   3.094  1.00  0.00     0.069 C 
ATOM     28  N   UNL     1      -0.105  -3.499   3.197  1.00  0.00    -0.180 NA
ATOM     29  N   UNL     1       0.200  -4.462   2.326  1.00  0.00    -0.282 N 
ATOM     30  C   UNL     1       0.316  -5.040  -0.079  1.00  0.00     0.066 C 
ATOM     31  H   UNL     1       0.440  -5.377   2.599  1.00  0.00     0.190 HD
ENDBRANCH   6  24
ENDBRANCH   3   6
ENDBRANCH   1   2
BRANCH   1  32
ATOM     32  C   UNL     1      -0.916  -1.077  -4.044  1.00  0.00     0.023 C 
BRANCH  32  33
ATOM     33  C   UNL     1      -2.003  -1.077  -5.117  1.00  0.00     0.023 C 
BRANCH  33  34
ATOM     34  C   UNL     1      -2.485   0.307  -5.538  1.00  0.00     0.116 C 
BRANCH  34  35
ATOM     35  N   UNL     1      -1.439   1.159  -6.083  1.00  0.00    -0.352 N 
ATOM     36  C   UNL     1      -1.573   2.133  -7.049  1.00  0.00     0.251 C 
ATOM     37  H   UNL     1      -0.533   1.024  -5.722  1.00  0.00     0.163 HD
ATOM     38  O   UNL     1      -0.606   2.732  -7.492  1.00  0.00    -0.269 OA
BRANCH  36  39
ATOM     39  C   UNL     1      -2.928   2.401  -7.574  1.00  0.00     0.039 A 
ATOM     40  C   UNL     1      -3.163   2.251  -8.941  1.00  0.00     0.014 A 
ATOM     41  C   UNL     1      -3.974   2.684  -6.693  1.00  0.00     0.014 A 
ATOM     42  C   UNL     1      -4.473   2.311  -9.419  1.00  0.00     0.010 A 
ATOM     43  C   UNL     1      -5.282   2.666  -7.159  1.00  0.00     0.010 A 
ATOM     44  C   UNL     1      -5.545   2.476  -8.525  1.00  0.00    -0.014 A 
BRANCH  44  45
ATOM     45  C   UNL     1      -6.952   2.450  -8.997  1.00  0.00     0.031 A 
ATOM     46  C   UNL     1      -7.811   3.675  -8.855  1.00  0.00     0.074 A 
ATOM     47  C   UNL     1      -7.476   1.307  -9.482  1.00  0.00     0.049 A 
ATOM     48  N   UNL     1      -9.078   3.836  -9.143  1.00  0.00    -0.248 NA
ATOM     49  C   UNL     1      -7.168   4.868  -8.283  1.00  0.00     0.031 C 
ATOM     50  C   UNL     1      -6.760   0.038  -9.618  1.00  0.00     0.029 A 
ATOM     51  N   UNL     1      -8.738   1.027  -9.942  1.00  0.00    -0.354 N 
ATOM     52  C   UNL     1      -9.385   5.137  -8.767  1.00  0.00     0.074 A 
ATOM     53  C   UNL     1      -8.191   5.703  -8.180  1.00  0.00     0.031 C 
ATOM     54  C   UNL     1      -7.583  -0.876 -10.158  1.00  0.00     0.029 A 
ATOM     55  C   UNL     1      -8.894  -0.269 -10.370  1.00  0.00     0.049 A 
ATOM     56  H   UNL     1      -9.463   1.692  -9.964  1.00  0.00     0.167 HD
ATOM     57  C   UNL     1     -10.552   5.807  -8.921  1.00  0.00     0.037 A 
ATOM     58  C   UNL     1      -9.974  -0.895 -10.876  1.00  0.00     0.037 A 
ATOM     59  C   UNL     1     -11.725   5.252  -9.540  1.00  0.00     0.049 A 
ATOM     60  C   UNL     1     -11.258  -0.126 -11.038  1.00  0.00     0.074 A 
ATOM     61  C   UNL     1     -12.930   5.873  -9.818  1.00  0.00     0.029 A 
ATOM     62  N   UNL     1     -11.841   3.939  -9.974  1.00  0.00    -0.354 N 
ATOM     63  N   UNL     1     -11.513   1.128 -10.758  1.00  0.00    -0.248 NA
ATOM     64  C   UNL     1     -12.403  -0.862 -11.593  1.00  0.00     0.031 C 
ATOM     65  C   UNL     1     -13.791   4.924 -10.378  1.00  0.00     0.029 A 
ATOM     66  C   UNL     1     -13.107   3.724 -10.495  1.00  0.00     0.049 A 
ATOM     67  H   UNL     1     -11.130   3.261  -9.920  1.00  0.00     0.167 HD
ATOM     68  C   UNL     1     -12.834   1.341 -11.130  1.00  0.00     0.074 A 
ATOM     69  C   UNL     1     -13.323   0.089 -11.667  1.00  0.00     0.031 C 
ATOM     70  C   UNL     1     -13.574   2.473 -11.037  1.00  0.00     0.037 A 
BRANCH  57  71
ATOM     71  C   UNL     1     -10.611   7.218  -8.413  1.00  0.00     0.064 A 
ATOM     72  C   UNL     1      -9.894   8.255  -9.029  1.00  0.00     0.173 A 
ATOM     73  C   UNL     1     -11.413   7.542  -7.308  1.00  0.00     0.173 A 
ATOM     74  F   UNL     1      -9.102   7.997 -10.081  1.00  0.00    -0.203 F 
ATOM     75  C   UNL     1      -9.950   9.556  -8.537  1.00  0.00     0.198 A 
ATOM     76  C   UNL     1     -11.491   8.850  -6.838  1.00  0.00     0.198 A 
ATOM     77  F   UNL     1     -12.122   6.589  -6.684  1.00  0.00    -0.203 F 
ATOM     78  F   UNL     1      -9.212  10.518  -9.107  1.00  0.00    -0.200 F 
ATOM     79  C   UNL     1     -10.753   9.854  -7.446  1.00  0.00     0.200 A 
ATOM     80  F   UNL     1     -12.278   9.139  -5.792  1.00  0.00    -0.200 F 
ATOM     81  F   UNL     1     -10.809  11.107  -6.976  1.00  0.00    -0.200 F 
ENDBRANCH  57  71
BRANCH  58  82
ATOM     82  C   UNL     1      -9.880  -2.315 -11.305  1.00  0.00     0.064 A 
ATOM     83  C   UNL     1      -9.936  -2.656 -12.665  1.00  0.00     0.173 A 
ATOM     84  C   UNL     1      -9.743  -3.356 -10.377  1.00  0.00     0.173 A 
ATOM     85  F   UNL     1     -10.088  -1.696 -13.589  1.00  0.00    -0.203 F 
ATOM     86  C   UNL     1      -9.878  -3.985 -13.077  1.00  0.00     0.198 A 
ATOM     87  C   UNL     1      -9.658  -4.684 -10.793  1.00  0.00     0.198 A 
ATOM     88  F   UNL     1      -9.681  -3.083  -9.066  1.00  0.00    -0.203 F 
ATOM     89  F   UNL     1      -9.979  -4.285 -14.379  1.00  0.00    -0.200 F 
ATOM     90  C   UNL     1      -9.734  -4.998 -12.141  1.00  0.00     0.200 A 
ATOM     91  F   UNL     1      -9.506  -5.659  -9.886  1.00  0.00    -0.200 F 
ATOM     92  F   UNL     1      -9.676  -6.276 -12.538  1.00  0.00    -0.200 F 
ENDBRANCH  58  82
BRANCH  70  93
ATOM     93  C   UNL     1     -14.979   2.422 -11.562  1.00  0.00     0.064 A 
ATOM     94  C   UNL     1     -15.992   1.725 -10.890  1.00  0.00     0.173 A 
ATOM     95  C   UNL     1     -15.322   3.117 -12.733  1.00  0.00     0.173 A 
ATOM     96  F   UNL     1     -15.711   1.033  -9.776  1.00  0.00    -0.203 F 
ATOM     97  C   UNL     1     -17.294   1.705 -11.383  1.00  0.00     0.198 A 
ATOM     98  C   UNL     1     -16.631   3.119 -13.206  1.00  0.00     0.198 A 
ATOM     99  F   UNL     1     -14.390   3.804 -13.409  1.00  0.00    -0.203 F 
ATOM    100  F   UNL     1     -18.237   0.994 -10.750  1.00  0.00    -0.200 F 
ATOM    101  C   UNL     1     -17.614   2.408 -12.536  1.00  0.00     0.200 A 
ATOM    102  F   UNL     1     -16.940   3.811 -14.312  1.00  0.00    -0.200 F 
ATOM    103  F   UNL     1     -18.869   2.394 -13.004  1.00  0.00    -0.200 F 
ENDBRANCH  70  93
ENDBRANCH  44  45
ENDBRANCH  36  39
ENDBRANCH  34  35
ENDBRANCH  33  34
ENDBRANCH  32  33
ENDBRANCH   1  32
TORSDOF 17
