REMARK SMILES COc1cc(NC(=O)[C@@H]2CC=CC[C@H]2C(=O)NCCCCNC(=O)c2ccc(-c3c4nc(c(-c5c(F)c(F)c(F)c(F)c5F)c5ccc([nH]5)c(-c5c(F)c(F)c(F)c(F)c5F)c5nc(c(-c6c(F)c(F)c(F)c(F)c6F)c6ccc3[nH]6)C=C5)C=C4)cc2)c(OC)cc1Cl
REMARK SMILES IDX 19 1 18 2 17 3 15 4 16 5 14 7 9 8 10 9 11 10 13 11 12 12
REMARK SMILES IDX 7 13 6 14 8 16 5 17 3 18 4 19 92 20 91 21 93 22 88 23 2 24
REMARK SMILES IDX 1 25 89 26 90 27 20 28 21 29 22 30 23 31 24 33 25 34 26 35
REMARK SMILES IDX 87 36 27 37 86 38 28 39 29 40 30 41 80 42 31 43 85 44 79 45
REMARK SMILES IDX 81 46 32 47 84 48 78 49 77 50 33 52 65 53 45 54 64 55 46 56
REMARK SMILES IDX 49 57 63 58 82 59 47 60 48 61 62 63 83 64 50 65 34 66 35 67
REMARK SMILES IDX 43 68 36 69 37 70 41 71 44 72 38 73 39 74 42 75 40 76 66 77
REMARK SMILES IDX 67 78 75 79 68 80 69 81 73 82 76 83 70 84 71 85 74 86 72 87
REMARK SMILES IDX 51 88 52 89 60 90 53 91 54 92 58 93 61 94 55 95 56 96 59 97
REMARK SMILES IDX 57 98
REMARK H PARENT 17 6 6 15 22 32 81 51 49 62
REMARK Flexibility Score: inf
ROOT
ATOM      1  C   UNL     1      -1.066   5.810  -4.472  1.00  0.00     0.023 C 
ENDROOT
BRANCH   1   2
ATOM      2  C   UNL     1      -1.275   5.611  -2.975  1.00  0.00     0.116 C 
BRANCH   2   3
ATOM      3  N   UNL     1      -2.674   5.575  -2.606  1.00  0.00    -0.356 N 
ATOM      4  C   UNL     1      -3.342   4.655  -1.872  1.00  0.00     0.224 C 
ATOM      5  O   UNL     1      -4.262   5.085  -1.167  1.00  0.00    -0.275 OA
ATOM      6  H   UNL     1      -3.217   6.328  -2.936  1.00  0.00     0.163 HD
BRANCH   4   7
ATOM      7  C   UNL     1      -2.946   3.179  -1.773  1.00  0.00     0.095 C 
ATOM      8  C   UNL     1      -2.433   2.499  -3.061  1.00  0.00     0.095 C 
ATOM      9  C   UNL     1      -1.499   1.283  -2.717  1.00  0.00     0.041 C 
ATOM     10  C   UNL     1      -0.707   1.309  -1.458  1.00  0.00    -0.030 C 
ATOM     11  C   UNL     1      -2.002   3.199  -0.538  1.00  0.00     0.041 C 
ATOM     12  C   UNL     1      -0.941   2.166  -0.468  1.00  0.00    -0.030 C 
BRANCH   8  13
ATOM     13  C   UNL     1      -3.350   1.917  -4.183  1.00  0.00     0.228 C 
ATOM     14  N   UNL     1      -4.542   2.264  -4.692  1.00  0.00    -0.323 N 
ATOM     15  H   UNL     1      -4.691   1.726  -5.503  1.00  0.00     0.170 HD
ATOM     16  O   UNL     1      -2.844   1.019  -4.895  1.00  0.00    -0.274 OA
BRANCH  14  17
ATOM     17  C   UNL     1      -5.657   3.094  -4.521  1.00  0.00     0.087 A 
ATOM     18  C   UNL     1      -7.024   4.715  -3.350  1.00  0.00     0.139 A 
ATOM     19  C   UNL     1      -5.949   3.817  -3.384  1.00  0.00     0.078 A 
ATOM     20  C   UNL     1      -7.870   4.830  -4.450  1.00  0.00     0.086 A 
ATOM     21  C   UNL     1      -7.670   4.019  -5.563  1.00  0.00     0.073 A 
ATOM     22  Cl  UNL     1      -9.196   5.934  -4.455  1.00  0.00    -0.080 Cl
ATOM     23  C   UNL     1      -6.574   3.151  -5.602  1.00  0.00     0.144 A 
BRANCH  18  24
ATOM     24  O   UNL     1      -7.169   5.584  -2.302  1.00  0.00    -0.495 OA
ATOM     25  C   UNL     1      -7.453   4.947  -1.061  1.00  0.00     0.278 C 
ENDBRANCH  18  24
BRANCH  23  26
ATOM     26  O   UNL     1      -6.290   2.324  -6.668  1.00  0.00    -0.495 OA
ATOM     27  C   UNL     1      -7.337   2.117  -7.613  1.00  0.00     0.278 C 
ENDBRANCH  23  26
ENDBRANCH  14  17
ENDBRANCH   8  13
ENDBRANCH   4   7
ENDBRANCH   2   3
ENDBRANCH   1   2
BRANCH   1  28
ATOM     28  C   UNL     1      -1.640   7.106  -5.050  1.00  0.00     0.023 C 
BRANCH  28  29
ATOM     29  C   UNL     1      -1.298   8.386  -4.293  1.00  0.00     0.116 C 
BRANCH  29  30
ATOM     30  N   UNL     1       0.127   8.555  -4.054  1.00  0.00    -0.352 N 
ATOM     31  C   UNL     1       0.920   9.663  -4.218  1.00  0.00     0.251 C 
ATOM     32  H   UNL     1       0.593   7.753  -3.724  1.00  0.00     0.163 HD
ATOM     33  O   UNL     1       2.131   9.585  -4.034  1.00  0.00    -0.269 OA
BRANCH  31  34
ATOM     34  C   UNL     1       0.325  10.937  -4.667  1.00  0.00     0.039 A 
ATOM     35  C   UNL     1       0.935  11.619  -5.723  1.00  0.00     0.014 A 
ATOM     36  C   UNL     1      -0.838  11.441  -4.079  1.00  0.00     0.014 A 
ATOM     37  C   UNL     1       0.327  12.758  -6.252  1.00  0.00     0.010 A 
ATOM     38  C   UNL     1      -1.478  12.537  -4.650  1.00  0.00     0.010 A 
ATOM     39  C   UNL     1      -0.911  13.194  -5.752  1.00  0.00    -0.014 A 
BRANCH  39  40
ATOM     40  C   UNL     1      -1.651  14.300  -6.407  1.00  0.00     0.031 A 
ATOM     41  C   UNL     1      -1.914  15.582  -5.674  1.00  0.00     0.074 A 
ATOM     42  C   UNL     1      -2.162  14.109  -7.638  1.00  0.00     0.049 A 
ATOM     43  N   UNL     1      -2.604  16.627  -6.056  1.00  0.00    -0.248 NA
ATOM     44  C   UNL     1      -1.348  15.695  -4.322  1.00  0.00     0.031 C 
ATOM     45  C   UNL     1      -2.026  12.883  -8.426  1.00  0.00     0.029 A 
ATOM     46  N   UNL     1      -2.914  14.934  -8.436  1.00  0.00    -0.354 N 
ATOM     47  C   UNL     1      -2.562  17.516  -4.992  1.00  0.00     0.074 A 
ATOM     48  C   UNL     1      -1.826  16.866  -3.928  1.00  0.00     0.031 C 
ATOM     49  C   UNL     1      -2.663  13.039  -9.597  1.00  0.00     0.029 A 
ATOM     50  C   UNL     1      -3.283  14.360  -9.627  1.00  0.00     0.049 A 
ATOM     51  H   UNL     1      -3.165  15.851  -8.178  1.00  0.00     0.167 HD
ATOM     52  C   UNL     1      -3.072  18.769  -4.918  1.00  0.00     0.037 A 
ATOM     53  C   UNL     1      -4.049  14.837 -10.626  1.00  0.00     0.037 A 
ATOM     54  C   UNL     1      -3.797  19.412  -5.983  1.00  0.00     0.049 A 
ATOM     55  C   UNL     1      -4.618  16.224 -10.517  1.00  0.00     0.074 A 
ATOM     56  C   UNL     1      -4.290  20.704  -6.036  1.00  0.00     0.029 A 
ATOM     57  N   UNL     1      -4.145  18.803  -7.181  1.00  0.00    -0.354 N 
ATOM     58  N   UNL     1      -4.501  17.089  -9.540  1.00  0.00    -0.248 NA
ATOM     59  C   UNL     1      -5.422  16.701 -11.650  1.00  0.00     0.031 C 
ATOM     60  C   UNL     1      -4.981  20.860  -7.244  1.00  0.00     0.029 A 
ATOM     61  C   UNL     1      -4.877  19.682  -7.966  1.00  0.00     0.049 A 
ATOM     62  H   UNL     1      -3.908  17.883  -7.437  1.00  0.00     0.167 HD
ATOM     63  C   UNL     1      -5.207  18.215  -9.940  1.00  0.00     0.074 A 
ATOM     64  C   UNL     1      -5.729  17.931 -11.261  1.00  0.00     0.031 C 
ATOM     65  C   UNL     1      -5.407  19.377  -9.271  1.00  0.00     0.037 A 
BRANCH  52  66
ATOM     66  C   UNL     1      -2.862  19.522  -3.636  1.00  0.00     0.064 A 
ATOM     67  C   UNL     1      -1.590  19.967  -3.245  1.00  0.00     0.173 A 
ATOM     68  C   UNL     1      -3.946  19.814  -2.794  1.00  0.00     0.173 A 
ATOM     69  F   UNL     1      -0.518  19.706  -4.009  1.00  0.00    -0.203 F 
ATOM     70  C   UNL     1      -1.404  20.640  -2.040  1.00  0.00     0.198 A 
ATOM     71  C   UNL     1      -3.761  20.515  -1.605  1.00  0.00     0.198 A 
ATOM     72  F   UNL     1      -5.184  19.419  -3.123  1.00  0.00    -0.203 F 
ATOM     73  F   UNL     1      -0.171  21.002  -1.660  1.00  0.00    -0.200 F 
ATOM     74  C   UNL     1      -2.490  20.917  -1.224  1.00  0.00     0.200 A 
ATOM     75  F   UNL     1      -4.812  20.793  -0.822  1.00  0.00    -0.200 F 
ATOM     76  F   UNL     1      -2.309  21.564  -0.064  1.00  0.00    -0.200 F 
ENDBRANCH  52  66
BRANCH  53  77
ATOM     77  C   UNL     1      -4.308  13.989 -11.817  1.00  0.00     0.064 A 
ATOM     78  C   UNL     1      -3.712  14.278 -13.051  1.00  0.00     0.173 A 
ATOM     79  C   UNL     1      -5.128  12.853 -11.736  1.00  0.00     0.173 A 
ATOM     80  F   UNL     1      -2.937  15.364 -13.181  1.00  0.00    -0.203 F 
ATOM     81  C   UNL     1      -3.931  13.467 -14.163  1.00  0.00     0.198 A 
ATOM     82  C   UNL     1      -5.325  12.029 -12.841  1.00  0.00     0.198 A 
ATOM     83  F   UNL     1      -5.716  12.530 -10.575  1.00  0.00    -0.203 F 
ATOM     84  F   UNL     1      -3.373  13.783 -15.339  1.00  0.00    -0.200 F 
ATOM     85  C   UNL     1      -4.730  12.339 -14.055  1.00  0.00     0.200 A 
ATOM     86  F   UNL     1      -6.085  10.931 -12.729  1.00  0.00    -0.200 F 
ATOM     87  F   UNL     1      -4.929  11.552 -15.121  1.00  0.00    -0.200 F 
ENDBRANCH  53  77
BRANCH  65  88
ATOM     88  C   UNL     1      -6.232  20.427  -9.957  1.00  0.00     0.064 A 
ATOM     89  C   UNL     1      -7.620  20.286 -10.103  1.00  0.00     0.173 A 
ATOM     90  C   UNL     1      -5.636  21.602 -10.438  1.00  0.00     0.173 A 
ATOM     91  F   UNL     1      -8.234  19.172  -9.675  1.00  0.00    -0.203 F 
ATOM     92  C   UNL     1      -8.378  21.274 -10.725  1.00  0.00     0.198 A 
ATOM     93  C   UNL     1      -6.401  22.601 -11.034  1.00  0.00     0.198 A 
ATOM     94  F   UNL     1      -4.313  21.788 -10.320  1.00  0.00    -0.203 F 
ATOM     95  F   UNL     1      -9.696  21.099 -10.893  1.00  0.00    -0.200 F 
ATOM     96  C   UNL     1      -7.770  22.434 -11.183  1.00  0.00     0.200 A 
ATOM     97  F   UNL     1      -5.814  23.726 -11.466  1.00  0.00    -0.200 F 
ATOM     98  F   UNL     1      -8.502  23.387 -11.775  1.00  0.00    -0.200 F 
ENDBRANCH  65  88
ENDBRANCH  39  40
ENDBRANCH  31  34
ENDBRANCH  29  30
ENDBRANCH  28  29
ENDBRANCH   1  28
TORSDOF 15
