REMARK SMILES Nc1c(Cl)ccc2c1C=C(C(=O)NCCCCNC(=O)c1ccc(-c3c4nc(c(-c5c(F)c(F)c(F)c(F)c5F)c5ccc([nH]5)c(-c5c(F)c(F)c(F)c(F)c5F)c5nc(c(-c6c(F)c(F)c(F)c(F)c6F)c6ccc3[nH]6)C=C5)C=C4)cc1)[C@@H](C(F)(F)F)O2
REMARK SMILES IDX 16 1 15 2 14 3 13 4 11 5 12 6 10 8 2 9 3 10 8 11 4 12 5 13
REMARK SMILES IDX 7 14 9 15 6 16 89 17 84 18 1 19 85 22 86 23 87 24 88 25
REMARK SMILES IDX 17 26 18 27 19 28 20 30 21 31 22 32 83 33 23 34 82 35 24 36
REMARK SMILES IDX 25 37 26 38 76 39 27 40 81 41 75 42 77 43 28 44 80 45 74 46
REMARK SMILES IDX 73 47 29 49 61 50 41 51 60 52 42 53 45 54 59 55 78 56 43 57
REMARK SMILES IDX 44 58 58 60 79 61 46 62 30 63 31 64 39 65 32 66 33 67 37 68
REMARK SMILES IDX 40 69 34 70 35 71 38 72 36 73 62 74 63 75 71 76 64 77 65 78
REMARK SMILES IDX 69 79 72 80 66 81 67 82 70 83 68 84 47 85 48 86 56 87 49 88
REMARK SMILES IDX 50 89 54 90 57 91 51 92 52 93 55 94 53 95
REMARK H PARENT 13 7 1 20 1 21 18 29 77 48 45 59
REMARK Flexibility Score: inf
ROOT
ATOM      1  C   UNL     1      -7.066   0.783  -4.632  1.00  0.00     0.023 C 
ENDROOT
BRANCH   1   2
ATOM      2  C   UNL     1      -6.191  -0.260  -3.930  1.00  0.00     0.023 C 
BRANCH   2   3
ATOM      3  C   UNL     1      -4.818  -0.454  -4.567  1.00  0.00     0.116 C 
BRANCH   3   4
ATOM      4  N   UNL     1      -3.868   0.544  -4.110  1.00  0.00    -0.352 N 
ATOM      5  C   UNL     1      -2.826   0.596  -3.247  1.00  0.00     0.251 C 
ATOM      6  O   UNL     1      -2.295   1.706  -3.142  1.00  0.00    -0.270 OA
ATOM      7  H   UNL     1      -4.022   1.414  -4.542  1.00  0.00     0.163 HD
BRANCH   5   8
ATOM      8  C   UNL     1      -2.299  -0.554  -2.451  1.00  0.00     0.067 C 
ATOM      9  C   UNL     1       0.425  -1.100   0.048  1.00  0.00     0.061 A 
ATOM     10  C   UNL     1       0.934  -2.199   0.779  1.00  0.00     0.064 A 
ATOM     11  C   UNL     1      -0.722  -1.306  -0.751  1.00  0.00     0.042 A 
ATOM     12  Cl  UNL     1       2.357  -2.030   1.754  1.00  0.00    -0.082 Cl
ATOM     13  C   UNL     1       0.307  -3.446   0.760  1.00  0.00     0.026 A 
ATOM     14  C   UNL     1      -1.331  -2.571  -0.770  1.00  0.00     0.130 A 
ATOM     15  C   UNL     1      -1.347  -0.246  -1.550  1.00  0.00     0.027 C 
ATOM     16  C   UNL     1      -0.834  -3.629  -0.011  1.00  0.00     0.049 A 
ATOM     17  O   UNL     1      -2.461  -2.842  -1.490  1.00  0.00    -0.475 OA
ATOM     18  C   UNL     1      -2.723  -1.981  -2.630  1.00  0.00     0.314 C 
BRANCH   9  19
ATOM     19  N   UNL     1       1.119   0.114   0.051  1.00  0.00    -0.397 N 
ATOM     20  H   UNL     1       1.914   0.225   0.620  1.00  0.00     0.156 HD
ATOM     21  H   UNL     1       0.811   0.857  -0.516  1.00  0.00     0.156 HD
ENDBRANCH   9  19
BRANCH  18  22
ATOM     22  C   UNL     1      -2.143  -2.624  -3.903  1.00  0.00     0.429 C 
ATOM     23  F   UNL     1      -2.798  -3.777  -4.190  1.00  0.00    -0.167 F 
ATOM     24  F   UNL     1      -2.278  -1.829  -4.992  1.00  0.00    -0.167 F 
ATOM     25  F   UNL     1      -0.830  -2.919  -3.790  1.00  0.00    -0.167 F 
ENDBRANCH  18  22
ENDBRANCH   5   8
ENDBRANCH   3   4
ENDBRANCH   2   3
ENDBRANCH   1   2
BRANCH   1  26
ATOM     26  C   UNL     1      -7.321   0.531  -6.117  1.00  0.00     0.116 C 
BRANCH  26  27
ATOM     27  N   UNL     1      -7.859  -0.793  -6.403  1.00  0.00    -0.352 N 
ATOM     28  C   UNL     1      -8.665  -1.159  -7.451  1.00  0.00     0.251 C 
ATOM     29  H   UNL     1      -7.617  -1.508  -5.771  1.00  0.00     0.163 HD
ATOM     30  O   UNL     1      -9.109  -2.296  -7.550  1.00  0.00    -0.269 OA
BRANCH  28  31
ATOM     31  C   UNL     1      -9.022  -0.132  -8.444  1.00  0.00     0.039 A 
ATOM     32  C   UNL     1     -10.365   0.223  -8.594  1.00  0.00     0.014 A 
ATOM     33  C   UNL     1      -8.015   0.529  -9.154  1.00  0.00     0.014 A 
ATOM     34  C   UNL     1     -10.698   1.298  -9.416  1.00  0.00     0.010 A 
ATOM     35  C   UNL     1      -8.347   1.623  -9.943  1.00  0.00     0.010 A 
ATOM     36  C   UNL     1      -9.688   2.021 -10.070  1.00  0.00    -0.014 A 
BRANCH  36  37
ATOM     37  C   UNL     1     -10.003   3.202 -10.902  1.00  0.00     0.031 A 
ATOM     38  C   UNL     1      -9.858   3.117 -12.389  1.00  0.00     0.074 A 
ATOM     39  C   UNL     1     -10.333   4.364 -10.310  1.00  0.00     0.049 A 
ATOM     40  N   UNL     1      -9.956   4.064 -13.286  1.00  0.00    -0.248 NA
ATOM     41  C   UNL     1      -9.537   1.791 -12.939  1.00  0.00     0.031 C 
ATOM     42  C   UNL     1     -10.481   4.567  -8.869  1.00  0.00     0.029 A 
ATOM     43  N   UNL     1     -10.581   5.599 -10.851  1.00  0.00    -0.354 N 
ATOM     44  C   UNL     1      -9.695   3.453 -14.503  1.00  0.00     0.074 A 
ATOM     45  C   UNL     1      -9.399   2.062 -14.228  1.00  0.00     0.031 C 
ATOM     46  C   UNL     1     -10.798   5.851  -8.639  1.00  0.00     0.029 A 
ATOM     47  C   UNL     1     -10.844   6.566  -9.913  1.00  0.00     0.049 A 
ATOM     48  H   UNL     1     -10.572   5.776 -11.819  1.00  0.00     0.167 HD
ATOM     49  C   UNL     1      -9.714   4.002 -15.740  1.00  0.00     0.037 A 
ATOM     50  C   UNL     1     -11.082   7.881 -10.066  1.00  0.00     0.037 A 
ATOM     51  C   UNL     1     -10.019   5.382 -16.008  1.00  0.00     0.049 A 
ATOM     52  C   UNL     1     -11.086   8.473 -11.447  1.00  0.00     0.074 A 
ATOM     53  C   UNL     1     -10.100   6.028 -17.228  1.00  0.00     0.029 A 
ATOM     54  N   UNL     1     -10.296   6.329 -15.032  1.00  0.00    -0.354 N 
ATOM     55  N   UNL     1     -10.864   7.884 -12.597  1.00  0.00    -0.248 NA
ATOM     56  C   UNL     1     -11.372   9.910 -11.553  1.00  0.00     0.031 C 
ATOM     57  C   UNL     1     -10.396   7.375 -16.989  1.00  0.00     0.029 A 
ATOM     58  C   UNL     1     -10.536   7.559 -15.623  1.00  0.00     0.049 A 
ATOM     59  H   UNL     1     -10.318   6.154 -14.064  1.00  0.00     0.167 HD
ATOM     60  C   UNL     1     -11.000   8.869 -13.564  1.00  0.00     0.074 A 
ATOM     61  C   UNL     1     -11.333  10.095 -12.866  1.00  0.00     0.031 C 
ATOM     62  C   UNL     1     -10.863   8.767 -14.908  1.00  0.00     0.037 A 
BRANCH  49  63
ATOM     63  C   UNL     1      -9.389   3.101 -16.891  1.00  0.00     0.064 A 
ATOM     64  C   UNL     1     -10.288   2.115 -17.325  1.00  0.00     0.173 A 
ATOM     65  C   UNL     1      -8.169   3.224 -17.571  1.00  0.00     0.173 A 
ATOM     66  F   UNL     1     -11.460   1.946 -16.693  1.00  0.00    -0.203 F 
ATOM     67  C   UNL     1      -9.965   1.266 -18.380  1.00  0.00     0.198 A 
ATOM     68  C   UNL     1      -7.859   2.390 -18.642  1.00  0.00     0.198 A 
ATOM     69  F   UNL     1      -7.275   4.151 -17.195  1.00  0.00    -0.203 F 
ATOM     70  F   UNL     1     -10.818   0.299 -18.744  1.00  0.00    -0.200 F 
ATOM     71  C   UNL     1      -8.754   1.407 -19.040  1.00  0.00     0.200 A 
ATOM     72  F   UNL     1      -6.691   2.530 -19.284  1.00  0.00    -0.200 F 
ATOM     73  F   UNL     1      -8.444   0.588 -20.054  1.00  0.00    -0.200 F 
ENDBRANCH  49  63
BRANCH  50  74
ATOM     74  C   UNL     1     -11.364   8.715  -8.872  1.00  0.00     0.064 A 
ATOM     75  C   UNL     1     -12.670   9.135  -8.588  1.00  0.00     0.173 A 
ATOM     76  C   UNL     1     -10.350   9.070  -7.972  1.00  0.00     0.173 A 
ATOM     77  F   UNL     1     -13.668   8.832  -9.432  1.00  0.00    -0.203 F 
ATOM     78  C   UNL     1     -12.952   9.882  -7.447  1.00  0.00     0.198 A 
ATOM     79  C   UNL     1     -10.636   9.803  -6.822  1.00  0.00     0.198 A 
ATOM     80  F   UNL     1      -9.085   8.686  -8.200  1.00  0.00    -0.203 F 
ATOM     81  F   UNL     1     -14.207  10.286  -7.207  1.00  0.00    -0.200 F 
ATOM     82  C   UNL     1     -11.937  10.209  -6.561  1.00  0.00     0.200 A 
ATOM     83  F   UNL     1      -9.655  10.107  -5.961  1.00  0.00    -0.200 F 
ATOM     84  F   UNL     1     -12.211  10.915  -5.456  1.00  0.00    -0.200 F 
ENDBRANCH  50  74
BRANCH  62  85
ATOM     85  C   UNL     1     -11.090  10.008 -15.717  1.00  0.00     0.064 A 
ATOM     86  C   UNL     1     -10.130  11.028 -15.775  1.00  0.00     0.173 A 
ATOM     87  C   UNL     1     -12.254  10.150 -16.488  1.00  0.00     0.173 A 
ATOM     88  F   UNL     1      -9.009  10.942 -15.044  1.00  0.00    -0.203 F 
ATOM     89  C   UNL     1     -10.333  12.154 -16.568  1.00  0.00     0.198 A 
ATOM     90  C   UNL     1     -12.443  11.267 -17.296  1.00  0.00     0.198 A 
ATOM     91  F   UNL     1     -13.198   9.198 -16.467  1.00  0.00    -0.203 F 
ATOM     92  F   UNL     1      -9.417  13.133 -16.587  1.00  0.00    -0.200 F 
ATOM     93  C   UNL     1     -11.485  12.270 -17.333  1.00  0.00     0.200 A 
ATOM     94  F   UNL     1     -13.552  11.373 -18.041  1.00  0.00    -0.200 F 
ATOM     95  F   UNL     1     -11.674  13.350 -18.102  1.00  0.00    -0.200 F 
ENDBRANCH  62  85
ENDBRANCH  36  37
ENDBRANCH  28  31
ENDBRANCH  26  27
ENDBRANCH   1  26
TORSDOF 13
