REMARK SMILES O=C(C[C@@H]1C[N@@H+]([C@H]2CCO[C@]3(CCOC3)C2)CCO1)NCCCCNC(=O)c1ccc(-c2c3nc(c(-c4c(F)c(F)c(F)c(F)c4F)c4ccc([nH]4)c(-c4c(F)c(F)c(F)c(F)c4F)c4nc(c(-c5c(F)c(F)c(F)c(F)c5F)c5ccc2[nH]5)C=C4)C=C3)cc1
REMARK SMILES IDX 22 1 21 2 20 3 1 4 2 5 3 7 4 8 5 9 19 10 6 11 18 12 17 13
REMARK SMILES IDX 7 15 8 16 16 17 9 18 11 19 10 20 12 21 15 22 13 23 14 24
REMARK SMILES IDX 23 25 24 26 25 27 26 28 27 30 28 31 29 32 90 33 30 34 89 35
REMARK SMILES IDX 31 36 32 37 33 38 83 39 34 40 88 41 82 42 84 43 35 44 87 45
REMARK SMILES IDX 81 46 80 47 36 49 68 50 48 51 67 52 49 53 52 54 66 55 85 56
REMARK SMILES IDX 50 57 51 58 65 60 86 61 53 62 37 63 38 64 46 65 39 66 40 67
REMARK SMILES IDX 44 68 47 69 41 70 42 71 45 72 43 73 69 74 70 75 78 76 71 77
REMARK SMILES IDX 72 78 76 79 79 80 73 81 74 82 77 83 75 84 54 85 55 86 63 87
REMARK SMILES IDX 56 88 57 89 61 90 64 91 58 92 59 93 62 94 60 95
REMARK H PARENT 20 6 6 14 25 29 84 48 52 59
REMARK Flexibility Score: inf
ROOT
ATOM      1  C   UNL     1       8.707  -2.065   6.209  1.00  0.00     0.023 C 
ENDROOT
BRANCH   1   2
ATOM      2  C   UNL     1       7.894  -3.145   5.496  1.00  0.00     0.116 C 
BRANCH   2   3
ATOM      3  N   UNL     1       8.373  -3.381   4.147  1.00  0.00    -0.356 N 
ATOM      4  O   UNL     1       8.540  -5.656   4.382  1.00  0.00    -0.275 OA
ATOM      5  C   UNL     1       8.683  -4.645   3.702  1.00  0.00     0.222 C 
ATOM      6  H   UNL     1       8.479  -2.617   3.535  1.00  0.00     0.163 HD
BRANCH   5   7
ATOM      7  C   UNL     1       9.251  -4.705   2.306  1.00  0.00     0.138 C 
BRANCH   7   8
ATOM      8  C   UNL     1       8.280  -4.281   1.207  1.00  0.00     0.182 C 
ATOM      9  C   UNL     1       6.921  -5.028   1.273  1.00  0.00     0.295 C 
ATOM     10  O   UNL     1       8.966  -4.543  -0.032  1.00  0.00    -0.366 OA
ATOM     11  N   UNL     1       6.043  -4.845   0.097  1.00  0.00    -0.328 N 
ATOM     12  C   UNL     1       8.155  -4.234  -1.165  1.00  0.00     0.222 C 
ATOM     13  C   UNL     1       6.831  -5.008  -1.136  1.00  0.00     0.291 C 
ATOM     14  H   UNL     1       5.357  -5.600   0.087  1.00  0.00     0.348 HD
BRANCH  11  15
ATOM     15  C   UNL     1       5.068  -3.739   0.169  1.00  0.00     0.189 C 
ATOM     16  C   UNL     1       5.647  -2.320   0.156  1.00  0.00     0.093 C 
ATOM     17  C   UNL     1       3.971  -3.873  -0.916  1.00  0.00     0.103 C 
ATOM     18  C   UNL     1       4.541  -1.279   0.184  1.00  0.00     0.167 C 
ATOM     19  C   UNL     1       2.975  -2.694  -0.935  1.00  0.00     0.099 C 
ATOM     20  O   UNL     1       3.674  -1.447  -0.929  1.00  0.00    -0.372 OA
ATOM     21  C   UNL     1       1.919  -2.758   0.162  1.00  0.00     0.066 C 
ATOM     22  C   UNL     1       2.099  -2.760  -2.189  1.00  0.00     0.195 C 
ATOM     23  C   UNL     1       0.723  -3.444  -0.475  1.00  0.00     0.163 C 
ATOM     24  O   UNL     1       0.999  -3.614  -1.868  1.00  0.00    -0.378 OA
ENDBRANCH  11  15
ENDBRANCH   7   8
ENDBRANCH   5   7
ENDBRANCH   2   3
ENDBRANCH   1   2
BRANCH   1  25
ATOM     25  C   UNL     1       8.621  -0.672   5.580  1.00  0.00     0.023 C 
BRANCH  25  26
ATOM     26  C   UNL     1       7.214  -0.096   5.458  1.00  0.00     0.116 C 
BRANCH  26  27
ATOM     27  N   UNL     1       6.575   0.119   6.745  1.00  0.00    -0.352 N 
ATOM     28  C   UNL     1       5.955   1.243   7.239  1.00  0.00     0.251 C 
ATOM     29  H   UNL     1       6.587  -0.655   7.354  1.00  0.00     0.163 HD
ATOM     30  O   UNL     1       5.597   1.282   8.410  1.00  0.00    -0.269 OA
BRANCH  28  31
ATOM     31  C   UNL     1       5.748   2.423   6.369  1.00  0.00     0.039 A 
ATOM     32  C   UNL     1       6.026   3.693   6.882  1.00  0.00     0.014 A 
ATOM     33  C   UNL     1       5.281   2.287   5.059  1.00  0.00     0.014 A 
ATOM     34  C   UNL     1       5.906   4.817   6.060  1.00  0.00     0.010 A 
ATOM     35  C   UNL     1       5.237   3.398   4.218  1.00  0.00     0.010 A 
ATOM     36  C   UNL     1       5.552   4.675   4.709  1.00  0.00    -0.014 A 
BRANCH  36  37
ATOM     37  C   UNL     1       5.518   5.847   3.794  1.00  0.00     0.031 A 
ATOM     38  C   UNL     1       4.229   6.267   3.142  1.00  0.00     0.074 A 
ATOM     39  C   UNL     1       6.661   6.497   3.500  1.00  0.00     0.049 A 
ATOM     40  N   UNL     1       4.015   7.214   2.263  1.00  0.00    -0.248 NA
ATOM     41  C   UNL     1       3.025   5.504   3.505  1.00  0.00     0.031 C 
ATOM     42  C   UNL     1       7.983   6.163   4.031  1.00  0.00     0.029 A 
ATOM     43  N   UNL     1       6.897   7.567   2.672  1.00  0.00    -0.354 N 
ATOM     44  C   UNL     1       2.660   7.154   1.964  1.00  0.00     0.074 A 
ATOM     45  C   UNL     1       2.113   6.040   2.708  1.00  0.00     0.031 C 
ATOM     46  C   UNL     1       8.887   7.022   3.534  1.00  0.00     0.029 A 
ATOM     47  C   UNL     1       8.219   7.940   2.616  1.00  0.00     0.049 A 
ATOM     48  H   UNL     1       6.187   8.025   2.167  1.00  0.00     0.167 HD
ATOM     49  C   UNL     1       1.933   7.969   1.161  1.00  0.00     0.037 A 
ATOM     50  C   UNL     1       8.827   8.903   1.897  1.00  0.00     0.037 A 
ATOM     51  C   UNL     1       2.477   9.086   0.433  1.00  0.00     0.049 A 
ATOM     52  C   UNL     1       8.000   9.779   0.994  1.00  0.00     0.074 A 
ATOM     53  C   UNL     1       1.812  10.000  -0.366  1.00  0.00     0.029 A 
ATOM     54  N   UNL     1       3.819   9.437   0.410  1.00  0.00    -0.354 N 
ATOM     55  N   UNL     1       6.708   9.755   0.772  1.00  0.00    -0.248 NA
ATOM     56  C   UNL     1       8.716  10.822   0.246  1.00  0.00     0.031 C 
ATOM     57  C   UNL     1       2.759  10.870  -0.917  1.00  0.00     0.029 A 
ATOM     58  C   UNL     1       4.005  10.538  -0.412  1.00  0.00     0.049 A 
ATOM     59  H   UNL     1       4.533   8.973   0.903  1.00  0.00     0.167 HD
ATOM     60  C   UNL     1       6.453  10.794  -0.113  1.00  0.00     0.074 A 
ATOM     61  C   UNL     1       7.722  11.440  -0.375  1.00  0.00     0.031 C 
ATOM     62  C   UNL     1       5.273  11.178  -0.659  1.00  0.00     0.037 A 
BRANCH  49  63
ATOM     63  C   UNL     1       0.464   7.682   1.028  1.00  0.00     0.064 A 
ATOM     64  C   UNL     1      -0.424   7.869   2.099  1.00  0.00     0.173 A 
ATOM     65  C   UNL     1      -0.071   7.254  -0.197  1.00  0.00     0.173 A 
ATOM     66  F   UNL     1       0.035   8.269   3.295  1.00  0.00    -0.203 F 
ATOM     67  C   UNL     1      -1.785   7.606   1.958  1.00  0.00     0.198 A 
ATOM     68  C   UNL     1      -1.437   7.025  -0.344  1.00  0.00     0.198 A 
ATOM     69  F   UNL     1       0.730   7.065  -1.256  1.00  0.00    -0.203 F 
ATOM     70  F   UNL     1      -2.603   7.740   3.011  1.00  0.00    -0.200 F 
ATOM     71  C   UNL     1      -2.291   7.193   0.736  1.00  0.00     0.200 A 
ATOM     72  F   UNL     1      -1.927   6.641  -1.530  1.00  0.00    -0.200 F 
ATOM     73  F   UNL     1      -3.602   6.948   0.600  1.00  0.00    -0.200 F 
ENDBRANCH  49  63
BRANCH  50  74
ATOM     74  C   UNL     1      10.297   9.100   2.009  1.00  0.00     0.064 A 
ATOM     75  C   UNL     1      10.828  10.258   2.595  1.00  0.00     0.173 A 
ATOM     76  C   UNL     1      11.200   8.143   1.524  1.00  0.00     0.173 A 
ATOM     77  F   UNL     1      10.005  11.212   3.056  1.00  0.00    -0.203 F 
ATOM     78  C   UNL     1      12.204  10.463   2.668  1.00  0.00     0.198 A 
ATOM     79  C   UNL     1      12.577   8.334   1.627  1.00  0.00     0.198 A 
ATOM     80  F   UNL     1      10.746   7.015   0.959  1.00  0.00    -0.203 F 
ATOM     81  F   UNL     1      12.683  11.602   3.185  1.00  0.00    -0.200 F 
ATOM     82  C   UNL     1      13.078   9.498   2.190  1.00  0.00     0.200 A 
ATOM     83  F   UNL     1      13.417   7.391   1.179  1.00  0.00    -0.200 F 
ATOM     84  F   UNL     1      14.401   9.694   2.263  1.00  0.00    -0.200 F 
ENDBRANCH  50  74
BRANCH  62  85
ATOM     85  C   UNL     1       5.288  12.378  -1.564  1.00  0.00     0.064 A 
ATOM     86  C   UNL     1       5.877  12.339  -2.836  1.00  0.00     0.173 A 
ATOM     87  C   UNL     1       4.668  13.573  -1.166  1.00  0.00     0.173 A 
ATOM     88  F   UNL     1       6.496  11.226  -3.260  1.00  0.00    -0.203 F 
ATOM     89  C   UNL     1       5.871  13.459  -3.663  1.00  0.00     0.198 A 
ATOM     90  C   UNL     1       4.634  14.680  -2.009  1.00  0.00     0.198 A 
ATOM     91  F   UNL     1       4.083  13.663   0.038  1.00  0.00    -0.203 F 
ATOM     92  F   UNL     1       6.488  13.415  -4.853  1.00  0.00    -0.200 F 
ATOM     93  C   UNL     1       5.243  14.626  -3.253  1.00  0.00     0.200 A 
ATOM     94  F   UNL     1       4.011  15.800  -1.617  1.00  0.00    -0.200 F 
ATOM     95  F   UNL     1       5.230  15.700  -4.054  1.00  0.00    -0.200 F 
ENDBRANCH  62  85
ENDBRANCH  36  37
ENDBRANCH  28  31
ENDBRANCH  26  27
ENDBRANCH  25  26
ENDBRANCH   1  25
TORSDOF 13
