REMARK SMILES O=C(NCCCCNC(=O)c1cccc2c1ccn2Cc1ccncc1)c1ccc(-c2c3nc(c(-c4c(F)c(F)c(F)c(F)c4F)c4ccc([nH]4)c(-c4c(F)c(F)c(F)c(F)c4F)c4nc(c(-c5c(F)c(F)c(F)c(F)c5F)c5ccc2[nH]5)C=C4)C=C3)cc1
REMARK SMILES IDX 5 1 4 2 3 3 1 4 2 5 27 7 28 8 89 9 29 10 88 11 30 12 31 13
REMARK SMILES IDX 32 14 82 15 33 16 87 17 81 18 83 19 34 20 86 21 80 22 79 23
REMARK SMILES IDX 35 25 67 26 47 27 66 28 48 29 51 30 65 31 84 32 49 33 50 34
REMARK SMILES IDX 64 36 85 37 52 38 36 39 37 40 45 41 38 42 39 43 43 44 46 45
REMARK SMILES IDX 40 46 41 47 44 48 42 49 68 50 69 51 77 52 70 53 71 54 75 55
REMARK SMILES IDX 78 56 72 57 73 58 76 59 74 60 53 61 54 62 62 63 55 64 56 65
REMARK SMILES IDX 60 66 63 67 57 68 58 69 61 70 59 71 6 72 7 73 8 74 9 75
REMARK SMILES IDX 10 77 11 78 12 79 16 80 13 81 15 82 17 83 14 84 19 85 18 86
REMARK SMILES IDX 20 87 21 88 22 89 26 90 23 91 25 92 24 93
REMARK H PARENT 3 6 83 24 51 35 8 76
REMARK Flexibility Score: inf
ROOT
ATOM      1  C   UNL     1       4.755  -3.105  -0.930  1.00  0.00     0.023 C 
ENDROOT
BRANCH   1   2
ATOM      2  C   UNL     1       4.290  -1.729  -0.486  1.00  0.00     0.116 C 
BRANCH   2   3
ATOM      3  N   UNL     1       2.833  -1.559  -0.358  1.00  0.00    -0.352 N 
ATOM      4  O   UNL     1       0.995  -0.422   0.408  1.00  0.00    -0.269 OA
ATOM      5  C   UNL     1       2.138  -0.399   0.011  1.00  0.00     0.251 C 
ATOM      6  H   UNL     1       2.283  -2.352  -0.555  1.00  0.00     0.163 HD
BRANCH   5   7
ATOM      7  C   UNL     1       2.862   0.882  -0.137  1.00  0.00     0.039 A 
ATOM      8  C   UNL     1       2.913   1.892   0.826  1.00  0.00     0.014 A 
ATOM      9  C   UNL     1       3.650   0.949  -1.264  1.00  0.00     0.014 A 
ATOM     10  C   UNL     1       3.857   2.911   0.656  1.00  0.00     0.010 A 
ATOM     11  C   UNL     1       4.797   1.667  -1.176  1.00  0.00     0.010 A 
ATOM     12  C   UNL     1       4.819   2.775  -0.356  1.00  0.00    -0.014 A 
BRANCH  12  13
ATOM     13  C   UNL     1       5.864   3.749  -0.646  1.00  0.00     0.031 A 
ATOM     14  C   UNL     1       6.612   4.272   0.522  1.00  0.00     0.074 A 
ATOM     15  C   UNL     1       6.252   4.034  -1.915  1.00  0.00     0.049 A 
ATOM     16  N   UNL     1       6.597   5.479   0.980  1.00  0.00    -0.248 NA
ATOM     17  C   UNL     1       7.390   3.331   1.341  1.00  0.00     0.031 C 
ATOM     18  C   UNL     1       5.843   3.423  -3.195  1.00  0.00     0.029 A 
ATOM     19  N   UNL     1       7.204   4.911  -2.321  1.00  0.00    -0.354 N 
ATOM     20  C   UNL     1       7.488   5.503   2.047  1.00  0.00     0.074 A 
ATOM     21  C   UNL     1       7.837   4.130   2.313  1.00  0.00     0.031 C 
ATOM     22  C   UNL     1       6.716   3.752  -4.168  1.00  0.00     0.029 A 
ATOM     23  C   UNL     1       7.601   4.767  -3.644  1.00  0.00     0.049 A 
ATOM     24  H   UNL     1       7.584   5.596  -1.725  1.00  0.00     0.167 HD
ATOM     25  C   UNL     1       8.018   6.674   2.496  1.00  0.00     0.037 A 
ATOM     26  C   UNL     1       8.596   5.440  -4.266  1.00  0.00     0.037 A 
ATOM     27  C   UNL     1       7.283   7.810   1.999  1.00  0.00     0.049 A 
ATOM     28  C   UNL     1       8.823   6.679  -3.478  1.00  0.00     0.074 A 
ATOM     29  C   UNL     1       5.973   8.233   2.126  1.00  0.00     0.029 A 
ATOM     30  N   UNL     1       7.782   8.487   0.912  1.00  0.00    -0.354 N 
ATOM     31  N   UNL     1       7.943   7.639  -3.377  1.00  0.00    -0.248 NA
ATOM     32  C   UNL     1       9.809   6.617  -2.410  1.00  0.00     0.031 C 
ATOM     33  C   UNL     1       5.617   8.710   0.829  1.00  0.00     0.029 A 
ATOM     34  C   UNL     1       6.748   8.622   0.017  1.00  0.00     0.049 A 
ATOM     35  H   UNL     1       8.704   8.813   0.797  1.00  0.00     0.167 HD
ATOM     36  C   UNL     1       7.999   8.034  -2.048  1.00  0.00     0.074 A 
ATOM     37  C   UNL     1       9.214   7.415  -1.519  1.00  0.00     0.031 C 
ATOM     38  C   UNL     1       6.917   8.578  -1.418  1.00  0.00     0.037 A 
BRANCH  25  39
ATOM     39  C   UNL     1       9.379   6.810   3.121  1.00  0.00     0.064 A 
ATOM     40  C   UNL     1       9.730   8.008   3.771  1.00  0.00     0.173 A 
ATOM     41  C   UNL     1      10.441   5.920   2.859  1.00  0.00     0.173 A 
ATOM     42  F   UNL     1       8.799   8.935   4.044  1.00  0.00    -0.203 F 
ATOM     43  C   UNL     1      11.057   8.316   4.081  1.00  0.00     0.198 A 
ATOM     44  C   UNL     1      11.757   6.206   3.217  1.00  0.00     0.198 A 
ATOM     45  F   UNL     1      10.265   4.798   2.150  1.00  0.00    -0.203 F 
ATOM     46  F   UNL     1      11.361   9.516   4.594  1.00  0.00    -0.200 F 
ATOM     47  C   UNL     1      12.070   7.416   3.800  1.00  0.00     0.200 A 
ATOM     48  F   UNL     1      12.726   5.330   2.918  1.00  0.00    -0.200 F 
ATOM     49  F   UNL     1      13.348   7.731   4.044  1.00  0.00    -0.200 F 
ENDBRANCH  25  39
BRANCH  26  50
ATOM     50  C   UNL     1       9.580   4.885  -5.225  1.00  0.00     0.064 A 
ATOM     51  C   UNL     1      10.400   5.733  -5.982  1.00  0.00     0.173 A 
ATOM     52  C   UNL     1       9.932   3.519  -5.210  1.00  0.00     0.173 A 
ATOM     53  F   UNL     1      10.153   7.051  -6.019  1.00  0.00    -0.203 F 
ATOM     54  C   UNL     1      11.530   5.252  -6.653  1.00  0.00     0.198 A 
ATOM     55  C   UNL     1      11.056   3.040  -5.884  1.00  0.00     0.198 A 
ATOM     56  F   UNL     1       9.249   2.639  -4.464  1.00  0.00    -0.203 F 
ATOM     57  F   UNL     1      12.329   6.104  -7.311  1.00  0.00    -0.200 F 
ATOM     58  C   UNL     1      11.865   3.909  -6.592  1.00  0.00     0.200 A 
ATOM     59  F   UNL     1      11.389   1.745  -5.787  1.00  0.00    -0.200 F 
ATOM     60  F   UNL     1      12.985   3.462  -7.176  1.00  0.00    -0.200 F 
ENDBRANCH  26  50
BRANCH  38  61
ATOM     61  C   UNL     1       5.711   8.935  -2.248  1.00  0.00     0.064 A 
ATOM     62  C   UNL     1       4.930   7.996  -2.946  1.00  0.00     0.173 A 
ATOM     63  C   UNL     1       5.225  10.248  -2.188  1.00  0.00     0.173 A 
ATOM     64  F   UNL     1       5.266   6.703  -2.971  1.00  0.00    -0.203 F 
ATOM     65  C   UNL     1       3.741   8.361  -3.577  1.00  0.00     0.198 A 
ATOM     66  C   UNL     1       4.020  10.604  -2.790  1.00  0.00     0.198 A 
ATOM     67  F   UNL     1       5.894  11.179  -1.490  1.00  0.00    -0.203 F 
ATOM     68  F   UNL     1       3.018   7.442  -4.235  1.00  0.00    -0.200 F 
ATOM     69  C   UNL     1       3.283   9.664  -3.491  1.00  0.00     0.200 A 
ATOM     70  F   UNL     1       3.556  11.855  -2.661  1.00  0.00    -0.200 F 
ATOM     71  F   UNL     1       2.116  10.006  -4.056  1.00  0.00    -0.200 F 
ENDBRANCH  38  61
ENDBRANCH  12  13
ENDBRANCH   5   7
ENDBRANCH   2   3
ENDBRANCH   1   2
BRANCH   1  72
ATOM     72  C   UNL     1       4.335  -3.506  -2.351  1.00  0.00     0.023 C 
BRANCH  72  73
ATOM     73  C   UNL     1       4.710  -2.557  -3.495  1.00  0.00     0.116 C 
BRANCH  73  74
ATOM     74  N   UNL     1       6.142  -2.392  -3.684  1.00  0.00    -0.352 N 
ATOM     75  C   UNL     1       6.932  -2.812  -4.732  1.00  0.00     0.251 C 
ATOM     76  H   UNL     1       6.613  -1.914  -2.964  1.00  0.00     0.163 HD
ATOM     77  O   UNL     1       8.146  -2.639  -4.699  1.00  0.00    -0.269 OA
BRANCH  75  78
ATOM     78  C   UNL     1       6.306  -3.493  -5.881  1.00  0.00     0.049 A 
ATOM     79  C   UNL     1       5.370  -2.822  -6.679  1.00  0.00     0.014 A 
ATOM     80  C   UNL     1       6.625  -4.843  -6.143  1.00  0.00     0.012 A 
ATOM     81  C   UNL     1       4.681  -3.511  -7.672  1.00  0.00     0.003 A 
ATOM     82  C   UNL     1       5.932  -5.511  -7.164  1.00  0.00     0.049 A 
ATOM     83  C   UNL     1       7.519  -5.778  -5.557  1.00  0.00     0.029 A 
ATOM     84  C   UNL     1       4.940  -4.864  -7.924  1.00  0.00     0.027 A 
ATOM     85  N   UNL     1       6.421  -6.807  -7.199  1.00  0.00    -0.343 N 
ATOM     86  C   UNL     1       7.329  -6.986  -6.182  1.00  0.00     0.087 A 
BRANCH  85  87
ATOM     87  C   UNL     1       5.994  -7.872  -8.104  1.00  0.00     0.157 C 
BRANCH  87  88
ATOM     88  C   UNL     1       7.008  -8.159  -9.185  1.00  0.00    -0.025 A 
ATOM     89  C   UNL     1       8.243  -8.749  -8.887  1.00  0.00     0.025 A 
ATOM     90  C   UNL     1       6.734  -7.867 -10.525  1.00  0.00     0.025 A 
ATOM     91  C   UNL     1       9.142  -8.993  -9.913  1.00  0.00     0.111 A 
ATOM     92  C   UNL     1       7.692  -8.164 -11.485  1.00  0.00     0.111 A 
ATOM     93  N   UNL     1       8.890  -8.719 -11.208  1.00  0.00    -0.265 NA
ENDBRANCH  87  88
ENDBRANCH  85  87
ENDBRANCH  75  78
ENDBRANCH  73  74
ENDBRANCH  72  73
ENDBRANCH   1  72
TORSDOF 13
