REMARK SMILES CC1(C)[C@H](C(=O)NCCCCNC(=O)c2ccc(-c3c4nc(c(-c5c(F)c(F)c(F)c(F)c5F)c5ccc([nH]5)c(-c5c(F)c(F)c(F)c(F)c5F)c5nc(c(-c6c(F)c(F)c(F)c(F)c6F)c6ccc3[nH]6)C=C5)C=C4)cc2)[C@@H]1C(=O)Nc1ccc(Cl)c(Br)c1
REMARK SMILES IDX 9 1 8 2 7 3 5 4 6 5 4 7 1 8 2 9 3 10 78 11 79 12 80 13 81 14
REMARK SMILES IDX 82 16 83 17 89 18 84 19 87 20 85 21 88 22 86 23 10 24 11 25
REMARK SMILES IDX 12 26 13 27 14 29 15 30 16 31 77 32 17 33 76 34 18 35 19 36
REMARK SMILES IDX 20 37 70 38 21 39 75 40 69 41 71 42 22 43 74 44 68 45 67 46
REMARK SMILES IDX 23 48 55 49 35 50 54 51 36 52 39 53 53 54 72 55 37 56 38 57
REMARK SMILES IDX 52 59 73 60 40 61 24 62 25 63 33 64 26 65 27 66 31 67 34 68
REMARK SMILES IDX 28 69 29 70 32 71 30 72 56 73 57 74 65 75 58 76 59 77 63 78
REMARK SMILES IDX 66 79 60 80 61 81 64 82 62 83 41 84 42 85 50 86 43 87 44 88
REMARK SMILES IDX 48 89 51 90 45 91 46 92 49 93 47 94
REMARK H PARENT 7 6 81 15 12 28 71 47 39 58
REMARK Flexibility Score: inf
ROOT
ATOM      1  C   UNL     1       0.338   4.166  -0.846  1.00  0.00     0.023 C 
ENDROOT
BRANCH   1   2
ATOM      2  C   UNL     1      -0.720   3.135  -0.470  1.00  0.00     0.116 C 
BRANCH   2   3
ATOM      3  N   UNL     1      -1.044   2.273  -1.583  1.00  0.00    -0.356 N 
ATOM      4  C   UNL     1      -1.085   0.924  -1.779  1.00  0.00     0.224 C 
ATOM      5  O   UNL     1      -1.413   0.572  -2.914  1.00  0.00    -0.275 OA
ATOM      6  H   UNL     1      -1.293   2.778  -2.391  1.00  0.00     0.163 HD
BRANCH   4   7
ATOM      7  C   UNL     1      -0.824  -0.165  -0.800  1.00  0.00     0.098 C 
ATOM      8  C   UNL     1       0.996  -1.682   0.183  1.00  0.00     0.013 C 
ATOM      9  C   UNL     1       0.338  -0.315   0.163  1.00  0.00    -0.011 C 
ATOM     10  C   UNL     1       1.347   0.790   0.341  1.00  0.00     0.013 C 
ATOM     11  C   UNL     1      -1.118  -0.236   0.672  1.00  0.00     0.098 C 
BRANCH  11  12
ATOM     12  C   UNL     1      -1.694   0.853   1.489  1.00  0.00     0.228 C 
ATOM     13  O   UNL     1      -1.090   1.252   2.481  1.00  0.00    -0.274 OA
ATOM     14  N   UNL     1      -2.892   1.442   1.146  1.00  0.00    -0.326 N 
ATOM     15  H   UNL     1      -3.167   2.186   1.729  1.00  0.00     0.169 HD
BRANCH  14  16
ATOM     16  C   UNL     1      -3.781   1.153   0.100  1.00  0.00     0.042 A 
ATOM     17  C   UNL     1      -4.449   2.232  -0.486  1.00  0.00     0.028 A 
ATOM     18  C   UNL     1      -3.995  -0.133  -0.396  1.00  0.00     0.043 A 
ATOM     19  C   UNL     1      -5.218   2.042  -1.638  1.00  0.00     0.024 A 
ATOM     20  C   UNL     1      -4.781  -0.330  -1.539  1.00  0.00     0.038 A 
ATOM     21  C   UNL     1      -5.371   0.763  -2.179  1.00  0.00     0.055 A 
ATOM     22  Br  UNL     1      -4.977  -2.114  -2.161  1.00  0.00    -0.049 Br
ATOM     23  Cl  UNL     1      -6.297   0.614  -3.628  1.00  0.00    -0.083 Cl
ENDBRANCH  14  16
ENDBRANCH  11  12
ENDBRANCH   4   7
ENDBRANCH   2   3
ENDBRANCH   1   2
BRANCH   1  24
ATOM     24  C   UNL     1      -0.191   5.327  -1.688  1.00  0.00     0.023 C 
BRANCH  24  25
ATOM     25  C   UNL     1      -1.329   6.122  -1.052  1.00  0.00     0.116 C 
BRANCH  25  26
ATOM     26  N   UNL     1      -1.003   6.634   0.273  1.00  0.00    -0.352 N 
ATOM     27  C   UNL     1      -1.113   7.918   0.752  1.00  0.00     0.251 C 
ATOM     28  H   UNL     1      -0.657   5.970   0.912  1.00  0.00     0.163 HD
ATOM     29  O   UNL     1      -0.686   8.218   1.861  1.00  0.00    -0.269 OA
BRANCH  27  30
ATOM     30  C   UNL     1      -1.724   8.944  -0.110  1.00  0.00     0.039 A 
ATOM     31  C   UNL     1      -0.992  10.092  -0.419  1.00  0.00     0.014 A 
ATOM     32  C   UNL     1      -2.980   8.719  -0.680  1.00  0.00     0.014 A 
ATOM     33  C   UNL     1      -1.477  10.971  -1.387  1.00  0.00     0.010 A 
ATOM     34  C   UNL     1      -3.430   9.561  -1.689  1.00  0.00     0.010 A 
ATOM     35  C   UNL     1      -2.671  10.680  -2.068  1.00  0.00    -0.014 A 
BRANCH  35  36
ATOM     36  C   UNL     1      -3.123  11.495  -3.221  1.00  0.00     0.031 A 
ATOM     37  C   UNL     1      -4.406  12.265  -3.140  1.00  0.00     0.074 A 
ATOM     38  C   UNL     1      -2.428  11.448  -4.374  1.00  0.00     0.049 A 
ATOM     39  N   UNL     1      -5.037  12.922  -4.079  1.00  0.00    -0.248 NA
ATOM     40  C   UNL     1      -5.086  12.274  -1.835  1.00  0.00     0.031 C 
ATOM     41  C   UNL     1      -1.189  10.697  -4.587  1.00  0.00     0.029 A 
ATOM     42  N   UNL     1      -2.678  12.026  -5.593  1.00  0.00    -0.354 N 
ATOM     43  C   UNL     1      -6.192  13.408  -3.485  1.00  0.00     0.074 A 
ATOM     44  C   UNL     1      -6.199  12.935  -2.118  1.00  0.00     0.031 C 
ATOM     45  C   UNL     1      -0.781  10.870  -5.854  1.00  0.00     0.029 A 
ATOM     46  C   UNL     1      -1.750  11.706  -6.554  1.00  0.00     0.049 A 
ATOM     47  H   UNL     1      -3.449  12.615  -5.763  1.00  0.00     0.167 HD
ATOM     48  C   UNL     1      -7.150  14.195  -4.030  1.00  0.00     0.037 A 
ATOM     49  C   UNL     1      -1.698  12.035  -7.859  1.00  0.00     0.037 A 
ATOM     50  C   UNL     1      -7.123  14.685  -5.382  1.00  0.00     0.049 A 
ATOM     51  C   UNL     1      -2.789  12.886  -8.445  1.00  0.00     0.074 A 
ATOM     52  C   UNL     1      -8.002  15.555  -6.002  1.00  0.00     0.029 A 
ATOM     53  N   UNL     1      -6.168  14.339  -6.327  1.00  0.00    -0.354 N 
ATOM     54  N   UNL     1      -3.843  13.398  -7.858  1.00  0.00    -0.248 NA
ATOM     55  C   UNL     1      -2.689  13.200  -9.878  1.00  0.00     0.031 C 
ATOM     56  C   UNL     1      -7.602  15.704  -7.335  1.00  0.00     0.029 A 
ATOM     57  C   UNL     1      -6.453  14.955  -7.535  1.00  0.00     0.049 A 
ATOM     58  H   UNL     1      -5.401  13.745  -6.163  1.00  0.00     0.167 HD
ATOM     59  C   UNL     1      -4.522  14.105  -8.840  1.00  0.00     0.074 A 
ATOM     60  C   UNL     1      -3.753  13.969 -10.060  1.00  0.00     0.031 C 
ATOM     61  C   UNL     1      -5.679  14.803  -8.740  1.00  0.00     0.037 A 
BRANCH  48  62
ATOM     62  C   UNL     1      -8.306  14.580  -3.157  1.00  0.00     0.064 A 
ATOM     63  C   UNL     1      -8.157  15.491  -2.101  1.00  0.00     0.173 A 
ATOM     64  C   UNL     1      -9.585  14.055  -3.397  1.00  0.00     0.173 A 
ATOM     65  F   UNL     1      -6.951  16.010  -1.823  1.00  0.00    -0.203 F 
ATOM     66  C   UNL     1      -9.240  15.842  -1.300  1.00  0.00     0.198 A 
ATOM     67  C   UNL     1     -10.671  14.429  -2.610  1.00  0.00     0.198 A 
ATOM     68  F   UNL     1      -9.781  13.182  -4.397  1.00  0.00    -0.203 F 
ATOM     69  F   UNL     1      -9.064  16.678  -0.267  1.00  0.00    -0.200 F 
ATOM     70  C   UNL     1     -10.496  15.316  -1.558  1.00  0.00     0.200 A 
ATOM     71  F   UNL     1     -11.887  13.927  -2.867  1.00  0.00    -0.200 F 
ATOM     72  F   UNL     1     -11.539  15.658  -0.789  1.00  0.00    -0.200 F 
ENDBRANCH  48  62
BRANCH  49  73
ATOM     73  C   UNL     1      -0.567  11.561  -8.697  1.00  0.00     0.064 A 
ATOM     74  C   UNL     1       0.415  12.455  -9.144  1.00  0.00     0.173 A 
ATOM     75  C   UNL     1      -0.438  10.213  -9.059  1.00  0.00     0.173 A 
ATOM     76  F   UNL     1       0.322  13.758  -8.840  1.00  0.00    -0.203 F 
ATOM     77  C   UNL     1       1.478  12.020  -9.932  1.00  0.00     0.198 A 
ATOM     78  C   UNL     1       0.638   9.775  -9.828  1.00  0.00     0.198 A 
ATOM     79  F   UNL     1      -1.351   9.318  -8.653  1.00  0.00    -0.203 F 
ATOM     80  F   UNL     1       2.385  12.902 -10.375  1.00  0.00    -0.200 F 
ATOM     81  C   UNL     1       1.592  10.680 -10.268  1.00  0.00     0.200 A 
ATOM     82  F   UNL     1       0.751   8.477 -10.140  1.00  0.00    -0.200 F 
ATOM     83  F   UNL     1       2.619  10.261 -11.021  1.00  0.00    -0.200 F 
ENDBRANCH  49  73
BRANCH  61  84
ATOM     84  C   UNL     1      -6.181  15.480  -9.979  1.00  0.00     0.064 A 
ATOM     85  C   UNL     1      -6.780  14.751 -11.016  1.00  0.00     0.173 A 
ATOM     86  C   UNL     1      -6.111  16.875 -10.107  1.00  0.00     0.173 A 
ATOM     87  F   UNL     1      -6.853  13.413 -10.946  1.00  0.00    -0.203 F 
ATOM     88  C   UNL     1      -7.281  15.395 -12.144  1.00  0.00     0.198 A 
ATOM     89  C   UNL     1      -6.635  17.517 -11.225  1.00  0.00     0.198 A 
ATOM     90  F   UNL     1      -5.551  17.616  -9.139  1.00  0.00    -0.203 F 
ATOM     91  F   UNL     1      -7.820  14.676 -13.139  1.00  0.00    -0.200 F 
ATOM     92  C   UNL     1      -7.216  16.777 -12.244  1.00  0.00     0.200 A 
ATOM     93  F   UNL     1      -6.581  18.853 -11.315  1.00  0.00    -0.200 F 
ATOM     94  F   UNL     1      -7.709  17.395 -13.325  1.00  0.00    -0.200 F 
ENDBRANCH  61  84
ENDBRANCH  35  36
ENDBRANCH  27  30
ENDBRANCH  25  26
ENDBRANCH  24  25
ENDBRANCH   1  24
TORSDOF 13
