REMARK SMILES Cc1occc1C(=O)N1CCC(C(=O)NCCCCNC(=O)c2ccc(-c3c4nc(c(-c5c(F)c(F)c(F)c(F)c5F)c5ccc([nH]5)c(-c5c(F)c(F)c(F)c(F)c5F)c5nc(c(-c6c(F)c(F)c(F)c(F)c6F)c6ccc3[nH]6)C=C5)C=C4)cc2)(n2cccn2)CC1
REMARK SMILES IDX 18 1 17 2 16 3 15 4 13 5 14 6 12 8 7 9 8 10 9 11 10 12 92 13
REMARK SMILES IDX 11 14 91 15 6 16 1 17 2 18 3 19 4 20 5 21 86 22 87 23 90 24
REMARK SMILES IDX 88 25 89 26 19 27 20 28 21 29 22 31 23 32 24 33 85 34 25 35
REMARK SMILES IDX 84 36 26 37 27 38 28 39 78 40 29 41 83 42 77 43 79 44 30 45
REMARK SMILES IDX 82 46 76 47 75 48 31 50 63 51 43 52 62 53 44 54 47 55 61 56
REMARK SMILES IDX 80 57 45 58 46 59 60 61 81 62 48 63 32 64 33 65 41 66 34 67
REMARK SMILES IDX 35 68 39 69 42 70 36 71 37 72 40 73 38 74 64 75 65 76 73 77
REMARK SMILES IDX 66 78 67 79 71 80 74 81 68 82 69 83 72 84 70 85 49 86 50 87
REMARK SMILES IDX 58 88 51 89 52 90 56 91 59 92 53 93 54 94 57 95 55 96
REMARK H PARENT 15 7 20 30 79 49 47 60
REMARK Flexibility Score: inf
ROOT
ATOM      1  C   UNL     1       0.647  -8.966   1.479  1.00  0.00     0.023 C 
ENDROOT
BRANCH   1   2
ATOM      2  C   UNL     1       0.621  -7.541   0.921  1.00  0.00     0.023 C 
BRANCH   2   3
ATOM      3  C   UNL     1       1.359  -6.490   1.749  1.00  0.00     0.116 C 
BRANCH   3   4
ATOM      4  N   UNL     1       2.782  -6.768   1.867  1.00  0.00    -0.354 N 
ATOM      5  C   UNL     1       3.917  -6.066   1.533  1.00  0.00     0.248 C 
ATOM      6  O   UNL     1       4.936  -6.576   2.003  1.00  0.00    -0.272 OA
ATOM      7  H   UNL     1       2.974  -7.644   2.272  1.00  0.00     0.163 HD
BRANCH   5   8
ATOM      8  C   UNL     1       3.862  -4.722   0.716  1.00  0.00     0.144 C 
ATOM      9  C   UNL     1       0.355  -2.592  -0.411  1.00  0.00     0.257 C 
ATOM     10  O   UNL     1      -0.423  -3.324  -1.027  1.00  0.00    -0.269 OA
ATOM     11  N   UNL     1       1.662  -3.004  -0.145  1.00  0.00    -0.338 N 
ATOM     12  C   UNL     1       2.328  -3.807  -1.156  1.00  0.00     0.123 C 
ATOM     13  C   UNL     1       2.453  -2.550   0.988  1.00  0.00     0.123 C 
ATOM     14  C   UNL     1       3.087  -4.995  -0.597  1.00  0.00     0.062 C 
ATOM     15  C   UNL     1       3.202  -3.687   1.670  1.00  0.00     0.062 C 
BRANCH   9  16
ATOM     16  C   UNL     1      -0.076  -1.265   0.012  1.00  0.00     0.081 A 
ATOM     17  C   UNL     1       1.980   0.333  -0.490  1.00  0.00     0.088 C 
ATOM     18  C   UNL     1       0.629  -0.069  -0.044  1.00  0.00     0.113 A 
ATOM     19  O   UNL     1      -0.164   0.967   0.355  1.00  0.00    -0.469 OA
ATOM     20  C   UNL     1      -1.395   0.462   0.607  1.00  0.00     0.196 A 
ATOM     21  C   UNL     1      -1.400  -0.896   0.404  1.00  0.00     0.056 A 
ENDBRANCH   9  16
BRANCH   8  22
ATOM     22  N   UNL     1       5.212  -4.197   0.316  1.00  0.00    -0.257 N 
ATOM     23  C   UNL     1       5.484  -3.015  -0.343  1.00  0.00     0.110 A 
ATOM     24  N   UNL     1       6.337  -4.919   0.476  1.00  0.00    -0.181 NA
ATOM     25  C   UNL     1       6.843  -2.955  -0.533  1.00  0.00     0.042 A 
ATOM     26  C   UNL     1       7.320  -4.152   0.009  1.00  0.00     0.135 A 
ENDBRANCH   8  22
ENDBRANCH   5   8
ENDBRANCH   3   4
ENDBRANCH   2   3
ENDBRANCH   1   2
BRANCH   1  27
ATOM     27  C   UNL     1       0.176  -9.133   2.921  1.00  0.00     0.116 C 
BRANCH  27  28
ATOM     28  N   UNL     1      -1.155  -8.602   3.158  1.00  0.00    -0.352 N 
ATOM     29  C   UNL     1      -2.177  -9.097   3.928  1.00  0.00     0.251 C 
ATOM     30  H   UNL     1      -1.354  -7.756   2.694  1.00  0.00     0.163 HD
ATOM     31  O   UNL     1      -3.264  -8.523   3.928  1.00  0.00    -0.269 OA
BRANCH  29  32
ATOM     32  C   UNL     1      -2.005 -10.329   4.729  1.00  0.00     0.039 A 
ATOM     33  C   UNL     1      -3.052 -11.257   4.745  1.00  0.00     0.014 A 
ATOM     34  C   UNL     1      -0.855 -10.568   5.487  1.00  0.00     0.014 A 
ATOM     35  C   UNL     1      -2.926 -12.443   5.471  1.00  0.00     0.010 A 
ATOM     36  C   UNL     1      -0.707 -11.776   6.170  1.00  0.00     0.010 A 
ATOM     37  C   UNL     1      -1.742 -12.723   6.169  1.00  0.00    -0.014 A 
BRANCH  37  38
ATOM     38  C   UNL     1      -1.580 -14.006   6.896  1.00  0.00     0.031 A 
ATOM     39  C   UNL     1      -1.537 -14.032   8.397  1.00  0.00     0.074 A 
ATOM     40  C   UNL     1      -1.427 -15.148   6.199  1.00  0.00     0.049 A 
ATOM     41  N   UNL     1      -1.396 -15.055   9.202  1.00  0.00    -0.248 NA
ATOM     42  C   UNL     1      -1.645 -12.736   9.084  1.00  0.00     0.031 C 
ATOM     43  C   UNL     1      -1.394 -15.248   4.739  1.00  0.00     0.029 A 
ATOM     44  N   UNL     1      -1.267 -16.442   6.626  1.00  0.00    -0.354 N 
ATOM     45  C   UNL     1      -1.377 -14.526  10.485  1.00  0.00     0.074 A 
ATOM     46  C   UNL     1      -1.489 -13.089  10.353  1.00  0.00     0.031 C 
ATOM     47  C   UNL     1      -1.248 -16.537   4.391  1.00  0.00     0.029 A 
ATOM     48  C   UNL     1      -1.161 -17.349   5.602  1.00  0.00     0.049 A 
ATOM     49  H   UNL     1      -1.231 -16.695   7.577  1.00  0.00     0.167 HD
ATOM     50  C   UNL     1      -1.290 -15.181  11.667  1.00  0.00     0.037 A 
ATOM     51  C   UNL     1      -1.022 -18.688   5.635  1.00  0.00     0.037 A 
ATOM     52  C   UNL     1      -1.222 -16.612  11.804  1.00  0.00     0.049 A 
ATOM     53  C   UNL     1      -0.982 -19.395   6.960  1.00  0.00     0.074 A 
ATOM     54  C   UNL     1      -1.209 -17.370  12.962  1.00  0.00     0.029 A 
ATOM     55  N   UNL     1      -1.160 -17.501  10.742  1.00  0.00    -0.354 N 
ATOM     56  N   UNL     1      -1.042 -18.890   8.168  1.00  0.00    -0.248 NA
ATOM     57  C   UNL     1      -0.869 -20.860   6.926  1.00  0.00     0.031 C 
ATOM     58  C   UNL     1      -1.117 -18.719  12.601  1.00  0.00     0.029 A 
ATOM     59  C   UNL     1      -1.099 -18.801  11.218  1.00  0.00     0.049 A 
ATOM     60  H   UNL     1      -1.160 -17.247   9.791  1.00  0.00     0.167 HD
ATOM     61  C   UNL     1      -1.000 -19.971   9.035  1.00  0.00     0.074 A 
ATOM     62  C   UNL     1      -0.915 -21.163   8.216  1.00  0.00     0.031 C 
ATOM     63  C   UNL     1      -1.031 -19.975  10.389  1.00  0.00     0.037 A 
BRANCH  50  64
ATOM     64  C   UNL     1      -1.270 -14.352  12.915  1.00  0.00     0.064 A 
ATOM     65  C   UNL     1      -2.432 -13.736  13.402  1.00  0.00     0.173 A 
ATOM     66  C   UNL     1      -0.085 -14.199  13.648  1.00  0.00     0.173 A 
ATOM     67  F   UNL     1      -3.586 -13.844  12.727  1.00  0.00    -0.203 F 
ATOM     68  C   UNL     1      -2.403 -12.977  14.569  1.00  0.00     0.198 A 
ATOM     69  C   UNL     1      -0.064 -13.457  14.826  1.00  0.00     0.198 A 
ATOM     70  F   UNL     1       1.052 -14.771  13.224  1.00  0.00    -0.203 F 
ATOM     71  F   UNL     1      -3.516 -12.366  14.997  1.00  0.00    -0.200 F 
ATOM     72  C   UNL     1      -1.221 -12.843  15.282  1.00  0.00     0.200 A 
ATOM     73  F   UNL     1       1.077 -13.332  15.519  1.00  0.00    -0.200 F 
ATOM     74  F   UNL     1      -1.195 -12.114  16.407  1.00  0.00    -0.200 F 
ENDBRANCH  50  64
BRANCH  51  75
ATOM     75  C   UNL     1      -0.966 -19.452   4.366  1.00  0.00     0.064 A 
ATOM     76  C   UNL     1      -2.073 -20.193   3.931  1.00  0.00     0.173 A 
ATOM     77  C   UNL     1       0.180 -19.448   3.560  1.00  0.00     0.173 A 
ATOM     78  F   UNL     1      -3.184 -20.240   4.682  1.00  0.00    -0.203 F 
ATOM     79  C   UNL     1      -2.032 -20.913   2.740  1.00  0.00     0.198 A 
ATOM     80  C   UNL     1       0.214 -20.154   2.360  1.00  0.00     0.198 A 
ATOM     81  F   UNL     1       1.261 -18.749   3.935  1.00  0.00    -0.203 F 
ATOM     82  F   UNL     1      -3.093 -21.638   2.361  1.00  0.00    -0.200 F 
ATOM     83  C   UNL     1      -0.890 -20.889   1.953  1.00  0.00     0.200 A 
ATOM     84  F   UNL     1       1.315 -20.123   1.597  1.00  0.00    -0.200 F 
ATOM     85  F   UNL     1      -0.851 -21.580   0.805  1.00  0.00    -0.200 F 
ENDBRANCH  51  75
BRANCH  63  86
ATOM     86  C   UNL     1      -1.007 -21.309  11.070  1.00  0.00     0.064 A 
ATOM     87  C   UNL     1       0.179 -22.046  11.192  1.00  0.00     0.173 A 
ATOM     88  C   UNL     1      -2.175 -21.835  11.640  1.00  0.00     0.173 A 
ATOM     89  F   UNL     1       1.316 -21.588  10.648  1.00  0.00    -0.203 F 
ATOM     90  C   UNL     1       0.191 -23.273  11.848  1.00  0.00     0.198 A 
ATOM     91  C   UNL     1      -2.156 -23.053  12.312  1.00  0.00     0.198 A 
ATOM     92  F   UNL     1      -3.333 -21.163  11.550  1.00  0.00    -0.203 F 
ATOM     93  F   UNL     1       1.328 -23.978  11.926  1.00  0.00    -0.200 F 
ATOM     94  C   UNL     1      -0.974 -23.773  12.412  1.00  0.00     0.200 A 
ATOM     95  F   UNL     1      -3.280 -23.533  12.861  1.00  0.00    -0.200 F 
ATOM     96  F   UNL     1      -0.960 -24.953  13.047  1.00  0.00    -0.200 F 
ENDBRANCH  63  86
ENDBRANCH  37  38
ENDBRANCH  29  32
ENDBRANCH  27  28
ENDBRANCH   1  27
TORSDOF 13
