REMARK SMILES N#CCC(=O)N/N=C/c1ccc(OCc2ccc(C(=O)NCCCCNC(=O)c3ccc(-c4c5nc(c(-c6c(F)c(F)c(F)c(F)c6F)c6ccc([nH]6)c(-c6c(F)c(F)c(F)c(F)c6F)c6nc(c(-c7c(F)c(F)c(F)c(F)c7F)c7ccc4[nH]7)C=C6)C=C5)cc3)cc2)c(Br)c1
REMARK SMILES IDX 19 1 20 2 21 3 18 5 15 6 16 7 93 8 17 9 92 10 14 11 13 12
REMARK SMILES IDX 12 13 9 14 10 15 96 16 11 17 94 18 95 19 8 20 7 21 6 22 4 23
REMARK SMILES IDX 5 24 3 26 2 27 1 28 22 29 23 30 24 31 25 32 26 33 27 34
REMARK SMILES IDX 28 36 29 37 30 38 91 39 31 40 90 41 32 42 33 43 34 44 84 45
REMARK SMILES IDX 35 46 89 47 83 48 85 49 36 50 88 51 82 52 81 53 37 55 69 56
REMARK SMILES IDX 49 57 68 58 50 59 53 60 67 61 86 62 51 63 52 64 66 66 87 67
REMARK SMILES IDX 54 68 38 69 39 70 47 71 40 72 41 73 45 74 48 75 42 76 43 77
REMARK SMILES IDX 46 78 44 79 70 80 71 81 79 82 72 83 73 84 77 85 80 86 74 87
REMARK SMILES IDX 75 88 78 89 76 90 55 91 56 92 64 93 57 94 58 95 62 96 65 97
REMARK SMILES IDX 59 98 60 99 63 100 61 101
REMARK H PARENT 21 4 6 25 26 35 85 54 53 65
REMARK Flexibility Score: inf
ROOT
ATOM      1  C   UNL     1      -1.403   6.844   1.870  1.00  0.00     0.251 C 
ATOM      2  O   UNL     1      -2.442   7.333   1.423  1.00  0.00    -0.269 OA
ATOM      3  N   UNL     1      -0.227   7.321   1.347  1.00  0.00    -0.352 N 
ATOM      4  H   UNL     1      -0.356   7.996   0.642  1.00  0.00     0.163 HD
ENDROOT
BRANCH   1   5
ATOM      5  C   UNL     1      -1.496   5.805   2.941  1.00  0.00     0.039 A 
ATOM      6  C   UNL     1      -1.883   3.812   4.942  1.00  0.00    -0.011 A 
ATOM      7  C   UNL     1      -2.930   4.663   4.558  1.00  0.00     0.008 A 
ATOM      8  C   UNL     1      -0.638   4.018   4.350  1.00  0.00     0.008 A 
ATOM      9  C   UNL     1      -2.734   5.653   3.584  1.00  0.00     0.014 A 
ATOM     10  C   UNL     1      -0.465   4.951   3.324  1.00  0.00     0.014 A 
BRANCH   6  11
ATOM     11  C   UNL     1      -2.180   2.695   5.929  1.00  0.00     0.265 C 
BRANCH  11  12
ATOM     12  O   UNL     1      -1.135   1.813   6.353  1.00  0.00    -0.488 OA
BRANCH  12  13
ATOM     13  C   UNL     1      -0.315   1.156   5.484  1.00  0.00     0.134 A 
ATOM     14  C   UNL     1       1.788   0.093   3.955  1.00  0.00    -0.004 A 
ATOM     15  C   UNL     1       2.038   0.539   5.246  1.00  0.00     0.013 A 
ATOM     16  C   UNL     1       0.490   0.127   3.438  1.00  0.00     0.029 A 
ATOM     17  C   UNL     1       0.985   1.040   6.008  1.00  0.00     0.048 A 
ATOM     18  C   UNL     1      -0.568   0.657   4.199  1.00  0.00     0.060 A 
ATOM     19  Br  UNL     1      -2.280   0.598   3.381  1.00  0.00    -0.047 Br
BRANCH  14  20
ATOM     20  C   UNL     1       2.931  -0.427   3.184  1.00  0.00     0.141 C 
ATOM     21  N   UNL     1       2.800  -1.410   2.352  1.00  0.00    -0.181 NA
BRANCH  21  22
ATOM     22  N   UNL     1       3.952  -1.810   1.749  1.00  0.00    -0.246 N 
ATOM     23  C   UNL     1       4.375  -1.367   0.516  1.00  0.00     0.254 C 
ATOM     24  O   UNL     1       5.291  -1.959  -0.061  1.00  0.00    -0.272 OA
ATOM     25  H   UNL     1       4.519  -2.459   2.225  1.00  0.00     0.193 HD
BRANCH  23  26
ATOM     26  C   UNL     1       3.808  -0.086  -0.042  1.00  0.00     0.221 C 
BRANCH  26  27
ATOM     27  C   UNL     1       2.288  -0.086  -0.042  1.00  0.00     0.072 C 
ATOM     28  N   UNL     1       1.028  -0.086  -0.042  1.00  0.00    -0.198 NA
ENDBRANCH  26  27
ENDBRANCH  23  26
ENDBRANCH  21  22
ENDBRANCH  14  20
ENDBRANCH  12  13
ENDBRANCH  11  12
ENDBRANCH   6  11
ENDBRANCH   1   5
BRANCH   3  29
ATOM     29  C   UNL     1       1.164   7.032   1.624  1.00  0.00     0.116 C 
BRANCH  29  30
ATOM     30  C   UNL     1       1.690   5.935   0.693  1.00  0.00     0.023 C 
BRANCH  30  31
ATOM     31  C   UNL     1       2.185   6.455  -0.660  1.00  0.00     0.023 C 
BRANCH  31  32
ATOM     32  C   UNL     1       3.402   7.373  -0.580  1.00  0.00     0.116 C 
BRANCH  32  33
ATOM     33  N   UNL     1       4.558   6.744   0.039  1.00  0.00    -0.352 N 
ATOM     34  C   UNL     1       5.889   7.039  -0.143  1.00  0.00     0.251 C 
ATOM     35  H   UNL     1       4.363   6.013   0.669  1.00  0.00     0.163 HD
ATOM     36  O   UNL     1       6.754   6.343   0.369  1.00  0.00    -0.269 OA
BRANCH  34  37
ATOM     37  C   UNL     1       6.260   8.178  -1.009  1.00  0.00     0.039 A 
ATOM     38  C   UNL     1       7.197   7.968  -2.023  1.00  0.00     0.014 A 
ATOM     39  C   UNL     1       5.658   9.428  -0.848  1.00  0.00     0.014 A 
ATOM     40  C   UNL     1       7.476   8.996  -2.924  1.00  0.00     0.010 A 
ATOM     41  C   UNL     1       5.888  10.430  -1.785  1.00  0.00     0.010 A 
ATOM     42  C   UNL     1       6.795  10.221  -2.836  1.00  0.00    -0.014 A 
BRANCH  42  43
ATOM     43  C   UNL     1       7.001  11.283  -3.851  1.00  0.00     0.031 A 
ATOM     44  C   UNL     1       7.625  12.593  -3.464  1.00  0.00     0.074 A 
ATOM     45  C   UNL     1       6.566  11.085  -5.110  1.00  0.00     0.049 A 
ATOM     46  N   UNL     1       7.851  13.651  -4.202  1.00  0.00    -0.248 NA
ATOM     47  C   UNL     1       8.023  12.747  -2.056  1.00  0.00     0.031 C 
ATOM     48  C   UNL     1       5.889   9.879  -5.590  1.00  0.00     0.029 A 
ATOM     49  N   UNL     1       6.620  11.898  -6.215  1.00  0.00    -0.354 N 
ATOM     50  C   UNL     1       8.407  14.594  -3.349  1.00  0.00     0.074 A 
ATOM     51  C   UNL     1       8.435  14.006  -2.027  1.00  0.00     0.031 C 
ATOM     52  C   UNL     1       5.612  10.021  -6.896  1.00  0.00     0.029 A 
ATOM     53  C   UNL     1       6.064  11.337  -7.338  1.00  0.00     0.049 A 
ATOM     54  H   UNL     1       7.020  12.797  -6.203  1.00  0.00     0.167 HD
ATOM     55  C   UNL     1       8.874  15.830  -3.647  1.00  0.00     0.037 A 
ATOM     56  C   UNL     1       5.932  11.830  -8.584  1.00  0.00     0.037 A 
ATOM     57  C   UNL     1       8.866  16.403  -4.968  1.00  0.00     0.049 A 
ATOM     58  C   UNL     1       6.469  13.202  -8.889  1.00  0.00     0.074 A 
ATOM     59  C   UNL     1       9.378  17.619  -5.385  1.00  0.00     0.029 A 
ATOM     60  N   UNL     1       8.313  15.797  -6.087  1.00  0.00    -0.354 N 
ATOM     61  N   UNL     1       7.067  14.053  -8.092  1.00  0.00    -0.248 NA
ATOM     62  C   UNL     1       6.319  13.678 -10.271  1.00  0.00     0.031 C 
ATOM     63  C   UNL     1       9.097  17.768  -6.747  1.00  0.00     0.029 A 
ATOM     64  C   UNL     1       8.452  16.624  -7.190  1.00  0.00     0.049 A 
ATOM     65  H   UNL     1       7.886  14.910  -6.096  1.00  0.00     0.167 HD
ATOM     66  C   UNL     1       7.385  15.152  -8.877  1.00  0.00     0.074 A 
ATOM     67  C   UNL     1       6.931  14.852 -10.219  1.00  0.00     0.031 C 
ATOM     68  C   UNL     1       7.995  16.308  -8.519  1.00  0.00     0.037 A 
BRANCH  55  69
ATOM     69  C   UNL     1       9.444  16.646  -2.523  1.00  0.00     0.064 A 
ATOM     70  C   UNL     1      10.666  16.312  -1.921  1.00  0.00     0.173 A 
ATOM     71  C   UNL     1       8.781  17.796  -2.069  1.00  0.00     0.173 A 
ATOM     72  F   UNL     1      11.334  15.216  -2.310  1.00  0.00    -0.203 F 
ATOM     73  C   UNL     1      11.191  17.084  -0.888  1.00  0.00     0.198 A 
ATOM     74  C   UNL     1       9.322  18.582  -1.055  1.00  0.00     0.198 A 
ATOM     75  F   UNL     1       7.611  18.162  -2.614  1.00  0.00    -0.203 F 
ATOM     76  F   UNL     1      12.337  16.720  -0.296  1.00  0.00    -0.200 F 
ATOM     77  C   UNL     1      10.523  18.222  -0.461  1.00  0.00     0.200 A 
ATOM     78  F   UNL     1       8.681  19.688  -0.651  1.00  0.00    -0.200 F 
ATOM     79  F   UNL     1      11.032  18.968   0.529  1.00  0.00    -0.200 F 
ENDBRANCH  55  69
BRANCH  56  80
ATOM     80  C   UNL     1       5.292  11.010  -9.644  1.00  0.00     0.064 A 
ATOM     81  C   UNL     1       6.048  10.484 -10.701  1.00  0.00     0.173 A 
ATOM     82  C   UNL     1       3.916  10.739  -9.628  1.00  0.00     0.173 A 
ATOM     83  F   UNL     1       7.365  10.733 -10.769  1.00  0.00    -0.203 F 
ATOM     84  C   UNL     1       5.450   9.738 -11.713  1.00  0.00     0.198 A 
ATOM     85  C   UNL     1       3.323   9.970 -10.626  1.00  0.00     0.198 A 
ATOM     86  F   UNL     1       3.150  11.215  -8.635  1.00  0.00    -0.203 F 
ATOM     87  F   UNL     1       6.189   9.286 -12.735  1.00  0.00    -0.200 F 
ATOM     88  C   UNL     1       4.088   9.476 -11.672  1.00  0.00     0.200 A 
ATOM     89  F   UNL     1       2.010   9.708 -10.576  1.00  0.00    -0.200 F 
ATOM     90  F   UNL     1       3.513   8.756 -12.645  1.00  0.00    -0.200 F 
ENDBRANCH  56  80
BRANCH  68  91
ATOM     91  C   UNL     1       8.227  17.323  -9.600  1.00  0.00     0.064 A 
ATOM     92  C   UNL     1       7.171  18.061 -10.153  1.00  0.00     0.173 A 
ATOM     93  C   UNL     1       9.525  17.579 -10.068  1.00  0.00     0.173 A 
ATOM     94  F   UNL     1       5.910  17.841  -9.750  1.00  0.00    -0.203 F 
ATOM     95  C   UNL     1       7.402  18.998 -11.156  1.00  0.00     0.198 A 
ATOM     96  C   UNL     1       9.756  18.538 -11.050  1.00  0.00     0.198 A 
ATOM     97  F   UNL     1      10.570  16.904  -9.567  1.00  0.00    -0.203 F 
ATOM     98  F   UNL     1       6.372  19.655 -11.706  1.00  0.00    -0.200 F 
ATOM     99  C   UNL     1       8.694  19.240 -11.599  1.00  0.00     0.200 A 
ATOM    100  F   UNL     1      11.006  18.779 -11.468  1.00  0.00    -0.200 F 
ATOM    101  F   UNL     1       8.915  20.146 -12.562  1.00  0.00    -0.200 F 
ENDBRANCH  68  91
ENDBRANCH  42  43
ENDBRANCH  34  37
ENDBRANCH  32  33
ENDBRANCH  31  32
ENDBRANCH  30  31
ENDBRANCH  29  30
ENDBRANCH   3  29
TORSDOF 18
