REMARK SMILES C[C@@H]1C(=O)NC(=O)CN1C(=O)NC1(CC(=O)NCCCCNC(=O)c2ccc(-c3c4nc(c(-c5c(F)c(F)c(F)c(F)c5F)c5ccc([nH]5)c(-c5c(F)c(F)c(F)c(F)c5F)c5nc(c(-c6c(F)c(F)c(F)c(F)c6F)c6ccc3[nH]6)C=C5)C=C4)cc2)CCC1
REMARK SMILES IDX 19 1 18 2 17 3 15 4 16 5 14 7 13 8 88 9 90 10 89 11 12 12
REMARK SMILES IDX 10 13 11 14 9 16 1 17 2 18 3 19 4 20 5 21 8 22 6 23 7 25
REMARK SMILES IDX 20 26 21 27 22 28 23 29 24 31 25 32 26 33 87 34 27 35 86 36
REMARK SMILES IDX 28 37 29 38 30 39 80 40 31 41 85 42 79 43 81 44 32 45 84 46
REMARK SMILES IDX 78 47 77 48 33 50 65 51 45 52 64 53 46 54 49 55 63 56 82 57
REMARK SMILES IDX 47 58 48 59 62 61 83 62 50 63 34 64 35 65 43 66 36 67 37 68
REMARK SMILES IDX 41 69 44 70 38 71 39 72 42 73 40 74 66 75 67 76 75 77 68 78
REMARK SMILES IDX 69 79 73 80 76 81 70 82 71 83 74 84 72 85 51 86 52 87 60 88
REMARK SMILES IDX 53 89 54 90 58 91 61 92 55 93 56 94 59 95 57 96
REMARK H PARENT 17 6 12 15 5 24 22 30 81 49 49 60
REMARK Flexibility Score: inf
ROOT
ATOM      1  C   UNL     1      -1.178   0.443   6.766  1.00  0.00     0.023 C 
ENDROOT
BRANCH   1   2
ATOM      2  C   UNL     1      -1.716   0.229   5.356  1.00  0.00     0.116 C 
BRANCH   2   3
ATOM      3  N   UNL     1      -1.414   1.382   4.537  1.00  0.00    -0.356 N 
ATOM      4  C   UNL     1      -0.432   1.520   3.606  1.00  0.00     0.222 C 
ATOM      5  O   UNL     1      -0.183   2.642   3.173  1.00  0.00    -0.275 OA
ATOM      6  H   UNL     1      -1.994   2.167   4.670  1.00  0.00     0.163 HD
BRANCH   4   7
ATOM      7  C   UNL     1       0.223   0.280   3.061  1.00  0.00     0.128 C 
BRANCH   7   8
ATOM      8  C   UNL     1       1.737   0.155   3.184  1.00  0.00     0.051 C 
ATOM      9  C   UNL     1       2.317  -1.264   2.867  1.00  0.00     0.029 C 
ATOM     10  C   UNL     1       2.196  -0.132   4.662  1.00  0.00     0.029 C 
ATOM     11  C   UNL     1       2.100  -1.635   4.348  1.00  0.00     0.005 C 
BRANCH   8  12
ATOM     12  N   UNL     1       2.535   1.244   2.587  1.00  0.00    -0.332 N 
ATOM     13  C   UNL     1       2.448   2.074   1.528  1.00  0.00     0.318 C 
ATOM     14  O   UNL     1       3.196   3.057   1.570  1.00  0.00    -0.249 OA
ATOM     15  H   UNL     1       3.356   1.411   3.104  1.00  0.00     0.165 HD
BRANCH  13  16
ATOM     16  N   UNL     1       1.595   1.886   0.486  1.00  0.00    -0.304 N 
ATOM     17  C   UNL     1       1.725   0.247  -1.391  1.00  0.00     0.042 C 
ATOM     18  C   UNL     1       1.088   0.622  -0.057  1.00  0.00     0.174 C 
ATOM     19  C   UNL     1      -0.441   0.701  -0.237  1.00  0.00     0.249 C 
ATOM     20  O   UNL     1      -1.137  -0.303  -0.390  1.00  0.00    -0.272 OA
ATOM     21  N   UNL     1      -0.995   1.953  -0.339  1.00  0.00    -0.293 N 
ATOM     22  C   UNL     1       1.192   3.088  -0.246  1.00  0.00     0.222 C 
ATOM     23  C   UNL     1      -0.323   3.152  -0.390  1.00  0.00     0.246 C 
ATOM     24  H   UNL     1      -1.978   1.997  -0.379  1.00  0.00     0.173 HD
ATOM     25  O   UNL     1      -0.920   4.177  -0.717  1.00  0.00    -0.273 OA
ENDBRANCH  13  16
ENDBRANCH   8  12
ENDBRANCH   7   8
ENDBRANCH   4   7
ENDBRANCH   2   3
ENDBRANCH   1   2
BRANCH   1  26
ATOM     26  C   UNL     1      -1.986   1.452   7.575  1.00  0.00     0.023 C 
BRANCH  26  27
ATOM     27  C   UNL     1      -3.484   1.196   7.559  1.00  0.00     0.116 C 
BRANCH  27  28
ATOM     28  N   UNL     1      -3.837  -0.202   7.786  1.00  0.00    -0.352 N 
ATOM     29  C   UNL     1      -4.961  -0.699   8.391  1.00  0.00     0.251 C 
ATOM     30  H   UNL     1      -3.187  -0.869   7.466  1.00  0.00     0.163 HD
ATOM     31  O   UNL     1      -5.121  -1.901   8.563  1.00  0.00    -0.269 OA
BRANCH  29  32
ATOM     32  C   UNL     1      -5.942   0.275   8.879  1.00  0.00     0.039 A 
ATOM     33  C   UNL     1      -6.188   0.333  10.250  1.00  0.00     0.014 A 
ATOM     34  C   UNL     1      -6.462   1.228   7.999  1.00  0.00     0.014 A 
ATOM     35  C   UNL     1      -6.918   1.402  10.755  1.00  0.00     0.010 A 
ATOM     36  C   UNL     1      -7.112   2.337   8.516  1.00  0.00     0.010 A 
ATOM     37  C   UNL     1      -7.349   2.428   9.896  1.00  0.00    -0.014 A 
BRANCH  37  38
ATOM     38  C   UNL     1      -8.065   3.603  10.436  1.00  0.00     0.031 A 
ATOM     39  C   UNL     1      -9.493   3.839  10.045  1.00  0.00     0.074 A 
ATOM     40  C   UNL     1      -7.412   4.466  11.237  1.00  0.00     0.049 A 
ATOM     41  N   UNL     1     -10.298   4.804  10.405  1.00  0.00    -0.248 NA
ATOM     42  C   UNL     1     -10.088   2.884   9.095  1.00  0.00     0.031 C 
ATOM     43  C   UNL     1      -6.000   4.370  11.615  1.00  0.00     0.029 A 
ATOM     44  N   UNL     1      -7.852   5.593  11.880  1.00  0.00    -0.354 N 
ATOM     45  C   UNL     1     -11.482   4.578   9.718  1.00  0.00     0.074 A 
ATOM     46  C   UNL     1     -11.272   3.429   8.868  1.00  0.00     0.031 C 
ATOM     47  C   UNL     1      -5.700   5.375  12.453  1.00  0.00     0.029 A 
ATOM     48  C   UNL     1      -6.890   6.197  12.652  1.00  0.00     0.049 A 
ATOM     49  H   UNL     1      -8.770   5.938  11.796  1.00  0.00     0.167 HD
ATOM     50  C   UNL     1     -12.651   5.251   9.816  1.00  0.00     0.037 A 
ATOM     51  C   UNL     1      -6.971   7.285  13.439  1.00  0.00     0.037 A 
ATOM     52  C   UNL     1     -12.858   6.370  10.695  1.00  0.00     0.049 A 
ATOM     53  C   UNL     1      -8.294   7.990  13.560  1.00  0.00     0.074 A 
ATOM     54  C   UNL     1     -14.020   7.081  10.930  1.00  0.00     0.029 A 
ATOM     55  N   UNL     1     -11.870   6.937  11.487  1.00  0.00    -0.354 N 
ATOM     56  N   UNL     1      -9.435   7.716  12.975  1.00  0.00    -0.248 NA
ATOM     57  C   UNL     1      -8.344   9.149  14.462  1.00  0.00     0.031 C 
ATOM     58  C   UNL     1     -13.726   8.104  11.838  1.00  0.00     0.029 A 
ATOM     59  C   UNL     1     -12.392   8.002  12.201  1.00  0.00     0.049 A 
ATOM     60  H   UNL     1     -10.937   6.628  11.535  1.00  0.00     0.167 HD
ATOM     61  C   UNL     1     -10.342   8.652  13.448  1.00  0.00     0.074 A 
ATOM     62  C   UNL     1      -9.624   9.486  14.391  1.00  0.00     0.031 C 
ATOM     63  C   UNL     1     -11.650   8.815  13.131  1.00  0.00     0.037 A 
BRANCH  50  64
ATOM     64  C   UNL     1     -13.792   4.781   8.963  1.00  0.00     0.064 A 
ATOM     65  C   UNL     1     -14.435   3.557   9.207  1.00  0.00     0.173 A 
ATOM     66  C   UNL     1     -14.257   5.566   7.899  1.00  0.00     0.173 A 
ATOM     67  F   UNL     1     -14.015   2.759  10.200  1.00  0.00    -0.203 F 
ATOM     68  C   UNL     1     -15.483   3.125   8.399  1.00  0.00     0.198 A 
ATOM     69  C   UNL     1     -15.325   5.145   7.112  1.00  0.00     0.198 A 
ATOM     70  F   UNL     1     -13.676   6.743   7.622  1.00  0.00    -0.203 F 
ATOM     71  F   UNL     1     -16.047   1.929   8.618  1.00  0.00    -0.200 F 
ATOM     72  C   UNL     1     -15.932   3.922   7.357  1.00  0.00     0.200 A 
ATOM     73  F   UNL     1     -15.764   5.920   6.110  1.00  0.00    -0.200 F 
ATOM     74  F   UNL     1     -16.945   3.507   6.583  1.00  0.00    -0.200 F 
ENDBRANCH  50  64
BRANCH  51  75
ATOM     75  C   UNL     1      -5.783   7.743  14.205  1.00  0.00     0.064 A 
ATOM     76  C   UNL     1      -5.734   7.619  15.600  1.00  0.00     0.173 A 
ATOM     77  C   UNL     1      -4.677   8.317  13.562  1.00  0.00     0.173 A 
ATOM     78  F   UNL     1      -6.775   7.091  16.262  1.00  0.00    -0.203 F 
ATOM     79  C   UNL     1      -4.636   8.074  16.327  1.00  0.00     0.198 A 
ATOM     80  C   UNL     1      -3.567   8.747  14.287  1.00  0.00     0.198 A 
ATOM     81  F   UNL     1      -4.669   8.450  12.228  1.00  0.00    -0.203 F 
ATOM     82  F   UNL     1      -4.636   7.985  17.664  1.00  0.00    -0.200 F 
ATOM     83  C   UNL     1      -3.551   8.634  15.669  1.00  0.00     0.200 A 
ATOM     84  F   UNL     1      -2.514   9.274  13.647  1.00  0.00    -0.200 F 
ATOM     85  F   UNL     1      -2.493   9.069  16.368  1.00  0.00    -0.200 F 
ENDBRANCH  51  75
BRANCH  63  86
ATOM     86  C   UNL     1     -12.383   9.926  13.822  1.00  0.00     0.064 A 
ATOM     87  C   UNL     1     -12.139  11.271  13.505  1.00  0.00     0.173 A 
ATOM     88  C   UNL     1     -13.356   9.642  14.790  1.00  0.00     0.173 A 
ATOM     89  F   UNL     1     -11.206  11.592  12.596  1.00  0.00    -0.203 F 
ATOM     90  C   UNL     1     -12.822  12.293  14.158  1.00  0.00     0.198 A 
ATOM     91  C   UNL     1     -14.059  10.665  15.418  1.00  0.00     0.198 A 
ATOM     92  F   UNL     1     -13.631   8.371  15.122  1.00  0.00    -0.203 F 
ATOM     93  F   UNL     1     -12.535  13.572  13.879  1.00  0.00    -0.200 F 
ATOM     94  C   UNL     1     -13.785  11.989  15.109  1.00  0.00     0.200 A 
ATOM     95  F   UNL     1     -14.999  10.371  16.327  1.00  0.00    -0.200 F 
ATOM     96  F   UNL     1     -14.444  12.974  15.734  1.00  0.00    -0.200 F 
ENDBRANCH  63  86
ENDBRANCH  37  38
ENDBRANCH  29  32
ENDBRANCH  27  28
ENDBRANCH  26  27
ENDBRANCH   1  26
TORSDOF 14
