REMARK SMILES O=C(NCCCCNC(=O)[C@H](c1c[nH]c2cc(OCc3ccccc3)ccc12)[NH+]1CC[NH+]([C@H]2CCS(=O)(=O)C2)CC1)c1ccc(-c2c3nc(c(-c4c(F)c(F)c(F)c(F)c4F)c4ccc([nH]4)c(-c4c(F)c(F)c(F)c(F)c4F)c4nc(c(-c5c(F)c(F)c(F)c(F)c5F)c5ccc2[nH]5)C=C4)C=C3)cc1
REMARK SMILES IDX 6 1 5 2 4 3 3 4 1 5 2 6 42 8 43 9 104 10 44 11 103 12 45 13
REMARK SMILES IDX 46 14 47 15 97 16 48 17 102 18 96 19 98 20 49 21 101 22
REMARK SMILES IDX 95 23 94 24 50 26 82 27 62 28 81 29 63 30 66 31 80 32 99 33
REMARK SMILES IDX 64 34 65 35 79 37 100 38 67 39 51 40 52 41 60 42 53 43 54 44
REMARK SMILES IDX 58 45 61 46 55 47 56 48 59 49 57 50 83 51 84 52 92 53 85 54
REMARK SMILES IDX 86 55 90 56 93 57 87 58 88 59 91 60 89 61 68 62 69 63 77 64
REMARK SMILES IDX 70 65 71 66 75 67 78 68 72 69 73 70 76 71 74 72 7 73 8 74
REMARK SMILES IDX 9 75 10 77 11 78 29 79 30 80 41 81 31 83 40 84 32 85 33 87
REMARK SMILES IDX 34 88 39 89 35 90 36 91 37 92 38 93 12 94 13 95 28 96 14 97
REMARK SMILES IDX 15 98 27 99 16 101 26 102 17 103 18 104 19 105 20 106 21 107
REMARK SMILES IDX 25 108 22 109 24 110 23 111
REMARK H PARENT 3 7 98 25 66 36 8 76 29 82 32 86 14 100
REMARK Flexibility Score: inf
ROOT
ATOM      1  C   UNL     1       7.499   7.249   7.518  1.00  0.00     0.023 C 
ENDROOT
BRANCH   1   2
ATOM      2  C   UNL     1       7.658   7.385   9.018  1.00  0.00     0.023 C 
BRANCH   2   3
ATOM      3  C   UNL     1       7.268   6.138   9.787  1.00  0.00     0.116 C 
BRANCH   3   4
ATOM      4  N   UNL     1       8.025   4.928   9.472  1.00  0.00    -0.352 N 
ATOM      5  O   UNL     1       9.010   2.942  10.027  1.00  0.00    -0.269 OA
ATOM      6  C   UNL     1       8.332   3.907  10.353  1.00  0.00     0.251 C 
ATOM      7  H   UNL     1       8.347   4.831   8.547  1.00  0.00     0.163 HD
BRANCH   6   8
ATOM      8  C   UNL     1       7.834   4.060  11.735  1.00  0.00     0.039 A 
ATOM      9  C   UNL     1       6.484   4.357  11.911  1.00  0.00     0.014 A 
ATOM     10  C   UNL     1       8.738   4.162  12.794  1.00  0.00     0.014 A 
ATOM     11  C   UNL     1       6.091   4.997  13.071  1.00  0.00     0.010 A 
ATOM     12  C   UNL     1       8.290   4.648  14.027  1.00  0.00     0.010 A 
ATOM     13  C   UNL     1       6.973   5.112  14.162  1.00  0.00    -0.014 A 
BRANCH  13  14
ATOM     14  C   UNL     1       6.428   5.629  15.445  1.00  0.00     0.031 A 
ATOM     15  C   UNL     1       6.982   6.850  16.126  1.00  0.00     0.074 A 
ATOM     16  C   UNL     1       5.357   4.990  15.958  1.00  0.00     0.049 A 
ATOM     17  N   UNL     1       6.587   7.415  17.241  1.00  0.00    -0.248 NA
ATOM     18  C   UNL     1       8.127   7.523  15.492  1.00  0.00     0.031 C 
ATOM     19  C   UNL     1       4.747   3.784  15.386  1.00  0.00     0.029 A 
ATOM     20  N   UNL     1       4.567   5.273  17.040  1.00  0.00    -0.354 N 
ATOM     21  C   UNL     1       7.440   8.491  17.454  1.00  0.00     0.074 A 
ATOM     22  C   UNL     1       8.393   8.489  16.363  1.00  0.00     0.031 C 
ATOM     23  C   UNL     1       3.636   3.484  16.065  1.00  0.00     0.029 A 
ATOM     24  C   UNL     1       3.522   4.395  17.193  1.00  0.00     0.049 A 
ATOM     25  H   UNL     1       4.732   6.029  17.648  1.00  0.00     0.167 HD
ATOM     26  C   UNL     1       7.420   9.394  18.466  1.00  0.00     0.037 A 
ATOM     27  C   UNL     1       2.593   4.298  18.159  1.00  0.00     0.037 A 
ATOM     28  C   UNL     1       6.457   9.385  19.541  1.00  0.00     0.049 A 
ATOM     29  C   UNL     1       2.627   5.291  19.280  1.00  0.00     0.074 A 
ATOM     30  C   UNL     1       6.344  10.262  20.608  1.00  0.00     0.029 A 
ATOM     31  N   UNL     1       5.439   8.452  19.688  1.00  0.00    -0.354 N 
ATOM     32  N   UNL     1       3.433   6.308  19.460  1.00  0.00    -0.248 NA
ATOM     33  C   UNL     1       1.626   5.117  20.337  1.00  0.00     0.031 C 
ATOM     34  C   UNL     1       5.296   9.829  21.426  1.00  0.00     0.029 A 
ATOM     35  C   UNL     1       4.710   8.720  20.838  1.00  0.00     0.049 A 
ATOM     36  H   UNL     1       5.260   7.709  19.067  1.00  0.00     0.167 HD
ATOM     37  C   UNL     1       3.031   6.904  20.645  1.00  0.00     0.074 A 
ATOM     38  C   UNL     1       1.881   6.158  21.115  1.00  0.00     0.031 C 
ATOM     39  C   UNL     1       3.571   7.964  21.293  1.00  0.00     0.037 A 
BRANCH  26  40
ATOM     40  C   UNL     1       8.473  10.469  18.482  1.00  0.00     0.064 A 
ATOM     41  C   UNL     1       8.462  11.526  17.561  1.00  0.00     0.173 A 
ATOM     42  C   UNL     1       9.452  10.491  19.489  1.00  0.00     0.173 A 
ATOM     43  F   UNL     1       7.554  11.553  16.574  1.00  0.00    -0.203 F 
ATOM     44  C   UNL     1       9.397  12.557  17.639  1.00  0.00     0.198 A 
ATOM     45  C   UNL     1      10.367  11.538  19.581  1.00  0.00     0.198 A 
ATOM     46  F   UNL     1       9.505   9.511  20.403  1.00  0.00    -0.203 F 
ATOM     47  F   UNL     1       9.384  13.541  16.729  1.00  0.00    -0.200 F 
ATOM     48  C   UNL     1      10.341  12.568  18.654  1.00  0.00     0.200 A 
ATOM     49  F   UNL     1      11.267  11.555  20.575  1.00  0.00    -0.200 F 
ATOM     50  F   UNL     1      11.226  13.571  18.739  1.00  0.00    -0.200 F 
ENDBRANCH  26  40
BRANCH  27  51
ATOM     51  C   UNL     1       1.600   3.193  18.127  1.00  0.00     0.064 A 
ATOM     52  C   UNL     1       0.230   3.452  17.994  1.00  0.00     0.173 A 
ATOM     53  C   UNL     1       2.003   1.853  18.241  1.00  0.00     0.173 A 
ATOM     54  F   UNL     1      -0.207   4.716  17.894  1.00  0.00    -0.203 F 
ATOM     55  C   UNL     1      -0.701   2.416  18.011  1.00  0.00     0.198 A 
ATOM     56  C   UNL     1       1.076   0.816  18.211  1.00  0.00     0.198 A 
ATOM     57  F   UNL     1       3.304   1.548  18.357  1.00  0.00    -0.203 F 
ATOM     58  F   UNL     1      -2.010   2.695  17.949  1.00  0.00    -0.200 F 
ATOM     59  C   UNL     1      -0.277   1.099  18.113  1.00  0.00     0.200 A 
ATOM     60  F   UNL     1       1.494  -0.455  18.281  1.00  0.00    -0.200 F 
ATOM     61  F   UNL     1      -1.173   0.103  18.126  1.00  0.00    -0.200 F 
ENDBRANCH  27  51
BRANCH  39  62
ATOM     62  C   UNL     1       2.894   8.387  22.565  1.00  0.00     0.064 A 
ATOM     63  C   UNL     1       2.927   7.588  23.718  1.00  0.00     0.173 A 
ATOM     64  C   UNL     1       2.189   9.598  22.625  1.00  0.00     0.173 A 
ATOM     65  F   UNL     1       3.571   6.410  23.706  1.00  0.00    -0.203 F 
ATOM     66  C   UNL     1       2.239   7.963  24.868  1.00  0.00     0.198 A 
ATOM     67  C   UNL     1       1.536   9.989  23.790  1.00  0.00     0.198 A 
ATOM     68  F   UNL     1       2.131  10.402  21.553  1.00  0.00    -0.203 F 
ATOM     69  F   UNL     1       2.218   7.146  25.930  1.00  0.00    -0.200 F 
ATOM     70  C   UNL     1       1.548   9.165  24.905  1.00  0.00     0.200 A 
ATOM     71  F   UNL     1       0.881  11.158  23.828  1.00  0.00    -0.200 F 
ATOM     72  F   UNL     1       0.882   9.522  26.011  1.00  0.00    -0.200 F 
ENDBRANCH  39  62
ENDBRANCH  13  14
ENDBRANCH   6   8
ENDBRANCH   3   4
ENDBRANCH   2   3
ENDBRANCH   1   2
BRANCH   1  73
ATOM     73  C   UNL     1       6.089   6.919   7.037  1.00  0.00     0.116 C 
BRANCH  73  74
ATOM     74  N   UNL     1       5.464   8.003   6.315  1.00  0.00    -0.351 N 
ATOM     75  C   UNL     1       5.419   8.288   4.986  1.00  0.00     0.283 C 
ATOM     76  H   UNL     1       4.986   8.649   6.885  1.00  0.00     0.163 HD
ATOM     77  O   UNL     1       4.457   9.009   4.662  1.00  0.00    -0.268 OA
BRANCH  75  78
ATOM     78  C   UNL     1       6.464   7.861   3.889  1.00  0.00     0.308 C 
BRANCH  78  79
ATOM     79  N   UNL     1       7.364   9.016   3.522  1.00  0.00    -0.312 N 
ATOM     80  C   UNL     1       8.192   8.707   2.327  1.00  0.00     0.325 C 
ATOM     81  C   UNL     1       6.651  10.272   3.193  1.00  0.00     0.325 C 
ATOM     82  H   UNL     1       7.925   9.150   4.363  1.00  0.00     0.349 HD
ATOM     83  C   UNL     1       7.382   8.552   1.028  1.00  0.00     0.324 C 
ATOM     84  C   UNL     1       5.820  10.224   1.885  1.00  0.00     0.324 C 
ATOM     85  N   UNL     1       6.594   9.755   0.716  1.00  0.00    -0.322 N 
ATOM     86  H   UNL     1       7.231  10.528   0.523  1.00  0.00     0.348 HD
BRANCH  85  87
ATOM     87  C   UNL     1       5.837   9.593  -0.532  1.00  0.00     0.200 C 
ATOM     88  C   UNL     1       4.608   8.665  -0.479  1.00  0.00     0.082 C 
ATOM     89  C   UNL     1       5.331  10.918  -1.105  1.00  0.00     0.201 C 
ATOM     90  C   UNL     1       3.935   8.762  -1.845  1.00  0.00     0.143 C 
ATOM     91  S   UNL     1       4.245  10.422  -2.428  1.00  0.00     0.156 S 
ATOM     92  O   UNL     1       5.019  10.333  -3.651  1.00  0.00    -0.229 OA
ATOM     93  O   UNL     1       3.022  11.188  -2.343  1.00  0.00    -0.229 OA
ENDBRANCH  85  87
ENDBRANCH  78  79
BRANCH  78  94
ATOM     94  C   UNL     1       7.334   6.660   4.228  1.00  0.00     0.044 A 
ATOM     95  C   UNL     1       8.615   6.707   4.764  1.00  0.00     0.094 A 
ATOM     96  C   UNL     1       7.055   5.262   4.022  1.00  0.00     0.009 A 
ATOM     97  N   UNL     1       9.042   5.441   5.021  1.00  0.00    -0.361 N 
ATOM     98  C   UNL     1       8.071   4.547   4.659  1.00  0.00     0.050 A 
ATOM     99  C   UNL     1       6.021   4.520   3.416  1.00  0.00     0.015 A 
ATOM    100  H   UNL     1       9.916   5.205   5.408  1.00  0.00     0.166 HD
ATOM    101  C   UNL     1       8.024   3.167   4.862  1.00  0.00     0.073 A 
ATOM    102  C   UNL     1       6.013   3.115   3.533  1.00  0.00     0.047 A 
ATOM    103  C   UNL     1       6.962   2.452   4.310  1.00  0.00     0.121 A 
BRANCH 103 104
ATOM    104  O   UNL     1       6.945   1.138   4.692  1.00  0.00    -0.489 OA
BRANCH 104 105
ATOM    105  C   UNL     1       6.188   0.181   3.951  1.00  0.00     0.265 C 
BRANCH 105 106
ATOM    106  C   UNL     1       4.684   0.291   4.069  1.00  0.00    -0.011 A 
ATOM    107  C   UNL     1       3.887  -0.238   3.044  1.00  0.00     0.007 A 
ATOM    108  C   UNL     1       4.065   0.951   5.140  1.00  0.00     0.007 A 
ATOM    109  C   UNL     1       2.509  -0.031   3.043  1.00  0.00     0.000 A 
ATOM    110  C   UNL     1       2.688   1.173   5.128  1.00  0.00     0.000 A 
ATOM    111  C   UNL     1       1.913   0.695   4.073  1.00  0.00     0.000 A 
ENDBRANCH 105 106
ENDBRANCH 104 105
ENDBRANCH 103 104
ENDBRANCH  78  94
ENDBRANCH  75  78
ENDBRANCH  73  74
ENDBRANCH   1  73
TORSDOF 17
