REMARK SMILES CC(C)CCn1nc(C(=O)NCCCCNC(=O)c2ccc(-c3c4nc(c(-c5c(F)c(F)c(F)c(F)c5F)c5ccc([nH]5)c(-c5c(F)c(F)c(F)c(F)c5F)c5nc(c(-c6c(F)c(F)c(F)c(F)c6F)c6ccc3[nH]6)C=C5)C=C4)cc2)c2c1CCN(C(=O)[C@@H]1CCc3nn(C)c(=O)n3C1)C2
REMARK SMILES IDX 13 1 12 2 11 3 9 4 10 5 8 7 6 8 7 9 83 10 82 11 84 12 100 13
REMARK SMILES IDX 85 14 86 15 5 16 4 17 2 18 1 19 3 20 87 21 88 22 89 23 90 24
REMARK SMILES IDX 99 25 91 26 98 27 92 28 96 29 93 30 94 31 97 32 95 33 14 34
REMARK SMILES IDX 15 35 16 36 17 37 18 39 19 40 20 41 81 42 21 43 80 44 22 45
REMARK SMILES IDX 23 46 24 47 74 48 25 49 79 50 73 51 75 52 26 53 78 54 72 55
REMARK SMILES IDX 71 56 27 58 59 59 39 60 58 61 40 62 43 63 57 64 76 65 41 66
REMARK SMILES IDX 42 67 56 69 77 70 44 71 28 72 29 73 37 74 30 75 31 76 35 77
REMARK SMILES IDX 38 78 32 79 33 80 36 81 34 82 60 83 61 84 69 85 62 86 63 87
REMARK SMILES IDX 67 88 70 89 64 90 65 91 68 92 66 93 45 94 46 95 54 96 47 97
REMARK SMILES IDX 48 98 52 99 55 100 49 101 50 102 53 103 51 104
REMARK H PARENT 11 6 16 38 75 57 43 68
REMARK Flexibility Score: inf
ROOT
ATOM      1  C   UNL     1       1.510   8.529   0.205  1.00  0.00     0.023 C 
ENDROOT
BRANCH   1   2
ATOM      2  C   UNL     1       0.304   8.329   1.141  1.00  0.00     0.116 C 
BRANCH   2   3
ATOM      3  N   UNL     1      -0.873   7.828   0.443  1.00  0.00    -0.351 N 
ATOM      4  C   UNL     1      -1.450   6.596   0.190  1.00  0.00     0.272 C 
ATOM      5  O   UNL     1      -2.575   6.686  -0.318  1.00  0.00    -0.267 OA
ATOM      6  H   UNL     1      -1.396   8.560   0.046  1.00  0.00     0.163 HD
BRANCH   4   7
ATOM      7  C   UNL     1      -0.846   5.263   0.484  1.00  0.00     0.155 A 
ATOM      8  N   UNL     1      -0.821   3.100   0.627  1.00  0.00    -0.268 N 
ATOM      9  N   UNL     1      -1.633   4.159   0.425  1.00  0.00    -0.167 NA
ATOM     10  C   UNL     1       0.423   3.486   1.020  1.00  0.00     0.046 A 
ATOM     11  C   UNL     1       0.483   4.838   0.757  1.00  0.00     0.026 A 
ATOM     12  C   UNL     1       1.586   2.675   1.472  1.00  0.00     0.078 C 
ATOM     13  C   UNL     1       1.755   5.569   0.728  1.00  0.00     0.159 C 
ATOM     14  C   UNL     1       2.756   3.624   1.832  1.00  0.00     0.126 C 
ATOM     15  N   UNL     1       2.924   4.702   0.839  1.00  0.00    -0.338 N 
BRANCH   8  16
ATOM     16  C   UNL     1      -1.341   1.760   0.404  1.00  0.00     0.145 C 
BRANCH  16  17
ATOM     17  C   UNL     1      -1.015   1.150  -0.977  1.00  0.00     0.027 C 
BRANCH  17  18
ATOM     18  C   UNL     1       0.463   0.787  -1.225  1.00  0.00    -0.016 C 
ATOM     19  C   UNL     1       0.981  -0.271  -0.245  1.00  0.00     0.007 C 
ATOM     20  C   UNL     1       0.695   0.290  -2.655  1.00  0.00     0.007 C 
ENDBRANCH  17  18
ENDBRANCH  16  17
ENDBRANCH   8  16
BRANCH  15  21
ATOM     21  C   UNL     1       4.052   5.202   0.214  1.00  0.00     0.227 C 
ATOM     22  O   UNL     1       3.992   6.298  -0.368  1.00  0.00    -0.274 OA
BRANCH  21  23
ATOM     23  C   UNL     1       5.410   4.515   0.161  1.00  0.00     0.099 C 
ATOM     24  C   UNL     1       5.491   3.227  -0.656  1.00  0.00     0.023 C 
ATOM     25  C   UNL     1       6.137   4.474   1.490  1.00  0.00     0.142 C 
ATOM     26  C   UNL     1       5.252   1.946   0.126  1.00  0.00     0.078 C 
ATOM     27  N   UNL     1       6.095   3.175   2.102  1.00  0.00    -0.278 N 
ATOM     28  C   UNL     1       5.744   2.004   1.541  1.00  0.00     0.133 A 
ATOM     29  C   UNL     1       6.354   2.912   3.420  1.00  0.00     0.345 A 
ATOM     30  N   UNL     1       5.730   0.992   2.358  1.00  0.00    -0.155 NA
ATOM     31  N   UNL     1       6.111   1.546   3.561  1.00  0.00    -0.216 N 
ATOM     32  O   UNL     1       6.678   3.711   4.282  1.00  0.00    -0.246 OA
ATOM     33  C   UNL     1       6.158   0.808   4.789  1.00  0.00     0.179 C 
ENDBRANCH  21  23
ENDBRANCH  15  21
ENDBRANCH   4   7
ENDBRANCH   2   3
ENDBRANCH   1   2
BRANCH   1  34
ATOM     34  C   UNL     1       1.904   9.960  -0.158  1.00  0.00     0.023 C 
BRANCH  34  35
ATOM     35  C   UNL     1       2.627  10.706   0.958  1.00  0.00     0.116 C 
BRANCH  35  36
ATOM     36  N   UNL     1       3.962  10.177   1.252  1.00  0.00    -0.352 N 
ATOM     37  C   UNL     1       4.733  10.450   2.364  1.00  0.00     0.251 C 
ATOM     38  H   UNL     1       4.349   9.562   0.587  1.00  0.00     0.163 HD
ATOM     39  O   UNL     1       5.954  10.325   2.362  1.00  0.00    -0.269 OA
BRANCH  37  40
ATOM     40  C   UNL     1       4.034  10.887   3.580  1.00  0.00     0.039 A 
ATOM     41  C   UNL     1       4.386  12.069   4.232  1.00  0.00     0.014 A 
ATOM     42  C   UNL     1       2.927  10.136   3.977  1.00  0.00     0.014 A 
ATOM     43  C   UNL     1       3.542  12.555   5.225  1.00  0.00     0.010 A 
ATOM     44  C   UNL     1       2.042  10.671   4.885  1.00  0.00     0.010 A 
ATOM     45  C   UNL     1       2.347  11.874   5.520  1.00  0.00    -0.014 A 
BRANCH  45  46
ATOM     46  C   UNL     1       1.331  12.523   6.351  1.00  0.00     0.031 A 
ATOM     47  C   UNL     1       0.953  13.895   5.902  1.00  0.00     0.074 A 
ATOM     48  C   UNL     1       0.619  11.887   7.307  1.00  0.00     0.049 A 
ATOM     49  N   UNL     1       1.146  15.009   6.528  1.00  0.00    -0.248 NA
ATOM     50  C   UNL     1       0.408  14.067   4.544  1.00  0.00     0.031 C 
ATOM     51  C   UNL     1       0.650  10.460   7.644  1.00  0.00     0.029 A 
ATOM     52  N   UNL     1      -0.373  12.365   8.114  1.00  0.00    -0.354 N 
ATOM     53  C   UNL     1       0.565  16.002   5.740  1.00  0.00     0.074 A 
ATOM     54  C   UNL     1       0.292  15.395   4.466  1.00  0.00     0.031 C 
ATOM     55  C   UNL     1      -0.426  10.149   8.399  1.00  0.00     0.029 A 
ATOM     56  C   UNL     1      -1.120  11.375   8.744  1.00  0.00     0.049 A 
ATOM     57  H   UNL     1      -0.545  13.327   8.239  1.00  0.00     0.167 HD
ATOM     58  C   UNL     1       0.108  17.152   6.310  1.00  0.00     0.037 A 
ATOM     59  C   UNL     1      -2.240  11.543   9.488  1.00  0.00     0.037 A 
ATOM     60  C   UNL     1       0.662  17.317   7.632  1.00  0.00     0.049 A 
ATOM     61  C   UNL     1      -2.253  12.949   9.946  1.00  0.00     0.074 A 
ATOM     62  C   UNL     1       1.921  17.478   8.171  1.00  0.00     0.029 A 
ATOM     63  N   UNL     1      -0.157  16.946   8.665  1.00  0.00    -0.354 N 
ATOM     64  N   UNL     1      -1.403  13.445  10.800  1.00  0.00    -0.248 NA
ATOM     65  C   UNL     1      -3.007  13.925   9.176  1.00  0.00     0.031 C 
ATOM     66  C   UNL     1       1.878  16.817   9.437  1.00  0.00     0.029 A 
ATOM     67  C   UNL     1       0.583  16.337   9.638  1.00  0.00     0.049 A 
ATOM     68  H   UNL     1      -1.129  17.095   8.701  1.00  0.00     0.167 HD
ATOM     69  C   UNL     1      -1.187  14.737  10.357  1.00  0.00     0.074 A 
ATOM     70  C   UNL     1      -2.314  15.025   9.478  1.00  0.00     0.031 C 
ATOM     71  C   UNL     1       0.038  15.320  10.509  1.00  0.00     0.037 A 
BRANCH  58  72
ATOM     72  C   UNL     1      -1.182  17.858   5.917  1.00  0.00     0.064 A 
ATOM     73  C   UNL     1      -1.544  19.036   6.609  1.00  0.00     0.173 A 
ATOM     74  C   UNL     1      -2.222  17.257   5.175  1.00  0.00     0.173 A 
ATOM     75  F   UNL     1      -0.644  19.696   7.354  1.00  0.00    -0.203 F 
ATOM     76  C   UNL     1      -2.864  19.498   6.652  1.00  0.00     0.198 A 
ATOM     77  C   UNL     1      -3.527  17.751   5.179  1.00  0.00     0.198 A 
ATOM     78  F   UNL     1      -2.061  16.109   4.509  1.00  0.00    -0.203 F 
ATOM     79  F   UNL     1      -3.183  20.527   7.448  1.00  0.00    -0.200 F 
ATOM     80  C   UNL     1      -3.857  18.846   5.947  1.00  0.00     0.200 A 
ATOM     81  F   UNL     1      -4.480  17.094   4.502  1.00  0.00    -0.200 F 
ATOM     82  F   UNL     1      -5.134  19.237   6.046  1.00  0.00    -0.200 F 
ENDBRANCH  58  72
BRANCH  59  83
ATOM     83  C   UNL     1      -3.408  10.647   9.654  1.00  0.00     0.064 A 
ATOM     84  C   UNL     1      -4.338  10.856  10.687  1.00  0.00     0.173 A 
ATOM     85  C   UNL     1      -3.797   9.757   8.635  1.00  0.00     0.173 A 
ATOM     86  F   UNL     1      -4.064  11.715  11.680  1.00  0.00    -0.203 F 
ATOM     87  C   UNL     1      -5.598  10.249  10.677  1.00  0.00     0.198 A 
ATOM     88  C   UNL     1      -5.051   9.144   8.630  1.00  0.00     0.198 A 
ATOM     89  F   UNL     1      -3.007   9.541   7.573  1.00  0.00    -0.203 F 
ATOM     90  F   UNL     1      -6.486  10.534  11.639  1.00  0.00    -0.200 F 
ATOM     91  C   UNL     1      -5.959   9.405   9.640  1.00  0.00     0.200 A 
ATOM     92  F   UNL     1      -5.401   8.356   7.604  1.00  0.00    -0.200 F 
ATOM     93  F   UNL     1      -7.191   8.879   9.591  1.00  0.00    -0.200 F 
ENDBRANCH  59  83
BRANCH  71  94
ATOM     94  C   UNL     1       0.964  14.729  11.534  1.00  0.00     0.064 A 
ATOM     95  C   UNL     1       1.498  13.431  11.482  1.00  0.00     0.173 A 
ATOM     96  C   UNL     1       1.402  15.566  12.569  1.00  0.00     0.173 A 
ATOM     97  F   UNL     1       1.201  12.598  10.476  1.00  0.00    -0.203 F 
ATOM     98  C   UNL     1       2.392  12.981  12.452  1.00  0.00     0.198 A 
ATOM     99  C   UNL     1       2.326  15.129  13.512  1.00  0.00     0.198 A 
ATOM    100  F   UNL     1       0.960  16.832  12.643  1.00  0.00    -0.203 F 
ATOM    101  F   UNL     1       2.870  11.729  12.397  1.00  0.00    -0.200 F 
ATOM    102  C   UNL     1       2.811  13.832  13.461  1.00  0.00     0.200 A 
ATOM    103  F   UNL     1       2.761  15.972  14.458  1.00  0.00    -0.200 F 
ATOM    104  F   UNL     1       3.698  13.412  14.373  1.00  0.00    -0.200 F 
ENDBRANCH  71  94
ENDBRANCH  45  46
ENDBRANCH  37  40
ENDBRANCH  35  36
ENDBRANCH  34  35
ENDBRANCH   1  34
TORSDOF 16
