REMARK SMILES Cc1ccc(C(=O)NCCCCNC(=O)c2ccc(-c3c4nc(c(-c5c(F)c(F)c(F)c(F)c5F)c5ccc([nH]5)c(-c5c(F)c(F)c(F)c(F)c5F)c5nc(c(-c6c(F)c(F)c(F)c(F)c6F)c6ccc3[nH]6)C=C5)C=C4)cc2)c2c1N[C@H](c1ccccc1F)[C@H]1CC=C[C@@H]21
REMARK SMILES IDX 11 1 10 2 9 3 8 4 6 5 7 6 5 8 1 9 2 10 3 11 80 12 4 13 79 14
REMARK SMILES IDX 81 15 94 16 82 17 90 19 93 20 91 21 92 22 83 23 84 24 88 25
REMARK SMILES IDX 85 26 87 27 89 28 86 29 12 30 13 31 14 32 15 34 16 35 17 36
REMARK SMILES IDX 78 37 18 38 77 39 19 40 20 41 21 42 71 43 22 44 76 45 70 46
REMARK SMILES IDX 72 47 23 48 75 49 69 50 68 51 24 53 56 54 36 55 55 56 37 57
REMARK SMILES IDX 40 58 54 59 73 60 38 61 39 62 53 64 74 65 41 66 25 67 26 68
REMARK SMILES IDX 34 69 27 70 28 71 32 72 35 73 29 74 30 75 33 76 31 77 57 78
REMARK SMILES IDX 58 79 66 80 59 81 60 82 64 83 67 84 61 85 62 86 65 87 63 88
REMARK SMILES IDX 42 89 43 90 51 91 44 92 45 93 49 94 52 95 46 96 47 97 50 98
REMARK SMILES IDX 48 99
REMARK H PARENT 8 7 81 18 13 33 72 52 40 63
REMARK Flexibility Score: inf
ROOT
ATOM      1  C   UNL     1      -1.195  -2.660   7.600  1.00  0.00     0.023 C 
ENDROOT
BRANCH   1   2
ATOM      2  C   UNL     1      -1.149  -2.478   6.080  1.00  0.00     0.023 C 
BRANCH   2   3
ATOM      3  C   UNL     1      -2.025  -1.337   5.552  1.00  0.00     0.116 C 
BRANCH   3   4
ATOM      4  N   UNL     1      -1.462  -0.061   5.937  1.00  0.00    -0.352 N 
ATOM      5  C   UNL     1      -0.537   0.782   5.372  1.00  0.00     0.251 C 
ATOM      6  O   UNL     1      -0.167   1.689   6.117  1.00  0.00    -0.269 OA
ATOM      7  H   UNL     1      -1.821   0.277   6.789  1.00  0.00     0.163 HD
BRANCH   5   8
ATOM      8  C   UNL     1      -0.009   0.656   3.963  1.00  0.00     0.045 A 
ATOM      9  C   UNL     1       1.392   0.146  -0.114  1.00  0.00     0.046 C 
ATOM     10  C   UNL     1       0.949   0.359   1.309  1.00  0.00    -0.028 A 
ATOM     11  C   UNL     1       0.511  -0.745   2.034  1.00  0.00     0.006 A 
ATOM     12  C   UNL     1       1.001   1.623   1.933  1.00  0.00     0.042 A 
ATOM     13  C   UNL     1       0.072  -0.597   3.345  1.00  0.00     0.014 A 
ATOM     14  C   UNL     1       0.491   1.787   3.249  1.00  0.00    -0.005 A 
ATOM     15  N   UNL     1       1.561   2.687   1.246  1.00  0.00    -0.377 N 
ATOM     16  C   UNL     1       0.572   3.160   3.887  1.00  0.00     0.050 C 
ATOM     17  C   UNL     1       1.323   4.067   1.630  1.00  0.00     0.117 C 
ATOM     18  H   UNL     1       2.139   2.502   0.471  1.00  0.00     0.161 HD
ATOM     19  C   UNL     1       1.441   4.205   3.154  1.00  0.00     0.031 C 
ATOM     20  C   UNL     1      -0.736   3.897   4.025  1.00  0.00    -0.023 C 
ATOM     21  C   UNL     1       0.873   5.552   3.640  1.00  0.00     0.034 C 
ATOM     22  C   UNL     1      -0.561   5.220   3.910  1.00  0.00    -0.030 C 
BRANCH  17  23
ATOM     23  C   UNL     1       2.229   4.949   0.776  1.00  0.00     0.010 A 
ATOM     24  C   UNL     1       1.925   5.084  -0.596  1.00  0.00     0.009 A 
ATOM     25  C   UNL     1       3.363   5.620   1.250  1.00  0.00     0.128 A 
ATOM     26  C   UNL     1       2.723   5.857  -1.444  1.00  0.00     0.001 A 
ATOM     27  C   UNL     1       4.159   6.397   0.408  1.00  0.00     0.039 A 
ATOM     28  F   UNL     1       3.728   5.554   2.536  1.00  0.00    -0.207 F 
ATOM     29  C   UNL     1       3.841   6.516  -0.941  1.00  0.00     0.003 A 
ENDBRANCH  17  23
ENDBRANCH   5   8
ENDBRANCH   3   4
ENDBRANCH   2   3
ENDBRANCH   1   2
BRANCH   1  30
ATOM     30  C   UNL     1      -2.568  -3.003   8.159  1.00  0.00     0.116 C 
BRANCH  30  31
ATOM     31  N   UNL     1      -3.134  -4.206   7.569  1.00  0.00    -0.352 N 
ATOM     32  C   UNL     1      -3.953  -5.130   8.168  1.00  0.00     0.251 C 
ATOM     33  H   UNL     1      -2.901  -4.378   6.628  1.00  0.00     0.163 HD
ATOM     34  O   UNL     1      -4.291  -6.152   7.588  1.00  0.00    -0.269 OA
BRANCH  32  35
ATOM     35  C   UNL     1      -4.387  -4.877   9.552  1.00  0.00     0.039 A 
ATOM     36  C   UNL     1      -4.049  -5.803  10.540  1.00  0.00     0.014 A 
ATOM     37  C   UNL     1      -5.063  -3.695   9.868  1.00  0.00     0.014 A 
ATOM     38  C   UNL     1      -4.352  -5.519  11.869  1.00  0.00     0.010 A 
ATOM     39  C   UNL     1      -5.326  -3.394  11.199  1.00  0.00     0.010 A 
ATOM     40  C   UNL     1      -4.974  -4.306  12.206  1.00  0.00    -0.014 A 
BRANCH  40  41
ATOM     41  C   UNL     1      -5.290  -3.993  13.616  1.00  0.00     0.031 A 
ATOM     42  C   UNL     1      -6.714  -4.042  14.082  1.00  0.00     0.074 A 
ATOM     43  C   UNL     1      -4.302  -3.642  14.458  1.00  0.00     0.049 A 
ATOM     44  N   UNL     1      -7.201  -3.809  15.273  1.00  0.00    -0.248 NA
ATOM     45  C   UNL     1      -7.727  -4.383  13.071  1.00  0.00     0.031 C 
ATOM     46  C   UNL     1      -2.888  -3.529  14.101  1.00  0.00     0.029 A 
ATOM     47  N   UNL     1      -4.339  -3.314  15.789  1.00  0.00    -0.354 N 
ATOM     48  C   UNL     1      -8.571  -3.984  15.156  1.00  0.00     0.074 A 
ATOM     49  C   UNL     1      -8.849  -4.285  13.769  1.00  0.00     0.031 C 
ATOM     50  C   UNL     1      -2.188  -3.180  15.193  1.00  0.00     0.029 A 
ATOM     51  C   UNL     1      -3.106  -3.027  16.319  1.00  0.00     0.049 A 
ATOM     52  H   UNL     1      -5.171  -3.287  16.315  1.00  0.00     0.167 HD
ATOM     53  C   UNL     1      -9.510  -3.928  16.129  1.00  0.00     0.037 A 
ATOM     54  C   UNL     1      -2.760  -2.688  17.575  1.00  0.00     0.037 A 
ATOM     55  C   UNL     1      -9.227  -3.641  17.508  1.00  0.00     0.049 A 
ATOM     56  C   UNL     1      -3.828  -2.602  18.631  1.00  0.00     0.074 A 
ATOM     57  C   UNL     1     -10.101  -3.603  18.579  1.00  0.00     0.029 A 
ATOM     58  N   UNL     1      -7.967  -3.340  18.006  1.00  0.00    -0.354 N 
ATOM     59  N   UNL     1      -5.114  -2.831  18.526  1.00  0.00    -0.248 NA
ATOM     60  C   UNL     1      -3.395  -2.215  19.982  1.00  0.00     0.031 C 
ATOM     61  C   UNL     1      -9.376  -3.248  19.721  1.00  0.00     0.029 A 
ATOM     62  C   UNL     1      -8.044  -3.097  19.366  1.00  0.00     0.049 A 
ATOM     63  H   UNL     1      -7.142  -3.304  17.470  1.00  0.00     0.167 HD
ATOM     64  C   UNL     1      -5.641  -2.639  19.794  1.00  0.00     0.074 A 
ATOM     65  C   UNL     1      -4.535  -2.282  20.658  1.00  0.00     0.031 C 
ATOM     66  C   UNL     1      -6.927  -2.750  20.206  1.00  0.00     0.037 A 
BRANCH  53  67
ATOM     67  C   UNL     1     -10.928  -4.204  15.733  1.00  0.00     0.064 A 
ATOM     68  C   UNL     1     -11.354  -5.504  15.422  1.00  0.00     0.173 A 
ATOM     69  C   UNL     1     -11.876  -3.173  15.697  1.00  0.00     0.173 A 
ATOM     70  F   UNL     1     -10.479  -6.521  15.429  1.00  0.00    -0.203 F 
ATOM     71  C   UNL     1     -12.675  -5.758  15.068  1.00  0.00     0.198 A 
ATOM     72  C   UNL     1     -13.202  -3.434  15.365  1.00  0.00     0.198 A 
ATOM     73  F   UNL     1     -11.517  -1.913  15.987  1.00  0.00    -0.203 F 
ATOM     74  F   UNL     1     -13.052  -7.001  14.737  1.00  0.00    -0.200 F 
ATOM     75  C   UNL     1     -13.600  -4.724  15.046  1.00  0.00     0.200 A 
ATOM     76  F   UNL     1     -14.097  -2.436  15.350  1.00  0.00    -0.200 F 
ATOM     77  F   UNL     1     -14.874  -4.971  14.711  1.00  0.00    -0.200 F 
ENDBRANCH  53  67
BRANCH  54  78
ATOM     78  C   UNL     1      -1.334  -2.453  17.909  1.00  0.00     0.064 A 
ATOM     79  C   UNL     1      -0.613  -3.391  18.661  1.00  0.00     0.173 A 
ATOM     80  C   UNL     1      -0.659  -1.304  17.474  1.00  0.00     0.173 A 
ATOM     81  F   UNL     1      -1.223  -4.496  19.114  1.00  0.00    -0.203 F 
ATOM     82  C   UNL     1       0.728  -3.184  18.974  1.00  0.00     0.198 A 
ATOM     83  C   UNL     1       0.688  -1.107  17.771  1.00  0.00     0.198 A 
ATOM     84  F   UNL     1      -1.306  -0.380  16.749  1.00  0.00    -0.203 F 
ATOM     85  F   UNL     1       1.387  -4.082  19.718  1.00  0.00    -0.200 F 
ATOM     86  C   UNL     1       1.379  -2.045  18.524  1.00  0.00     0.200 A 
ATOM     87  F   UNL     1       1.317  -0.010  17.327  1.00  0.00    -0.200 F 
ATOM     88  F   UNL     1       2.671  -1.849  18.820  1.00  0.00    -0.200 F 
ENDBRANCH  54  78
BRANCH  66  89
ATOM     89  C   UNL     1      -7.213  -2.499  21.655  1.00  0.00     0.064 A 
ATOM     90  C   UNL     1      -7.254  -1.198  22.174  1.00  0.00     0.173 A 
ATOM     91  C   UNL     1      -7.534  -3.563  22.511  1.00  0.00     0.173 A 
ATOM     92  F   UNL     1      -6.942  -0.151  21.395  1.00  0.00    -0.203 F 
ATOM     93  C   UNL     1      -7.603  -0.970  23.502  1.00  0.00     0.198 A 
ATOM     94  C   UNL     1      -7.903  -3.331  23.832  1.00  0.00     0.198 A 
ATOM     95  F   UNL     1      -7.514  -4.825  22.056  1.00  0.00    -0.203 F 
ATOM     96  F   UNL     1      -7.616   0.280  23.985  1.00  0.00    -0.200 F 
ATOM     97  C   UNL     1      -7.936  -2.035  24.326  1.00  0.00     0.200 A 
ATOM     98  F   UNL     1      -8.237  -4.359  24.624  1.00  0.00    -0.200 F 
ATOM     99  F   UNL     1      -8.289  -1.812  25.600  1.00  0.00    -0.200 F 
ENDBRANCH  66  89
ENDBRANCH  40  41
ENDBRANCH  32  35
ENDBRANCH  30  31
ENDBRANCH   1  30
TORSDOF 12
