REMARK SMILES CCN(CCC#N)C(=O)c1ccncc1/C=C/C(=O)NCCCCNC(=O)c1ccc(-c2c3nc(c(-c4c(F)c(F)c(F)c(F)c4F)c4ccc([nH]4)c(-c4c(F)c(F)c(F)c(F)c4F)c4nc(c(-c5c(F)c(F)c(F)c(F)c5F)c5ccc2[nH]5)C=C4)C=C3)cc1
REMARK SMILES IDX 18 1 19 2 20 3 17 5 16 6 15 7 10 8 11 9 12 10 14 11 13 12
REMARK SMILES IDX 8 13 9 14 3 15 2 16 1 17 4 18 5 19 6 20 7 21 21 22 22 23
REMARK SMILES IDX 23 24 24 25 25 26 26 27 27 29 28 30 29 31 90 32 30 33 89 34
REMARK SMILES IDX 31 35 32 36 33 37 83 38 34 39 88 40 82 41 84 42 35 43 87 44
REMARK SMILES IDX 81 45 80 46 36 48 68 49 48 50 67 51 49 52 52 53 66 54 85 55
REMARK SMILES IDX 50 56 51 57 65 59 86 60 53 61 37 62 38 63 46 64 39 65 40 66
REMARK SMILES IDX 44 67 47 68 41 69 42 70 45 71 43 72 69 73 70 74 78 75 71 76
REMARK SMILES IDX 72 77 76 78 79 79 73 80 74 81 77 82 75 83 54 84 55 85 63 86
REMARK SMILES IDX 56 87 57 88 61 89 64 90 58 91 59 92 62 93 60 94
REMARK H PARENT 20 4 25 28 84 47 52 58
REMARK Flexibility Score: inf
ROOT
ATOM      1  C   UNL     1       6.450  -3.397   1.363  1.00  0.00     0.244 C 
ATOM      2  O   UNL     1       7.323  -4.045   1.936  1.00  0.00    -0.270 OA
ATOM      3  N   UNL     1       6.183  -2.130   1.771  1.00  0.00    -0.353 N 
ATOM      4  H   UNL     1       6.723  -1.811   2.530  1.00  0.00     0.163 HD
ENDROOT
BRANCH   1   5
ATOM      5  C   UNL     1       5.793  -3.968   0.162  1.00  0.00     0.072 C 
ATOM      6  C   UNL     1       4.500  -3.859  -0.194  1.00  0.00     0.016 C 
BRANCH   6   7
ATOM      7  C   UNL     1       3.994  -4.371  -1.477  1.00  0.00     0.006 A 
ATOM      8  C   UNL     1       3.163  -3.641  -2.344  1.00  0.00     0.050 A 
ATOM      9  C   UNL     1       2.921  -4.131  -3.626  1.00  0.00     0.034 A 
ATOM     10  C   UNL     1       3.325  -5.411  -3.944  1.00  0.00     0.112 A 
ATOM     11  C   UNL     1       4.359  -5.649  -1.907  1.00  0.00     0.119 A 
ATOM     12  N   UNL     1       4.013  -6.194  -3.096  1.00  0.00    -0.264 NA
BRANCH   8  13
ATOM     13  C   UNL     1       2.609  -2.296  -2.025  1.00  0.00     0.254 C 
ATOM     14  O   UNL     1       3.406  -1.419  -1.698  1.00  0.00    -0.269 OA
BRANCH  13  15
ATOM     15  N   UNL     1       1.220  -2.056  -2.120  1.00  0.00    -0.338 N 
BRANCH  15  16
ATOM     16  C   UNL     1       0.750  -0.692  -1.821  1.00  0.00     0.116 C 
ATOM     17  C   UNL     1       0.917  -0.285  -0.363  1.00  0.00     0.027 C 
ENDBRANCH  15  16
BRANCH  15  18
ATOM     18  C   UNL     1       0.172  -3.075  -2.361  1.00  0.00     0.135 C 
BRANCH  18  19
ATOM     19  C   UNL     1      -0.671  -2.869  -3.635  1.00  0.00     0.141 C 
BRANCH  19  20
ATOM     20  C   UNL     1      -0.072  -3.443  -4.846  1.00  0.00     0.064 C 
ATOM     21  N   UNL     1       0.384  -3.902  -5.806  1.00  0.00    -0.198 NA
ENDBRANCH  19  20
ENDBRANCH  18  19
ENDBRANCH  15  18
ENDBRANCH  13  15
ENDBRANCH   8  13
ENDBRANCH   6   7
ENDBRANCH   1   5
BRANCH   3  22
ATOM     22  C   UNL     1       5.222  -1.176   1.258  1.00  0.00     0.116 C 
BRANCH  22  23
ATOM     23  C   UNL     1       3.970  -1.180   2.134  1.00  0.00     0.023 C 
BRANCH  23  24
ATOM     24  C   UNL     1       4.137  -0.417   3.446  1.00  0.00     0.023 C 
BRANCH  24  25
ATOM     25  C   UNL     1       4.527   1.042   3.271  1.00  0.00     0.116 C 
BRANCH  25  26
ATOM     26  N   UNL     1       3.582   1.794   2.458  1.00  0.00    -0.352 N 
ATOM     27  C   UNL     1       3.192   3.101   2.614  1.00  0.00     0.251 C 
ATOM     28  H   UNL     1       3.175   1.307   1.706  1.00  0.00     0.163 HD
ATOM     29  O   UNL     1       2.269   3.567   1.955  1.00  0.00    -0.269 OA
BRANCH  27  30
ATOM     30  C   UNL     1       3.886   3.928   3.621  1.00  0.00     0.039 A 
ATOM     31  C   UNL     1       3.130   4.683   4.517  1.00  0.00     0.014 A 
ATOM     32  C   UNL     1       5.281   3.912   3.706  1.00  0.00     0.014 A 
ATOM     33  C   UNL     1       3.778   5.393   5.527  1.00  0.00     0.010 A 
ATOM     34  C   UNL     1       5.914   4.532   4.775  1.00  0.00     0.010 A 
ATOM     35  C   UNL     1       5.173   5.302   5.681  1.00  0.00    -0.014 A 
BRANCH  35  36
ATOM     36  C   UNL     1       5.870   6.049   6.758  1.00  0.00     0.031 A 
ATOM     37  C   UNL     1       6.889   7.100   6.402  1.00  0.00     0.074 A 
ATOM     38  C   UNL     1       5.607   5.767   8.049  1.00  0.00     0.049 A 
ATOM     39  N   UNL     1       7.607   7.857   7.193  1.00  0.00    -0.248 NA
ATOM     40  C   UNL     1       7.161   7.312   4.969  1.00  0.00     0.031 C 
ATOM     41  C   UNL     1       4.684   4.731   8.518  1.00  0.00     0.029 A 
ATOM     42  N   UNL     1       6.092   6.327   9.204  1.00  0.00    -0.354 N 
ATOM     43  C   UNL     1       8.415   8.617   6.357  1.00  0.00     0.074 A 
ATOM     44  C   UNL     1       8.151   8.190   5.003  1.00  0.00     0.031 C 
ATOM     45  C   UNL     1       4.644   4.753   9.860  1.00  0.00     0.029 A 
ATOM     46  C   UNL     1       5.569   5.771  10.348  1.00  0.00     0.049 A 
ATOM     47  H   UNL     1       6.752   7.057   9.213  1.00  0.00     0.167 HD
ATOM     48  C   UNL     1       9.280   9.604   6.689  1.00  0.00     0.037 A 
ATOM     49  C   UNL     1       5.817   6.049  11.642  1.00  0.00     0.037 A 
ATOM     50  C   UNL     1       9.520  10.045   8.037  1.00  0.00     0.049 A 
ATOM     51  C   UNL     1       6.785   7.155  11.977  1.00  0.00     0.074 A 
ATOM     52  C   UNL     1      10.328  11.080   8.472  1.00  0.00     0.029 A 
ATOM     53  N   UNL     1       8.959   9.471   9.167  1.00  0.00    -0.354 N 
ATOM     54  N   UNL     1       7.480   7.924  11.174  1.00  0.00    -0.248 NA
ATOM     55  C   UNL     1       6.990   7.443  13.403  1.00  0.00     0.031 C 
ATOM     56  C   UNL     1      10.315  11.085   9.869  1.00  0.00     0.029 A 
ATOM     57  C   UNL     1       9.427  10.114  10.302  1.00  0.00     0.049 A 
ATOM     58  H   UNL     1       8.322   8.720   9.164  1.00  0.00     0.167 HD
ATOM     59  C   UNL     1       8.165   8.813  11.992  1.00  0.00     0.074 A 
ATOM     60  C   UNL     1       7.787   8.499  13.353  1.00  0.00     0.031 C 
ATOM     61  C   UNL     1       9.027   9.802  11.650  1.00  0.00     0.037 A 
BRANCH  48  62
ATOM     62  C   UNL     1      10.039  10.279   5.582  1.00  0.00     0.064 A 
ATOM     63  C   UNL     1       9.406  11.115   4.650  1.00  0.00     0.173 A 
ATOM     64  C   UNL     1      11.434  10.144   5.499  1.00  0.00     0.173 A 
ATOM     65  F   UNL     1       8.073  11.268   4.674  1.00  0.00    -0.203 F 
ATOM     66  C   UNL     1      10.138  11.778   3.668  1.00  0.00     0.198 A 
ATOM     67  C   UNL     1      12.166  10.837   4.539  1.00  0.00     0.198 A 
ATOM     68  F   UNL     1      12.091   9.358   6.366  1.00  0.00    -0.203 F 
ATOM     69  F   UNL     1       9.507  12.540   2.764  1.00  0.00    -0.200 F 
ATOM     70  C   UNL     1      11.518  11.649   3.622  1.00  0.00     0.200 A 
ATOM     71  F   UNL     1      13.501  10.724   4.508  1.00  0.00    -0.200 F 
ATOM     72  F   UNL     1      12.223  12.307   2.692  1.00  0.00    -0.200 F 
ENDBRANCH  48  62
BRANCH  49  73
ATOM     73  C   UNL     1       5.143   5.279  12.724  1.00  0.00     0.064 A 
ATOM     74  C   UNL     1       4.257   5.899  13.619  1.00  0.00     0.173 A 
ATOM     75  C   UNL     1       5.415   3.917  12.922  1.00  0.00     0.173 A 
ATOM     76  F   UNL     1       3.973   7.203  13.485  1.00  0.00    -0.203 F 
ATOM     77  C   UNL     1       3.715   5.202  14.697  1.00  0.00     0.198 A 
ATOM     78  C   UNL     1       4.839   3.211  13.975  1.00  0.00     0.198 A 
ATOM     79  F   UNL     1       6.245   3.270  12.091  1.00  0.00    -0.203 F 
ATOM     80  F   UNL     1       2.939   5.841  15.583  1.00  0.00    -0.200 F 
ATOM     81  C   UNL     1       4.004   3.857  14.873  1.00  0.00     0.200 A 
ATOM     82  F   UNL     1       5.105   1.906  14.128  1.00  0.00    -0.200 F 
ATOM     83  F   UNL     1       3.490   3.190  15.915  1.00  0.00    -0.200 F 
ENDBRANCH  49  73
BRANCH  61  84
ATOM     84  C   UNL     1       9.560  10.668  12.758  1.00  0.00     0.064 A 
ATOM     85  C   UNL     1      10.424  10.174  13.747  1.00  0.00     0.173 A 
ATOM     86  C   UNL     1       9.202  12.025  12.822  1.00  0.00     0.173 A 
ATOM     87  F   UNL     1      10.793   8.884  13.739  1.00  0.00    -0.203 F 
ATOM     88  C   UNL     1      10.863  10.990  14.787  1.00  0.00     0.198 A 
ATOM     89  C   UNL     1       9.681  12.848  13.836  1.00  0.00     0.198 A 
ATOM     90  F   UNL     1       8.392  12.556  11.894  1.00  0.00    -0.203 F 
ATOM     91  F   UNL     1      11.620  10.474  15.765  1.00  0.00    -0.200 F 
ATOM     92  C   UNL     1      10.496  12.326  14.828  1.00  0.00     0.200 A 
ATOM     93  F   UNL     1       9.345  14.145  13.858  1.00  0.00    -0.200 F 
ATOM     94  F   UNL     1      10.920  13.109  15.829  1.00  0.00    -0.200 F 
ENDBRANCH  61  84
ENDBRANCH  35  36
ENDBRANCH  27  30
ENDBRANCH  25  26
ENDBRANCH  24  25
ENDBRANCH  23  24
ENDBRANCH  22  23
ENDBRANCH   3  22
TORSDOF 18
