REMARK SMILES O=C(NCCCCNC(=O)[C@@]1([NH2+]C2CC2)CC[C@@H]([N@@H+]2CC[N@@H+]3CCC[C@@H]3C2)C1)c1ccc(-c2c3nc(c(-c4c(F)c(F)c(F)c(F)c4F)c4ccc([nH]4)c(-c4c(F)c(F)c(F)c(F)c4F)c4nc(c(-c5c(F)c(F)c(F)c(F)c5F)c5ccc2[nH]5)C=C4)C=C3)cc1
REMARK SMILES IDX 5 1 4 2 3 3 1 4 2 5 29 7 30 8 91 9 31 10 90 11 32 12 33 13
REMARK SMILES IDX 34 14 84 15 35 16 89 17 83 18 85 19 36 20 88 21 82 22 81 23
REMARK SMILES IDX 37 25 69 26 49 27 68 28 50 29 53 30 67 31 86 32 51 33 52 34
REMARK SMILES IDX 66 36 87 37 54 38 38 39 39 40 47 41 40 42 41 43 45 44 48 45
REMARK SMILES IDX 42 46 43 47 46 48 44 49 70 50 71 51 79 52 72 53 73 54 77 55
REMARK SMILES IDX 80 56 74 57 75 58 78 59 76 60 55 61 56 62 64 63 57 64 58 65
REMARK SMILES IDX 62 66 65 67 59 68 60 69 63 70 61 71 6 72 7 73 8 74 9 75
REMARK SMILES IDX 10 77 11 78 16 79 28 80 17 81 18 82 12 83 13 86 14 87 15 88
REMARK SMILES IDX 19 89 20 90 27 91 21 93 26 94 22 95 25 96 23 97 24 99
REMARK H PARENT 3 6 85 24 53 35 8 76 12 84 12 85 19 92 22 98
REMARK Flexibility Score: inf
ROOT
ATOM      1  C   UNL     1       5.284  -1.974   1.298  1.00  0.00     0.023 C 
ENDROOT
BRANCH   1   2
ATOM      2  C   UNL     1       4.769  -1.371  -0.008  1.00  0.00     0.116 C 
BRANCH   2   3
ATOM      3  N   UNL     1       3.324  -1.201  -0.058  1.00  0.00    -0.352 N 
ATOM      4  O   UNL     1       1.310  -0.208   0.104  1.00  0.00    -0.269 OA
ATOM      5  C   UNL     1       2.530  -0.089   0.116  1.00  0.00     0.251 C 
ATOM      6  H   UNL     1       2.826  -2.027  -0.252  1.00  0.00     0.163 HD
BRANCH   5   7
ATOM      7  C   UNL     1       3.125   1.245   0.370  1.00  0.00     0.039 A 
ATOM      8  C   UNL     1       4.203   1.722  -0.373  1.00  0.00     0.014 A 
ATOM      9  C   UNL     1       2.568   2.051   1.370  1.00  0.00     0.014 A 
ATOM     10  C   UNL     1       4.850   2.893   0.015  1.00  0.00     0.010 A 
ATOM     11  C   UNL     1       3.159   3.277   1.696  1.00  0.00     0.010 A 
ATOM     12  C   UNL     1       4.343   3.681   1.062  1.00  0.00    -0.014 A 
BRANCH  12  13
ATOM     13  C   UNL     1       5.069   4.914   1.471  1.00  0.00     0.031 A 
ATOM     14  C   UNL     1       5.682   5.032   2.841  1.00  0.00     0.074 A 
ATOM     15  C   UNL     1       5.220   5.917   0.584  1.00  0.00     0.049 A 
ATOM     16  N   UNL     1       6.386   6.013   3.352  1.00  0.00    -0.248 NA
ATOM     17  C   UNL     1       5.473   3.906   3.764  1.00  0.00     0.031 C 
ATOM     18  C   UNL     1       4.670   5.928  -0.772  1.00  0.00     0.029 A 
ATOM     19  N   UNL     1       5.898   7.106   0.679  1.00  0.00    -0.354 N 
ATOM     20  C   UNL     1       6.680   5.635   4.656  1.00  0.00     0.074 A 
ATOM     21  C   UNL     1       6.056   4.347   4.870  1.00  0.00     0.031 C 
ATOM     22  C   UNL     1       5.078   7.040  -1.401  1.00  0.00     0.029 A 
ATOM     23  C   UNL     1       5.869   7.846  -0.477  1.00  0.00     0.049 A 
ATOM     24  H   UNL     1       6.361   7.399   1.497  1.00  0.00     0.167 HD
ATOM     25  C   UNL     1       7.411   6.297   5.587  1.00  0.00     0.037 A 
ATOM     26  C   UNL     1       6.413   9.044  -0.762  1.00  0.00     0.037 A 
ATOM     27  C   UNL     1       8.055   7.566   5.366  1.00  0.00     0.049 A 
ATOM     28  C   UNL     1       7.205   9.763   0.291  1.00  0.00     0.074 A 
ATOM     29  C   UNL     1       8.855   8.292   6.232  1.00  0.00     0.029 A 
ATOM     30  N   UNL     1       7.969   8.303   4.193  1.00  0.00    -0.354 N 
ATOM     31  N   UNL     1       7.502   9.379   1.508  1.00  0.00    -0.248 NA
ATOM     32  C   UNL     1       7.734  11.085  -0.069  1.00  0.00     0.031 C 
ATOM     33  C   UNL     1       9.215   9.488   5.600  1.00  0.00     0.029 A 
ATOM     34  C   UNL     1       8.681   9.486   4.322  1.00  0.00     0.049 A 
ATOM     35  H   UNL     1       7.475   8.025   3.388  1.00  0.00     0.167 HD
ATOM     36  C   UNL     1       8.266  10.400   2.054  1.00  0.00     0.074 A 
ATOM     37  C   UNL     1       8.401  11.414   1.029  1.00  0.00     0.031 C 
ATOM     38  C   UNL     1       8.807  10.488   3.294  1.00  0.00     0.037 A 
BRANCH  25  39
ATOM     39  C   UNL     1       7.537   5.668   6.946  1.00  0.00     0.064 A 
ATOM     40  C   UNL     1       8.313   4.520   7.163  1.00  0.00     0.173 A 
ATOM     41  C   UNL     1       6.894   6.242   8.054  1.00  0.00     0.173 A 
ATOM     42  F   UNL     1       8.940   3.925   6.136  1.00  0.00    -0.203 F 
ATOM     43  C   UNL     1       8.416   3.952   8.431  1.00  0.00     0.198 A 
ATOM     44  C   UNL     1       7.022   5.688   9.325  1.00  0.00     0.198 A 
ATOM     45  F   UNL     1       6.146   7.345   7.905  1.00  0.00    -0.203 F 
ATOM     46  F   UNL     1       9.123   2.826   8.604  1.00  0.00    -0.200 F 
ATOM     47  C   UNL     1       7.775   4.539   9.511  1.00  0.00     0.200 A 
ATOM     48  F   UNL     1       6.412   6.264  10.371  1.00  0.00    -0.200 F 
ATOM     49  F   UNL     1       7.877   3.992  10.731  1.00  0.00    -0.200 F 
ENDBRANCH  25  39
BRANCH  26  50
ATOM     50  C   UNL     1       6.234   9.623  -2.118  1.00  0.00     0.064 A 
ATOM     51  C   UNL     1       7.310   9.706  -3.011  1.00  0.00     0.173 A 
ATOM     52  C   UNL     1       4.981  10.072  -2.558  1.00  0.00     0.173 A 
ATOM     53  F   UNL     1       8.532   9.307  -2.627  1.00  0.00    -0.203 F 
ATOM     54  C   UNL     1       7.140  10.221  -4.294  1.00  0.00     0.198 A 
ATOM     55  C   UNL     1       4.806  10.561  -3.850  1.00  0.00     0.198 A 
ATOM     56  F   UNL     1       3.920  10.010  -1.740  1.00  0.00    -0.203 F 
ATOM     57  F   UNL     1       8.190  10.316  -5.120  1.00  0.00    -0.200 F 
ATOM     58  C   UNL     1       5.886  10.639  -4.716  1.00  0.00     0.200 A 
ATOM     59  F   UNL     1       3.590  10.950  -4.258  1.00  0.00    -0.200 F 
ATOM     60  F   UNL     1       5.720  11.120  -5.955  1.00  0.00    -0.200 F 
ENDBRANCH  26  50
BRANCH  38  61
ATOM     61  C   UNL     1       9.619  11.711   3.600  1.00  0.00     0.064 A 
ATOM     62  C   UNL     1       9.017  12.963   3.799  1.00  0.00     0.173 A 
ATOM     63  C   UNL     1      11.014  11.626   3.720  1.00  0.00     0.173 A 
ATOM     64  F   UNL     1       7.688  13.099   3.678  1.00  0.00    -0.203 F 
ATOM     65  C   UNL     1       9.786  14.089   4.080  1.00  0.00     0.198 A 
ATOM     66  C   UNL     1      11.777  12.749   4.028  1.00  0.00     0.198 A 
ATOM     67  F   UNL     1      11.637  10.451   3.544  1.00  0.00    -0.203 F 
ATOM     68  F   UNL     1       9.194  15.284   4.218  1.00  0.00    -0.200 F 
ATOM     69  C   UNL     1      11.163  13.980   4.200  1.00  0.00     0.200 A 
ATOM     70  F   UNL     1      13.107  12.640   4.154  1.00  0.00    -0.200 F 
ATOM     71  F   UNL     1      11.901  15.065   4.473  1.00  0.00    -0.200 F 
ENDBRANCH  38  61
ENDBRANCH  12  13
ENDBRANCH   5   7
ENDBRANCH   2   3
ENDBRANCH   1   2
BRANCH   1  72
ATOM     72  C   UNL     1       4.946  -3.446   1.567  1.00  0.00     0.023 C 
BRANCH  72  73
ATOM     73  C   UNL     1       5.066  -4.398   0.377  1.00  0.00     0.116 C 
BRANCH  73  74
ATOM     74  N   UNL     1       6.354  -4.391  -0.287  1.00  0.00    -0.351 N 
ATOM     75  C   UNL     1       6.747  -5.068  -1.413  1.00  0.00     0.281 C 
ATOM     76  H   UNL     1       7.041  -3.821   0.127  1.00  0.00     0.163 HD
ATOM     77  O   UNL     1       7.832  -4.718  -1.896  1.00  0.00    -0.268 OA
BRANCH  75  78
ATOM     78  C   UNL     1       5.971  -6.292  -1.996  1.00  0.00     0.181 C 
ATOM     79  C   UNL     1       6.389  -6.643  -3.439  1.00  0.00     0.085 C 
ATOM     80  C   UNL     1       6.500  -7.573  -1.270  1.00  0.00     0.144 C 
ATOM     81  C   UNL     1       5.959  -8.096  -3.599  1.00  0.00     0.072 C 
ATOM     82  C   UNL     1       6.393  -8.752  -2.278  1.00  0.00     0.191 C 
BRANCH  78  83
ATOM     83  N   UNL     1       4.497  -6.200  -1.865  1.00  0.00    -0.331 N 
ATOM     84  H   UNL     1       4.300  -6.158  -0.865  1.00  0.00     0.347 HD
ATOM     85  H   UNL     1       4.181  -7.011  -2.395  1.00  0.00     0.347 HD
BRANCH  83  86
ATOM     86  C   UNL     1       3.734  -5.107  -2.482  1.00  0.00     0.183 C 
ATOM     87  C   UNL     1       4.322  -4.011  -3.322  1.00  0.00     0.071 C 
ATOM     88  C   UNL     1       3.442  -5.056  -3.951  1.00  0.00     0.071 C 
ENDBRANCH  83  86
ENDBRANCH  78  83
BRANCH  82  89
ATOM     89  N   UNL     1       7.582  -9.586  -2.464  1.00  0.00    -0.323 N 
ATOM     90  C   UNL     1       7.954 -10.450  -1.333  1.00  0.00     0.324 C 
ATOM     91  C   UNL     1       8.752  -9.000  -3.119  1.00  0.00     0.328 C 
ATOM     92  H   UNL     1       7.198 -10.199  -3.183  1.00  0.00     0.348 HD
ATOM     93  C   UNL     1       9.464 -10.846  -1.262  1.00  0.00     0.324 C 
ATOM     94  C   UNL     1       9.693 -10.127  -3.594  1.00  0.00     0.240 C 
ATOM     95  N   UNL     1      10.108 -11.095  -2.559  1.00  0.00    -0.323 N 
ATOM     96  C   UNL     1      10.974  -9.588  -4.225  1.00  0.00     0.077 C 
ATOM     97  C   UNL     1      11.573 -11.082  -2.492  1.00  0.00     0.263 C 
ATOM     98  H   UNL     1       9.794 -12.031  -2.815  1.00  0.00     0.348 HD
ATOM     99  C   UNL     1      12.003 -10.646  -3.883  1.00  0.00     0.068 C 
ENDBRANCH  82  89
ENDBRANCH  75  78
ENDBRANCH  73  74
ENDBRANCH  72  73
ENDBRANCH   1  72
TORSDOF 14
