REMARK SMILES COc1ccsc1CN(Cc1ccccc1)C(=O)/C=C/C(=O)NCCCCNC(=O)c1ccc(-c2c3nc(c(-c4c(F)c(F)c(F)c(F)c4F)c4ccc([nH]4)c(-c4c(F)c(F)c(F)c(F)c4F)c4nc(c(-c5c(F)c(F)c(F)c(F)c5F)c5ccc2[nH]5)C=C4)C=C3)cc1
REMARK SMILES IDX 24 1 23 2 21 3 22 4 20 6 19 7 17 8 18 9 9 10 8 11 7 12 3 13
REMARK SMILES IDX 4 14 5 15 6 16 2 17 1 18 10 19 11 20 12 21 16 22 13 23 15 24
REMARK SMILES IDX 14 25 25 26 26 27 27 28 28 29 29 30 30 32 31 33 32 34 93 35
REMARK SMILES IDX 33 36 92 37 34 38 35 39 36 40 86 41 37 42 91 43 85 44 87 45
REMARK SMILES IDX 38 46 90 47 84 48 83 49 39 51 71 52 51 53 70 54 52 55 55 56
REMARK SMILES IDX 69 57 88 58 53 59 54 60 68 62 89 63 56 64 40 65 41 66 49 67
REMARK SMILES IDX 42 68 43 69 47 70 50 71 44 72 45 73 48 74 46 75 72 76 73 77
REMARK SMILES IDX 81 78 74 79 75 80 79 81 82 82 76 83 77 84 80 85 78 86 57 87
REMARK SMILES IDX 58 88 66 89 59 90 60 91 64 92 67 93 61 94 62 95 65 96 63 97
REMARK H PARENT 23 5 28 31 87 50 55 61
REMARK Flexibility Score: inf
ROOT
ATOM      1  C   UNL     1      -3.859  -3.700   4.773  1.00  0.00     0.116 C 
ENDROOT
BRANCH   1   2
ATOM      2  N   UNL     1      -4.513  -2.976   5.846  1.00  0.00    -0.353 N 
ATOM      3  C   UNL     1      -4.290  -1.748   6.382  1.00  0.00     0.244 C 
ATOM      4  O   UNL     1      -4.879  -1.444   7.419  1.00  0.00    -0.270 OA
ATOM      5  H   UNL     1      -5.257  -3.466   6.265  1.00  0.00     0.163 HD
BRANCH   3   6
ATOM      6  C   UNL     1      -3.507  -0.702   5.681  1.00  0.00     0.077 C 
ATOM      7  C   UNL     1      -2.527  -0.878   4.792  1.00  0.00     0.077 C 
BRANCH   7   8
ATOM      8  C   UNL     1      -1.889   0.014   3.784  1.00  0.00     0.247 C 
ATOM      9  O   UNL     1      -1.027  -0.555   3.104  1.00  0.00    -0.270 OA
BRANCH   8  10
ATOM     10  N   UNL     1      -2.280   1.317   3.534  1.00  0.00    -0.330 N 
BRANCH  10  11
ATOM     11  C   UNL     1      -1.496   2.075   2.541  1.00  0.00     0.170 C 
BRANCH  11  12
ATOM     12  C   UNL     1      -0.011   2.018   2.791  1.00  0.00     0.066 A 
ATOM     13  C   UNL     1       0.968   1.639   1.895  1.00  0.00     0.134 A 
ATOM     14  C   UNL     1       2.259   1.558   2.487  1.00  0.00     0.058 A 
ATOM     15  C   UNL     1       2.230   1.906   3.819  1.00  0.00     0.069 A 
ATOM     16  S   UNL     1       0.666   2.387   4.326  1.00  0.00    -0.143 S 
BRANCH  13  17
ATOM     17  O   UNL     1       0.652   1.399   0.599  1.00  0.00    -0.496 OA
ATOM     18  C   UNL     1       1.100   0.123   0.155  1.00  0.00     0.278 C 
ENDBRANCH  13  17
ENDBRANCH  11  12
ENDBRANCH  10  11
BRANCH  10  19
ATOM     19  C   UNL     1      -3.445   2.017   4.076  1.00  0.00     0.155 C 
BRANCH  19  20
ATOM     20  C   UNL     1      -4.832   1.544   3.659  1.00  0.00    -0.029 A 
ATOM     21  C   UNL     1      -5.922   2.378   3.971  1.00  0.00     0.005 A 
ATOM     22  C   UNL     1      -5.118   0.286   3.106  1.00  0.00     0.005 A 
ATOM     23  C   UNL     1      -7.240   1.948   3.795  1.00  0.00     0.000 A 
ATOM     24  C   UNL     1      -6.437  -0.163   2.974  1.00  0.00     0.000 A 
ATOM     25  C   UNL     1      -7.497   0.665   3.324  1.00  0.00     0.000 A 
ENDBRANCH  19  20
ENDBRANCH  10  19
ENDBRANCH   8  10
ENDBRANCH   7   8
ENDBRANCH   3   6
ENDBRANCH   1   2
BRANCH   1  26
ATOM     26  C   UNL     1      -2.613  -4.403   5.318  1.00  0.00     0.023 C 
BRANCH  26  27
ATOM     27  C   UNL     1      -2.938  -5.589   6.231  1.00  0.00     0.023 C 
BRANCH  27  28
ATOM     28  C   UNL     1      -3.683  -6.720   5.540  1.00  0.00     0.116 C 
BRANCH  28  29
ATOM     29  N   UNL     1      -2.950  -7.268   4.411  1.00  0.00    -0.352 N 
ATOM     30  C   UNL     1      -2.907  -8.569   3.974  1.00  0.00     0.251 C 
ATOM     31  H   UNL     1      -2.416  -6.623   3.893  1.00  0.00     0.163 HD
ATOM     32  O   UNL     1      -2.134  -8.908   3.093  1.00  0.00    -0.269 OA
BRANCH  30  33
ATOM     33  C   UNL     1      -3.794  -9.562   4.611  1.00  0.00     0.039 A 
ATOM     34  C   UNL     1      -3.252 -10.782   5.021  1.00  0.00     0.014 A 
ATOM     35  C   UNL     1      -5.147  -9.279   4.818  1.00  0.00     0.014 A 
ATOM     36  C   UNL     1      -4.065 -11.708   5.673  1.00  0.00     0.010 A 
ATOM     37  C   UNL     1      -5.933 -10.166   5.541  1.00  0.00     0.010 A 
ATOM     38  C   UNL     1      -5.406 -11.399   5.955  1.00  0.00    -0.014 A 
BRANCH  38  39
ATOM     39  C   UNL     1      -6.289 -12.375   6.637  1.00  0.00     0.031 A 
ATOM     40  C   UNL     1      -7.478 -12.938   5.908  1.00  0.00     0.074 A 
ATOM     41  C   UNL     1      -6.051 -12.716   7.918  1.00  0.00     0.049 A 
ATOM     42  N   UNL     1      -8.402 -13.760   6.337  1.00  0.00    -0.248 NA
ATOM     43  C   UNL     1      -7.674 -12.491   4.519  1.00  0.00     0.031 C 
ATOM     44  C   UNL     1      -4.957 -12.200   8.742  1.00  0.00     0.029 A 
ATOM     45  N   UNL     1      -6.719 -13.576   8.752  1.00  0.00    -0.354 N 
ATOM     46  C   UNL     1      -9.290 -13.913   5.281  1.00  0.00     0.074 A 
ATOM     47  C   UNL     1      -8.835 -13.049   4.215  1.00  0.00     0.031 C 
ATOM     48  C   UNL     1      -5.013 -12.773   9.954  1.00  0.00     0.029 A 
ATOM     49  C   UNL     1      -6.165 -13.668  10.005  1.00  0.00     0.049 A 
ATOM     50  H   UNL     1      -7.520 -14.079   8.478  1.00  0.00     0.167 HD
ATOM     51  C   UNL     1     -10.370 -14.725   5.196  1.00  0.00     0.037 A 
ATOM     52  C   UNL     1      -6.549 -14.394  11.072  1.00  0.00     0.037 A 
ATOM     53  C   UNL     1     -10.800 -15.603   6.251  1.00  0.00     0.049 A 
ATOM     54  C   UNL     1      -7.753 -15.290  10.951  1.00  0.00     0.074 A 
ATOM     55  C   UNL     1     -11.850 -16.503   6.251  1.00  0.00     0.029 A 
ATOM     56  N   UNL     1     -10.198 -15.689   7.498  1.00  0.00    -0.354 N 
ATOM     57  N   UNL     1      -8.547 -15.479   9.925  1.00  0.00    -0.248 NA
ATOM     58  C   UNL     1      -8.106 -16.085  12.136  1.00  0.00     0.031 C 
ATOM     59  C   UNL     1     -11.915 -17.098   7.516  1.00  0.00     0.029 A 
ATOM     60  C   UNL     1     -10.866 -16.616   8.282  1.00  0.00     0.049 A 
ATOM     61  H   UNL     1      -9.413 -15.168   7.784  1.00  0.00     0.167 HD
ATOM     62  C   UNL     1      -9.466 -16.441  10.324  1.00  0.00     0.074 A 
ATOM     63  C   UNL     1      -9.124 -16.804  11.684  1.00  0.00     0.031 C 
ATOM     64  C   UNL     1     -10.498 -16.978   9.627  1.00  0.00     0.037 A 
BRANCH  51  65
ATOM     65  C   UNL     1     -11.157 -14.701   3.916  1.00  0.00     0.064 A 
ATOM     66  C   UNL     1     -10.626 -15.193   2.713  1.00  0.00     0.173 A 
ATOM     67  C   UNL     1     -12.469 -14.204   3.896  1.00  0.00     0.173 A 
ATOM     68  F   UNL     1      -9.371 -15.668   2.673  1.00  0.00    -0.203 F 
ATOM     69  C   UNL     1     -11.364 -15.155   1.534  1.00  0.00     0.198 A 
ATOM     70  C   UNL     1     -13.217 -14.200   2.721  1.00  0.00     0.198 A 
ATOM     71  F   UNL     1     -13.029 -13.725   5.017  1.00  0.00    -0.203 F 
ATOM     72  F   UNL     1     -10.812 -15.576   0.387  1.00  0.00    -0.200 F 
ATOM     73  C   UNL     1     -12.661 -14.666   1.540  1.00  0.00     0.200 A 
ATOM     74  F   UNL     1     -14.476 -13.740   2.732  1.00  0.00    -0.200 F 
ATOM     75  F   UNL     1     -13.373 -14.636   0.405  1.00  0.00    -0.200 F 
ENDBRANCH  51  65
BRANCH  52  76
ATOM     76  C   UNL     1      -5.767 -14.333  12.335  1.00  0.00     0.064 A 
ATOM     77  C   UNL     1      -5.031 -15.440  12.781  1.00  0.00     0.173 A 
ATOM     78  C   UNL     1      -5.747 -13.176  13.128  1.00  0.00     0.173 A 
ATOM     79  F   UNL     1      -5.032 -16.576  12.068  1.00  0.00    -0.203 F 
ATOM     80  C   UNL     1      -4.329 -15.402  13.985  1.00  0.00     0.198 A 
ATOM     81  C   UNL     1      -5.020 -13.129  14.315  1.00  0.00     0.198 A 
ATOM     82  F   UNL     1      -6.428 -12.087  12.743  1.00  0.00    -0.203 F 
ATOM     83  F   UNL     1      -3.679 -16.493  14.413  1.00  0.00    -0.200 F 
ATOM     84  C   UNL     1      -4.320 -14.245  14.748  1.00  0.00     0.200 A 
ATOM     85  F   UNL     1      -5.001 -12.003  15.042  1.00  0.00    -0.200 F 
ATOM     86  F   UNL     1      -3.645 -14.208  15.905  1.00  0.00    -0.200 F 
ENDBRANCH  52  76
BRANCH  64  87
ATOM     87  C   UNL     1     -11.295 -18.060  10.299  1.00  0.00     0.064 A 
ATOM     88  C   UNL     1     -12.152 -17.792  11.376  1.00  0.00     0.173 A 
ATOM     89  C   UNL     1     -11.226 -19.381   9.828  1.00  0.00     0.173 A 
ATOM     90  F   UNL     1     -12.245 -16.549  11.872  1.00  0.00    -0.203 F 
ATOM     91  C   UNL     1     -12.885 -18.812  11.978  1.00  0.00     0.198 A 
ATOM     92  C   UNL     1     -11.986 -20.390  10.409  1.00  0.00     0.198 A 
ATOM     93  F   UNL     1     -10.429 -19.689   8.793  1.00  0.00    -0.203 F 
ATOM     94  F   UNL     1     -13.654 -18.543  13.041  1.00  0.00    -0.200 F 
ATOM     95  C   UNL     1     -12.808 -20.107  11.489  1.00  0.00     0.200 A 
ATOM     96  F   UNL     1     -11.924 -21.638   9.923  1.00  0.00    -0.200 F 
ATOM     97  F   UNL     1     -13.520 -21.086  12.065  1.00  0.00    -0.200 F 
ENDBRANCH  64  87
ENDBRANCH  38  39
ENDBRANCH  30  33
ENDBRANCH  28  29
ENDBRANCH  27  28
ENDBRANCH  26  27
ENDBRANCH   1  26
TORSDOF 18
