REMARK SMILES CC[C@](C)(C(=O)NCCCCNC(=O)c1ccc(-c2c3nc(c(-c4c(F)c(F)c(F)c(F)c4F)c4ccc([nH]4)c(-c4c(F)c(F)c(F)c(F)c4F)c4nc(c(-c5c(F)c(F)c(F)c(F)c5F)c5ccc2[nH]5)C=C4)C=C3)cc1)n1nnnc1-c1ccco1
REMARK SMILES IDX 9 1 8 2 7 3 5 4 6 5 3 7 4 8 2 9 1 10 78 11 79 12 82 13 80 14
REMARK SMILES IDX 81 15 83 16 84 17 87 18 85 19 86 20 10 21 11 22 12 23 13 24
REMARK SMILES IDX 14 26 15 27 16 28 77 29 17 30 76 31 18 32 19 33 20 34 70 35
REMARK SMILES IDX 21 36 75 37 69 38 71 39 22 40 74 41 68 42 67 43 23 45 55 46
REMARK SMILES IDX 35 47 54 48 36 49 39 50 53 51 72 52 37 53 38 54 52 56 73 57
REMARK SMILES IDX 40 58 24 59 25 60 33 61 26 62 27 63 31 64 34 65 28 66 29 67
REMARK SMILES IDX 32 68 30 69 56 70 57 71 65 72 58 73 59 74 63 75 66 76 60 77
REMARK SMILES IDX 61 78 64 79 62 80 41 81 42 82 50 83 43 84 44 85 48 86 51 87
REMARK SMILES IDX 45 88 46 89 49 90 47 91
REMARK H PARENT 7 6 12 25 71 44 39 55
REMARK Flexibility Score: inf
ROOT
ATOM      1  C   UNL     1      -2.769   2.729   1.064  1.00  0.00     0.023 C 
ENDROOT
BRANCH   1   2
ATOM      2  C   UNL     1      -1.940   3.132  -0.153  1.00  0.00     0.116 C 
BRANCH   2   3
ATOM      3  N   UNL     1      -0.791   3.951   0.215  1.00  0.00    -0.354 N 
ATOM      4  C   UNL     1       0.563   3.691   0.197  1.00  0.00     0.247 C 
ATOM      5  O   UNL     1       1.260   4.533   0.765  1.00  0.00    -0.272 OA
ATOM      6  H   UNL     1      -1.025   4.853   0.533  1.00  0.00     0.163 HD
BRANCH   4   7
ATOM      7  C   UNL     1       1.117   2.391  -0.474  1.00  0.00     0.142 C 
ATOM      8  C   UNL     1       0.472   1.239   0.338  1.00  0.00     0.048 C 
BRANCH   7   9
ATOM      9  C   UNL     1       0.703   2.490  -1.983  1.00  0.00     0.037 C 
ATOM     10  C   UNL     1       0.930   1.266  -2.851  1.00  0.00     0.007 C 
ENDBRANCH   7   9
BRANCH   7  11
ATOM     11  N   UNL     1       2.599   2.323  -0.427  1.00  0.00    -0.207 N 
ATOM     12  N   UNL     1       3.331   3.433  -0.689  1.00  0.00    -0.044 NA
ATOM     13  C   UNL     1       3.464   1.238  -0.454  1.00  0.00     0.218 A 
ATOM     14  N   UNL     1       4.594   3.044  -0.729  1.00  0.00    -0.023 NA
ATOM     15  N   UNL     1       4.692   1.688  -0.607  1.00  0.00    -0.105 NA
BRANCH  13  16
ATOM     16  C   UNL     1       3.147  -0.154  -0.395  1.00  0.00     0.172 A 
ATOM     17  C   UNL     1       2.910  -1.040  -1.434  1.00  0.00     0.054 A 
ATOM     18  O   UNL     1       3.020  -0.838   0.789  1.00  0.00    -0.461 OA
ATOM     19  C   UNL     1       2.529  -2.276  -0.859  1.00  0.00     0.043 A 
ATOM     20  C   UNL     1       2.638  -2.107   0.498  1.00  0.00     0.196 A 
ENDBRANCH  13  16
ENDBRANCH   7  11
ENDBRANCH   4   7
ENDBRANCH   2   3
ENDBRANCH   1   2
BRANCH   1  21
ATOM     21  C   UNL     1      -3.591   3.862   1.669  1.00  0.00     0.023 C 
BRANCH  21  22
ATOM     22  C   UNL     1      -4.547   4.548   0.701  1.00  0.00     0.116 C 
BRANCH  22  23
ATOM     23  N   UNL     1      -5.477   3.626   0.068  1.00  0.00    -0.352 N 
ATOM     24  C   UNL     1      -6.832   3.752  -0.125  1.00  0.00     0.251 C 
ATOM     25  H   UNL     1      -5.079   2.792  -0.272  1.00  0.00     0.163 HD
ATOM     26  O   UNL     1      -7.481   2.811  -0.558  1.00  0.00    -0.269 OA
BRANCH  24  27
ATOM     27  C   UNL     1      -7.507   5.019   0.231  1.00  0.00     0.039 A 
ATOM     28  C   UNL     1      -8.706   4.959   0.944  1.00  0.00     0.014 A 
ATOM     29  C   UNL     1      -6.954   6.256  -0.114  1.00  0.00     0.014 A 
ATOM     30  C   UNL     1      -9.312   6.140   1.373  1.00  0.00     0.010 A 
ATOM     31  C   UNL     1      -7.514   7.428   0.387  1.00  0.00     0.010 A 
ATOM     32  C   UNL     1      -8.698   7.383   1.137  1.00  0.00    -0.014 A 
BRANCH  32  33
ATOM     33  C   UNL     1      -9.276   8.631   1.698  1.00  0.00     0.031 A 
ATOM     34  C   UNL     1      -9.770   9.722   0.790  1.00  0.00     0.074 A 
ATOM     35  C   UNL     1      -9.323   8.792   3.036  1.00  0.00     0.049 A 
ATOM     36  N   UNL     1     -10.298  10.880   1.101  1.00  0.00    -0.248 NA
ATOM     37  C   UNL     1      -9.633   9.498  -0.658  1.00  0.00     0.031 C 
ATOM     38  C   UNL     1      -8.819   7.832   4.021  1.00  0.00     0.029 A 
ATOM     39  N   UNL     1      -9.815   9.820   3.800  1.00  0.00    -0.354 N 
ATOM     40  C   UNL     1     -10.559  11.514  -0.107  1.00  0.00     0.074 A 
ATOM     41  C   UNL     1     -10.072  10.645  -1.155  1.00  0.00     0.031 C 
ATOM     42  C   UNL     1      -9.057   8.300   5.255  1.00  0.00     0.029 A 
ATOM     43  C   UNL     1      -9.693   9.610   5.152  1.00  0.00     0.049 A 
ATOM     44  H   UNL     1     -10.218  10.632   3.415  1.00  0.00     0.167 HD
ATOM     45  C   UNL     1     -11.177  12.700  -0.322  1.00  0.00     0.037 A 
ATOM     46  C   UNL     1     -10.049  10.388   6.192  1.00  0.00     0.037 A 
ATOM     47  C   UNL     1     -11.670  13.560   0.724  1.00  0.00     0.049 A 
ATOM     48  C   UNL     1     -10.719  11.708   5.919  1.00  0.00     0.074 A 
ATOM     49  C   UNL     1     -12.346  14.762   0.605  1.00  0.00     0.029 A 
ATOM     50  N   UNL     1     -11.535  13.310   2.081  1.00  0.00    -0.354 N 
ATOM     51  N   UNL     1     -11.030  12.260   4.772  1.00  0.00    -0.248 NA
ATOM     52  C   UNL     1     -11.099  12.509   7.091  1.00  0.00     0.031 C 
ATOM     53  C   UNL     1     -12.575  15.264   1.890  1.00  0.00     0.029 A 
ATOM     54  C   UNL     1     -12.097  14.347   2.811  1.00  0.00     0.049 A 
ATOM     55  H   UNL     1     -11.105  12.514   2.470  1.00  0.00     0.167 HD
ATOM     56  C   UNL     1     -11.664  13.456   5.082  1.00  0.00     0.074 A 
ATOM     57  C   UNL     1     -11.721  13.533   6.527  1.00  0.00     0.031 C 
ATOM     58  C   UNL     1     -12.148  14.409   4.249  1.00  0.00     0.037 A 
BRANCH  45  59
ATOM     59  C   UNL     1     -11.374  13.137  -1.745  1.00  0.00     0.064 A 
ATOM     60  C   UNL     1     -12.282  12.483  -2.593  1.00  0.00     0.173 A 
ATOM     61  C   UNL     1     -10.701  14.261  -2.249  1.00  0.00     0.173 A 
ATOM     62  F   UNL     1     -12.943  11.397  -2.165  1.00  0.00    -0.203 F 
ATOM     63  C   UNL     1     -12.495  12.927  -3.895  1.00  0.00     0.198 A 
ATOM     64  C   UNL     1     -10.940  14.720  -3.542  1.00  0.00     0.198 A 
ATOM     65  F   UNL     1      -9.826  14.926  -1.480  1.00  0.00    -0.203 F 
ATOM     66  F   UNL     1     -13.338  12.262  -4.698  1.00  0.00    -0.200 F 
ATOM     67  C   UNL     1     -11.833  14.050  -4.365  1.00  0.00     0.200 A 
ATOM     68  F   UNL     1     -10.310  15.815  -3.990  1.00  0.00    -0.200 F 
ATOM     69  F   UNL     1     -12.052  14.486  -5.613  1.00  0.00    -0.200 F 
ENDBRANCH  45  59
BRANCH  46  70
ATOM     70  C   UNL     1      -9.790   9.943   7.588  1.00  0.00     0.064 A 
ATOM     71  C   UNL     1     -10.846   9.659   8.466  1.00  0.00     0.173 A 
ATOM     72  C   UNL     1      -8.483   9.831   8.086  1.00  0.00     0.173 A 
ATOM     73  F   UNL     1     -12.115   9.770   8.045  1.00  0.00    -0.203 F 
ATOM     74  C   UNL     1     -10.607   9.321   9.797  1.00  0.00     0.198 A 
ATOM     75  C   UNL     1      -8.244   9.456   9.406  1.00  0.00     0.198 A 
ATOM     76  F   UNL     1      -7.436  10.082   7.287  1.00  0.00    -0.203 F 
ATOM     77  F   UNL     1     -11.637   9.123  10.631  1.00  0.00    -0.200 F 
ATOM     78  C   UNL     1      -9.306   9.216  10.264  1.00  0.00     0.200 A 
ATOM     79  F   UNL     1      -6.985   9.338   9.849  1.00  0.00    -0.200 F 
ATOM     80  F   UNL     1      -9.076   8.895  11.545  1.00  0.00    -0.200 F 
ENDBRANCH  46  70
BRANCH  58  81
ATOM     81  C   UNL     1     -12.809  15.600   4.884  1.00  0.00     0.064 A 
ATOM     82  C   UNL     1     -12.078  16.547   5.618  1.00  0.00     0.173 A 
ATOM     83  C   UNL     1     -14.192  15.801   4.751  1.00  0.00     0.173 A 
ATOM     84  F   UNL     1     -10.755  16.395   5.787  1.00  0.00    -0.203 F 
ATOM     85  C   UNL     1     -12.712  17.623   6.232  1.00  0.00     0.198 A 
ATOM     86  C   UNL     1     -14.817  16.899   5.334  1.00  0.00     0.198 A 
ATOM     87  F   UNL     1     -14.938  14.932   4.051  1.00  0.00    -0.203 F 
ATOM     88  F   UNL     1     -12.003  18.474   6.986  1.00  0.00    -0.200 F 
ATOM     89  C   UNL     1     -14.079  17.802   6.085  1.00  0.00     0.200 A 
ATOM     90  F   UNL     1     -16.135  17.080   5.176  1.00  0.00    -0.200 F 
ATOM     91  F   UNL     1     -14.688  18.838   6.677  1.00  0.00    -0.200 F 
ENDBRANCH  58  81
ENDBRANCH  32  33
ENDBRANCH  24  27
ENDBRANCH  22  23
ENDBRANCH  21  22
ENDBRANCH   1  21
TORSDOF 14
