REMARK SMILES COc1cc(-c2cc(C(=O)NCCCCNC(=O)c3ccc(-c4c5nc(c(-c6c(F)c(F)c(F)c(F)c6F)c6ccc([nH]6)c(-c6c(F)c(F)c(F)c(F)c6F)c6nc(c(-c7c(F)c(F)c(F)c(F)c7F)c7ccc4[nH]7)C=C6)C=C5)cc3)c3cc(C)ccc3n2)cc(OC)c1OC
REMARK SMILES IDX 13 1 12 2 11 3 9 4 10 5 8 7 6 8 7 9 89 10 88 11 82 12 87 13
REMARK SMILES IDX 83 14 86 15 84 16 85 17 5 18 3 19 4 20 94 21 91 22 90 23
REMARK SMILES IDX 2 24 1 25 95 26 96 27 92 28 93 29 14 30 15 31 16 32 17 33
REMARK SMILES IDX 18 35 19 36 20 37 81 38 21 39 80 40 22 41 23 42 24 43 74 44
REMARK SMILES IDX 25 45 79 46 73 47 75 48 26 49 78 50 72 51 71 52 27 54 59 55
REMARK SMILES IDX 39 56 58 57 40 58 43 59 57 60 76 61 41 62 42 63 56 65 77 66
REMARK SMILES IDX 44 67 28 68 29 69 37 70 30 71 31 72 35 73 38 74 32 75 33 76
REMARK SMILES IDX 36 77 34 78 60 79 61 80 69 81 62 82 63 83 67 84 70 85 64 86
REMARK SMILES IDX 65 87 68 88 66 89 45 90 46 91 54 92 47 93 48 94 52 95 55 96
REMARK SMILES IDX 49 97 50 98 53 99 51 100
REMARK H PARENT 11 6 16 34 75 53 43 64
REMARK Flexibility Score: inf
ROOT
ATOM      1  C   UNL     1      -1.778 -10.042   1.949  1.00  0.00     0.023 C 
ENDROOT
BRANCH   1   2
ATOM      2  C   UNL     1      -0.759  -9.243   2.765  1.00  0.00     0.116 C 
BRANCH   2   3
ATOM      3  N   UNL     1       0.566  -9.504   2.244  1.00  0.00    -0.352 N 
ATOM      4  C   UNL     1       1.168  -8.897   1.168  1.00  0.00     0.252 C 
ATOM      5  O   UNL     1       1.781  -9.594   0.366  1.00  0.00    -0.269 OA
ATOM      6  H   UNL     1       1.094 -10.192   2.711  1.00  0.00     0.163 HD
BRANCH   4   7
ATOM      7  C   UNL     1       1.311  -7.423   1.196  1.00  0.00     0.051 A 
ATOM      8  C   UNL     1       0.619  -5.232   1.657  1.00  0.00     0.072 A 
ATOM      9  C   UNL     1       0.266  -6.506   1.257  1.00  0.00     0.043 A 
ATOM     10  N   UNL     1       1.748  -5.081   2.397  1.00  0.00    -0.248 NA
ATOM     11  C   UNL     1       2.803  -5.754   1.944  1.00  0.00     0.072 A 
ATOM     12  C   UNL     1       2.614  -6.907   1.189  1.00  0.00     0.013 A 
ATOM     13  C   UNL     1       4.051  -5.158   1.987  1.00  0.00     0.029 A 
ATOM     14  C   UNL     1       3.617  -7.299   0.279  1.00  0.00     0.014 A 
ATOM     15  C   UNL     1       5.022  -5.510   1.050  1.00  0.00     0.005 A 
ATOM     16  C   UNL     1       4.748  -6.500   0.107  1.00  0.00    -0.050 A 
ATOM     17  C   UNL     1       5.560  -6.620  -1.150  1.00  0.00     0.044 C 
BRANCH   8  18
ATOM     18  C   UNL     1       0.493  -4.026   0.773  1.00  0.00     0.008 A 
ATOM     19  C   UNL     1       0.451  -1.626   0.961  1.00  0.00     0.165 A 
ATOM     20  C   UNL     1      -0.129  -2.870   1.237  1.00  0.00     0.061 A 
ATOM     21  C   UNL     1       1.717  -1.539   0.352  1.00  0.00     0.203 A 
ATOM     22  C   UNL     1       2.214  -2.659  -0.309  1.00  0.00     0.165 A 
ATOM     23  C   UNL     1       1.509  -3.866  -0.208  1.00  0.00     0.061 A 
BRANCH  19  24
ATOM     24  O   UNL     1      -0.232  -0.522   1.411  1.00  0.00    -0.493 OA
ATOM     25  C   UNL     1      -0.372   0.456   0.375  1.00  0.00     0.278 C 
ENDBRANCH  19  24
BRANCH  21  26
ATOM     26  O   UNL     1       2.489  -0.465   0.715  1.00  0.00    -0.490 OA
ATOM     27  C   UNL     1       2.898   0.406  -0.323  1.00  0.00     0.278 C 
ENDBRANCH  21  26
BRANCH  22  28
ATOM     28  O   UNL     1       3.368  -2.728  -1.041  1.00  0.00    -0.493 OA
ATOM     29  C   UNL     1       4.554  -2.321  -0.365  1.00  0.00     0.278 C 
ENDBRANCH  22  28
ENDBRANCH   8  18
ENDBRANCH   4   7
ENDBRANCH   2   3
ENDBRANCH   1   2
BRANCH   1  30
ATOM     30  C   UNL     1      -1.581 -11.564   2.026  1.00  0.00     0.023 C 
BRANCH  30  31
ATOM     31  C   UNL     1      -1.603 -12.143   3.437  1.00  0.00     0.116 C 
BRANCH  31  32
ATOM     32  N   UNL     1      -2.827 -11.817   4.149  1.00  0.00    -0.352 N 
ATOM     33  C   UNL     1      -3.646 -12.634   4.891  1.00  0.00     0.251 C 
ATOM     34  H   UNL     1      -3.111 -10.876   4.091  1.00  0.00     0.163 HD
ATOM     35  O   UNL     1      -4.727 -12.236   5.285  1.00  0.00    -0.269 OA
BRANCH  33  36
ATOM     36  C   UNL     1      -3.208 -14.015   5.183  1.00  0.00     0.039 A 
ATOM     37  C   UNL     1      -4.107 -15.062   4.970  1.00  0.00     0.014 A 
ATOM     38  C   UNL     1      -1.916 -14.272   5.647  1.00  0.00     0.014 A 
ATOM     39  C   UNL     1      -3.688 -16.378   5.165  1.00  0.00     0.010 A 
ATOM     40  C   UNL     1      -1.478 -15.586   5.770  1.00  0.00     0.010 A 
ATOM     41  C   UNL     1      -2.359 -16.651   5.531  1.00  0.00    -0.014 A 
BRANCH  41  42
ATOM     42  C   UNL     1      -1.875 -18.049   5.652  1.00  0.00     0.031 A 
ATOM     43  C   UNL     1      -1.412 -18.579   6.979  1.00  0.00     0.074 A 
ATOM     44  C   UNL     1      -1.798 -18.820   4.550  1.00  0.00     0.049 A 
ATOM     45  N   UNL     1      -0.920 -19.756   7.274  1.00  0.00    -0.248 NA
ATOM     46  C   UNL     1      -1.484 -17.655   8.121  1.00  0.00     0.031 C 
ATOM     47  C   UNL     1      -2.166 -18.397   3.198  1.00  0.00     0.029 A 
ATOM     48  N   UNL     1      -1.378 -20.116   4.391  1.00  0.00    -0.354 N 
ATOM     49  C   UNL     1      -0.618 -19.709   8.628  1.00  0.00     0.074 A 
ATOM     50  C   UNL     1      -0.922 -18.370   9.083  1.00  0.00     0.031 C 
ATOM     51  C   UNL     1      -1.982 -19.423   2.352  1.00  0.00     0.029 A 
ATOM     52  C   UNL     1      -1.446 -20.560   3.093  1.00  0.00     0.049 A 
ATOM     53  H   UNL     1      -1.058 -20.674   5.136  1.00  0.00     0.167 HD
ATOM     54  C   UNL     1      -0.152 -20.702   9.424  1.00  0.00     0.037 A 
ATOM     55  C   UNL     1      -1.108 -21.750   2.560  1.00  0.00     0.037 A 
ATOM     56  C   UNL     1       0.137 -22.035   8.965  1.00  0.00     0.049 A 
ATOM     57  C   UNL     1      -0.581 -22.832   3.462  1.00  0.00     0.074 A 
ATOM     58  C   UNL     1       0.554 -23.130   9.701  1.00  0.00     0.029 A 
ATOM     59  N   UNL     1       0.047 -22.453   7.644  1.00  0.00    -0.354 N 
ATOM     60  N   UNL     1      -0.375 -22.803   4.757  1.00  0.00    -0.248 NA
ATOM     61  C   UNL     1      -0.246 -24.115   2.830  1.00  0.00     0.031 C 
ATOM     62  C   UNL     1       0.774 -24.193   8.818  1.00  0.00     0.029 A 
ATOM     63  C   UNL     1       0.431 -23.781   7.540  1.00  0.00     0.049 A 
ATOM     64  H   UNL     1      -0.246 -21.889   6.892  1.00  0.00     0.167 HD
ATOM     65  C   UNL     1       0.085 -24.068   5.099  1.00  0.00     0.074 A 
ATOM     66  C   UNL     1       0.112 -24.845   3.877  1.00  0.00     0.031 C 
ATOM     67  C   UNL     1       0.451 -24.542   6.316  1.00  0.00     0.037 A 
BRANCH  54  68
ATOM     68  C   UNL     1       0.077 -20.377  10.873  1.00  0.00     0.064 A 
ATOM     69  C   UNL     1      -0.988 -20.097  11.745  1.00  0.00     0.173 A 
ATOM     70  C   UNL     1       1.376 -20.368  11.405  1.00  0.00     0.173 A 
ATOM     71  F   UNL     1      -2.249 -20.082  11.288  1.00  0.00    -0.203 F 
ATOM     72  C   UNL     1      -0.757 -19.782  13.082  1.00  0.00     0.198 A 
ATOM     73  C   UNL     1       1.599 -20.087  12.751  1.00  0.00     0.198 A 
ATOM     74  F   UNL     1       2.430 -20.635  10.620  1.00  0.00    -0.203 F 
ATOM     75  F   UNL     1      -1.786 -19.459  13.879  1.00  0.00    -0.200 F 
ATOM     76  C   UNL     1       0.534 -19.784  13.585  1.00  0.00     0.200 A 
ATOM     77  F   UNL     1       2.847 -20.105  13.239  1.00  0.00    -0.200 F 
ATOM     78  F   UNL     1       0.754 -19.486  14.873  1.00  0.00    -0.200 F 
ENDBRANCH  54  68
BRANCH  55  79
ATOM     79  C   UNL     1      -1.284 -21.984   1.103  1.00  0.00     0.064 A 
ATOM     80  C   UNL     1      -2.260 -22.872   0.629  1.00  0.00     0.173 A 
ATOM     81  C   UNL     1      -0.491 -21.321   0.155  1.00  0.00     0.173 A 
ATOM     82  F   UNL     1      -3.031 -23.544   1.496  1.00  0.00    -0.203 F 
ATOM     83  C   UNL     1      -2.423 -23.102  -0.736  1.00  0.00     0.198 A 
ATOM     84  C   UNL     1      -0.675 -21.529  -1.210  1.00  0.00     0.198 A 
ATOM     85  F   UNL     1       0.453 -20.457   0.555  1.00  0.00    -0.203 F 
ATOM     86  F   UNL     1      -3.334 -23.989  -1.159  1.00  0.00    -0.200 F 
ATOM     87  C   UNL     1      -1.636 -22.425  -1.654  1.00  0.00     0.200 A 
ATOM     88  F   UNL     1       0.076 -20.860  -2.095  1.00  0.00    -0.200 F 
ATOM     89  F   UNL     1      -1.799 -22.640  -2.967  1.00  0.00    -0.200 F 
ENDBRANCH  55  79
BRANCH  67  90
ATOM     90  C   UNL     1       0.881 -25.979   6.394  1.00  0.00     0.064 A 
ATOM     91  C   UNL     1       2.095 -26.419   5.844  1.00  0.00     0.173 A 
ATOM     92  C   UNL     1       0.085 -26.922   7.062  1.00  0.00     0.173 A 
ATOM     93  F   UNL     1       2.887 -25.561   5.182  1.00  0.00    -0.203 F 
ATOM     94  C   UNL     1       2.482 -27.753   5.937  1.00  0.00     0.198 A 
ATOM     95  C   UNL     1       0.490 -28.248   7.183  1.00  0.00     0.198 A 
ATOM     96  F   UNL     1      -1.082 -26.554   7.612  1.00  0.00    -0.203 F 
ATOM     97  F   UNL     1       3.620 -28.161   5.359  1.00  0.00    -0.200 F 
ATOM     98  C   UNL     1       1.684 -28.664   6.613  1.00  0.00     0.200 A 
ATOM     99  F   UNL     1      -0.274 -29.123   7.851  1.00  0.00    -0.200 F 
ATOM    100  F   UNL     1       2.062 -29.947   6.709  1.00  0.00    -0.200 F 
ENDBRANCH  67  90
ENDBRANCH  41  42
ENDBRANCH  33  36
ENDBRANCH  31  32
ENDBRANCH  30  31
ENDBRANCH   1  30
TORSDOF 15
