REMARK SMILES CCCCCCNC(=O)Oc1cccc(-c2ccc([C@@H](C)C(=O)NCCCCNC(=O)c3ccc(-c4c5nc(c(-c6c(F)c(F)c(F)c(F)c6F)c6ccc([nH]6)c(-c6c(F)c(F)c(F)c(F)c6F)c6nc(c(-c7c(F)c(F)c(F)c(F)c7F)c7ccc4[nH]7)C=C6)C=C5)cc3)cc2O)c1
REMARK SMILES IDX 20 1 21 2 19 3 16 4 17 5 96 6 18 7 95 8 15 9 11 10 12 11
REMARK SMILES IDX 98 12 13 13 14 14 10 15 8 16 7 17 9 19 6 20 5 21 4 22 3 23
REMARK SMILES IDX 2 24 1 25 97 26 22 28 23 29 24 30 25 32 26 33 27 34 28 35
REMARK SMILES IDX 29 36 30 37 31 39 32 40 33 41 94 42 34 43 93 44 35 45 36 46
REMARK SMILES IDX 37 47 87 48 38 49 92 50 86 51 88 52 39 53 91 54 85 55 84 56
REMARK SMILES IDX 40 58 72 59 52 60 71 61 53 62 56 63 70 64 89 65 54 66 55 67
REMARK SMILES IDX 69 69 90 70 57 71 41 72 42 73 50 74 43 75 44 76 48 77 51 78
REMARK SMILES IDX 45 79 46 80 49 81 47 82 73 83 74 84 82 85 75 86 76 87 80 88
REMARK SMILES IDX 83 89 77 90 78 91 81 92 79 93 58 94 59 95 67 96 60 97 61 98
REMARK SMILES IDX 65 99 68 100 62 101 63 102 66 103 64 104
REMARK H PARENT 7 18 97 27 24 31 29 38 88 57 56 68
REMARK Flexibility Score: inf
ROOT
ATOM      1  C   UNL     1      -4.697   2.297 -13.470  1.00  0.00     0.105 C 
ATOM      2  C   UNL     1      -5.814   2.546 -14.483  1.00  0.00     0.023 C 
ENDROOT
BRANCH   1   3
ATOM      3  C   UNL     1      -5.019   2.647 -12.025  1.00  0.00    -0.032 A 
ATOM      4  C   UNL     1      -5.339   3.349  -9.266  1.00  0.00     0.024 A 
ATOM      5  C   UNL     1      -5.788   4.186 -10.302  1.00  0.00     0.013 A 
ATOM      6  C   UNL     1      -4.815   2.106  -9.657  1.00  0.00     0.123 A 
ATOM      7  C   UNL     1      -5.675   3.821 -11.650  1.00  0.00     0.005 A 
ATOM      8  C   UNL     1      -4.615   1.778 -11.002  1.00  0.00     0.051 A 
BRANCH   4   9
ATOM      9  C   UNL     1      -5.395   3.818  -7.860  1.00  0.00    -0.011 A 
ATOM     10  C   UNL     1      -4.402   4.028  -5.645  1.00  0.00     0.133 A 
ATOM     11  C   UNL     1      -5.498   4.748  -5.185  1.00  0.00     0.047 A 
ATOM     12  C   UNL     1      -4.337   3.575  -6.964  1.00  0.00     0.056 A 
ATOM     13  C   UNL     1      -6.542   5.026  -6.060  1.00  0.00     0.004 A 
ATOM     14  C   UNL     1      -6.495   4.555  -7.377  1.00  0.00     0.009 A 
BRANCH  10  15
ATOM     15  O   UNL     1      -3.443   3.656  -4.689  1.00  0.00    -0.410 OA
BRANCH  15  16
ATOM     16  C   UNL     1      -2.103   3.898  -4.949  1.00  0.00     0.412 C 
ATOM     17  N   UNL     1      -1.274   3.391  -3.985  1.00  0.00    -0.321 N 
ATOM     18  H   UNL     1      -0.309   3.542  -4.109  1.00  0.00     0.167 HD
ATOM     19  O   UNL     1      -1.655   4.506  -5.913  1.00  0.00    -0.224 OA
BRANCH  17  20
ATOM     20  C   UNL     1      -1.670   2.655  -2.799  1.00  0.00     0.119 C 
BRANCH  20  21
ATOM     21  C   UNL     1      -1.067   1.251  -2.766  1.00  0.00     0.021 C 
BRANCH  21  22
ATOM     22  C   UNL     1       0.463   1.209  -2.663  1.00  0.00     0.002 C 
BRANCH  22  23
ATOM     23  C   UNL     1       1.064   1.919  -1.445  1.00  0.00    -0.000 C 
BRANCH  23  24
ATOM     24  C   UNL     1       0.576   1.418  -0.083  1.00  0.00    -0.003 C 
ATOM     25  C   UNL     1       0.934  -0.035   0.188  1.00  0.00     0.004 C 
ENDBRANCH  23  24
ENDBRANCH  22  23
ENDBRANCH  21  22
ENDBRANCH  20  21
ENDBRANCH  17  20
ENDBRANCH  15  16
ENDBRANCH  10  15
ENDBRANCH   4   9
BRANCH   6  26
ATOM     26  O   UNL     1      -4.486   1.123  -8.760  1.00  0.00    -0.507 OA
ATOM     27  H   UNL     1      -4.594   1.272  -7.841  1.00  0.00     0.293 HD
ENDBRANCH   6  26
ENDBRANCH   1   3
BRANCH   1  28
ATOM     28  C   UNL     1      -3.316   2.793 -13.932  1.00  0.00     0.227 C 
ATOM     29  O   UNL     1      -2.397   1.984 -14.108  1.00  0.00    -0.274 OA
ATOM     30  N   UNL     1      -3.025   4.097 -14.194  1.00  0.00    -0.356 N 
ATOM     31  H   UNL     1      -2.116   4.246 -14.543  1.00  0.00     0.163 HD
BRANCH  30  32
ATOM     32  C   UNL     1      -3.810   5.303 -14.051  1.00  0.00     0.116 C 
BRANCH  32  33
ATOM     33  C   UNL     1      -3.534   6.019 -12.728  1.00  0.00     0.023 C 
BRANCH  33  34
ATOM     34  C   UNL     1      -2.357   6.990 -12.752  1.00  0.00     0.023 C 
BRANCH  34  35
ATOM     35  C   UNL     1      -2.497   8.154 -13.724  1.00  0.00     0.116 C 
BRANCH  35  36
ATOM     36  N   UNL     1      -3.681   8.975 -13.508  1.00  0.00    -0.352 N 
ATOM     37  C   UNL     1      -3.828  10.325 -13.736  1.00  0.00     0.251 C 
ATOM     38  H   UNL     1      -4.473   8.508 -13.157  1.00  0.00     0.163 HD
ATOM     39  O   UNL     1      -4.867  10.905 -13.442  1.00  0.00    -0.269 OA
BRANCH  37  40
ATOM     40  C   UNL     1      -2.687  11.078 -14.296  1.00  0.00     0.039 A 
ATOM     41  C   UNL     1      -2.236  12.218 -13.628  1.00  0.00     0.014 A 
ATOM     42  C   UNL     1      -2.020  10.607 -15.429  1.00  0.00     0.014 A 
ATOM     43  C   UNL     1      -1.060  12.841 -14.050  1.00  0.00     0.010 A 
ATOM     44  C   UNL     1      -0.808  11.180 -15.798  1.00  0.00     0.010 A 
ATOM     45  C   UNL     1      -0.314  12.299 -15.110  1.00  0.00    -0.014 A 
BRANCH  45  46
ATOM     46  C   UNL     1       0.985  12.884 -15.523  1.00  0.00     0.031 A 
ATOM     47  C   UNL     1       1.139  13.460 -16.903  1.00  0.00     0.074 A 
ATOM     48  C   UNL     1       2.044  12.823 -14.692  1.00  0.00     0.049 A 
ATOM     49  N   UNL     1       2.212  13.918 -17.496  1.00  0.00    -0.248 NA
ATOM     50  C   UNL     1      -0.071  13.493 -17.741  1.00  0.00     0.031 C 
ATOM     51  C   UNL     1       2.035  12.241 -13.348  1.00  0.00     0.029 A 
ATOM     52  N   UNL     1       3.340  13.242 -14.862  1.00  0.00    -0.354 N 
ATOM     53  C   UNL     1       1.811  14.273 -18.777  1.00  0.00     0.074 A 
ATOM     54  C   UNL     1       0.411  13.927 -18.896  1.00  0.00     0.031 C 
ATOM     55  C   UNL     1       3.259  12.359 -12.809  1.00  0.00     0.029 A 
ATOM     56  C   UNL     1       4.148  12.989 -13.780  1.00  0.00     0.049 A 
ATOM     57  H   UNL     1       3.660  13.683 -15.682  1.00  0.00     0.167 HD
ATOM     58  C   UNL     1       2.538  14.859 -19.757  1.00  0.00     0.037 A 
ATOM     59  C   UNL     1       5.460  13.232 -13.598  1.00  0.00     0.037 A 
ATOM     60  C   UNL     1       3.920  15.235 -19.622  1.00  0.00     0.049 A 
ATOM     61  C   UNL     1       6.243  13.895 -14.701  1.00  0.00     0.074 A 
ATOM     62  C   UNL     1       4.730  15.886 -20.535  1.00  0.00     0.029 A 
ATOM     63  N   UNL     1       4.694  14.997 -18.496  1.00  0.00    -0.354 N 
ATOM     64  N   UNL     1       5.837  14.284 -15.885  1.00  0.00    -0.248 NA
ATOM     65  C   UNL     1       7.665  14.158 -14.439  1.00  0.00     0.031 C 
ATOM     66  C   UNL     1       6.005  16.011 -19.976  1.00  0.00     0.029 A 
ATOM     67  C   UNL     1       5.977  15.478 -18.697  1.00  0.00     0.049 A 
ATOM     68  H   UNL     1       4.379  14.552 -17.677  1.00  0.00     0.167 HD
ATOM     69  C   UNL     1       6.941  14.865 -16.495  1.00  0.00     0.074 A 
ATOM     70  C   UNL     1       8.031  14.789 -15.545  1.00  0.00     0.031 C 
ATOM     71  C   UNL     1       7.043  15.412 -17.731  1.00  0.00     0.037 A 
BRANCH  58  72
ATOM     72  C   UNL     1       1.847  15.144 -21.057  1.00  0.00     0.064 A 
ATOM     73  C   UNL     1       0.866  16.142 -21.163  1.00  0.00     0.173 A 
ATOM     74  C   UNL     1       2.194  14.440 -22.220  1.00  0.00     0.173 A 
ATOM     75  F   UNL     1       0.488  16.834 -20.077  1.00  0.00    -0.203 F 
ATOM     76  C   UNL     1       0.239  16.405 -22.377  1.00  0.00     0.198 A 
ATOM     77  C   UNL     1       1.586  14.727 -23.439  1.00  0.00     0.198 A 
ATOM     78  F   UNL     1       3.128  13.478 -22.175  1.00  0.00    -0.203 F 
ATOM     79  F   UNL     1      -0.729  17.330 -22.443  1.00  0.00    -0.200 F 
ATOM     80  C   UNL     1       0.605  15.704 -23.516  1.00  0.00     0.200 A 
ATOM     81  F   UNL     1       1.949  14.056 -24.541  1.00  0.00    -0.200 F 
ATOM     82  F   UNL     1       0.007  15.964 -24.686  1.00  0.00    -0.200 F 
ENDBRANCH  58  72
BRANCH  59  83
ATOM     83  C   UNL     1       6.116  12.875 -12.313  1.00  0.00     0.064 A 
ATOM     84  C   UNL     1       6.553  13.872 -11.429  1.00  0.00     0.173 A 
ATOM     85  C   UNL     1       6.339  11.539 -11.950  1.00  0.00     0.173 A 
ATOM     86  F   UNL     1       6.382  15.165 -11.742  1.00  0.00    -0.203 F 
ATOM     87  C   UNL     1       7.210  13.548 -10.244  1.00  0.00     0.198 A 
ATOM     88  C   UNL     1       6.971  11.215 -10.752  1.00  0.00     0.198 A 
ATOM     89  F   UNL     1       5.937  10.548 -12.759  1.00  0.00    -0.203 F 
ATOM     90  F   UNL     1       7.663  14.522  -9.444  1.00  0.00    -0.200 F 
ATOM     91  C   UNL     1       7.415  12.219  -9.904  1.00  0.00     0.200 A 
ATOM     92  F   UNL     1       7.158   9.930 -10.421  1.00  0.00    -0.200 F 
ATOM     93  F   UNL     1       8.050  11.907  -8.766  1.00  0.00    -0.200 F 
ENDBRANCH  59  83
BRANCH  71  94
ATOM     94  C   UNL     1       8.363  16.014 -18.111  1.00  0.00     0.064 A 
ATOM     95  C   UNL     1       9.478  15.217 -18.408  1.00  0.00     0.173 A 
ATOM     96  C   UNL     1       8.498  17.406 -18.227  1.00  0.00     0.173 A 
ATOM     97  F   UNL     1       9.402  13.882 -18.297  1.00  0.00    -0.203 F 
ATOM     98  C   UNL     1      10.687  15.793 -18.787  1.00  0.00     0.198 A 
ATOM     99  C   UNL     1       9.700  17.977 -18.635  1.00  0.00     0.198 A 
ATOM    100  F   UNL     1       7.458  18.211 -17.961  1.00  0.00    -0.203 F 
ATOM    101  F   UNL     1      11.752  15.016 -19.026  1.00  0.00    -0.200 F 
ATOM    102  C   UNL     1      10.794  17.171 -18.908  1.00  0.00     0.200 A 
ATOM    103  F   UNL     1       9.798  19.307 -18.764  1.00  0.00    -0.200 F 
ATOM    104  F   UNL     1      11.956  17.723 -19.283  1.00  0.00    -0.200 F 
ENDBRANCH  71  94
ENDBRANCH  45  46
ENDBRANCH  37  40
ENDBRANCH  35  36
ENDBRANCH  34  35
ENDBRANCH  33  34
ENDBRANCH  32  33
ENDBRANCH  30  32
ENDBRANCH   1  28
TORSDOF 21
