REMARK SMILES CC(C)(C)N(CC(=O)NCCCCNC(=O)c1ccc(-c2c3nc(c(-c4c(F)c(F)c(F)c(F)c4F)c4ccc([nH]4)c(-c4c(F)c(F)c(F)c(F)c4F)c4nc(c(-c5c(F)c(F)c(F)c(F)c5F)c5ccc2[nH]5)C=C4)C=C3)cc1)C(=O)NCCc1cnc[nH]1
REMARK SMILES IDX 10 1 9 2 7 3 8 4 6 6 5 7 2 8 1 9 3 10 4 11 80 12 81 13 82 14
REMARK SMILES IDX 83 16 84 17 85 18 86 19 89 20 87 21 88 22 11 24 12 25 13 26
REMARK SMILES IDX 14 27 15 28 16 30 17 31 18 32 79 33 19 34 78 35 20 36 21 37
REMARK SMILES IDX 22 38 72 39 23 40 77 41 71 42 73 43 24 44 76 45 70 46 69 47
REMARK SMILES IDX 25 49 57 50 37 51 56 52 38 53 41 54 55 55 74 56 39 57 40 58
REMARK SMILES IDX 54 60 75 61 42 62 26 63 27 64 35 65 28 66 29 67 33 68 36 69
REMARK SMILES IDX 30 70 31 71 34 72 32 73 58 74 59 75 67 76 60 77 61 78 65 79
REMARK SMILES IDX 68 80 62 81 63 82 66 83 64 84 43 85 44 86 52 87 45 88 46 89
REMARK SMILES IDX 50 90 53 91 47 92 48 93 51 94 49 95
REMARK H PARENT 9 5 82 15 89 23 14 29 73 48 41 59
REMARK Flexibility Score: inf
ROOT
ATOM      1  C   UNL     1       3.753   0.125  -1.659  1.00  0.00     0.116 C 
ENDROOT
BRANCH   1   2
ATOM      2  N   UNL     1       4.041   1.534  -1.554  1.00  0.00    -0.355 N 
ATOM      3  C   UNL     1       3.245   2.518  -1.048  1.00  0.00     0.239 C 
ATOM      4  O   UNL     1       3.792   3.585  -0.749  1.00  0.00    -0.273 OA
ATOM      5  H   UNL     1       4.921   1.821  -1.889  1.00  0.00     0.163 HD
BRANCH   3   6
ATOM      6  C   UNL     1       1.768   2.264  -0.685  1.00  0.00     0.221 C 
BRANCH   6   7
ATOM      7  N   UNL     1       0.916   1.573  -1.667  1.00  0.00    -0.311 N 
BRANCH   7   8
ATOM      8  C   UNL     1       0.041   0.406  -1.203  1.00  0.00     0.037 C 
ATOM      9  C   UNL     1       0.286  -0.046   0.263  1.00  0.00     0.034 C 
ATOM     10  C   UNL     1       0.245  -0.871  -2.059  1.00  0.00     0.034 C 
ATOM     11  C   UNL     1      -1.452   0.814  -1.259  1.00  0.00     0.034 C 
ENDBRANCH   7   8
BRANCH   7  12
ATOM     12  C   UNL     1       0.665   2.082  -2.926  1.00  0.00     0.318 C 
ATOM     13  O   UNL     1       0.023   1.455  -3.775  1.00  0.00    -0.249 OA
ATOM     14  N   UNL     1       1.067   3.284  -3.365  1.00  0.00    -0.338 N 
ATOM     15  H   UNL     1       0.900   3.359  -4.332  1.00  0.00     0.165 HD
BRANCH  14  16
ATOM     16  C   UNL     1       1.672   4.517  -2.872  1.00  0.00     0.124 C 
BRANCH  16  17
ATOM     17  C   UNL     1       3.061   4.760  -3.480  1.00  0.00     0.077 C 
BRANCH  17  18
ATOM     18  C   UNL     1       2.993   5.374  -4.837  1.00  0.00     0.036 A 
ATOM     19  C   UNL     1       2.786   4.842  -6.091  1.00  0.00     0.134 A 
ATOM     20  N   UNL     1       3.171   6.719  -5.058  1.00  0.00    -0.348 N 
ATOM     21  N   UNL     1       2.817   5.822  -7.049  1.00  0.00    -0.245 NA
ATOM     22  C   UNL     1       3.053   6.938  -6.400  1.00  0.00     0.196 A 
ATOM     23  H   UNL     1       3.351   7.401  -4.371  1.00  0.00     0.167 HD
ENDBRANCH  17  18
ENDBRANCH  16  17
ENDBRANCH  14  16
ENDBRANCH   7  12
ENDBRANCH   6   7
ENDBRANCH   3   6
ENDBRANCH   1   2
BRANCH   1  24
ATOM     24  C   UNL     1       3.560  -0.340  -3.098  1.00  0.00     0.023 C 
BRANCH  24  25
ATOM     25  C   UNL     1       4.839  -0.420  -3.928  1.00  0.00     0.023 C 
BRANCH  25  26
ATOM     26  C   UNL     1       5.981  -1.205  -3.294  1.00  0.00     0.116 C 
BRANCH  26  27
ATOM     27  N   UNL     1       5.609  -2.535  -2.832  1.00  0.00    -0.352 N 
ATOM     28  C   UNL     1       6.369  -3.681  -2.819  1.00  0.00     0.251 C 
ATOM     29  H   UNL     1       4.693  -2.626  -2.483  1.00  0.00     0.163 HD
ATOM     30  O   UNL     1       5.895  -4.746  -2.437  1.00  0.00    -0.269 OA
BRANCH  28  31
ATOM     31  C   UNL     1       7.755  -3.624  -3.322  1.00  0.00     0.039 A 
ATOM     32  C   UNL     1       8.149  -4.529  -4.310  1.00  0.00     0.014 A 
ATOM     33  C   UNL     1       8.631  -2.630  -2.878  1.00  0.00     0.014 A 
ATOM     34  C   UNL     1       9.396  -4.382  -4.918  1.00  0.00     0.010 A 
ATOM     35  C   UNL     1       9.838  -2.438  -3.538  1.00  0.00     0.010 A 
ATOM     36  C   UNL     1      10.228  -3.307  -4.570  1.00  0.00    -0.014 A 
BRANCH  36  37
ATOM     37  C   UNL     1      11.507  -3.057  -5.278  1.00  0.00     0.031 A 
ATOM     38  C   UNL     1      12.805  -3.131  -4.528  1.00  0.00     0.074 A 
ATOM     39  C   UNL     1      11.490  -2.676  -6.570  1.00  0.00     0.049 A 
ATOM     40  N   UNL     1      14.015  -2.844  -4.935  1.00  0.00    -0.248 NA
ATOM     41  C   UNL     1      12.727  -3.551  -3.120  1.00  0.00     0.031 C 
ATOM     42  C   UNL     1      10.289  -2.511  -7.390  1.00  0.00     0.029 A 
ATOM     43  N   UNL     1      12.518  -2.342  -7.417  1.00  0.00    -0.354 N 
ATOM     44  C   UNL     1      14.835  -3.024  -3.830  1.00  0.00     0.074 A 
ATOM     45  C   UNL     1      13.981  -3.395  -2.723  1.00  0.00     0.031 C 
ATOM     46  C   UNL     1      10.649  -2.129  -8.626  1.00  0.00     0.029 A 
ATOM     47  C   UNL     1      12.100  -1.988  -8.676  1.00  0.00     0.049 A 
ATOM     48  H   UNL     1      13.464  -2.355  -7.146  1.00  0.00     0.167 HD
ATOM     49  C   UNL     1      16.182  -2.912  -3.752  1.00  0.00     0.037 A 
ATOM     50  C   UNL     1      12.811  -1.590  -9.748  1.00  0.00     0.037 A 
ATOM     51  C   UNL     1      17.031  -2.580  -4.865  1.00  0.00     0.049 A 
ATOM     52  C   UNL     1      14.308  -1.496  -9.643  1.00  0.00     0.074 A 
ATOM     53  C   UNL     1      18.413  -2.512  -4.907  1.00  0.00     0.029 A 
ATOM     54  N   UNL     1      16.575  -2.266  -6.136  1.00  0.00    -0.354 N 
ATOM     55  N   UNL     1      15.080  -1.732  -8.610  1.00  0.00    -0.248 NA
ATOM     56  C   UNL     1      15.033  -1.085 -10.853  1.00  0.00     0.031 C 
ATOM     57  C   UNL     1      18.791  -2.122  -6.197  1.00  0.00     0.029 A 
ATOM     58  C   UNL     1      17.648  -1.988  -6.968  1.00  0.00     0.049 A 
ATOM     59  H   UNL     1      15.629  -2.244  -6.408  1.00  0.00     0.167 HD
ATOM     60  C   UNL     1      16.380  -1.525  -9.050  1.00  0.00     0.074 A 
ATOM     61  C   UNL     1      16.293  -1.154 -10.448  1.00  0.00     0.031 C 
ATOM     62  C   UNL     1      17.541  -1.631  -8.359  1.00  0.00     0.037 A 
BRANCH  49  63
ATOM     63  C   UNL     1      16.818  -3.158  -2.415  1.00  0.00     0.064 A 
ATOM     64  C   UNL     1      16.870  -4.443  -1.853  1.00  0.00     0.173 A 
ATOM     65  C   UNL     1      17.397  -2.102  -1.696  1.00  0.00     0.173 A 
ATOM     66  F   UNL     1      16.317  -5.483  -2.494  1.00  0.00    -0.203 F 
ATOM     67  C   UNL     1      17.448  -4.655  -0.604  1.00  0.00     0.198 A 
ATOM     68  C   UNL     1      18.001  -2.324  -0.461  1.00  0.00     0.198 A 
ATOM     69  F   UNL     1      17.378  -0.856  -2.191  1.00  0.00    -0.203 F 
ATOM     70  F   UNL     1      17.436  -5.881  -0.062  1.00  0.00    -0.200 F 
ATOM     71  C   UNL     1      18.018  -3.597   0.088  1.00  0.00     0.200 A 
ATOM     72  F   UNL     1      18.560  -1.302   0.202  1.00  0.00    -0.200 F 
ATOM     73  F   UNL     1      18.576  -3.804   1.289  1.00  0.00    -0.200 F 
ENDBRANCH  49  63
BRANCH  50  74
ATOM     74  C   UNL     1      12.117  -1.287 -11.026  1.00  0.00     0.064 A 
ATOM     75  C   UNL     1      12.230  -2.151 -12.124  1.00  0.00     0.173 A 
ATOM     76  C   UNL     1      11.327  -0.138 -11.176  1.00  0.00     0.173 A 
ATOM     77  F   UNL     1      12.991  -3.251 -12.033  1.00  0.00    -0.203 F 
ATOM     78  C   UNL     1      11.593  -1.869 -13.330  1.00  0.00     0.198 A 
ATOM     79  C   UNL     1      10.671   0.130 -12.376  1.00  0.00     0.198 A 
ATOM     80  F   UNL     1      11.185   0.717 -10.154  1.00  0.00    -0.203 F 
ATOM     81  F   UNL     1      11.750  -2.692 -14.376  1.00  0.00    -0.200 F 
ATOM     82  C   UNL     1      10.809  -0.732 -13.454  1.00  0.00     0.200 A 
ATOM     83  F   UNL     1       9.906   1.225 -12.489  1.00  0.00    -0.200 F 
ATOM     84  F   UNL     1      10.194  -0.463 -14.613  1.00  0.00    -0.200 F 
ENDBRANCH  50  74
BRANCH  62  85
ATOM     85  C   UNL     1      18.813  -1.377  -9.111  1.00  0.00     0.064 A 
ATOM     86  C   UNL     1      19.202  -0.081  -9.478  1.00  0.00     0.173 A 
ATOM     87  C   UNL     1      19.674  -2.438  -9.428  1.00  0.00     0.173 A 
ATOM     88  F   UNL     1      18.404   0.965  -9.211  1.00  0.00    -0.203 F 
ATOM     89  C   UNL     1      20.399   0.141 -10.153  1.00  0.00     0.198 A 
ATOM     90  C   UNL     1      20.882  -2.210 -10.079  1.00  0.00     0.198 A 
ATOM     91  F   UNL     1      19.348  -3.696  -9.092  1.00  0.00    -0.203 F 
ATOM     92  F   UNL     1      20.733   1.383 -10.530  1.00  0.00    -0.200 F 
ATOM     93  C   UNL     1      21.241  -0.922 -10.446  1.00  0.00     0.200 A 
ATOM     94  F   UNL     1      21.699  -3.236 -10.351  1.00  0.00    -0.200 F 
ATOM     95  F   UNL     1      22.397  -0.705 -11.088  1.00  0.00    -0.200 F 
ENDBRANCH  62  85
ENDBRANCH  36  37
ENDBRANCH  28  31
ENDBRANCH  26  27
ENDBRANCH  25  26
ENDBRANCH  24  25
ENDBRANCH   1  24
TORSDOF 17
