REMARK SMILES Cc1n[nH]c(CN(C)C(=O)N[C@](C)(C(=O)NCCCCNC(=O)c2ccc(-c3c4nc(c(-c5c(F)c(F)c(F)c(F)c5F)c5ccc([nH]5)c(-c5c(F)c(F)c(F)c(F)c5F)c5nc(c(-c6c(F)c(F)c(F)c(F)c6F)c6ccc3[nH]6)C=C5)C=C4)cc2)C(F)(F)F)n1
REMARK SMILES IDX 17 1 16 2 14 3 15 4 12 6 13 7 11 8 9 9 10 10 7 12 8 13 6 14
REMARK SMILES IDX 5 15 1 16 2 17 3 18 91 19 4 20 87 22 88 23 89 24 90 25 18 26
REMARK SMILES IDX 19 27 20 28 21 29 22 30 23 32 24 33 25 34 86 35 26 36 85 37
REMARK SMILES IDX 27 38 28 39 29 40 79 41 30 42 84 43 78 44 80 45 31 46 83 47
REMARK SMILES IDX 77 48 76 49 32 51 64 52 44 53 63 54 45 55 48 56 62 57 81 58
REMARK SMILES IDX 46 59 47 60 61 62 82 63 49 64 33 65 34 66 42 67 35 68 36 69
REMARK SMILES IDX 40 70 43 71 37 72 38 73 41 74 39 75 65 76 66 77 74 78 67 79
REMARK SMILES IDX 68 80 72 81 75 82 69 83 70 84 73 85 71 86 50 87 51 88 59 89
REMARK SMILES IDX 52 90 53 91 57 92 60 93 54 94 55 95 58 96 56 97
REMARK H PARENT 16 5 11 11 4 21 21 31 80 50 48 61
REMARK Flexibility Score: inf
ROOT
ATOM      1  C   UNL     1       4.931   2.367   7.344  1.00  0.00     0.116 C 
ENDROOT
BRANCH   1   2
ATOM      2  N   UNL     1       4.016   3.346   6.771  1.00  0.00    -0.354 N 
ATOM      3  C   UNL     1       2.664   3.298   6.530  1.00  0.00     0.255 C 
ATOM      4  O   UNL     1       2.161   4.336   6.093  1.00  0.00    -0.272 OA
ATOM      5  H   UNL     1       4.443   4.194   6.511  1.00  0.00     0.163 HD
BRANCH   3   6
ATOM      6  C   UNL     1       1.864   1.977   6.652  1.00  0.00     0.213 C 
ATOM      7  C   UNL     1       2.371   1.097   5.511  1.00  0.00     0.056 C 
BRANCH   6   8
ATOM      8  N   UNL     1       1.998   1.503   8.077  1.00  0.00    -0.316 N 
ATOM      9  C   UNL     1       2.288   0.471   8.871  1.00  0.00     0.318 C 
ATOM     10  O   UNL     1       2.256   0.741  10.079  1.00  0.00    -0.249 OA
ATOM     11  H   UNL     1       1.786   2.268   8.659  1.00  0.00     0.166 HD
BRANCH   9  12
ATOM     12  N   UNL     1       2.655  -0.764   8.452  1.00  0.00    -0.320 N 
ATOM     13  C   UNL     1       2.359  -1.389   7.185  1.00  0.00     0.149 C 
BRANCH  12  14
ATOM     14  C   UNL     1       3.233  -1.659   9.458  1.00  0.00     0.197 C 
BRANCH  14  15
ATOM     15  C   UNL     1       4.546  -1.171   9.967  1.00  0.00     0.144 A 
ATOM     16  C   UNL     1       7.919  -0.103  10.061  1.00  0.00     0.092 C 
ATOM     17  C   UNL     1       6.532  -0.544  10.313  1.00  0.00     0.147 A 
ATOM     18  N   UNL     1       6.050  -0.690  11.552  1.00  0.00    -0.159 NA
ATOM     19  N   UNL     1       5.639  -0.832   9.308  1.00  0.00    -0.215 NA
ATOM     20  N   UNL     1       4.786  -1.060  11.308  1.00  0.00    -0.262 N 
ATOM     21  H   UNL     1       4.113  -1.230  12.006  1.00  0.00     0.192 HD
ENDBRANCH  14  15
ENDBRANCH  12  14
ENDBRANCH   9  12
ENDBRANCH   6   8
BRANCH   6  22
ATOM     22  C   UNL     1       0.377   2.296   6.377  1.00  0.00     0.420 C 
ATOM     23  F   UNL     1       0.145   2.735   5.121  1.00  0.00    -0.168 F 
ATOM     24  F   UNL     1      -0.369   1.165   6.529  1.00  0.00    -0.168 F 
ATOM     25  F   UNL     1      -0.125   3.200   7.250  1.00  0.00    -0.168 F 
ENDBRANCH   6  22
ENDBRANCH   3   6
ENDBRANCH   1   2
BRANCH   1  26
ATOM     26  C   UNL     1       5.836   1.661   6.329  1.00  0.00     0.023 C 
BRANCH  26  27
ATOM     27  C   UNL     1       6.845   2.523   5.567  1.00  0.00     0.023 C 
BRANCH  27  28
ATOM     28  C   UNL     1       7.839   3.269   6.441  1.00  0.00     0.116 C 
BRANCH  28  29
ATOM     29  N   UNL     1       8.697   2.388   7.233  1.00  0.00    -0.352 N 
ATOM     30  C   UNL     1       9.617   2.759   8.201  1.00  0.00     0.251 C 
ATOM     31  H   UNL     1       8.611   1.423   7.059  1.00  0.00     0.163 HD
ATOM     32  O   UNL     1      10.531   2.026   8.534  1.00  0.00    -0.269 OA
BRANCH  30  33
ATOM     33  C   UNL     1       9.430   4.069   8.849  1.00  0.00     0.039 A 
ATOM     34  C   UNL     1      10.484   4.966   9.037  1.00  0.00     0.014 A 
ATOM     35  C   UNL     1       8.127   4.404   9.203  1.00  0.00     0.014 A 
ATOM     36  C   UNL     1      10.189   6.245   9.507  1.00  0.00     0.010 A 
ATOM     37  C   UNL     1       7.820   5.705   9.492  1.00  0.00     0.010 A 
ATOM     38  C   UNL     1       8.848   6.613   9.708  1.00  0.00    -0.014 A 
BRANCH  38  39
ATOM     39  C   UNL     1       8.470   7.990  10.005  1.00  0.00     0.031 A 
ATOM     40  C   UNL     1       8.952   8.973   8.997  1.00  0.00     0.074 A 
ATOM     41  C   UNL     1       7.567   8.304  10.961  1.00  0.00     0.049 A 
ATOM     42  N   UNL     1       9.844   9.890   9.166  1.00  0.00    -0.248 NA
ATOM     43  C   UNL     1       8.517   8.823   7.597  1.00  0.00     0.031 C 
ATOM     44  C   UNL     1       6.785   7.392  11.807  1.00  0.00     0.029 A 
ATOM     45  N   UNL     1       7.073   9.523  11.319  1.00  0.00    -0.354 N 
ATOM     46  C   UNL     1       9.920  10.580   7.958  1.00  0.00     0.074 A 
ATOM     47  C   UNL     1       9.246   9.761   6.987  1.00  0.00     0.031 C 
ATOM     48  C   UNL     1       5.769   8.064  12.392  1.00  0.00     0.029 A 
ATOM     49  C   UNL     1       5.925   9.477  12.108  1.00  0.00     0.049 A 
ATOM     50  H   UNL     1       7.494  10.368  11.042  1.00  0.00     0.167 HD
ATOM     51  C   UNL     1      10.289  11.891   7.939  1.00  0.00     0.037 A 
ATOM     52  C   UNL     1       5.152  10.530  12.482  1.00  0.00     0.037 A 
ATOM     53  C   UNL     1      10.895  12.265   9.194  1.00  0.00     0.049 A 
ATOM     54  C   UNL     1       5.977  11.751  12.317  1.00  0.00     0.074 A 
ATOM     55  C   UNL     1      12.010  11.862   9.902  1.00  0.00     0.029 A 
ATOM     56  N   UNL     1      10.097  12.925  10.095  1.00  0.00    -0.354 N 
ATOM     57  N   UNL     1       7.026  12.017  13.045  1.00  0.00    -0.248 NA
ATOM     58  C   UNL     1       5.913  12.432  11.035  1.00  0.00     0.031 C 
ATOM     59  C   UNL     1      11.609  11.889  11.271  1.00  0.00     0.029 A 
ATOM     60  C   UNL     1      10.306  12.386  11.334  1.00  0.00     0.049 A 
ATOM     61  H   UNL     1       9.480  13.663   9.884  1.00  0.00     0.167 HD
ATOM     62  C   UNL     1       7.954  12.516  12.145  1.00  0.00     0.074 A 
ATOM     63  C   UNL     1       7.184  12.832  10.942  1.00  0.00     0.031 C 
ATOM     64  C   UNL     1       9.291  12.340  12.360  1.00  0.00     0.037 A 
BRANCH  51  65
ATOM     65  C   UNL     1       9.723  12.938   7.002  1.00  0.00     0.064 A 
ATOM     66  C   UNL     1      10.240  14.250   7.066  1.00  0.00     0.173 A 
ATOM     67  C   UNL     1       8.505  12.803   6.302  1.00  0.00     0.173 A 
ATOM     68  F   UNL     1      11.389  14.501   7.711  1.00  0.00    -0.203 F 
ATOM     69  C   UNL     1       9.536  15.349   6.566  1.00  0.00     0.198 A 
ATOM     70  C   UNL     1       7.832  13.897   5.758  1.00  0.00     0.198 A 
ATOM     71  F   UNL     1       7.853  11.640   6.210  1.00  0.00    -0.203 F 
ATOM     72  F   UNL     1       9.999  16.588   6.782  1.00  0.00    -0.200 F 
ATOM     73  C   UNL     1       8.327  15.172   5.922  1.00  0.00     0.200 A 
ATOM     74  F   UNL     1       6.651  13.706   5.152  1.00  0.00    -0.200 F 
ATOM     75  F   UNL     1       7.616  16.227   5.505  1.00  0.00    -0.200 F 
ENDBRANCH  51  65
BRANCH  52  76
ATOM     76  C   UNL     1       3.680  10.599  12.666  1.00  0.00     0.064 A 
ATOM     77  C   UNL     1       3.082  11.694  13.315  1.00  0.00     0.173 A 
ATOM     78  C   UNL     1       2.815   9.753  11.947  1.00  0.00     0.173 A 
ATOM     79  F   UNL     1       3.838  12.577  13.985  1.00  0.00    -0.203 F 
ATOM     80  C   UNL     1       1.708  11.947  13.220  1.00  0.00     0.198 A 
ATOM     81  C   UNL     1       1.443  10.004  11.856  1.00  0.00     0.198 A 
ATOM     82  F   UNL     1       3.297   8.725  11.235  1.00  0.00    -0.203 F 
ATOM     83  F   UNL     1       1.187  13.040  13.794  1.00  0.00    -0.200 F 
ATOM     84  C   UNL     1       0.892  11.108  12.479  1.00  0.00     0.200 A 
ATOM     85  F   UNL     1       0.671   9.208  11.103  1.00  0.00    -0.200 F 
ATOM     86  F   UNL     1      -0.410  11.387  12.329  1.00  0.00    -0.200 F 
ENDBRANCH  52  76
BRANCH  64  87
ATOM     87  C   UNL     1       9.725  11.870  13.721  1.00  0.00     0.064 A 
ATOM     88  C   UNL     1       9.391  10.625  14.282  1.00  0.00     0.173 A 
ATOM     89  C   UNL     1      10.632  12.670  14.428  1.00  0.00     0.173 A 
ATOM     90  F   UNL     1       8.605   9.760  13.629  1.00  0.00    -0.203 F 
ATOM     91  C   UNL     1       9.911  10.223  15.512  1.00  0.00     0.198 A 
ATOM     92  C   UNL     1      11.179  12.251  15.636  1.00  0.00     0.198 A 
ATOM     93  F   UNL     1      11.027  13.847  13.917  1.00  0.00    -0.203 F 
ATOM     94  F   UNL     1       9.567   9.036  16.034  1.00  0.00    -0.200 F 
ATOM     95  C   UNL     1      10.811  11.034  16.184  1.00  0.00     0.200 A 
ATOM     96  F   UNL     1      12.086  13.018  16.256  1.00  0.00    -0.200 F 
ATOM     97  F   UNL     1      11.343  10.632  17.346  1.00  0.00    -0.200 F 
ENDBRANCH  64  87
ENDBRANCH  38  39
ENDBRANCH  30  33
ENDBRANCH  28  29
ENDBRANCH  27  28
ENDBRANCH  26  27
ENDBRANCH   1  26
TORSDOF 16
