REMARK SMILES Cc1cc(Cl)c2c(c1)C=C(C(=O)NCCCCNC(=O)c1ccc(-c3c4nc(c(-c5c(F)c(F)c(F)c(F)c5F)c5ccc([nH]5)c(-c5c(F)c(F)c(F)c(F)c5F)c5nc(c(-c6c(F)c(F)c(F)c(F)c6F)c6ccc3[nH]6)C=C5)C=C4)cc1)[C@@H](C(F)(F)F)O2
REMARK SMILES IDX 16 1 15 2 14 3 13 4 11 5 12 6 10 8 1 9 2 10 3 11 8 12 4 13
REMARK SMILES IDX 7 14 5 15 6 16 9 17 89 18 84 19 85 20 86 21 87 22 88 23
REMARK SMILES IDX 17 24 18 25 19 26 20 28 21 29 22 30 83 31 23 32 82 33 24 34
REMARK SMILES IDX 25 35 26 36 76 37 27 38 81 39 75 40 77 41 28 42 80 43 74 44
REMARK SMILES IDX 73 45 29 47 61 48 41 49 60 50 42 51 45 52 59 53 78 54 43 55
REMARK SMILES IDX 44 56 58 58 79 59 46 60 30 61 31 62 39 63 32 64 33 65 37 66
REMARK SMILES IDX 40 67 34 68 35 69 38 70 36 71 62 72 63 73 71 74 64 75 65 76
REMARK SMILES IDX 69 77 72 78 66 79 67 80 70 81 68 82 47 83 48 84 56 85 49 86
REMARK SMILES IDX 50 87 54 88 57 89 51 90 52 91 55 92 53 93
REMARK H PARENT 13 7 18 27 77 46 45 57
REMARK Flexibility Score: inf
ROOT
ATOM      1  C   UNL     1      -0.448   4.277  10.149  1.00  0.00     0.023 C 
ENDROOT
BRANCH   1   2
ATOM      2  C   UNL     1      -0.558   3.133   9.138  1.00  0.00     0.023 C 
BRANCH   2   3
ATOM      3  C   UNL     1      -1.622   3.348   8.066  1.00  0.00     0.116 C 
BRANCH   3   4
ATOM      4  N   UNL     1      -1.121   4.139   6.957  1.00  0.00    -0.352 N 
ATOM      5  C   UNL     1      -0.695   3.907   5.693  1.00  0.00     0.251 C 
ATOM      6  O   UNL     1      -0.330   4.912   5.074  1.00  0.00    -0.270 OA
ATOM      7  H   UNL     1      -1.081   5.096   7.184  1.00  0.00     0.163 HD
BRANCH   5   8
ATOM      8  C   UNL     1      -0.641   2.571   5.029  1.00  0.00     0.067 C 
ATOM      9  C   UNL     1       1.015   0.011  -0.358  1.00  0.00     0.044 C 
ATOM     10  C   UNL     1       0.527   0.040   1.060  1.00  0.00    -0.049 A 
ATOM     11  C   UNL     1       0.219  -1.150   1.728  1.00  0.00     0.028 A 
ATOM     12  C   UNL     1       0.438   1.256   1.753  1.00  0.00     0.015 A 
ATOM     13  C   UNL     1      -0.196  -1.123   3.061  1.00  0.00     0.084 A 
ATOM     14  C   UNL     1       0.016   1.288   3.088  1.00  0.00     0.019 A 
ATOM     15  Cl  UNL     1      -0.568  -2.618   3.840  1.00  0.00    -0.080 Cl
ATOM     16  C   UNL     1      -0.309   0.095   3.739  1.00  0.00     0.146 A 
ATOM     17  C   UNL     1      -0.047   2.547   3.821  1.00  0.00     0.025 C 
ATOM     18  O   UNL     1      -0.685   0.079   5.054  1.00  0.00    -0.474 OA
ATOM     19  C   UNL     1      -1.234   1.311   5.594  1.00  0.00     0.314 C 
BRANCH  19  20
ATOM     20  C   UNL     1      -2.770   1.277   5.486  1.00  0.00     0.429 C 
ATOM     21  F   UNL     1      -3.282   0.310   6.286  1.00  0.00    -0.167 F 
ATOM     22  F   UNL     1      -3.342   2.440   5.880  1.00  0.00    -0.167 F 
ATOM     23  F   UNL     1      -3.199   1.036   4.227  1.00  0.00    -0.167 F 
ENDBRANCH  19  20
ENDBRANCH   5   8
ENDBRANCH   3   4
ENDBRANCH   2   3
ENDBRANCH   1   2
BRANCH   1  24
ATOM     24  C   UNL     1      -1.744   4.640  10.872  1.00  0.00     0.116 C 
BRANCH  24  25
ATOM     25  N   UNL     1      -2.418   3.505  11.486  1.00  0.00    -0.352 N 
ATOM     26  C   UNL     1      -3.191   3.497  12.623  1.00  0.00     0.251 C 
ATOM     27  H   UNL     1      -2.306   2.638  11.033  1.00  0.00     0.163 HD
ATOM     28  O   UNL     1      -3.654   2.454  13.070  1.00  0.00    -0.269 OA
BRANCH  26  29
ATOM     29  C   UNL     1      -3.411   4.772  13.327  1.00  0.00     0.039 A 
ATOM     30  C   UNL     1      -2.992   4.886  14.653  1.00  0.00     0.014 A 
ATOM     31  C   UNL     1      -3.937   5.870  12.641  1.00  0.00     0.014 A 
ATOM     32  C   UNL     1      -3.025   6.134  15.274  1.00  0.00     0.010 A 
ATOM     33  C   UNL     1      -3.916   7.123  13.242  1.00  0.00     0.010 A 
ATOM     34  C   UNL     1      -3.447   7.266  14.557  1.00  0.00    -0.014 A 
BRANCH  34  35
ATOM     35  C   UNL     1      -3.389   8.616  15.164  1.00  0.00     0.031 A 
ATOM     36  C   UNL     1      -4.658   9.354  15.467  1.00  0.00     0.074 A 
ATOM     37  C   UNL     1      -2.193   9.195  15.384  1.00  0.00     0.049 A 
ATOM     38  N   UNL     1      -4.817  10.565  15.936  1.00  0.00    -0.248 NA
ATOM     39  C   UNL     1      -5.916   8.647  15.183  1.00  0.00     0.031 C 
ATOM     40  C   UNL     1      -0.893   8.589  15.089  1.00  0.00     0.029 A 
ATOM     41  N   UNL     1      -1.877  10.425  15.903  1.00  0.00    -0.354 N 
ATOM     42  C   UNL     1      -6.188  10.767  15.994  1.00  0.00     0.074 A 
ATOM     43  C   UNL     1      -6.817   9.576  15.467  1.00  0.00     0.031 C 
ATOM     44  C   UNL     1       0.080   9.437  15.460  1.00  0.00     0.029 A 
ATOM     45  C   UNL     1      -0.526  10.655  15.990  1.00  0.00     0.049 A 
ATOM     46  H   UNL     1      -2.554  11.080  16.186  1.00  0.00     0.167 HD
ATOM     47  C   UNL     1      -6.861  11.841  16.468  1.00  0.00     0.037 A 
ATOM     48  C   UNL     1       0.145  11.727  16.450  1.00  0.00     0.037 A 
ATOM     49  C   UNL     1      -6.233  13.011  17.019  1.00  0.00     0.049 A 
ATOM     50  C   UNL     1      -0.627  12.908  16.970  1.00  0.00     0.074 A 
ATOM     51  C   UNL     1      -6.828  14.132  17.569  1.00  0.00     0.029 A 
ATOM     52  N   UNL     1      -4.862  13.206  17.094  1.00  0.00    -0.354 N 
ATOM     53  N   UNL     1      -1.924  13.072  17.059  1.00  0.00    -0.248 NA
ATOM     54  C   UNL     1       0.158  14.054  17.451  1.00  0.00     0.031 C 
ATOM     55  C   UNL     1      -5.817  15.018  17.954  1.00  0.00     0.029 A 
ATOM     56  C   UNL     1      -4.592  14.435  17.672  1.00  0.00     0.049 A 
ATOM     57  H   UNL     1      -4.181  12.566  16.783  1.00  0.00     0.167 HD
ATOM     58  C   UNL     1      -2.112  14.326  17.622  1.00  0.00     0.074 A 
ATOM     59  C   UNL     1      -0.796  14.878  17.865  1.00  0.00     0.031 C 
ATOM     60  C   UNL     1      -3.273  14.962  17.910  1.00  0.00     0.037 A 
BRANCH  47  61
ATOM     61  C   UNL     1      -8.357  11.788  16.429  1.00  0.00     0.064 A 
ATOM     62  C   UNL     1      -9.080  10.971  17.311  1.00  0.00     0.173 A 
ATOM     63  C   UNL     1      -9.077  12.584  15.527  1.00  0.00     0.173 A 
ATOM     64  F   UNL     1      -8.433  10.181  18.181  1.00  0.00    -0.203 F 
ATOM     65  C   UNL     1     -10.470  10.937  17.277  1.00  0.00     0.198 A 
ATOM     66  C   UNL     1     -10.470  12.565  15.512  1.00  0.00     0.198 A 
ATOM     67  F   UNL     1      -8.432  13.383  14.664  1.00  0.00    -0.203 F 
ATOM     68  F   UNL     1     -11.139  10.119  18.101  1.00  0.00    -0.200 F 
ATOM     69  C   UNL     1     -11.164  11.738  16.382  1.00  0.00     0.200 A 
ATOM     70  F   UNL     1     -11.140  13.345  14.652  1.00  0.00    -0.200 F 
ATOM     71  F   UNL     1     -12.504  11.708  16.355  1.00  0.00    -0.200 F 
ENDBRANCH  47  61
BRANCH  48  72
ATOM     72  C   UNL     1       1.628  11.713  16.480  1.00  0.00     0.064 A 
ATOM     73  C   UNL     1       2.314  11.573  17.694  1.00  0.00     0.173 A 
ATOM     74  C   UNL     1       2.388  11.819  15.306  1.00  0.00     0.173 A 
ATOM     75  F   UNL     1       1.629  11.487  18.843  1.00  0.00    -0.203 F 
ATOM     76  C   UNL     1       3.706  11.549  17.735  1.00  0.00     0.198 A 
ATOM     77  C   UNL     1       3.780  11.774  15.346  1.00  0.00     0.198 A 
ATOM     78  F   UNL     1       1.776  11.950  14.120  1.00  0.00    -0.203 F 
ATOM     79  F   UNL     1       4.338  11.442  18.911  1.00  0.00    -0.200 F 
ATOM     80  C   UNL     1       4.438  11.643  16.560  1.00  0.00     0.200 A 
ATOM     81  F   UNL     1       4.484  11.856  14.209  1.00  0.00    -0.200 F 
ATOM     82  F   UNL     1       5.777  11.613  16.599  1.00  0.00    -0.200 F 
ENDBRANCH  48  72
BRANCH  60  83
ATOM     83  C   UNL     1      -3.178  16.321  18.533  1.00  0.00     0.064 A 
ATOM     84  C   UNL     1      -2.854  17.451  17.768  1.00  0.00     0.173 A 
ATOM     85  C   UNL     1      -3.489  16.505  19.888  1.00  0.00     0.173 A 
ATOM     86  F   UNL     1      -2.537  17.319  16.472  1.00  0.00    -0.203 F 
ATOM     87  C   UNL     1      -2.838  18.718  18.342  1.00  0.00     0.198 A 
ATOM     88  C   UNL     1      -3.492  17.777  20.453  1.00  0.00     0.198 A 
ATOM     89  F   UNL     1      -3.810  15.454  20.657  1.00  0.00    -0.203 F 
ATOM     90  F   UNL     1      -2.503  19.783  17.601  1.00  0.00    -0.200 F 
ATOM     91  C   UNL     1      -3.165  18.881  19.681  1.00  0.00     0.200 A 
ATOM     92  F   UNL     1      -3.818  17.934  21.743  1.00  0.00    -0.200 F 
ATOM     93  F   UNL     1      -3.163  20.105  20.227  1.00  0.00    -0.200 F 
ENDBRANCH  60  83
ENDBRANCH  34  35
ENDBRANCH  26  29
ENDBRANCH  24  25
ENDBRANCH   1  24
TORSDOF 12
