REMARK SMILES C[C@@H](CC(=O)NCCCCNC(=O)c1ccc(-c2c3nc(c(-c4c(F)c(F)c(F)c(F)c4F)c4ccc([nH]4)c(-c4c(F)c(F)c(F)c(F)c4F)c4nc(c(-c5c(F)c(F)c(F)c(F)c5F)c5ccc2[nH]5)C=C4)C=C3)cc1)NC(=O)CCCN1C(=O)CN(C)C1=O
REMARK SMILES IDX 4 1 5 2 6 3 3 5 2 6 1 7 77 8 78 9 79 11 80 12 81 13 82 14
REMARK SMILES IDX 83 15 84 16 89 17 85 18 86 19 87 20 90 21 88 22 7 23 8 24
REMARK SMILES IDX 9 25 10 26 11 27 12 28 13 30 14 31 15 32 76 33 16 34 75 35
REMARK SMILES IDX 17 36 18 37 19 38 69 39 20 40 74 41 68 42 70 43 21 44 73 45
REMARK SMILES IDX 67 46 66 47 22 49 54 50 34 51 53 52 35 53 38 54 52 55 71 56
REMARK SMILES IDX 36 57 37 58 51 60 72 61 39 62 23 63 24 64 32 65 25 66 26 67
REMARK SMILES IDX 30 68 33 69 27 70 28 71 31 72 29 73 55 74 56 75 64 76 57 77
REMARK SMILES IDX 58 78 62 79 65 80 59 81 60 82 63 83 61 84 40 85 41 86 49 87
REMARK SMILES IDX 42 88 43 89 47 90 50 91 44 92 45 93 48 94 46 95
REMARK H PARENT 6 4 77 10 11 29 70 48 38 59
REMARK Flexibility Score: inf
ROOT
ATOM      1  C   UNL     1      -0.141   2.725   0.516  1.00  0.00     0.222 C 
ATOM      2  O   UNL     1      -1.132   3.434   0.689  1.00  0.00    -0.275 OA
ATOM      3  N   UNL     1       0.617   2.931  -0.597  1.00  0.00    -0.356 N 
ATOM      4  H   UNL     1       0.362   3.719  -1.129  1.00  0.00     0.163 HD
ENDROOT
BRANCH   1   5
ATOM      5  C   UNL     1       0.265   1.685   1.528  1.00  0.00     0.124 C 
BRANCH   5   6
ATOM      6  C   UNL     1      -0.299   0.278   1.340  1.00  0.00     0.088 C 
ATOM      7  C   UNL     1      -0.232  -0.321  -0.051  1.00  0.00     0.031 C 
BRANCH   6   8
ATOM      8  N   UNL     1      -1.630   0.053   1.850  1.00  0.00    -0.353 N 
ATOM      9  C   UNL     1      -2.055  -1.115   2.420  1.00  0.00     0.220 C 
ATOM     10  H   UNL     1      -2.276   0.793   1.783  1.00  0.00     0.163 HD
ATOM     11  O   UNL     1      -3.232  -1.444   2.256  1.00  0.00    -0.275 OA
BRANCH   9  12
ATOM     12  C   UNL     1      -1.128  -1.938   3.320  1.00  0.00     0.102 C 
BRANCH  12  13
ATOM     13  C   UNL     1      -0.109  -2.920   2.732  1.00  0.00     0.032 C 
BRANCH  13  14
ATOM     14  C   UNL     1       1.329  -2.531   2.333  1.00  0.00     0.131 C 
BRANCH  14  15
ATOM     15  N   UNL     1       2.236  -1.813   3.235  1.00  0.00    -0.263 N 
ATOM     16  C   UNL     1       2.051  -0.613   3.871  1.00  0.00     0.250 C 
ATOM     17  C   UNL     1       3.576  -2.132   3.280  1.00  0.00     0.326 C 
ATOM     18  O   UNL     1       1.020   0.022   4.031  1.00  0.00    -0.272 OA
ATOM     19  C   UNL     1       3.383  -0.046   4.301  1.00  0.00     0.221 C 
ATOM     20  N   UNL     1       4.242  -1.140   3.976  1.00  0.00    -0.318 N 
ATOM     21  O   UNL     1       4.114  -3.092   2.751  1.00  0.00    -0.248 OA
ATOM     22  C   UNL     1       5.664  -1.071   4.200  1.00  0.00     0.149 C 
ENDBRANCH  14  15
ENDBRANCH  13  14
ENDBRANCH  12  13
ENDBRANCH   9  12
ENDBRANCH   6   8
ENDBRANCH   5   6
ENDBRANCH   1   5
BRANCH   3  23
ATOM     23  C   UNL     1       1.740   2.178  -1.128  1.00  0.00     0.116 C 
BRANCH  23  24
ATOM     24  C   UNL     1       1.341   1.375  -2.370  1.00  0.00     0.023 C 
BRANCH  24  25
ATOM     25  C   UNL     1       0.905   2.218  -3.556  1.00  0.00     0.023 C 
BRANCH  25  26
ATOM     26  C   UNL     1       2.037   3.026  -4.151  1.00  0.00     0.116 C 
BRANCH  26  27
ATOM     27  N   UNL     1       3.089   2.171  -4.696  1.00  0.00    -0.352 N 
ATOM     28  C   UNL     1       3.536   2.083  -5.991  1.00  0.00     0.251 C 
ATOM     29  H   UNL     1       3.537   1.579  -4.049  1.00  0.00     0.163 HD
ATOM     30  O   UNL     1       4.277   1.185  -6.350  1.00  0.00    -0.269 OA
BRANCH  28  31
ATOM     31  C   UNL     1       3.061   3.101  -6.948  1.00  0.00     0.039 A 
ATOM     32  C   UNL     1       2.458   2.695  -8.138  1.00  0.00     0.014 A 
ATOM     33  C   UNL     1       3.098   4.448  -6.579  1.00  0.00     0.014 A 
ATOM     34  C   UNL     1       1.798   3.642  -8.918  1.00  0.00     0.010 A 
ATOM     35  C   UNL     1       2.348   5.364  -7.297  1.00  0.00     0.010 A 
ATOM     36  C   UNL     1       1.689   4.970  -8.472  1.00  0.00    -0.014 A 
BRANCH  36  37
ATOM     37  C   UNL     1       0.882   5.976  -9.201  1.00  0.00     0.031 A 
ATOM     38  C   UNL     1       1.550   7.211  -9.733  1.00  0.00     0.074 A 
ATOM     39  C   UNL     1      -0.454   5.825  -9.287  1.00  0.00     0.049 A 
ATOM     40  N   UNL     1       1.014   8.269 -10.284  1.00  0.00    -0.248 NA
ATOM     41  C   UNL     1       3.013   7.286  -9.586  1.00  0.00     0.031 C 
ATOM     42  C   UNL     1      -1.218   4.699  -8.746  1.00  0.00     0.029 A 
ATOM     43  N   UNL     1      -1.409   6.635  -9.846  1.00  0.00    -0.354 N 
ATOM     44  C   UNL     1       2.068   9.139 -10.525  1.00  0.00     0.074 A 
ATOM     45  C   UNL     1       3.265   8.516 -10.005  1.00  0.00     0.031 C 
ATOM     46  C   UNL     1      -2.520   4.878  -9.021  1.00  0.00     0.029 A 
ATOM     47  C   UNL     1      -2.688   6.148  -9.719  1.00  0.00     0.049 A 
ATOM     48  H   UNL     1      -1.199   7.485 -10.296  1.00  0.00     0.167 HD
ATOM     49  C   UNL     1       2.043  10.336 -11.154  1.00  0.00     0.037 A 
ATOM     50  C   UNL     1      -3.862   6.676 -10.112  1.00  0.00     0.037 A 
ATOM     51  C   UNL     1       0.855  10.927 -11.705  1.00  0.00     0.049 A 
ATOM     52  C   UNL     1      -3.861   8.008 -10.812  1.00  0.00     0.074 A 
ATOM     53  C   UNL     1       0.731  12.091 -12.441  1.00  0.00     0.029 A 
ATOM     54  N   UNL     1      -0.420  10.394 -11.578  1.00  0.00    -0.354 N 
ATOM     55  N   UNL     1      -2.848   8.784 -11.111  1.00  0.00    -0.248 NA
ATOM     56  C   UNL     1      -5.167   8.538 -11.227  1.00  0.00     0.031 C 
ATOM     57  C   UNL     1      -0.625  12.287 -12.721  1.00  0.00     0.029 A 
ATOM     58  C   UNL     1      -1.341  11.222 -12.197  1.00  0.00     0.049 A 
ATOM     59  H   UNL     1      -0.637   9.552 -11.116  1.00  0.00     0.167 HD
ATOM     60  C   UNL     1      -3.389   9.885 -11.761  1.00  0.00     0.074 A 
ATOM     61  C   UNL     1      -4.819   9.665 -11.834  1.00  0.00     0.031 C 
ATOM     62  C   UNL     1      -2.761  10.982 -12.250  1.00  0.00     0.037 A 
BRANCH  49  63
ATOM     63  C   UNL     1       3.342  11.076 -11.288  1.00  0.00     0.064 A 
ATOM     64  C   UNL     1       4.366  10.616 -12.131  1.00  0.00     0.173 A 
ATOM     65  C   UNL     1       3.557  12.270 -10.585  1.00  0.00     0.173 A 
ATOM     66  F   UNL     1       4.217   9.470 -12.812  1.00  0.00    -0.203 F 
ATOM     67  C   UNL     1       5.568  11.309 -12.241  1.00  0.00     0.198 A 
ATOM     68  C   UNL     1       4.749  12.977 -10.722  1.00  0.00     0.198 A 
ATOM     69  F   UNL     1       2.610  12.754  -9.767  1.00  0.00    -0.203 F 
ATOM     70  F   UNL     1       6.552  10.822 -13.010  1.00  0.00    -0.200 F 
ATOM     71  C   UNL     1       5.756  12.492 -11.543  1.00  0.00     0.200 A 
ATOM     72  F   UNL     1       4.925  14.126 -10.055  1.00  0.00    -0.200 F 
ATOM     73  F   UNL     1       6.912  13.161 -11.655  1.00  0.00    -0.200 F 
ENDBRANCH  49  63
BRANCH  50  74
ATOM     74  C   UNL     1      -5.130   5.939  -9.870  1.00  0.00     0.064 A 
ATOM     75  C   UNL     1      -5.848   5.379 -10.935  1.00  0.00     0.173 A 
ATOM     76  C   UNL     1      -5.649   5.779  -8.577  1.00  0.00     0.173 A 
ATOM     77  F   UNL     1      -5.402   5.523 -12.192  1.00  0.00    -0.203 F 
ATOM     78  C   UNL     1      -7.047   4.702 -10.719  1.00  0.00     0.198 A 
ATOM     79  C   UNL     1      -6.834   5.079  -8.359  1.00  0.00     0.198 A 
ATOM     80  F   UNL     1      -4.997   6.292  -7.523  1.00  0.00    -0.203 F 
ATOM     81  F   UNL     1      -7.735   4.213 -11.759  1.00  0.00    -0.200 F 
ATOM     82  C   UNL     1      -7.536   4.548  -9.430  1.00  0.00     0.200 A 
ATOM     83  F   UNL     1      -7.296   4.920  -7.111  1.00  0.00    -0.200 F 
ATOM     84  F   UNL     1      -8.687   3.893  -9.222  1.00  0.00    -0.200 F 
ENDBRANCH  50  74
BRANCH  62  85
ATOM     85  C   UNL     1      -3.616  12.022 -12.910  1.00  0.00     0.064 A 
ATOM     86  C   UNL     1      -4.451  12.863 -12.161  1.00  0.00     0.173 A 
ATOM     87  C   UNL     1      -3.562  12.213 -14.299  1.00  0.00     0.173 A 
ATOM     88  F   UNL     1      -4.548  12.708 -10.831  1.00  0.00    -0.203 F 
ATOM     89  C   UNL     1      -5.217  13.845 -12.781  1.00  0.00     0.198 A 
ATOM     90  C   UNL     1      -4.307  13.215 -14.912  1.00  0.00     0.198 A 
ATOM     91  F   UNL     1      -2.772  11.438 -15.058  1.00  0.00    -0.203 F 
ATOM     92  F   UNL     1      -6.040  14.611 -12.051  1.00  0.00    -0.200 F 
ATOM     93  C   UNL     1      -5.138  14.026 -14.154  1.00  0.00     0.200 A 
ATOM     94  F   UNL     1      -4.219  13.398 -16.237  1.00  0.00    -0.200 F 
ATOM     95  F   UNL     1      -5.868  14.980 -14.748  1.00  0.00    -0.200 F 
ENDBRANCH  62  85
ENDBRANCH  36  37
ENDBRANCH  28  31
ENDBRANCH  26  27
ENDBRANCH  25  26
ENDBRANCH  24  25
ENDBRANCH  23  24
ENDBRANCH   3  23
TORSDOF 17
