REMARK SMILES CC1(C)CCCC[C@@]1(C(=O)NCCCCNC(=O)c1ccc(-c2c3nc(c(-c4c(F)c(F)c(F)c(F)c4F)c4ccc([nH]4)c(-c4c(F)c(F)c(F)c(F)c4F)c4nc(c(-c5c(F)c(F)c(F)c(F)c5F)c5ccc2[nH]5)C=C4)C=C3)cc1)[NH+]1CC[NH2+]CC1
REMARK SMILES IDX 14 1 13 2 12 3 11 4 9 5 10 6 8 8 1 9 2 10 3 11 4 12 5 13
REMARK SMILES IDX 7 14 6 15 82 16 83 17 87 18 84 20 86 21 85 22 15 25 16 26
REMARK SMILES IDX 17 27 18 29 19 30 20 31 81 32 21 33 80 34 22 35 23 36 24 37
REMARK SMILES IDX 74 38 25 39 79 40 73 41 75 42 26 43 78 44 72 45 71 46 27 48
REMARK SMILES IDX 59 49 39 50 58 51 40 52 43 53 57 54 76 55 41 56 42 57 56 59
REMARK SMILES IDX 77 60 44 61 28 62 29 63 37 64 30 65 31 66 35 67 38 68 32 69
REMARK SMILES IDX 33 70 36 71 34 72 60 73 61 74 69 75 62 76 63 77 67 78 70 79
REMARK SMILES IDX 64 80 65 81 68 82 66 83 45 84 46 85 54 86 47 87 48 88 52 89
REMARK SMILES IDX 55 90 49 91 50 92 53 93 51 94
REMARK H PARENT 11 7 82 19 85 23 85 24 16 28 75 47 43 58
REMARK Flexibility Score: inf
ROOT
ATOM      1  C   UNL     1      -6.007   1.052   1.474  1.00  0.00     0.023 C 
ENDROOT
BRANCH   1   2
ATOM      2  C   UNL     1      -4.822   0.415   0.763  1.00  0.00     0.023 C 
BRANCH   2   3
ATOM      3  C   UNL     1      -4.102   1.282  -0.288  1.00  0.00     0.116 C 
BRANCH   3   4
ATOM      4  N   UNL     1      -2.988   1.973   0.327  1.00  0.00    -0.351 N 
ATOM      5  C   UNL     1      -1.701   1.694   0.656  1.00  0.00     0.281 C 
ATOM      6  O   UNL     1      -1.399   2.376   1.649  1.00  0.00    -0.268 OA
ATOM      7  H   UNL     1      -3.229   2.895   0.573  1.00  0.00     0.163 HD
BRANCH   5   8
ATOM      8  C   UNL     1      -0.590   0.778  -0.132  1.00  0.00     0.182 C 
ATOM      9  C   UNL     1       2.086   0.391   0.015  1.00  0.00     0.018 C 
ATOM     10  C   UNL     1       0.866   1.198   0.531  1.00  0.00     0.029 C 
ATOM     11  C   UNL     1       0.903   0.980   2.074  1.00  0.00     0.018 C 
ATOM     12  C   UNL     1       1.197   2.692   0.214  1.00  0.00     0.013 C 
ATOM     13  C   UNL     1       1.131   3.014  -1.277  1.00  0.00     0.001 C 
ATOM     14  C   UNL     1      -0.616   1.215  -1.627  1.00  0.00     0.080 C 
ATOM     15  C   UNL     1      -0.233   2.678  -1.862  1.00  0.00     0.007 C 
BRANCH   8  16
ATOM     16  N   UNL     1      -0.804  -0.736   0.029  1.00  0.00    -0.313 N 
ATOM     17  C   UNL     1      -0.079  -1.624  -0.916  1.00  0.00     0.325 C 
ATOM     18  C   UNL     1      -2.200  -1.175  -0.032  1.00  0.00     0.325 C 
ATOM     19  H   UNL     1      -0.415  -0.839   0.967  1.00  0.00     0.349 HD
ATOM     20  C   UNL     1      -0.283  -3.125  -0.589  1.00  0.00     0.322 C 
ATOM     21  C   UNL     1      -2.500  -2.689   0.105  1.00  0.00     0.322 C 
ATOM     22  N   UNL     1      -1.682  -3.535  -0.767  1.00  0.00    -0.337 N 
ATOM     23  H   UNL     1      -1.794  -4.515  -0.507  1.00  0.00     0.346 HD
ATOM     24  H   UNL     1      -1.967  -3.431  -1.741  1.00  0.00     0.346 HD
ENDBRANCH   8  16
ENDBRANCH   5   8
ENDBRANCH   3   4
ENDBRANCH   2   3
ENDBRANCH   1   2
BRANCH   1  25
ATOM     25  C   UNL     1      -7.196   1.344   0.586  1.00  0.00     0.116 C 
BRANCH  25  26
ATOM     26  N   UNL     1      -7.699   0.185  -0.138  1.00  0.00    -0.352 N 
ATOM     27  C   UNL     1      -9.003  -0.091  -0.487  1.00  0.00     0.251 C 
ATOM     28  H   UNL     1      -7.027  -0.480  -0.411  1.00  0.00     0.163 HD
ATOM     29  O   UNL     1      -9.302  -1.130  -1.052  1.00  0.00    -0.269 OA
BRANCH  27  30
ATOM     30  C   UNL     1     -10.043   0.884  -0.101  1.00  0.00     0.039 A 
ATOM     31  C   UNL     1     -11.136   0.444   0.645  1.00  0.00     0.014 A 
ATOM     32  C   UNL     1      -9.858   2.242  -0.370  1.00  0.00     0.014 A 
ATOM     33  C   UNL     1     -12.007   1.383   1.197  1.00  0.00     0.010 A 
ATOM     34  C   UNL     1     -10.663   3.175   0.264  1.00  0.00     0.010 A 
ATOM     35  C   UNL     1     -11.748   2.755   1.048  1.00  0.00    -0.014 A 
BRANCH  35  36
ATOM     36  C   UNL     1     -12.615   3.781   1.675  1.00  0.00     0.031 A 
ATOM     37  C   UNL     1     -13.354   4.752   0.799  1.00  0.00     0.074 A 
ATOM     38  C   UNL     1     -12.666   3.893   3.016  1.00  0.00     0.049 A 
ATOM     39  N   UNL     1     -14.074   5.791   1.136  1.00  0.00    -0.248 NA
ATOM     40  C   UNL     1     -13.230   4.554  -0.655  1.00  0.00     0.031 C 
ATOM     41  C   UNL     1     -11.938   3.052   3.968  1.00  0.00     0.029 A 
ATOM     42  N   UNL     1     -13.356   4.773   3.811  1.00  0.00    -0.354 N 
ATOM     43  C   UNL     1     -14.457   6.383  -0.060  1.00  0.00     0.074 A 
ATOM     44  C   UNL     1     -13.843   5.628  -1.128  1.00  0.00     0.031 C 
ATOM     45  C   UNL     1     -12.242   3.439   5.218  1.00  0.00     0.029 A 
ATOM     46  C   UNL     1     -13.160   4.572   5.155  1.00  0.00     0.049 A 
ATOM     47  H   UNL     1     -13.937   5.482   3.451  1.00  0.00     0.167 HD
ATOM     48  C   UNL     1     -15.274   7.445  -0.251  1.00  0.00     0.037 A 
ATOM     49  C   UNL     1     -13.668   5.231   6.213  1.00  0.00     0.037 A 
ATOM     50  C   UNL     1     -15.929   8.155   0.813  1.00  0.00     0.049 A 
ATOM     51  C   UNL     1     -14.615   6.376   5.974  1.00  0.00     0.074 A 
ATOM     52  C   UNL     1     -16.838   9.194   0.727  1.00  0.00     0.029 A 
ATOM     53  N   UNL     1     -15.750   7.886   2.162  1.00  0.00    -0.354 N 
ATOM     54  N   UNL     1     -15.026   6.886   4.838  1.00  0.00    -0.248 NA
ATOM     55  C   UNL     1     -15.176   7.031   7.164  1.00  0.00     0.031 C 
ATOM     56  C   UNL     1     -17.189   9.572   2.027  1.00  0.00     0.029 A 
ATOM     57  C   UNL     1     -16.526   8.745   2.921  1.00  0.00     0.049 A 
ATOM     58  H   UNL     1     -15.159   7.188   2.526  1.00  0.00     0.167 HD
ATOM     59  C   UNL     1     -15.911   7.901   5.174  1.00  0.00     0.074 A 
ATOM     60  C   UNL     1     -15.988   7.927   6.620  1.00  0.00     0.031 C 
ATOM     61  C   UNL     1     -16.597   8.739   4.359  1.00  0.00     0.037 A 
BRANCH  48  62
ATOM     62  C   UNL     1     -15.516   7.882  -1.665  1.00  0.00     0.064 A 
ATOM     63  C   UNL     1     -16.272   7.104  -2.555  1.00  0.00     0.173 A 
ATOM     64  C   UNL     1     -14.994   9.097  -2.134  1.00  0.00     0.173 A 
ATOM     65  F   UNL     1     -16.776   5.925  -2.160  1.00  0.00    -0.203 F 
ATOM     66  C   UNL     1     -16.467   7.509  -3.872  1.00  0.00     0.198 A 
ATOM     67  C   UNL     1     -15.218   9.513  -3.443  1.00  0.00     0.198 A 
ATOM     68  F   UNL     1     -14.265   9.878  -1.323  1.00  0.00    -0.203 F 
ATOM     69  F   UNL     1     -17.143   6.721  -4.720  1.00  0.00    -0.200 F 
ATOM     70  C   UNL     1     -15.946   8.716  -4.314  1.00  0.00     0.200 A 
ATOM     71  F   UNL     1     -14.720  10.683  -3.867  1.00  0.00    -0.200 F 
ATOM     72  F   UNL     1     -16.136   9.105  -5.582  1.00  0.00    -0.200 F 
ENDBRANCH  48  62
BRANCH  49  73
ATOM     73  C   UNL     1     -13.331   4.796   7.593  1.00  0.00     0.064 A 
ATOM     74  C   UNL     1     -14.287   4.158   8.396  1.00  0.00     0.173 A 
ATOM     75  C   UNL     1     -12.057   5.008   8.138  1.00  0.00     0.173 A 
ATOM     76  F   UNL     1     -15.525   3.951   7.924  1.00  0.00    -0.203 F 
ATOM     77  C   UNL     1     -13.989   3.768   9.700  1.00  0.00     0.198 A 
ATOM     78  C   UNL     1     -11.752   4.596   9.434  1.00  0.00     0.198 A 
ATOM     79  F   UNL     1     -11.106   5.609   7.409  1.00  0.00    -0.203 F 
ATOM     80  F   UNL     1     -14.934   3.198  10.459  1.00  0.00    -0.200 F 
ATOM     81  C   UNL     1     -12.720   3.983  10.216  1.00  0.00     0.200 A 
ATOM     82  F   UNL     1     -10.522   4.795   9.927  1.00  0.00    -0.200 F 
ATOM     83  F   UNL     1     -12.432   3.606  11.470  1.00  0.00    -0.200 F 
ENDBRANCH  49  73
BRANCH  61  84
ATOM     84  C   UNL     1     -17.516   9.728   5.009  1.00  0.00     0.064 A 
ATOM     85  C   UNL     1     -17.022  10.860   5.672  1.00  0.00     0.173 A 
ATOM     86  C   UNL     1     -18.906   9.565   4.922  1.00  0.00     0.173 A 
ATOM     87  F   UNL     1     -15.700  11.049   5.792  1.00  0.00    -0.203 F 
ATOM     88  C   UNL     1     -17.890  11.787   6.242  1.00  0.00     0.198 A 
ATOM     89  C   UNL     1     -19.771  10.507   5.471  1.00  0.00     0.198 A 
ATOM     90  F   UNL     1     -19.425   8.501   4.292  1.00  0.00    -0.203 F 
ATOM     91  F   UNL     1     -17.398  12.843   6.904  1.00  0.00    -0.200 F 
ATOM     92  C   UNL     1     -19.262  11.614   6.135  1.00  0.00     0.200 A 
ATOM     93  F   UNL     1     -21.096  10.345   5.357  1.00  0.00    -0.200 F 
ATOM     94  F   UNL     1     -20.096  12.512   6.677  1.00  0.00    -0.200 F 
ENDBRANCH  61  84
ENDBRANCH  35  36
ENDBRANCH  27  30
ENDBRANCH  25  26
ENDBRANCH   1  25
TORSDOF 12
