REMARK SMILES CC(C)[C@@H]([NH3+])C(=O)N[C@@H](Cc1ccccc1)C(=O)NCCCCNC(=O)c1ccc(-c2c3nc(c(-c4c(F)c(F)c(F)c(F)c4F)c4ccc([nH]4)c(-c4c(F)c(F)c(F)c(F)c4F)c4nc(c(-c5c(F)c(F)c(F)c(F)c5F)c5ccc2[nH]5)C=C4)C=C3)cc1
REMARK SMILES IDX 21 1 20 2 19 3 17 4 18 5 9 7 8 8 6 9 7 10 4 12 2 13 1 14
REMARK SMILES IDX 3 15 5 16 10 20 11 21 12 22 16 23 13 24 15 25 14 26 22 27
REMARK SMILES IDX 23 28 24 29 25 30 26 32 27 33 28 34 89 35 29 36 88 37 30 38
REMARK SMILES IDX 31 39 32 40 82 41 33 42 87 43 81 44 83 45 34 46 86 47 80 48
REMARK SMILES IDX 79 49 35 51 67 52 47 53 66 54 48 55 51 56 65 57 84 58 49 59
REMARK SMILES IDX 50 60 64 62 85 63 52 64 36 65 37 66 45 67 38 68 39 69 43 70
REMARK SMILES IDX 46 71 40 72 41 73 44 74 42 75 68 76 69 77 77 78 70 79 71 80
REMARK SMILES IDX 75 81 78 82 72 83 73 84 76 85 74 86 53 87 54 88 62 89 55 90
REMARK SMILES IDX 56 91 60 92 63 93 57 94 58 95 61 96 59 97
REMARK H PARENT 19 6 8 11 5 17 5 18 5 19 24 31 83 50 51 61
REMARK Flexibility Score: inf
ROOT
ATOM      1  C   UNL     1      -3.400   5.927  -3.725  1.00  0.00     0.023 C 
ENDROOT
BRANCH   1   2
ATOM      2  C   UNL     1      -1.990   5.782  -3.177  1.00  0.00     0.116 C 
BRANCH   2   3
ATOM      3  N   UNL     1      -1.915   5.599  -1.746  1.00  0.00    -0.354 N 
ATOM      4  C   UNL     1      -1.011   4.872  -1.023  1.00  0.00     0.242 C 
ATOM      5  O   UNL     1      -0.792   5.267   0.129  1.00  0.00    -0.273 OA
ATOM      6  H   UNL     1      -2.609   6.059  -1.221  1.00  0.00     0.163 HD
BRANCH   4   7
ATOM      7  C   UNL     1      -0.186   3.700  -1.616  1.00  0.00     0.175 C 
BRANCH   7   8
ATOM      8  N   UNL     1      -0.945   2.797  -2.493  1.00  0.00    -0.339 N 
ATOM      9  C   UNL     1      -1.333   1.507  -2.309  1.00  0.00     0.279 C 
ATOM     10  O   UNL     1      -2.108   1.028  -3.145  1.00  0.00    -0.268 OA
ATOM     11  H   UNL     1      -1.217   3.191  -3.353  1.00  0.00     0.164 HD
BRANCH   9  12
ATOM     12  C   UNL     1      -0.827   0.647  -1.129  1.00  0.00     0.273 C 
BRANCH  12  13
ATOM     13  C   UNL     1       0.706   0.427  -1.155  1.00  0.00     0.051 C 
ATOM     14  C   UNL     1       1.185  -0.457   0.002  1.00  0.00     0.014 C 
ATOM     15  C   UNL     1       1.151  -0.199  -2.483  1.00  0.00     0.014 C 
ENDBRANCH  12  13
BRANCH  12  16
ATOM     16  N   UNL     1      -1.318   1.231   0.135  1.00  0.00    -0.347 N 
ATOM     17  H   UNL     1      -0.946   2.175   0.241  1.00  0.00     0.345 HD
ATOM     18  H   UNL     1      -1.011   0.655   0.918  1.00  0.00     0.345 HD
ATOM     19  H   UNL     1      -2.337   1.268   0.119  1.00  0.00     0.345 HD
ENDBRANCH  12  16
ENDBRANCH   9  12
ENDBRANCH   7   8
BRANCH   7  20
ATOM     20  C   UNL     1       1.176   4.126  -2.213  1.00  0.00     0.070 C 
BRANCH  20  21
ATOM     21  C   UNL     1       1.162   5.072  -3.392  1.00  0.00    -0.045 A 
ATOM     22  C   UNL     1       1.465   6.429  -3.207  1.00  0.00     0.004 A 
ATOM     23  C   UNL     1       0.826   4.623  -4.678  1.00  0.00     0.004 A 
ATOM     24  C   UNL     1       1.376   7.328  -4.273  1.00  0.00     0.000 A 
ATOM     25  C   UNL     1       0.714   5.529  -5.737  1.00  0.00     0.000 A 
ATOM     26  C   UNL     1       0.981   6.882  -5.532  1.00  0.00     0.000 A 
ENDBRANCH  20  21
ENDBRANCH   7  20
ENDBRANCH   4   7
ENDBRANCH   2   3
ENDBRANCH   1   2
BRANCH   1  27
ATOM     27  C   UNL     1      -4.059   7.277  -3.462  1.00  0.00     0.023 C 
BRANCH  27  28
ATOM     28  C   UNL     1      -3.228   8.510  -3.809  1.00  0.00     0.116 C 
BRANCH  28  29
ATOM     29  N   UNL     1      -2.692   8.516  -5.163  1.00  0.00    -0.352 N 
ATOM     30  C   UNL     1      -2.661   9.541  -6.084  1.00  0.00     0.251 C 
ATOM     31  H   UNL     1      -2.296   7.666  -5.464  1.00  0.00     0.163 HD
ATOM     32  O   UNL     1      -2.205   9.360  -7.203  1.00  0.00    -0.269 OA
BRANCH  30  33
ATOM     33  C   UNL     1      -3.231  10.856  -5.719  1.00  0.00     0.039 A 
ATOM     34  C   UNL     1      -4.167  11.442  -6.574  1.00  0.00     0.014 A 
ATOM     35  C   UNL     1      -2.895  11.473  -4.512  1.00  0.00     0.014 A 
ATOM     36  C   UNL     1      -4.842  12.595  -6.169  1.00  0.00     0.010 A 
ATOM     37  C   UNL     1      -3.624  12.575  -4.075  1.00  0.00     0.010 A 
ATOM     38  C   UNL     1      -4.616  13.138  -4.893  1.00  0.00    -0.014 A 
BRANCH  38  39
ATOM     39  C   UNL     1      -5.443  14.263  -4.385  1.00  0.00     0.031 A 
ATOM     40  C   UNL     1      -4.818  15.591  -4.065  1.00  0.00     0.074 A 
ATOM     41  C   UNL     1      -6.756  14.064  -4.151  1.00  0.00     0.049 A 
ATOM     42  N   UNL     1      -5.379  16.678  -3.598  1.00  0.00    -0.248 NA
ATOM     43  C   UNL     1      -3.366  15.705  -4.269  1.00  0.00     0.031 C 
ATOM     44  C   UNL     1      -7.468  12.799  -4.348  1.00  0.00     0.029 A 
ATOM     45  N   UNL     1      -7.725  14.920  -3.689  1.00  0.00    -0.354 N 
ATOM     46  C   UNL     1      -4.351  17.598  -3.445  1.00  0.00     0.074 A 
ATOM     47  C   UNL     1      -3.124  16.926  -3.813  1.00  0.00     0.031 C 
ATOM     48  C   UNL     1      -8.764  12.971  -4.043  1.00  0.00     0.029 A 
ATOM     49  C   UNL     1      -8.970  14.346  -3.601  1.00  0.00     0.049 A 
ATOM     50  H   UNL     1      -7.545  15.856  -3.445  1.00  0.00     0.167 HD
ATOM     51  C   UNL     1      -4.427  18.894  -3.060  1.00  0.00     0.037 A 
ATOM     52  C   UNL     1     -10.147  14.872  -3.212  1.00  0.00     0.037 A 
ATOM     53  C   UNL     1      -5.652  19.569  -2.717  1.00  0.00     0.049 A 
ATOM     54  C   UNL     1     -10.207  16.319  -2.805  1.00  0.00     0.074 A 
ATOM     55  C   UNL     1      -5.841  20.898  -2.384  1.00  0.00     0.029 A 
ATOM     56  N   UNL     1      -6.898  18.961  -2.659  1.00  0.00    -0.354 N 
ATOM     57  N   UNL     1      -9.242  17.204  -2.752  1.00  0.00    -0.248 NA
ATOM     58  C   UNL     1     -11.524  16.841  -2.414  1.00  0.00     0.031 C 
ATOM     59  C   UNL     1      -7.195  21.086  -2.084  1.00  0.00     0.029 A 
ATOM     60  C   UNL     1      -7.857  19.884  -2.275  1.00  0.00     0.049 A 
ATOM     61  H   UNL     1      -7.074  18.014  -2.862  1.00  0.00     0.167 HD
ATOM     62  C   UNL     1      -9.835  18.390  -2.343  1.00  0.00     0.074 A 
ATOM     63  C   UNL     1     -11.248  18.117  -2.183  1.00  0.00     0.031 C 
ATOM     64  C   UNL     1      -9.260  19.597  -2.118  1.00  0.00     0.037 A 
BRANCH  51  65
ATOM     65  C   UNL     1      -3.147  19.675  -3.002  1.00  0.00     0.064 A 
ATOM     66  C   UNL     1      -2.457  20.039  -4.169  1.00  0.00     0.173 A 
ATOM     67  C   UNL     1      -2.620  20.094  -1.771  1.00  0.00     0.173 A 
ATOM     68  F   UNL     1      -2.913  19.653  -5.370  1.00  0.00    -0.203 F 
ATOM     69  C   UNL     1      -1.274  20.769  -4.104  1.00  0.00     0.198 A 
ATOM     70  C   UNL     1      -1.452  20.849  -1.712  1.00  0.00     0.198 A 
ATOM     71  F   UNL     1      -3.242  19.777  -0.626  1.00  0.00    -0.203 F 
ATOM     72  F   UNL     1      -0.608  21.064  -5.229  1.00  0.00    -0.200 F 
ATOM     73  C   UNL     1      -0.776  21.179  -2.877  1.00  0.00     0.200 A 
ATOM     74  F   UNL     1      -0.977  21.255  -0.526  1.00  0.00    -0.200 F 
ATOM     75  F   UNL     1       0.361  21.887  -2.816  1.00  0.00    -0.200 F 
ENDBRANCH  51  65
BRANCH  52  76
ATOM     76  C   UNL     1     -11.375  14.035  -3.228  1.00  0.00     0.064 A 
ATOM     77  C   UNL     1     -12.388  14.264  -4.170  1.00  0.00     0.173 A 
ATOM     78  C   UNL     1     -11.565  12.997  -2.305  1.00  0.00     0.173 A 
ATOM     79  F   UNL     1     -12.261  15.260  -5.060  1.00  0.00    -0.203 F 
ATOM     80  C   UNL     1     -13.552  13.499  -4.176  1.00  0.00     0.198 A 
ATOM     81  C   UNL     1     -12.718  12.215  -2.329  1.00  0.00     0.198 A 
ATOM     82  F   UNL     1     -10.624  12.735  -1.386  1.00  0.00    -0.203 F 
ATOM     83  F   UNL     1     -14.523  13.768  -5.060  1.00  0.00    -0.200 F 
ATOM     84  C   UNL     1     -13.714  12.472  -3.259  1.00  0.00     0.200 A 
ATOM     85  F   UNL     1     -12.866  11.215  -1.450  1.00  0.00    -0.200 F 
ATOM     86  F   UNL     1     -14.833  11.734  -3.267  1.00  0.00    -0.200 F 
ENDBRANCH  52  76
BRANCH  64  87
ATOM     87  C   UNL     1     -10.164  20.716  -1.692  1.00  0.00     0.064 A 
ATOM     88  C   UNL     1     -10.730  20.754  -0.409  1.00  0.00     0.173 A 
ATOM     89  C   UNL     1     -10.446  21.776  -2.567  1.00  0.00     0.173 A 
ATOM     90  F   UNL     1     -10.504  19.756   0.458  1.00  0.00    -0.203 F 
ATOM     91  C   UNL     1     -11.569  21.798  -0.029  1.00  0.00     0.198 A 
ATOM     92  C   UNL     1     -11.261  22.832  -2.173  1.00  0.00     0.198 A 
ATOM     93  F   UNL     1      -9.924  21.789  -3.803  1.00  0.00    -0.203 F 
ATOM     94  F   UNL     1     -12.140  21.788   1.184  1.00  0.00    -0.200 F 
ATOM     95  C   UNL     1     -11.828  22.839  -0.908  1.00  0.00     0.200 A 
ATOM     96  F   UNL     1     -11.501  23.843  -3.020  1.00  0.00    -0.200 F 
ATOM     97  F   UNL     1     -12.633  23.845  -0.539  1.00  0.00    -0.200 F 
ENDBRANCH  64  87
ENDBRANCH  38  39
ENDBRANCH  30  33
ENDBRANCH  28  29
ENDBRANCH  27  28
ENDBRANCH   1  27
TORSDOF 17
