REMARK SMILES Cc1ccc(-c2cc(Cl)ccc2Cl)c(C(=O)NCCCCNC(=O)c2ccc(-c3c4nc(c(-c5c(F)c(F)c(F)c(F)c5F)c5ccc([nH]5)c(-c5c(F)c(F)c(F)c(F)c5F)c5nc(c(-c6c(F)c(F)c(F)c(F)c6F)c6ccc3[nH]6)C=C5)C=C4)cc2)c1
REMARK SMILES IDX 20 1 19 2 18 3 17 4 15 5 16 6 14 8 1 9 2 10 3 11 88 12 4 13
REMARK SMILES IDX 5 14 6 15 7 16 12 17 8 18 11 19 13 20 9 21 10 22 21 23 22 24
REMARK SMILES IDX 23 25 24 27 25 28 26 29 87 30 27 31 86 32 28 33 29 34 30 35
REMARK SMILES IDX 80 36 31 37 85 38 79 39 81 40 32 41 84 42 78 43 77 44 33 46
REMARK SMILES IDX 65 47 45 48 64 49 46 50 49 51 63 52 82 53 47 54 48 55 62 57
REMARK SMILES IDX 83 58 50 59 34 60 35 61 43 62 36 63 37 64 41 65 44 66 38 67
REMARK SMILES IDX 39 68 42 69 40 70 66 71 67 72 75 73 68 74 69 75 73 76 76 77
REMARK SMILES IDX 70 78 71 79 74 80 72 81 51 82 52 83 60 84 53 85 54 86 58 87
REMARK SMILES IDX 61 88 55 89 56 90 59 91 57 92
REMARK H PARENT 17 7 22 26 81 45 49 56
REMARK Flexibility Score: inf
ROOT
ATOM      1  C   UNL     1       0.495   5.423  -1.951  1.00  0.00     0.023 C 
ENDROOT
BRANCH   1   2
ATOM      2  C   UNL     1       1.095   4.252  -1.161  1.00  0.00     0.023 C 
BRANCH   2   3
ATOM      3  C   UNL     1       0.452   4.007   0.214  1.00  0.00     0.116 C 
BRANCH   3   4
ATOM      4  N   UNL     1      -0.940   3.604   0.116  1.00  0.00    -0.352 N 
ATOM      5  C   UNL     1      -1.632   2.422   0.015  1.00  0.00     0.251 C 
ATOM      6  O   UNL     1      -2.855   2.574   0.024  1.00  0.00    -0.269 OA
ATOM      7  H   UNL     1      -1.545   4.381   0.123  1.00  0.00     0.163 HD
BRANCH   5   8
ATOM      8  C   UNL     1      -1.028   1.039  -0.079  1.00  0.00     0.047 A 
ATOM      9  C   UNL     1       2.457  -0.552  -0.261  1.00  0.00     0.044 C 
ATOM     10  C   UNL     1       0.964  -0.415  -0.189  1.00  0.00    -0.050 A 
ATOM     11  C   UNL     1       0.159  -1.543  -0.109  1.00  0.00     0.004 A 
ATOM     12  C   UNL     1       0.360   0.852  -0.204  1.00  0.00     0.018 A 
ATOM     13  C   UNL     1      -1.224  -1.399  -0.056  1.00  0.00     0.010 A 
ATOM     14  C   UNL     1      -1.847  -0.127  -0.036  1.00  0.00    -0.004 A 
BRANCH  14  15
ATOM     15  C   UNL     1      -3.329  -0.124  -0.013  1.00  0.00     0.003 A 
ATOM     16  C   UNL     1      -4.033   0.255  -1.176  1.00  0.00     0.030 A 
ATOM     17  C   UNL     1      -4.085  -0.528   1.107  1.00  0.00     0.049 A 
ATOM     18  C   UNL     1      -5.429   0.269  -1.201  1.00  0.00     0.041 A 
ATOM     19  C   UNL     1      -5.486  -0.539   1.065  1.00  0.00     0.023 A 
ATOM     20  Cl  UNL     1      -3.338  -1.033   2.585  1.00  0.00    -0.084 Cl
ATOM     21  Cl  UNL     1      -6.253   0.791  -2.618  1.00  0.00    -0.084 Cl
ATOM     22  C   UNL     1      -6.159  -0.132  -0.087  1.00  0.00     0.022 A 
ENDBRANCH  14  15
ENDBRANCH   5   8
ENDBRANCH   3   4
ENDBRANCH   2   3
ENDBRANCH   1   2
BRANCH   1  23
ATOM     23  C   UNL     1       0.783   6.792  -1.347  1.00  0.00     0.116 C 
BRANCH  23  24
ATOM     24  N   UNL     1       2.044   7.395  -1.760  1.00  0.00    -0.352 N 
ATOM     25  C   UNL     1       2.725   8.479  -1.226  1.00  0.00     0.251 C 
ATOM     26  H   UNL     1       2.477   6.969  -2.535  1.00  0.00     0.163 HD
ATOM     27  O   UNL     1       3.723   8.907  -1.779  1.00  0.00    -0.269 OA
BRANCH  25  28
ATOM     28  C   UNL     1       2.323   9.021   0.099  1.00  0.00     0.039 A 
ATOM     29  C   UNL     1       3.336   9.259   1.038  1.00  0.00     0.014 A 
ATOM     30  C   UNL     1       0.988   9.079   0.486  1.00  0.00     0.014 A 
ATOM     31  C   UNL     1       3.021   9.267   2.395  1.00  0.00     0.010 A 
ATOM     32  C   UNL     1       0.683   8.981   1.830  1.00  0.00     0.010 A 
ATOM     33  C   UNL     1       1.711   8.987   2.778  1.00  0.00    -0.014 A 
BRANCH  33  34
ATOM     34  C   UNL     1       1.353   8.519   4.111  1.00  0.00     0.031 A 
ATOM     35  C   UNL     1       0.573   9.374   5.030  1.00  0.00     0.074 A 
ATOM     36  C   UNL     1       1.646   7.241   4.449  1.00  0.00     0.049 A 
ATOM     37  N   UNL     1       0.445   9.136   6.291  1.00  0.00    -0.248 NA
ATOM     38  C   UNL     1      -0.064  10.623   4.620  1.00  0.00     0.031 C 
ATOM     39  C   UNL     1       1.097   6.464   5.559  1.00  0.00     0.029 A 
ATOM     40  N   UNL     1       2.683   6.434   3.942  1.00  0.00    -0.354 N 
ATOM     41  C   UNL     1      -0.500  10.000   6.788  1.00  0.00     0.074 A 
ATOM     42  C   UNL     1      -0.680  10.984   5.752  1.00  0.00     0.031 C 
ATOM     43  C   UNL     1       1.944   5.465   5.851  1.00  0.00     0.029 A 
ATOM     44  C   UNL     1       3.132   5.665   5.042  1.00  0.00     0.049 A 
ATOM     45  H   UNL     1       3.024   6.410   3.019  1.00  0.00     0.167 HD
ATOM     46  C   UNL     1      -1.105   9.691   7.968  1.00  0.00     0.037 A 
ATOM     47  C   UNL     1       4.395   5.800   5.543  1.00  0.00     0.037 A 
ATOM     48  C   UNL     1      -0.363   8.644   8.671  1.00  0.00     0.049 A 
ATOM     49  C   UNL     1       4.444   6.205   6.997  1.00  0.00     0.074 A 
ATOM     50  C   UNL     1      -0.591   7.300   8.906  1.00  0.00     0.029 A 
ATOM     51  N   UNL     1       0.958   8.892   9.038  1.00  0.00    -0.354 N 
ATOM     52  N   UNL     1       3.443   6.742   7.637  1.00  0.00    -0.248 NA
ATOM     53  C   UNL     1       5.636   6.077   7.830  1.00  0.00     0.031 C 
ATOM     54  C   UNL     1       0.639   6.721   9.324  1.00  0.00     0.029 A 
ATOM     55  C   UNL     1       1.596   7.721   9.391  1.00  0.00     0.049 A 
ATOM     56  H   UNL     1       1.379   9.782   9.044  1.00  0.00     0.167 HD
ATOM     57  C   UNL     1       3.836   7.071   8.908  1.00  0.00     0.074 A 
ATOM     58  C   UNL     1       5.208   6.606   8.990  1.00  0.00     0.031 C 
ATOM     59  C   UNL     1       3.003   7.725   9.771  1.00  0.00     0.037 A 
BRANCH  46  60
ATOM     60  C   UNL     1      -2.462  10.192   8.428  1.00  0.00     0.064 A 
ATOM     61  C   UNL     1      -2.974   9.797   9.686  1.00  0.00     0.173 A 
ATOM     62  C   UNL     1      -3.368  10.938   7.641  1.00  0.00     0.173 A 
ATOM     63  F   UNL     1      -2.235   9.075  10.540  1.00  0.00    -0.203 F 
ATOM     64  C   UNL     1      -4.275  10.108  10.104  1.00  0.00     0.198 A 
ATOM     65  C   UNL     1      -4.647  11.292   8.082  1.00  0.00     0.198 A 
ATOM     66  F   UNL     1      -3.091  11.307   6.387  1.00  0.00    -0.203 F 
ATOM     67  F   UNL     1      -4.723   9.652  11.282  1.00  0.00    -0.200 F 
ATOM     68  C   UNL     1      -5.107  10.865   9.306  1.00  0.00     0.200 A 
ATOM     69  F   UNL     1      -5.439  12.026   7.287  1.00  0.00    -0.200 F 
ATOM     70  F   UNL     1      -6.351  11.164   9.703  1.00  0.00    -0.200 F 
ENDBRANCH  46  60
BRANCH  47  71
ATOM     71  C   UNL     1       5.398   6.183   4.517  1.00  0.00     0.064 A 
ATOM     72  C   UNL     1       5.671   5.272   3.479  1.00  0.00     0.173 A 
ATOM     73  C   UNL     1       5.780   7.516   4.326  1.00  0.00     0.173 A 
ATOM     74  F   UNL     1       5.321   3.982   3.611  1.00  0.00    -0.203 F 
ATOM     75  C   UNL     1       6.193   5.698   2.260  1.00  0.00     0.198 A 
ATOM     76  C   UNL     1       6.314   7.937   3.106  1.00  0.00     0.198 A 
ATOM     77  F   UNL     1       5.526   8.435   5.268  1.00  0.00    -0.203 F 
ATOM     78  F   UNL     1       6.336   4.824   1.253  1.00  0.00    -0.200 F 
ATOM     79  C   UNL     1       6.488   7.036   2.065  1.00  0.00     0.200 A 
ATOM     80  F   UNL     1       6.569   9.238   2.904  1.00  0.00    -0.200 F 
ATOM     81  F   UNL     1       6.897   7.466   0.863  1.00  0.00    -0.200 F 
ENDBRANCH  47  71
BRANCH  59  82
ATOM     82  C   UNL     1       3.415   8.369  11.075  1.00  0.00     0.064 A 
ATOM     83  C   UNL     1       4.705   8.863  11.338  1.00  0.00     0.173 A 
ATOM     84  C   UNL     1       2.448   8.646  12.072  1.00  0.00     0.173 A 
ATOM     85  F   UNL     1       5.682   8.787  10.425  1.00  0.00    -0.203 F 
ATOM     86  C   UNL     1       5.021   9.516  12.534  1.00  0.00     0.198 A 
ATOM     87  C   UNL     1       2.753   9.351  13.237  1.00  0.00     0.198 A 
ATOM     88  F   UNL     1       1.170   8.266  11.931  1.00  0.00    -0.203 F 
ATOM     89  F   UNL     1       6.279   9.925  12.752  1.00  0.00    -0.200 F 
ATOM     90  C   UNL     1       4.044   9.770  13.477  1.00  0.00     0.200 A 
ATOM     91  F   UNL     1       1.781   9.640  14.114  1.00  0.00    -0.200 F 
ATOM     92  F   UNL     1       4.342  10.436  14.600  1.00  0.00    -0.200 F 
ENDBRANCH  59  82
ENDBRANCH  33  34
ENDBRANCH  25  28
ENDBRANCH  23  24
ENDBRANCH   1  23
TORSDOF 12
