REMARK SMILES COC(C)(C)C[C@@](C)(Nc1cc(C)cc(F)c1)C(=O)NCCCCNC(=O)c1ccc(-c2c3nc(c(-c4c(F)c(F)c(F)c(F)c4F)c4ccc([nH]4)c(-c4c(F)c(F)c(F)c(F)c4F)c4nc(c(-c5c(F)c(F)c(F)c(F)c5F)c5ccc2[nH]5)C=C4)C=C3)cc1
REMARK SMILES IDX 22 1 21 2 20 3 18 4 19 5 7 7 8 8 6 9 3 10 4 11 5 12 2 13
REMARK SMILES IDX 1 14 9 15 10 17 11 18 17 19 12 20 15 21 13 22 14 23 16 24
REMARK SMILES IDX 23 25 24 26 25 27 26 28 27 30 28 31 29 32 90 33 30 34 89 35
REMARK SMILES IDX 31 36 32 37 33 38 83 39 34 40 88 41 82 42 84 43 35 44 87 45
REMARK SMILES IDX 81 46 80 47 36 49 68 50 48 51 67 52 49 53 52 54 66 55 85 56
REMARK SMILES IDX 50 57 51 58 65 60 86 61 53 62 37 63 38 64 46 65 39 66 40 67
REMARK SMILES IDX 44 68 47 69 41 70 42 71 45 72 43 73 69 74 70 75 78 76 71 77
REMARK SMILES IDX 72 78 76 79 79 80 73 81 74 82 77 83 75 84 54 85 55 86 63 87
REMARK SMILES IDX 56 88 57 89 61 90 64 91 58 92 59 93 62 94 60 95
REMARK H PARENT 20 6 9 16 25 29 84 48 52 59
REMARK Flexibility Score: inf
ROOT
ATOM      1  C   UNL     1       1.864   1.104   7.294  1.00  0.00     0.023 C 
ENDROOT
BRANCH   1   2
ATOM      2  C   UNL     1       1.792   1.632   5.856  1.00  0.00     0.116 C 
BRANCH   2   3
ATOM      3  N   UNL     1       2.624   0.918   4.904  1.00  0.00    -0.354 N 
ATOM      4  C   UNL     1       2.426  -0.214   4.167  1.00  0.00     0.245 C 
ATOM      5  O   UNL     1       3.436  -0.626   3.584  1.00  0.00    -0.272 OA
ATOM      6  H   UNL     1       3.506   1.333   4.762  1.00  0.00     0.163 HD
BRANCH   4   7
ATOM      7  C   UNL     1       1.079  -0.989   4.149  1.00  0.00     0.116 C 
ATOM      8  C   UNL     1      -0.094  -0.008   3.897  1.00  0.00     0.045 C 
BRANCH   7   9
ATOM      9  C   UNL     1       1.019  -2.109   3.057  1.00  0.00     0.073 C 
BRANCH   9  10
ATOM     10  C   UNL     1       1.198  -1.777   1.536  1.00  0.00     0.065 C 
ATOM     11  C   UNL     1       0.446  -2.872   0.744  1.00  0.00     0.042 C 
ATOM     12  C   UNL     1       2.677  -1.818   1.121  1.00  0.00     0.042 C 
BRANCH  10  13
ATOM     13  O   UNL     1       0.596  -0.507   1.255  1.00  0.00    -0.379 OA
ATOM     14  C   UNL     1       0.829   0.052  -0.032  1.00  0.00     0.195 C 
ENDBRANCH  10  13
ENDBRANCH   9  10
ENDBRANCH   7   9
BRANCH   7  15
ATOM     15  N   UNL     1       0.803  -1.684   5.451  1.00  0.00    -0.371 N 
ATOM     16  H   UNL     1      -0.156  -1.744   5.665  1.00  0.00     0.161 HD
BRANCH  15  17
ATOM     17  C   UNL     1       1.617  -2.258   6.414  1.00  0.00     0.038 A 
ATOM     18  C   UNL     1       3.012  -2.142   6.498  1.00  0.00     0.029 A 
ATOM     19  C   UNL     1       0.991  -2.901   7.494  1.00  0.00     0.065 A 
ATOM     20  C   UNL     1       3.736  -2.483   7.668  1.00  0.00    -0.046 A 
ATOM     21  C   UNL     1       1.710  -3.329   8.611  1.00  0.00     0.125 A 
ATOM     22  C   UNL     1       5.176  -2.077   7.844  1.00  0.00     0.044 C 
ATOM     23  C   UNL     1       3.069  -3.097   8.724  1.00  0.00     0.042 A 
ATOM     24  F   UNL     1       1.061  -3.924   9.621  1.00  0.00    -0.207 F 
ENDBRANCH  15  17
ENDBRANCH   7  15
ENDBRANCH   4   7
ENDBRANCH   2   3
ENDBRANCH   1   2
BRANCH   1  25
ATOM     25  C   UNL     1       3.276   0.825   7.804  1.00  0.00     0.023 C 
BRANCH  25  26
ATOM     26  C   UNL     1       4.114   2.060   7.866  1.00  0.00     0.116 C 
BRANCH  26  27
ATOM     27  N   UNL     1       3.740   2.924   8.972  1.00  0.00    -0.352 N 
ATOM     28  C   UNL     1       4.563   3.802   9.646  1.00  0.00     0.251 C 
ATOM     29  H   UNL     1       2.803   2.878   9.271  1.00  0.00     0.163 HD
ATOM     30  O   UNL     1       4.311   4.161  10.781  1.00  0.00    -0.269 OA
BRANCH  28  31
ATOM     31  C   UNL     1       5.741   4.327   8.930  1.00  0.00     0.039 A 
ATOM     32  C   UNL     1       6.829   4.896   9.597  1.00  0.00     0.014 A 
ATOM     33  C   UNL     1       5.695   4.332   7.541  1.00  0.00     0.014 A 
ATOM     34  C   UNL     1       7.809   5.534   8.843  1.00  0.00     0.010 A 
ATOM     35  C   UNL     1       6.789   4.632   6.818  1.00  0.00     0.010 A 
ATOM     36  C   UNL     1       7.728   5.421   7.458  1.00  0.00    -0.014 A 
BRANCH  36  37
ATOM     37  C   UNL     1       8.455   6.187   6.478  1.00  0.00     0.031 A 
ATOM     38  C   UNL     1       9.803   5.759   6.157  1.00  0.00     0.074 A 
ATOM     39  C   UNL     1       7.661   6.978   5.717  1.00  0.00     0.049 A 
ATOM     40  N   UNL     1      10.652   6.488   5.539  1.00  0.00    -0.248 NA
ATOM     41  C   UNL     1      10.329   4.455   6.553  1.00  0.00     0.031 C 
ATOM     42  C   UNL     1       7.844   7.536   4.389  1.00  0.00     0.029 A 
ATOM     43  N   UNL     1       6.404   7.486   6.109  1.00  0.00    -0.354 N 
ATOM     44  C   UNL     1      11.645   5.638   5.112  1.00  0.00     0.074 A 
ATOM     45  C   UNL     1      11.525   4.478   5.957  1.00  0.00     0.031 C 
ATOM     46  C   UNL     1       6.976   8.559   4.238  1.00  0.00     0.029 A 
ATOM     47  C   UNL     1       6.307   8.758   5.519  1.00  0.00     0.049 A 
ATOM     48  H   UNL     1       5.735   7.042   6.677  1.00  0.00     0.167 HD
ATOM     49  C   UNL     1      12.289   5.962   3.954  1.00  0.00     0.037 A 
ATOM     50  C   UNL     1       6.469   9.823   6.364  1.00  0.00     0.037 A 
ATOM     51  C   UNL     1      11.782   7.256   3.457  1.00  0.00     0.049 A 
ATOM     52  C   UNL     1       7.825  10.483   6.192  1.00  0.00     0.074 A 
ATOM     53  C   UNL     1      10.900   7.637   2.461  1.00  0.00     0.029 A 
ATOM     54  N   UNL     1      11.909   8.360   4.281  1.00  0.00    -0.354 N 
ATOM     55  N   UNL     1       8.780  10.009   5.438  1.00  0.00    -0.248 NA
ATOM     56  C   UNL     1       8.225  11.704   6.882  1.00  0.00     0.031 C 
ATOM     57  C   UNL     1      10.444   8.966   2.762  1.00  0.00     0.029 A 
ATOM     58  C   UNL     1      11.067   9.393   3.923  1.00  0.00     0.049 A 
ATOM     59  H   UNL     1      12.533   8.404   5.041  1.00  0.00     0.167 HD
ATOM     60  C   UNL     1       9.880  10.810   5.507  1.00  0.00     0.074 A 
ATOM     61  C   UNL     1       9.494  11.844   6.457  1.00  0.00     0.031 C 
ATOM     62  C   UNL     1      11.019  10.571   4.787  1.00  0.00     0.037 A 
BRANCH  49  63
ATOM     63  C   UNL     1      13.197   5.069   3.135  1.00  0.00     0.064 A 
ATOM     64  C   UNL     1      13.718   5.555   1.915  1.00  0.00     0.173 A 
ATOM     65  C   UNL     1      13.569   3.741   3.434  1.00  0.00     0.173 A 
ATOM     66  F   UNL     1      13.496   6.815   1.516  1.00  0.00    -0.203 F 
ATOM     67  C   UNL     1      14.493   4.769   1.056  1.00  0.00     0.198 A 
ATOM     68  C   UNL     1      14.359   2.961   2.583  1.00  0.00     0.198 A 
ATOM     69  F   UNL     1      13.194   3.119   4.551  1.00  0.00    -0.203 F 
ATOM     70  F   UNL     1      14.928   5.284  -0.102  1.00  0.00    -0.200 F 
ATOM     71  C   UNL     1      14.811   3.470   1.388  1.00  0.00     0.200 A 
ATOM     72  F   UNL     1      14.668   1.704   2.938  1.00  0.00    -0.200 F 
ATOM     73  F   UNL     1      15.551   2.714   0.567  1.00  0.00    -0.200 F 
ENDBRANCH  49  63
BRANCH  50  74
ATOM     74  C   UNL     1       5.754   9.570   7.666  1.00  0.00     0.064 A 
ATOM     75  C   UNL     1       4.362   9.329   7.598  1.00  0.00     0.173 A 
ATOM     76  C   UNL     1       6.426   9.088   8.799  1.00  0.00     0.173 A 
ATOM     77  F   UNL     1       3.657   9.775   6.545  1.00  0.00    -0.203 F 
ATOM     78  C   UNL     1       3.720   8.493   8.511  1.00  0.00     0.198 A 
ATOM     79  C   UNL     1       5.766   8.285   9.737  1.00  0.00     0.198 A 
ATOM     80  F   UNL     1       7.746   9.281   8.939  1.00  0.00    -0.203 F 
ATOM     81  F   UNL     1       2.439   8.145   8.314  1.00  0.00    -0.200 F 
ATOM     82  C   UNL     1       4.431   7.946   9.563  1.00  0.00     0.200 A 
ATOM     83  F   UNL     1       6.450   7.765  10.768  1.00  0.00    -0.200 F 
ATOM     84  F   UNL     1       3.838   7.069  10.384  1.00  0.00    -0.200 F 
ENDBRANCH  50  74
BRANCH  62  85
ATOM     85  C   UNL     1      12.223  11.468   4.857  1.00  0.00     0.064 A 
ATOM     86  C   UNL     1      12.108  12.865   4.826  1.00  0.00     0.173 A 
ATOM     87  C   UNL     1      13.540  10.957   4.855  1.00  0.00     0.173 A 
ATOM     88  F   UNL     1      10.909  13.455   4.721  1.00  0.00    -0.203 F 
ATOM     89  C   UNL     1      13.230  13.691   4.886  1.00  0.00     0.198 A 
ATOM     90  C   UNL     1      14.658  11.782   4.829  1.00  0.00     0.198 A 
ATOM     91  F   UNL     1      13.796   9.643   4.915  1.00  0.00    -0.203 F 
ATOM     92  F   UNL     1      13.071  15.019   4.951  1.00  0.00    -0.200 F 
ATOM     93  C   UNL     1      14.504  13.150   4.876  1.00  0.00     0.200 A 
ATOM     94  F   UNL     1      15.882  11.238   4.776  1.00  0.00    -0.200 F 
ATOM     95  F   UNL     1      15.580  13.945   4.915  1.00  0.00    -0.200 F 
ENDBRANCH  62  85
ENDBRANCH  36  37
ENDBRANCH  28  31
ENDBRANCH  26  27
ENDBRANCH  25  26
ENDBRANCH   1  25
TORSDOF 16
