REMARK SMILES O=C(NCCCCNC(=O)c1ccc(C[N@@H+]2CCN3C(=O)NC[C@@H]3C2)nc1)c1ccc(-c2c3nc(c(-c4c(F)c(F)c(F)c(F)c4F)c4ccc([nH]4)c(-c4c(F)c(F)c(F)c(F)c4F)c4nc(c(-c5c(F)c(F)c(F)c(F)c5F)c5ccc2[nH]5)C=C4)C=C3)cc1
REMARK SMILES IDX 5 1 4 2 3 3 1 4 2 5 28 7 29 8 90 9 30 10 89 11 31 12 32 13
REMARK SMILES IDX 33 14 83 15 34 16 88 17 82 18 84 19 35 20 87 21 81 22 80 23
REMARK SMILES IDX 36 25 68 26 48 27 67 28 49 29 52 30 66 31 85 32 50 33 51 34
REMARK SMILES IDX 65 36 86 37 53 38 37 39 38 40 46 41 39 42 40 43 44 44 47 45
REMARK SMILES IDX 41 46 42 47 45 48 43 49 69 50 70 51 78 52 71 53 72 54 76 55
REMARK SMILES IDX 79 56 73 57 74 58 77 59 75 60 54 61 55 62 63 63 56 64 57 65
REMARK SMILES IDX 61 66 64 67 58 68 59 69 62 70 60 71 6 72 7 73 8 74 9 75
REMARK SMILES IDX 10 77 11 78 12 79 27 80 13 81 26 82 14 83 15 84 16 85 17 86
REMARK SMILES IDX 25 87 18 89 24 90 19 91 23 92 20 93 22 94 21 95
REMARK H PARENT 3 6 84 24 52 35 8 76 16 88 22 96
REMARK Flexibility Score: inf
ROOT
ATOM      1  C   UNL     1       4.984  -0.753   2.344  1.00  0.00     0.023 C 
ENDROOT
BRANCH   1   2
ATOM      2  C   UNL     1       4.637  -0.795   0.861  1.00  0.00     0.116 C 
BRANCH   2   3
ATOM      3  N   UNL     1       3.204  -0.862   0.624  1.00  0.00    -0.352 N 
ATOM      4  O   UNL     1       1.171  -0.113  -0.005  1.00  0.00    -0.269 OA
ATOM      5  C   UNL     1       2.389   0.020  -0.041  1.00  0.00     0.251 C 
ATOM      6  H   UNL     1       2.752  -1.655   0.994  1.00  0.00     0.163 HD
BRANCH   5   7
ATOM      7  C   UNL     1       2.989   1.151  -0.777  1.00  0.00     0.039 A 
ATOM      8  C   UNL     1       4.083   0.952  -1.623  1.00  0.00     0.014 A 
ATOM      9  C   UNL     1       2.450   2.428  -0.606  1.00  0.00     0.014 A 
ATOM     10  C   UNL     1       4.729   2.047  -2.185  1.00  0.00     0.010 A 
ATOM     11  C   UNL     1       3.048   3.517  -1.240  1.00  0.00     0.010 A 
ATOM     12  C   UNL     1       4.211   3.339  -2.009  1.00  0.00    -0.014 A 
BRANCH  12  13
ATOM     13  C   UNL     1       4.859   4.499  -2.666  1.00  0.00     0.031 A 
ATOM     14  C   UNL     1       5.462   5.604  -1.849  1.00  0.00     0.074 A 
ATOM     15  C   UNL     1       4.868   4.567  -4.010  1.00  0.00     0.049 A 
ATOM     16  N   UNL     1       5.975   6.742  -2.245  1.00  0.00    -0.248 NA
ATOM     17  C   UNL     1       5.481   5.411  -0.392  1.00  0.00     0.031 C 
ATOM     18  C   UNL     1       4.318   3.550  -4.907  1.00  0.00     0.029 A 
ATOM     19  N   UNL     1       5.343   5.537  -4.855  1.00  0.00    -0.354 N 
ATOM     20  C   UNL     1       6.354   7.411  -1.089  1.00  0.00     0.074 A 
ATOM     21  C   UNL     1       5.986   6.563   0.026  1.00  0.00     0.031 C 
ATOM     22  C   UNL     1       4.491   3.944  -6.176  1.00  0.00     0.029 A 
ATOM     23  C   UNL     1       5.100   5.270  -6.179  1.00  0.00     0.049 A 
ATOM     24  H   UNL     1       5.811   6.345  -4.543  1.00  0.00     0.167 HD
ATOM     25  C   UNL     1       6.955   8.620  -0.974  1.00  0.00     0.037 A 
ATOM     26  C   UNL     1       5.305   6.024  -7.274  1.00  0.00     0.037 A 
ATOM     27  C   UNL     1       7.314   9.452  -2.094  1.00  0.00     0.049 A 
ATOM     28  C   UNL     1       5.923   7.384  -7.120  1.00  0.00     0.074 A 
ATOM     29  C   UNL     1       7.958  10.677  -2.088  1.00  0.00     0.029 A 
ATOM     30  N   UNL     1       7.046   9.150  -3.423  1.00  0.00    -0.354 N 
ATOM     31  N   UNL     1       6.306   7.997  -6.026  1.00  0.00    -0.248 NA
ATOM     32  C   UNL     1       6.139   8.157  -8.349  1.00  0.00     0.031 C 
ATOM     33  C   UNL     1       8.018  11.147  -3.405  1.00  0.00     0.029 A 
ATOM     34  C   UNL     1       7.482  10.180  -4.241  1.00  0.00     0.049 A 
ATOM     35  H   UNL     1       6.610   8.325  -3.737  1.00  0.00     0.167 HD
ATOM     36  C   UNL     1       6.839   9.211  -6.436  1.00  0.00     0.074 A 
ATOM     37  C   UNL     1       6.730   9.248  -7.880  1.00  0.00     0.031 C 
ATOM     38  C   UNL     1       7.379  10.199  -5.681  1.00  0.00     0.037 A 
BRANCH  25  39
ATOM     39  C   UNL     1       7.223   9.133   0.414  1.00  0.00     0.064 A 
ATOM     40  C   UNL     1       8.160   8.527   1.265  1.00  0.00     0.173 A 
ATOM     41  C   UNL     1       6.537  10.259   0.898  1.00  0.00     0.173 A 
ATOM     42  F   UNL     1       8.840   7.444   0.859  1.00  0.00    -0.203 F 
ATOM     43  C   UNL     1       8.366   8.999   2.560  1.00  0.00     0.198 A 
ATOM     44  C   UNL     1       6.773  10.751   2.179  1.00  0.00     0.198 A 
ATOM     45  F   UNL     1       5.638  10.887   0.126  1.00  0.00    -0.203 F 
ATOM     46  F   UNL     1       9.216   8.360   3.376  1.00  0.00    -0.200 F 
ATOM     47  C   UNL     1       7.676  10.112   3.014  1.00  0.00     0.200 A 
ATOM     48  F   UNL     1       6.117  11.838   2.609  1.00  0.00    -0.200 F 
ATOM     49  F   UNL     1       7.874  10.563   4.261  1.00  0.00    -0.200 F 
ENDBRANCH  25  39
BRANCH  26  50
ATOM     50  C   UNL     1       4.906   5.496  -8.603  1.00  0.00     0.064 A 
ATOM     51  C   UNL     1       5.869   5.119  -9.548  1.00  0.00     0.173 A 
ATOM     52  C   UNL     1       3.555   5.310  -8.935  1.00  0.00     0.173 A 
ATOM     53  F   UNL     1       7.172   5.291  -9.281  1.00  0.00    -0.203 F 
ATOM     54  C   UNL     1       5.495   4.583 -10.778  1.00  0.00     0.198 A 
ATOM     55  C   UNL     1       3.184   4.746 -10.152  1.00  0.00     0.198 A 
ATOM     56  F   UNL     1       2.596   5.645  -8.059  1.00  0.00    -0.203 F 
ATOM     57  F   UNL     1       6.434   4.257 -11.677  1.00  0.00    -0.200 F 
ATOM     58  C   UNL     1       4.154   4.387 -11.075  1.00  0.00     0.200 A 
ATOM     59  F   UNL     1       1.889   4.538 -10.425  1.00  0.00    -0.200 F 
ATOM     60  F   UNL     1       3.798   3.853 -12.251  1.00  0.00    -0.200 F 
ENDBRANCH  26  50
BRANCH  38  61
ATOM     61  C   UNL     1       7.953  11.387  -6.398  1.00  0.00     0.064 A 
ATOM     62  C   UNL     1       7.141  12.345  -7.020  1.00  0.00     0.173 A 
ATOM     63  C   UNL     1       9.341  11.601  -6.401  1.00  0.00     0.173 A 
ATOM     64  F   UNL     1       5.810  12.180  -7.061  1.00  0.00    -0.203 F 
ATOM     65  C   UNL     1       7.698  13.468  -7.629  1.00  0.00     0.198 A 
ATOM     66  C   UNL     1       9.891  12.739  -6.981  1.00  0.00     0.198 A 
ATOM     67  F   UNL     1      10.163  10.715  -5.817  1.00  0.00    -0.203 F 
ATOM     68  F   UNL     1       6.906  14.353  -8.250  1.00  0.00    -0.200 F 
ATOM     69  C   UNL     1       9.070  13.670  -7.599  1.00  0.00     0.200 A 
ATOM     70  F   UNL     1      11.216  12.939  -6.936  1.00  0.00    -0.200 F 
ATOM     71  F   UNL     1       9.601  14.760  -8.168  1.00  0.00    -0.200 F 
ENDBRANCH  38  61
ENDBRANCH  12  13
ENDBRANCH   5   7
ENDBRANCH   2   3
ENDBRANCH   1   2
BRANCH   1  72
ATOM     72  C   UNL     1       4.511  -1.963   3.143  1.00  0.00     0.023 C 
BRANCH  72  73
ATOM     73  C   UNL     1       4.896  -3.310   2.543  1.00  0.00     0.116 C 
BRANCH  73  74
ATOM     74  N   UNL     1       6.336  -3.477   2.444  1.00  0.00    -0.352 N 
ATOM     75  C   UNL     1       7.106  -4.474   2.983  1.00  0.00     0.252 C 
ATOM     76  H   UNL     1       6.817  -2.790   1.927  1.00  0.00     0.163 HD
ATOM     77  O   UNL     1       8.329  -4.415   2.960  1.00  0.00    -0.269 OA
BRANCH  75  78
ATOM     78  C   UNL     1       6.434  -5.614   3.610  1.00  0.00     0.058 A 
ATOM     79  C   UNL     1       5.516  -6.399   2.912  1.00  0.00     0.017 A 
ATOM     80  C   UNL     1       6.685  -5.892   4.939  1.00  0.00     0.125 A 
ATOM     81  C   UNL     1       4.862  -7.424   3.583  1.00  0.00     0.030 A 
ATOM     82  N   UNL     1       6.052  -6.877   5.613  1.00  0.00    -0.255 NA
ATOM     83  C   UNL     1       5.167  -7.649   4.927  1.00  0.00     0.095 A 
BRANCH  83  84
ATOM     84  C   UNL     1       4.628  -8.891   5.628  1.00  0.00     0.319 C 
BRANCH  84  85
ATOM     85  N   UNL     1       5.559 -10.044   5.682  1.00  0.00    -0.327 N 
ATOM     86  C   UNL     1       6.641  -9.824   6.676  1.00  0.00     0.284 C 
ATOM     87  C   UNL     1       6.066 -10.422   4.350  1.00  0.00     0.289 C 
ATOM     88  H   UNL     1       5.024 -10.849   6.007  1.00  0.00     0.348 HD
ATOM     89  C   UNL     1       7.961 -10.627   6.548  1.00  0.00     0.183 C 
ATOM     90  C   UNL     1       6.993 -11.628   4.456  1.00  0.00     0.161 C 
ATOM     91  N   UNL     1       8.130 -11.309   5.287  1.00  0.00    -0.309 N 
ATOM     92  C   UNL     1       7.648 -12.053   3.143  1.00  0.00     0.148 C 
ATOM     93  C   UNL     1       9.296 -11.843   4.782  1.00  0.00     0.318 C 
ATOM     94  N   UNL     1       9.001 -12.365   3.531  1.00  0.00    -0.336 N 
ATOM     95  O   UNL     1      10.399 -11.854   5.303  1.00  0.00    -0.249 OA
ATOM     96  H   UNL     1       9.632 -12.882   2.980  1.00  0.00     0.165 HD
ENDBRANCH  84  85
ENDBRANCH  83  84
ENDBRANCH  75  78
ENDBRANCH  73  74
ENDBRANCH  72  73
ENDBRANCH   1  72
TORSDOF 13
