REMARK SMILES Cc1cc(C(=O)N2[C@@H](C(=O)NCCCCNC(=O)c3ccc(-c4c5nc(c(-c6c(F)c(F)c(F)c(F)c6F)c6ccc([nH]6)c(-c6c(F)c(F)c(F)c(F)c6F)c6nc(c(-c7c(F)c(F)c(F)c(F)c7F)c7ccc4[nH]7)C=C6)C=C5)cc3)C[C@H]3CCCC[C@H]32)c(C)s1
REMARK SMILES IDX 13 1 12 2 11 3 9 4 10 5 8 7 7 8 88 9 82 10 83 11 87 12 84 13
REMARK SMILES IDX 86 14 85 15 5 16 6 17 4 18 1 19 2 20 3 21 91 22 89 23 90 24
REMARK SMILES IDX 14 25 15 26 16 27 17 28 18 30 19 31 20 32 81 33 21 34 80 35
REMARK SMILES IDX 22 36 23 37 24 38 74 39 25 40 79 41 73 42 75 43 26 44 78 45
REMARK SMILES IDX 72 46 71 47 27 49 59 50 39 51 58 52 40 53 43 54 57 55 76 56
REMARK SMILES IDX 41 57 42 58 56 60 77 61 44 62 28 63 29 64 37 65 30 66 31 67
REMARK SMILES IDX 35 68 38 69 32 70 33 71 36 72 34 73 60 74 61 75 69 76 62 77
REMARK SMILES IDX 63 78 67 79 70 80 64 81 65 82 68 83 66 84 45 85 46 86 54 87
REMARK SMILES IDX 47 88 48 89 52 90 55 91 49 92 50 93 53 94 51 95
REMARK H PARENT 11 6 16 29 75 48 43 59
REMARK Flexibility Score: inf
ROOT
ATOM      1  C   UNL     1       4.029  -5.130  -1.617  1.00  0.00     0.023 C 
ENDROOT
BRANCH   1   2
ATOM      2  C   UNL     1       2.996  -4.005  -1.580  1.00  0.00     0.116 C 
BRANCH   2   3
ATOM      3  N   UNL     1       1.875  -4.242  -2.466  1.00  0.00    -0.354 N 
ATOM      4  C   UNL     1       0.531  -4.273  -2.266  1.00  0.00     0.242 C 
ATOM      5  O   UNL     1      -0.157  -4.382  -3.291  1.00  0.00    -0.273 OA
ATOM      6  H   UNL     1       2.139  -4.414  -3.399  1.00  0.00     0.163 HD
BRANCH   4   7
ATOM      7  C   UNL     1      -0.179  -4.311  -0.885  1.00  0.00     0.175 C 
ATOM      8  N   UNL     1       0.558  -4.058   0.360  1.00  0.00    -0.323 N 
ATOM      9  C   UNL     1       0.632  -5.261   1.187  1.00  0.00     0.089 C 
ATOM     10  C   UNL     1      -0.768  -5.729  -0.688  1.00  0.00     0.041 C 
ATOM     11  C   UNL     1      -0.673  -5.970   0.824  1.00  0.00     0.014 C 
ATOM     12  C   UNL     1       1.867  -6.112   0.874  1.00  0.00     0.025 C 
ATOM     13  C   UNL     1      -0.737  -7.431   1.258  1.00  0.00     0.006 C 
ATOM     14  C   UNL     1       1.775  -7.519   1.446  1.00  0.00     0.002 C 
ATOM     15  C   UNL     1       0.524  -8.227   0.936  1.00  0.00     0.000 C 
BRANCH   8  16
ATOM     16  C   UNL     1       0.968  -2.836   0.877  1.00  0.00     0.255 C 
ATOM     17  O   UNL     1       1.816  -2.774   1.766  1.00  0.00    -0.269 OA
BRANCH  16  18
ATOM     18  C   UNL     1       0.334  -1.620   0.362  1.00  0.00     0.053 A 
ATOM     19  C   UNL     1      -2.780   0.479  -0.221  1.00  0.00     0.056 C 
ATOM     20  C   UNL     1      -1.422  -0.122  -0.100  1.00  0.00     0.003 A 
ATOM     21  C   UNL     1      -1.086  -1.389   0.319  1.00  0.00     0.029 A 
ATOM     22  S   UNL     1      -0.035   0.802  -0.453  1.00  0.00    -0.145 S 
ATOM     23  C   UNL     1       1.023  -0.470   0.003  1.00  0.00     0.014 A 
ATOM     24  C   UNL     1       2.494  -0.208  -0.001  1.00  0.00     0.057 C 
ENDBRANCH  16  18
ENDBRANCH   8  16
ENDBRANCH   4   7
ENDBRANCH   2   3
ENDBRANCH   1   2
BRANCH   1  25
ATOM     25  C   UNL     1       4.996  -5.093  -2.791  1.00  0.00     0.023 C 
BRANCH  25  26
ATOM     26  C   UNL     1       5.729  -3.775  -2.988  1.00  0.00     0.116 C 
BRANCH  26  27
ATOM     27  N   UNL     1       6.400  -3.281  -1.792  1.00  0.00    -0.352 N 
ATOM     28  C   UNL     1       7.652  -2.722  -1.683  1.00  0.00     0.251 C 
ATOM     29  H   UNL     1       5.891  -3.358  -0.953  1.00  0.00     0.163 HD
ATOM     30  O   UNL     1       8.115  -2.411  -0.592  1.00  0.00    -0.269 OA
BRANCH  28  31
ATOM     31  C   UNL     1       8.455  -2.551  -2.908  1.00  0.00     0.039 A 
ATOM     32  C   UNL     1       9.741  -3.094  -2.954  1.00  0.00     0.014 A 
ATOM     33  C   UNL     1       7.891  -1.953  -4.037  1.00  0.00     0.014 A 
ATOM     34  C   UNL     1      10.427  -3.122  -4.168  1.00  0.00     0.010 A 
ATOM     35  C   UNL     1       8.537  -2.066  -5.260  1.00  0.00     0.010 A 
ATOM     36  C   UNL     1       9.808  -2.656  -5.339  1.00  0.00    -0.014 A 
BRANCH  36  37
ATOM     37  C   UNL     1      10.466  -2.773  -6.663  1.00  0.00     0.031 A 
ATOM     38  C   UNL     1      10.789  -1.532  -7.445  1.00  0.00     0.074 A 
ATOM     39  C   UNL     1      10.687  -3.990  -7.197  1.00  0.00     0.049 A 
ATOM     40  N   UNL     1      11.257  -1.417  -8.661  1.00  0.00    -0.248 NA
ATOM     41  C   UNL     1      10.508  -0.247  -6.785  1.00  0.00     0.031 C 
ATOM     42  C   UNL     1      10.358  -5.269  -6.564  1.00  0.00     0.029 A 
ATOM     43  N   UNL     1      11.230  -4.350  -8.405  1.00  0.00    -0.354 N 
ATOM     44  C   UNL     1      11.299  -0.053  -8.918  1.00  0.00     0.074 A 
ATOM     45  C   UNL     1      10.757   0.617  -7.757  1.00  0.00     0.031 C 
ATOM     46  C   UNL     1      10.731  -6.271  -7.376  1.00  0.00     0.029 A 
ATOM     47  C   UNL     1      11.292  -5.708  -8.600  1.00  0.00     0.049 A 
ATOM     48  H   UNL     1      11.547  -3.696  -9.070  1.00  0.00     0.167 HD
ATOM     49  C   UNL     1      11.773   0.584 -10.014  1.00  0.00     0.037 A 
ATOM     50  C   UNL     1      11.749  -6.416  -9.650  1.00  0.00     0.037 A 
ATOM     51  C   UNL     1      12.357  -0.084 -11.145  1.00  0.00     0.049 A 
ATOM     52  C   UNL     1      12.305  -5.684 -10.840  1.00  0.00     0.074 A 
ATOM     53  C   UNL     1      12.933   0.472 -12.273  1.00  0.00     0.029 A 
ATOM     54  N   UNL     1      12.445  -1.461 -11.285  1.00  0.00    -0.354 N 
ATOM     55  N   UNL     1      12.401  -4.393 -11.046  1.00  0.00    -0.248 NA
ATOM     56  C   UNL     1      12.823  -6.507 -11.942  1.00  0.00     0.031 C 
ATOM     57  C   UNL     1      13.344  -0.570 -13.111  1.00  0.00     0.029 A 
ATOM     58  C   UNL     1      13.059  -1.774 -12.487  1.00  0.00     0.049 A 
ATOM     59  H   UNL     1      12.121  -2.118 -10.628  1.00  0.00     0.167 HD
ATOM     60  C   UNL     1      13.012  -4.247 -12.284  1.00  0.00     0.074 A 
ATOM     61  C   UNL     1      13.276  -5.583 -12.778  1.00  0.00     0.031 C 
ATOM     62  C   UNL     1      13.324  -3.111 -12.952  1.00  0.00     0.037 A 
BRANCH  49  63
ATOM     63  C   UNL     1      11.692   2.082 -10.029  1.00  0.00     0.064 A 
ATOM     64  C   UNL     1      12.499   2.869  -9.192  1.00  0.00     0.173 A 
ATOM     65  C   UNL     1      10.812   2.740 -10.900  1.00  0.00     0.173 A 
ATOM     66  F   UNL     1      13.346   2.287  -8.329  1.00  0.00    -0.203 F 
ATOM     67  C   UNL     1      12.405   4.257  -9.205  1.00  0.00     0.198 A 
ATOM     68  C   UNL     1      10.742   4.130 -10.932  1.00  0.00     0.198 A 
ATOM     69  F   UNL     1      10.021   2.035 -11.723  1.00  0.00    -0.203 F 
ATOM     70  F   UNL     1      13.146   4.985  -8.358  1.00  0.00    -0.200 F 
ATOM     71  C   UNL     1      11.531   4.887 -10.079  1.00  0.00     0.200 A 
ATOM     72  F   UNL     1       9.904   4.738 -11.783  1.00  0.00    -0.200 F 
ATOM     73  F   UNL     1      11.443   6.224 -10.092  1.00  0.00    -0.200 F 
ENDBRANCH  49  63
BRANCH  50  74
ATOM     74  C   UNL     1      11.739  -7.901  -9.607  1.00  0.00     0.064 A 
ATOM     75  C   UNL     1      12.936  -8.621  -9.479  1.00  0.00     0.173 A 
ATOM     76  C   UNL     1      10.545  -8.630  -9.694  1.00  0.00     0.173 A 
ATOM     77  F   UNL     1      14.105  -7.967  -9.413  1.00  0.00    -0.203 F 
ATOM     78  C   UNL     1      12.940 -10.014  -9.460  1.00  0.00     0.198 A 
ATOM     79  C   UNL     1      10.548 -10.023  -9.649  1.00  0.00     0.198 A 
ATOM     80  F   UNL     1       9.374  -7.988  -9.811  1.00  0.00    -0.203 F 
ATOM     81  F   UNL     1      14.102 -10.677  -9.380  1.00  0.00    -0.200 F 
ATOM     82  C   UNL     1      11.746 -10.714  -9.540  1.00  0.00     0.200 A 
ATOM     83  F   UNL     1       9.391 -10.696  -9.715  1.00  0.00    -0.200 F 
ATOM     84  F   UNL     1      11.750 -12.053  -9.520  1.00  0.00    -0.200 F 
ENDBRANCH  50  74
BRANCH  62  85
ATOM     85  C   UNL     1      14.020  -3.260 -14.271  1.00  0.00     0.064 A 
ATOM     86  C   UNL     1      13.335  -3.690 -15.417  1.00  0.00     0.173 A 
ATOM     87  C   UNL     1      15.376  -2.923 -14.400  1.00  0.00     0.173 A 
ATOM     88  F   UNL     1      12.042  -4.038 -15.339  1.00  0.00    -0.203 F 
ATOM     89  C   UNL     1      13.989  -3.797 -16.641  1.00  0.00     0.198 A 
ATOM     90  C   UNL     1      16.020  -3.006 -15.630  1.00  0.00     0.198 A 
ATOM     91  F   UNL     1      16.071  -2.501 -13.333  1.00  0.00    -0.203 F 
ATOM     92  F   UNL     1      13.327  -4.248 -17.715  1.00  0.00    -0.200 F 
ATOM     93  C   UNL     1      15.328  -3.448 -16.748  1.00  0.00     0.200 A 
ATOM     94  F   UNL     1      17.309  -2.658 -15.735  1.00  0.00    -0.200 F 
ATOM     95  F   UNL     1      15.953  -3.544 -17.929  1.00  0.00    -0.200 F 
ENDBRANCH  62  85
ENDBRANCH  36  37
ENDBRANCH  28  31
ENDBRANCH  26  27
ENDBRANCH  25  26
ENDBRANCH   1  25
TORSDOF 13
