REMARK SMILES Cc1ccc([N+](=O)[O-])c(N[C@H]2[C@@H]3CC[C@@H](C3)[C@@H]2C(=O)NCCCCNC(=O)c2ccc(-c3c4nc(c(-c5c(F)c(F)c(F)c(F)c5F)c5ccc([nH]5)c(-c5c(F)c(F)c(F)c(F)c5F)c5nc(c(-c6c(F)c(F)c(F)c(F)c6F)c6ccc3[nH]6)C=C5)C=C4)cc2)c1
REMARK SMILES IDX 22 1 21 2 20 3 18 4 19 5 17 7 11 8 12 9 13 10 16 11 15 12
REMARK SMILES IDX 14 13 10 14 9 16 1 17 2 18 3 19 91 20 4 21 5 22 6 23 7 24
REMARK SMILES IDX 8 25 23 26 24 27 25 28 26 29 27 31 28 32 29 33 90 34 30 35
REMARK SMILES IDX 89 36 31 37 32 38 33 39 83 40 34 41 88 42 82 43 84 44 35 45
REMARK SMILES IDX 87 46 81 47 80 48 36 50 68 51 48 52 67 53 49 54 52 55 66 56
REMARK SMILES IDX 85 57 50 58 51 59 65 61 86 62 53 63 37 64 38 65 46 66 39 67
REMARK SMILES IDX 40 68 44 69 47 70 41 71 42 72 45 73 43 74 69 75 70 76 78 77
REMARK SMILES IDX 71 78 72 79 76 80 79 81 73 82 74 83 77 84 75 85 54 86 55 87
REMARK SMILES IDX 63 88 56 89 57 90 61 91 64 92 58 93 59 94 62 95 60 96
REMARK H PARENT 20 6 10 15 25 30 84 49 52 60
REMARK Flexibility Score: inf
ROOT
ATOM      1  C   UNL     1      -6.687   4.915  -0.491  1.00  0.00     0.023 C 
ENDROOT
BRANCH   1   2
ATOM      2  C   UNL     1      -5.326   4.749   0.208  1.00  0.00     0.116 C 
BRANCH   2   3
ATOM      3  N   UNL     1      -5.359   3.909   1.398  1.00  0.00    -0.356 N 
ATOM      4  C   UNL     1      -4.914   2.687   1.779  1.00  0.00     0.225 C 
ATOM      5  O   UNL     1      -5.149   2.431   2.971  1.00  0.00    -0.275 OA
ATOM      6  H   UNL     1      -5.841   4.354   2.132  1.00  0.00     0.163 HD
BRANCH   4   7
ATOM      7  C   UNL     1      -4.246   1.593   0.929  1.00  0.00     0.104 C 
ATOM      8  C   UNL     1      -3.269   1.967  -0.177  1.00  0.00     0.095 C 
ATOM      9  C   UNL     1      -3.865   1.280  -1.435  1.00  0.00     0.012 C 
ATOM     10  C   UNL     1      -5.247   1.890  -1.799  1.00  0.00     0.006 C 
ATOM     11  C   UNL     1      -4.355  -0.045  -0.882  1.00  0.00     0.010 C 
ATOM     12  C   UNL     1      -5.211   0.606   0.213  1.00  0.00     0.004 C 
ATOM     13  C   UNL     1      -6.179   1.372  -0.681  1.00  0.00     0.005 C 
BRANCH   8  14
ATOM     14  N   UNL     1      -1.848   1.668   0.122  1.00  0.00    -0.376 N 
ATOM     15  H   UNL     1      -1.353   2.501   0.298  1.00  0.00     0.161 HD
BRANCH  14  16
ATOM     16  C   UNL     1      -1.006   0.576   0.228  1.00  0.00     0.114 A 
ATOM     17  C   UNL     1       2.780   0.200  -0.448  1.00  0.00     0.044 C 
ATOM     18  C   UNL     1       1.342  -0.159  -0.207  1.00  0.00    -0.049 A 
ATOM     19  C   UNL     1       0.997  -1.488   0.005  1.00  0.00     0.010 A 
ATOM     20  C   UNL     1       0.340   0.831  -0.149  1.00  0.00     0.036 A 
ATOM     21  C   UNL     1      -0.292  -1.790   0.417  1.00  0.00     0.088 A 
ATOM     22  C   UNL     1      -1.246  -0.760   0.596  1.00  0.00     0.292 A 
BRANCH  22  23
ATOM     23  N   UNL     1      -2.304  -1.148   1.516  1.00  0.00     0.064 N 
ATOM     24  O   UNL     1      -3.031  -2.099   1.185  1.00  0.00    -0.258 OA
ATOM     25  O   UNL     1      -2.315  -0.602   2.627  1.00  0.00    -0.258 OA
ENDBRANCH  22  23
ENDBRANCH  14  16
ENDBRANCH   8  14
ENDBRANCH   4   7
ENDBRANCH   2   3
ENDBRANCH   1   2
BRANCH   1  26
ATOM     26  C   UNL     1      -7.746   5.678   0.302  1.00  0.00     0.023 C 
BRANCH  26  27
ATOM     27  C   UNL     1      -7.503   7.177   0.317  1.00  0.00     0.116 C 
BRANCH  27  28
ATOM     28  N   UNL     1      -7.855   7.869  -0.919  1.00  0.00    -0.352 N 
ATOM     29  C   UNL     1      -7.533   9.154  -1.337  1.00  0.00     0.251 C 
ATOM     30  H   UNL     1      -8.402   7.348  -1.550  1.00  0.00     0.163 HD
ATOM     31  O   UNL     1      -7.977   9.591  -2.385  1.00  0.00    -0.269 OA
BRANCH  29  32
ATOM     32  C   UNL     1      -6.524   9.933  -0.573  1.00  0.00     0.039 A 
ATOM     33  C   UNL     1      -5.493  10.554  -1.288  1.00  0.00     0.014 A 
ATOM     34  C   UNL     1      -6.439   9.809   0.807  1.00  0.00     0.014 A 
ATOM     35  C   UNL     1      -4.270  10.776  -0.660  1.00  0.00     0.010 A 
ATOM     36  C   UNL     1      -5.192   9.878   1.388  1.00  0.00     0.010 A 
ATOM     37  C   UNL     1      -4.092  10.304   0.638  1.00  0.00    -0.014 A 
BRANCH  37  38
ATOM     38  C   UNL     1      -2.787  10.123   1.262  1.00  0.00     0.031 A 
ATOM     39  C   UNL     1      -2.396  10.959   2.417  1.00  0.00     0.074 A 
ATOM     40  C   UNL     1      -1.988   9.105   0.866  1.00  0.00     0.049 A 
ATOM     41  N   UNL     1      -1.176  11.171   2.777  1.00  0.00    -0.248 NA
ATOM     42  C   UNL     1      -3.365  11.655   3.253  1.00  0.00     0.031 C 
ATOM     43  C   UNL     1      -0.808   8.591   1.558  1.00  0.00     0.029 A 
ATOM     44  N   UNL     1      -1.988   8.428  -0.367  1.00  0.00    -0.354 N 
ATOM     45  C   UNL     1      -1.198  11.769   4.017  1.00  0.00     0.074 A 
ATOM     46  C   UNL     1      -2.585  12.101   4.242  1.00  0.00     0.031 C 
ATOM     47  C   UNL     1      -0.036   7.939   0.675  1.00  0.00     0.029 A 
ATOM     48  C   UNL     1      -0.631   8.126  -0.634  1.00  0.00     0.049 A 
ATOM     49  H   UNL     1      -2.768   8.210  -0.927  1.00  0.00     0.167 HD
ATOM     50  C   UNL     1      -0.054  11.791   4.762  1.00  0.00     0.037 A 
ATOM     51  C   UNL     1       0.017   8.647  -1.714  1.00  0.00     0.037 A 
ATOM     52  C   UNL     1       1.068  11.227   4.011  1.00  0.00     0.049 A 
ATOM     53  C   UNL     1       1.213   9.498  -1.363  1.00  0.00     0.074 A 
ATOM     54  C   UNL     1       1.682   9.985   4.031  1.00  0.00     0.029 A 
ATOM     55  N   UNL     1       1.514  11.866   2.857  1.00  0.00    -0.354 N 
ATOM     56  N   UNL     1       1.416  10.015  -0.183  1.00  0.00    -0.248 NA
ATOM     57  C   UNL     1       2.258   9.854  -2.317  1.00  0.00     0.031 C 
ATOM     58  C   UNL     1       2.480   9.868   2.868  1.00  0.00     0.029 A 
ATOM     59  C   UNL     1       2.360  11.041   2.142  1.00  0.00     0.049 A 
ATOM     60  H   UNL     1       1.261  12.778   2.588  1.00  0.00     0.167 HD
ATOM     61  C   UNL     1       2.556  10.778  -0.206  1.00  0.00     0.074 A 
ATOM     62  C   UNL     1       3.060  10.621  -1.557  1.00  0.00     0.031 C 
ATOM     63  C   UNL     1       2.970  11.479   0.894  1.00  0.00     0.037 A 
BRANCH  50  64
ATOM     64  C   UNL     1      -0.017  12.041   6.258  1.00  0.00     0.064 A 
ATOM     65  C   UNL     1       0.990  11.464   7.065  1.00  0.00     0.173 A 
ATOM     66  C   UNL     1      -0.974  12.785   6.973  1.00  0.00     0.173 A 
ATOM     67  F   UNL     1       2.046  10.838   6.530  1.00  0.00    -0.203 F 
ATOM     68  C   UNL     1       0.958  11.510   8.463  1.00  0.00     0.198 A 
ATOM     69  C   UNL     1      -1.041  12.784   8.371  1.00  0.00     0.198 A 
ATOM     70  F   UNL     1      -1.835  13.595   6.348  1.00  0.00    -0.203 F 
ATOM     71  F   UNL     1       1.939  10.931   9.169  1.00  0.00    -0.200 F 
ATOM     72  C   UNL     1      -0.082  12.133   9.117  1.00  0.00     0.200 A 
ATOM     73  F   UNL     1      -2.043  13.428   8.988  1.00  0.00    -0.200 F 
ATOM     74  F   UNL     1      -0.141  12.138  10.455  1.00  0.00    -0.200 F 
ENDBRANCH  50  64
BRANCH  51  75
ATOM     75  C   UNL     1      -0.872   8.847  -2.886  1.00  0.00     0.064 A 
ATOM     76  C   UNL     1      -1.401   7.703  -3.512  1.00  0.00     0.173 A 
ATOM     77  C   UNL     1      -1.512  10.070  -3.120  1.00  0.00     0.173 A 
ATOM     78  F   UNL     1      -0.826   6.506  -3.313  1.00  0.00    -0.203 F 
ATOM     79  C   UNL     1      -2.589   7.758  -4.237  1.00  0.00     0.198 A 
ATOM     80  C   UNL     1      -2.698  10.123  -3.856  1.00  0.00     0.198 A 
ATOM     81  F   UNL     1      -1.068  11.190  -2.532  1.00  0.00    -0.203 F 
ATOM     82  F   UNL     1      -3.130   6.630  -4.719  1.00  0.00    -0.200 F 
ATOM     83  C   UNL     1      -3.253   8.964  -4.382  1.00  0.00     0.200 A 
ATOM     84  F   UNL     1      -3.358  11.284  -3.972  1.00  0.00    -0.200 F 
ATOM     85  F   UNL     1      -4.449   9.003  -4.987  1.00  0.00    -0.200 F 
ENDBRANCH  51  75
BRANCH  63  86
ATOM     86  C   UNL     1       4.043  12.549   0.941  1.00  0.00     0.064 A 
ATOM     87  C   UNL     1       4.483  13.285  -0.171  1.00  0.00     0.173 A 
ATOM     88  C   UNL     1       4.585  12.966   2.185  1.00  0.00     0.173 A 
ATOM     89  F   UNL     1       3.960  13.098  -1.388  1.00  0.00    -0.203 F 
ATOM     90  C   UNL     1       5.442  14.300  -0.062  1.00  0.00     0.198 A 
ATOM     91  C   UNL     1       5.491  14.021   2.298  1.00  0.00     0.198 A 
ATOM     92  F   UNL     1       4.231  12.385   3.341  1.00  0.00    -0.203 F 
ATOM     93  F   UNL     1       5.861  14.934  -1.166  1.00  0.00    -0.200 F 
ATOM     94  C   UNL     1       5.937  14.675   1.171  1.00  0.00     0.200 A 
ATOM     95  F   UNL     1       5.912  14.410   3.510  1.00  0.00    -0.200 F 
ATOM     96  F   UNL     1       6.818  15.678   1.274  1.00  0.00    -0.200 F 
ENDBRANCH  63  86
ENDBRANCH  37  38
ENDBRANCH  29  32
ENDBRANCH  27  28
ENDBRANCH  26  27
ENDBRANCH   1  26
TORSDOF 14
