REMARK SMILES Cc1noc(C)c1[C@H](C)NC(=O)NC[C@@](C)(O)C(=O)NCCCCNC(=O)c1ccc(-c2c3nc(c(-c4c(F)c(F)c(F)c(F)c4F)c4ccc([nH]4)c(-c4c(F)c(F)c(F)c(F)c4F)c4nc(c(-c5c(F)c(F)c(F)c(F)c5F)c5ccc2[nH]5)C=C4)C=C3)cc1
REMARK SMILES IDX 21 1 20 2 18 3 19 4 15 6 16 7 14 8 13 9 10 10 11 11 12 13
REMARK SMILES IDX 8 15 9 16 7 17 1 18 2 19 3 20 4 21 5 22 6 23 17 24 22 26
REMARK SMILES IDX 23 27 24 28 25 29 26 30 27 32 28 33 29 34 90 35 30 36 89 37
REMARK SMILES IDX 31 38 32 39 33 40 83 41 34 42 88 43 82 44 84 45 35 46 87 47
REMARK SMILES IDX 81 48 80 49 36 51 68 52 48 53 67 54 49 55 52 56 66 57 85 58
REMARK SMILES IDX 50 59 51 60 65 62 86 63 53 64 37 65 38 66 46 67 39 68 40 69
REMARK SMILES IDX 44 70 47 71 41 72 42 73 45 74 43 75 69 76 70 77 78 78 71 79
REMARK SMILES IDX 72 80 76 81 79 82 73 83 74 84 77 85 75 86 54 87 55 88 63 89
REMARK SMILES IDX 56 90 57 91 61 92 64 93 58 94 59 95 62 96 60 97
REMARK H PARENT 20 5 10 12 13 14 17 25 25 31 84 50 52 61
REMARK Flexibility Score: inf
ROOT
ATOM      1  C   UNL     1       3.361   7.428  -1.731  1.00  0.00     0.116 C 
ENDROOT
BRANCH   1   2
ATOM      2  N   UNL     1       2.206   7.197  -0.886  1.00  0.00    -0.354 N 
ATOM      3  C   UNL     1       1.966   6.256   0.078  1.00  0.00     0.253 C 
ATOM      4  O   UNL     1       0.936   6.431   0.731  1.00  0.00    -0.272 OA
ATOM      5  H   UNL     1       1.464   7.828  -1.031  1.00  0.00     0.163 HD
BRANCH   3   6
ATOM      6  C   UNL     1       2.995   5.126   0.387  1.00  0.00     0.157 C 
ATOM      7  C   UNL     1       4.125   5.769   1.207  1.00  0.00     0.055 C 
BRANCH   6   8
ATOM      8  C   UNL     1       2.447   3.881   1.159  1.00  0.00     0.162 C 
BRANCH   8   9
ATOM      9  N   UNL     1       1.299   4.036   2.028  1.00  0.00    -0.335 N 
ATOM     10  N   UNL     1      -0.609   3.316   0.817  1.00  0.00    -0.331 N 
ATOM     11  C   UNL     1      -0.018   3.826   1.904  1.00  0.00     0.315 C 
ATOM     12  H   UNL     1      -1.592   3.360   0.857  1.00  0.00     0.165 HD
ATOM     13  O   UNL     1      -0.734   4.111   2.868  1.00  0.00    -0.249 OA
ATOM     14  H   UNL     1       1.544   4.374   2.919  1.00  0.00     0.165 HD
BRANCH  10  15
ATOM     15  C   UNL     1      -0.116   2.712  -0.408  1.00  0.00     0.116 C 
ATOM     16  C   UNL     1       0.225   1.249  -0.132  1.00  0.00     0.036 C 
BRANCH  15  17
ATOM     17  C   UNL     1      -1.126   2.940  -1.500  1.00  0.00     0.040 A 
ATOM     18  C   UNL     1      -1.052   5.558  -1.616  1.00  0.00     0.071 C 
ATOM     19  C   UNL     1      -1.518   4.214  -2.023  1.00  0.00     0.086 A 
ATOM     20  N   UNL     1      -2.397   4.096  -3.022  1.00  0.00    -0.085 NA
ATOM     21  O   UNL     1      -2.596   2.746  -3.184  1.00  0.00    -0.361 OA
ATOM     22  C   UNL     1      -1.836   2.055  -2.294  1.00  0.00     0.139 A 
ATOM     23  C   UNL     1      -1.942   0.587  -2.413  1.00  0.00     0.091 C 
ENDBRANCH  15  17
ENDBRANCH  10  15
ENDBRANCH   8   9
ENDBRANCH   6   8
BRANCH   6  24
ATOM     24  O   UNL     1       3.548   4.613  -0.840  1.00  0.00    -0.378 OA
ATOM     25  H   UNL     1       4.186   3.911  -0.639  1.00  0.00     0.212 HD
ENDBRANCH   6  24
ENDBRANCH   3   6
ENDBRANCH   1   2
BRANCH   1  26
ATOM     26  C   UNL     1       3.050   7.300  -3.220  1.00  0.00     0.023 C 
BRANCH  26  27
ATOM     27  C   UNL     1       1.994   8.263  -3.769  1.00  0.00     0.023 C 
BRANCH  27  28
ATOM     28  C   UNL     1       2.151   9.733  -3.390  1.00  0.00     0.116 C 
BRANCH  28  29
ATOM     29  N   UNL     1       3.442  10.297  -3.750  1.00  0.00    -0.352 N 
ATOM     30  C   UNL     1       3.744  11.488  -4.366  1.00  0.00     0.251 C 
ATOM     31  H   UNL     1       4.219   9.740  -3.518  1.00  0.00     0.163 HD
ATOM     32  O   UNL     1       4.911  11.748  -4.649  1.00  0.00    -0.269 OA
BRANCH  30  33
ATOM     33  C   UNL     1       2.672  12.441  -4.733  1.00  0.00     0.039 A 
ATOM     34  C   UNL     1       2.710  13.029  -6.001  1.00  0.00     0.014 A 
ATOM     35  C   UNL     1       1.635  12.753  -3.852  1.00  0.00     0.014 A 
ATOM     36  C   UNL     1       1.667  13.861  -6.415  1.00  0.00     0.010 A 
ATOM     37  C   UNL     1       0.558  13.520  -4.292  1.00  0.00     0.010 A 
ATOM     38  C   UNL     1       0.558  14.075  -5.582  1.00  0.00    -0.014 A 
BRANCH  38  39
ATOM     39  C   UNL     1      -0.621  14.847  -6.055  1.00  0.00     0.031 A 
ATOM     40  C   UNL     1      -1.020  16.127  -5.379  1.00  0.00     0.074 A 
ATOM     41  C   UNL     1      -1.382  14.349  -7.049  1.00  0.00     0.049 A 
ATOM     42  N   UNL     1      -2.052  16.899  -5.608  1.00  0.00    -0.248 NA
ATOM     43  C   UNL     1      -0.160  16.584  -4.278  1.00  0.00     0.031 C 
ATOM     44  C   UNL     1      -1.139  13.085  -7.745  1.00  0.00     0.029 A 
ATOM     45  N   UNL     1      -2.526  14.836  -7.633  1.00  0.00    -0.354 N 
ATOM     46  C   UNL     1      -1.972  17.924  -4.676  1.00  0.00     0.074 A 
ATOM     47  C   UNL     1      -0.825  17.642  -3.839  1.00  0.00     0.031 C 
ATOM     48  C   UNL     1      -2.096  12.901  -8.668  1.00  0.00     0.029 A 
ATOM     49  C   UNL     1      -3.040  14.013  -8.603  1.00  0.00     0.049 A 
ATOM     50  H   UNL     1      -2.937  15.694  -7.379  1.00  0.00     0.167 HD
ATOM     51  C   UNL     1      -2.768  19.014  -4.543  1.00  0.00     0.037 A 
ATOM     52  C   UNL     1      -4.155  14.130  -9.350  1.00  0.00     0.037 A 
ATOM     53  C   UNL     1      -3.905  19.293  -5.382  1.00  0.00     0.049 A 
ATOM     54  C   UNL     1      -5.029  15.342  -9.184  1.00  0.00     0.074 A 
ATOM     55  C   UNL     1      -4.734  20.402  -5.373  1.00  0.00     0.029 A 
ATOM     56  N   UNL     1      -4.384  18.447  -6.372  1.00  0.00    -0.354 N 
ATOM     57  N   UNL     1      -4.895  16.351  -8.358  1.00  0.00    -0.248 NA
ATOM     58  C   UNL     1      -6.203  15.437 -10.062  1.00  0.00     0.031 C 
ATOM     59  C   UNL     1      -5.746  20.200  -6.318  1.00  0.00     0.029 A 
ATOM     60  C   UNL     1      -5.516  18.994  -6.959  1.00  0.00     0.049 A 
ATOM     61  H   UNL     1      -3.980  17.584  -6.622  1.00  0.00     0.167 HD
ATOM     62  C   UNL     1      -5.955  17.207  -8.624  1.00  0.00     0.074 A 
ATOM     63  C   UNL     1      -6.712  16.608  -9.705  1.00  0.00     0.031 C 
ATOM     64  C   UNL     1      -6.270  18.383  -8.026  1.00  0.00     0.037 A 
BRANCH  51  65
ATOM     65  C   UNL     1      -2.434  19.978  -3.439  1.00  0.00     0.064 A 
ATOM     66  C   UNL     1      -1.260  20.747  -3.460  1.00  0.00     0.173 A 
ATOM     67  C   UNL     1      -3.299  20.136  -2.345  1.00  0.00     0.173 A 
ATOM     68  F   UNL     1      -0.394  20.630  -4.478  1.00  0.00    -0.203 F 
ATOM     69  C   UNL     1      -0.940  21.600  -2.406  1.00  0.00     0.198 A 
ATOM     70  C   UNL     1      -2.993  21.017  -1.310  1.00  0.00     0.198 A 
ATOM     71  F   UNL     1      -4.440  19.435  -2.276  1.00  0.00    -0.203 F 
ATOM     72  F   UNL     1       0.221  22.269  -2.417  1.00  0.00    -0.200 F 
ATOM     73  C   UNL     1      -1.808  21.737  -1.334  1.00  0.00     0.200 A 
ATOM     74  F   UNL     1      -3.841  21.161  -0.282  1.00  0.00    -0.200 F 
ATOM     75  F   UNL     1      -1.498  22.555  -0.319  1.00  0.00    -0.200 F 
ENDBRANCH  51  65
BRANCH  52  76
ATOM     76  C   UNL     1      -4.489  13.066 -10.331  1.00  0.00     0.064 A 
ATOM     77  C   UNL     1      -4.368  13.290 -11.709  1.00  0.00     0.173 A 
ATOM     78  C   UNL     1      -4.899  11.792  -9.910  1.00  0.00     0.173 A 
ATOM     79  F   UNL     1      -3.999  14.498 -12.161  1.00  0.00    -0.203 F 
ATOM     80  C   UNL     1      -4.650  12.283 -12.629  1.00  0.00     0.198 A 
ATOM     81  C   UNL     1      -5.154  10.777 -10.830  1.00  0.00     0.198 A 
ATOM     82  F   UNL     1      -5.024  11.526  -8.602  1.00  0.00    -0.203 F 
ATOM     83  F   UNL     1      -4.555  12.532 -13.942  1.00  0.00    -0.200 F 
ATOM     84  C   UNL     1      -5.033  11.024 -12.189  1.00  0.00     0.200 A 
ATOM     85  F   UNL     1      -5.507   9.559 -10.399  1.00  0.00    -0.200 F 
ATOM     86  F   UNL     1      -5.288  10.051 -13.074  1.00  0.00    -0.200 F 
ENDBRANCH  52  76
BRANCH  64  87
ATOM     87  C   UNL     1      -7.481  19.111  -8.536  1.00  0.00     0.064 A 
ATOM     88  C   UNL     1      -8.780  18.636  -8.299  1.00  0.00     0.173 A 
ATOM     89  C   UNL     1      -7.343  20.318  -9.238  1.00  0.00     0.173 A 
ATOM     90  F   UNL     1      -8.968  17.479  -7.647  1.00  0.00    -0.203 F 
ATOM     91  C   UNL     1      -9.893  19.331  -8.767  1.00  0.00     0.198 A 
ATOM     92  C   UNL     1      -8.459  21.026  -9.676  1.00  0.00     0.198 A 
ATOM     93  F   UNL     1      -6.124  20.820  -9.487  1.00  0.00    -0.203 F 
ATOM     94  F   UNL     1     -11.122  18.833  -8.570  1.00  0.00    -0.200 F 
ATOM     95  C   UNL     1      -9.732  20.528  -9.447  1.00  0.00     0.200 A 
ATOM     96  F   UNL     1      -8.301  22.190 -10.321  1.00  0.00    -0.200 F 
ATOM     97  F   UNL     1     -10.805  21.200  -9.889  1.00  0.00    -0.200 F 
ENDBRANCH  64  87
ENDBRANCH  38  39
ENDBRANCH  30  33
ENDBRANCH  28  29
ENDBRANCH  27  28
ENDBRANCH  26  27
ENDBRANCH   1  26
TORSDOF 16
