REMARK SMILES Cc1nn(C)c(C)c1C(=O)N1CC[C@H](C(=O)NCCCCNC(=O)c2ccc(-c3c4nc(c(-c5c(F)c(F)c(F)c(F)c5F)c5ccc([nH]5)c(-c5c(F)c(F)c(F)c(F)c5F)c5nc(c(-c6c(F)c(F)c(F)c(F)c6F)c6ccc3[nH]6)C=C5)C=C4)cc2)[C@@H]1C
REMARK SMILES IDX 19 1 18 2 17 3 15 4 16 5 14 7 11 8 12 9 88 10 13 11 89 12
REMARK SMILES IDX 9 13 10 14 8 15 1 16 2 17 3 18 4 19 6 20 5 21 7 22 20 23
REMARK SMILES IDX 21 24 22 25 23 26 24 28 25 29 26 30 87 31 27 32 86 33 28 34
REMARK SMILES IDX 29 35 30 36 80 37 31 38 85 39 79 40 81 41 32 42 84 43 78 44
REMARK SMILES IDX 77 45 33 47 65 48 45 49 64 50 46 51 49 52 63 53 82 54 47 55
REMARK SMILES IDX 48 56 62 58 83 59 50 60 34 61 35 62 43 63 36 64 37 65 41 66
REMARK SMILES IDX 44 67 38 68 39 69 42 70 40 71 66 72 67 73 75 74 68 75 69 76
REMARK SMILES IDX 73 77 76 78 70 79 71 80 74 81 72 82 51 83 52 84 60 85 53 86
REMARK SMILES IDX 54 87 58 88 61 89 55 90 56 91 59 92 57 93
REMARK H PARENT 17 6 22 27 81 46 49 57
REMARK Flexibility Score: inf
ROOT
ATOM      1  C   UNL     1      -7.553   2.657   2.786  1.00  0.00     0.023 C 
ENDROOT
BRANCH   1   2
ATOM      2  C   UNL     1      -7.250   3.799   1.816  1.00  0.00     0.116 C 
BRANCH   2   3
ATOM      3  N   UNL     1      -6.089   4.570   2.219  1.00  0.00    -0.356 N 
ATOM      4  C   UNL     1      -4.771   4.382   1.898  1.00  0.00     0.225 C 
ATOM      5  O   UNL     1      -3.955   5.192   2.330  1.00  0.00    -0.275 OA
ATOM      6  H   UNL     1      -6.275   5.337   2.807  1.00  0.00     0.163 HD
BRANCH   4   7
ATOM      7  C   UNL     1      -4.412   3.244   0.951  1.00  0.00     0.102 C 
ATOM      8  N   UNL     1      -2.330   3.005  -0.201  1.00  0.00    -0.335 N 
ATOM      9  C   UNL     1      -3.050   4.079  -0.845  1.00  0.00     0.121 C 
ATOM     10  C   UNL     1      -3.000   2.614   1.045  1.00  0.00     0.094 C 
ATOM     11  C   UNL     1      -4.495   3.769  -0.493  1.00  0.00     0.037 C 
ATOM     12  C   UNL     1      -2.171   2.963   2.277  1.00  0.00     0.032 C 
BRANCH   8  13
ATOM     13  C   UNL     1      -1.184   2.483  -0.776  1.00  0.00     0.257 C 
ATOM     14  O   UNL     1      -0.592   3.061  -1.685  1.00  0.00    -0.269 OA
BRANCH  13  15
ATOM     15  C   UNL     1      -0.725   1.188  -0.298  1.00  0.00     0.083 A 
ATOM     16  C   UNL     1      -2.746  -0.381  -0.874  1.00  0.00     0.069 C 
ATOM     17  C   UNL     1      -1.397  -0.064  -0.340  1.00  0.00     0.072 A 
ATOM     18  N   UNL     1      -0.644  -1.050   0.159  1.00  0.00    -0.178 NA
ATOM     19  N   UNL     1       0.538  -0.463   0.420  1.00  0.00    -0.272 N 
ATOM     20  C   UNL     1       0.543   0.886   0.178  1.00  0.00     0.048 A 
ATOM     21  C   UNL     1       1.626  -1.295   0.879  1.00  0.00     0.174 C 
ATOM     22  C   UNL     1       1.728   1.756   0.386  1.00  0.00     0.067 C 
ENDBRANCH  13  15
ENDBRANCH   8  13
ENDBRANCH   4   7
ENDBRANCH   2   3
ENDBRANCH   1   2
BRANCH   1  23
ATOM     23  C   UNL     1      -7.955   3.097   4.202  1.00  0.00     0.023 C 
BRANCH  23  24
ATOM     24  C   UNL     1      -9.175   4.014   4.289  1.00  0.00     0.116 C 
BRANCH  24  25
ATOM     25  N   UNL     1     -10.374   3.411   3.736  1.00  0.00    -0.352 N 
ATOM     26  C   UNL     1     -11.690   3.702   3.994  1.00  0.00     0.251 C 
ATOM     27  H   UNL     1     -10.222   2.691   3.083  1.00  0.00     0.163 HD
ATOM     28  O   UNL     1     -12.573   2.995   3.517  1.00  0.00    -0.269 OA
BRANCH  26  29
ATOM     29  C   UNL     1     -12.062   4.835   4.872  1.00  0.00     0.039 A 
ATOM     30  C   UNL     1     -13.038   4.616   5.851  1.00  0.00     0.014 A 
ATOM     31  C   UNL     1     -11.517   6.111   4.702  1.00  0.00     0.014 A 
ATOM     32  C   UNL     1     -13.433   5.659   6.692  1.00  0.00     0.010 A 
ATOM     33  C   UNL     1     -11.900   7.150   5.553  1.00  0.00     0.010 A 
ATOM     34  C   UNL     1     -12.857   6.930   6.555  1.00  0.00    -0.014 A 
BRANCH  34  35
ATOM     35  C   UNL     1     -13.238   8.034   7.465  1.00  0.00     0.031 A 
ATOM     36  C   UNL     1     -14.197   9.095   7.017  1.00  0.00     0.074 A 
ATOM     37  C   UNL     1     -12.687   8.099   8.691  1.00  0.00     0.049 A 
ATOM     38  N   UNL     1     -14.563  10.190   7.635  1.00  0.00    -0.248 NA
ATOM     39  C   UNL     1     -14.821   8.906   5.699  1.00  0.00     0.031 C 
ATOM     40  C   UNL     1     -11.739   7.132   9.244  1.00  0.00     0.029 A 
ATOM     41  N   UNL     1     -12.843   9.027   9.689  1.00  0.00    -0.354 N 
ATOM     42  C   UNL     1     -15.436  10.835   6.772  1.00  0.00     0.074 A 
ATOM     43  C   UNL     1     -15.559  10.003   5.592  1.00  0.00     0.031 C 
ATOM     44  C   UNL     1     -11.397   7.517  10.484  1.00  0.00     0.029 A 
ATOM     45  C   UNL     1     -12.089   8.763  10.803  1.00  0.00     0.049 A 
ATOM     46  H   UNL     1     -13.438   9.807   9.612  1.00  0.00     0.167 HD
ATOM     47  C   UNL     1     -16.069  12.019   6.946  1.00  0.00     0.037 A 
ATOM     48  C   UNL     1     -11.962   9.456  11.950  1.00  0.00     0.037 A 
ATOM     49  C   UNL     1     -15.971  12.842   8.121  1.00  0.00     0.049 A 
ATOM     50  C   UNL     1     -12.719  10.736  12.139  1.00  0.00     0.074 A 
ATOM     51  C   UNL     1     -16.565  14.067   8.373  1.00  0.00     0.029 A 
ATOM     52  N   UNL     1     -15.240  12.512   9.251  1.00  0.00    -0.354 N 
ATOM     53  N   UNL     1     -13.514  11.353  11.302  1.00  0.00    -0.248 NA
ATOM     54  C   UNL     1     -12.556  11.418  13.431  1.00  0.00     0.031 C 
ATOM     55  C   UNL     1     -16.195  14.478   9.660  1.00  0.00     0.029 A 
ATOM     56  C   UNL     1     -15.376  13.505  10.207  1.00  0.00     0.049 A 
ATOM     57  H   UNL     1     -14.704  11.694   9.358  1.00  0.00     0.167 HD
ATOM     58  C   UNL     1     -13.942  12.496  11.959  1.00  0.00     0.074 A 
ATOM     59  C   UNL     1     -13.329  12.484  13.271  1.00  0.00     0.031 C 
ATOM     60  C   UNL     1     -14.764  13.473  11.508  1.00  0.00     0.037 A 
BRANCH  47  61
ATOM     61  C   UNL     1     -16.918  12.507   5.818  1.00  0.00     0.064 A 
ATOM     62  C   UNL     1     -18.261  12.127   5.705  1.00  0.00     0.173 A 
ATOM     63  C   UNL     1     -16.392  13.388   4.863  1.00  0.00     0.173 A 
ATOM     64  F   UNL     1     -18.799  11.276   6.591  1.00  0.00    -0.203 F 
ATOM     65  C   UNL     1     -19.052  12.612   4.667  1.00  0.00     0.198 A 
ATOM     66  C   UNL     1     -17.186  13.875   3.830  1.00  0.00     0.198 A 
ATOM     67  F   UNL     1     -15.108  13.772   4.933  1.00  0.00    -0.203 F 
ATOM     68  F   UNL     1     -20.332  12.228   4.565  1.00  0.00    -0.200 F 
ATOM     69  C   UNL     1     -18.515  13.487   3.732  1.00  0.00     0.200 A 
ATOM     70  F   UNL     1     -16.666  14.716   2.925  1.00  0.00    -0.200 F 
ATOM     71  F   UNL     1     -19.277  13.951   2.733  1.00  0.00    -0.200 F 
ENDBRANCH  47  61
BRANCH  48  72
ATOM     72  C   UNL     1     -11.070   8.942  13.012  1.00  0.00     0.064 A 
ATOM     73  C   UNL     1     -11.579   8.170  14.062  1.00  0.00     0.173 A 
ATOM     74  C   UNL     1      -9.694   9.197  12.981  1.00  0.00     0.173 A 
ATOM     75  F   UNL     1     -12.894   7.918  14.132  1.00  0.00    -0.203 F 
ATOM     76  C   UNL     1     -10.738   7.668  15.051  1.00  0.00     0.198 A 
ATOM     77  C   UNL     1      -8.852   8.690  13.968  1.00  0.00     0.198 A 
ATOM     78  F   UNL     1      -9.170   9.936  11.993  1.00  0.00    -0.203 F 
ATOM     79  F   UNL     1     -11.246   6.939  16.055  1.00  0.00    -0.200 F 
ATOM     80  C   UNL     1      -9.375   7.926  15.002  1.00  0.00     0.200 A 
ATOM     81  F   UNL     1      -7.537   8.940  13.918  1.00  0.00    -0.200 F 
ATOM     82  F   UNL     1      -8.566   7.441  15.953  1.00  0.00    -0.200 F 
ENDBRANCH  48  72
BRANCH  60  83
ATOM     83  C   UNL     1     -15.044  14.606  12.441  1.00  0.00     0.064 A 
ATOM     84  C   UNL     1     -14.200  15.723  12.489  1.00  0.00     0.173 A 
ATOM     85  C   UNL     1     -16.175  14.589  13.268  1.00  0.00     0.173 A 
ATOM     86  F   UNL     1     -13.101  15.772  11.721  1.00  0.00    -0.203 F 
ATOM     87  C   UNL     1     -14.477  16.788  13.341  1.00  0.00     0.198 A 
ATOM     88  C   UNL     1     -16.450  15.656  14.117  1.00  0.00     0.198 A 
ATOM     89  F   UNL     1     -17.003  13.533  13.259  1.00  0.00    -0.203 F 
ATOM     90  F   UNL     1     -13.652  17.843  13.383  1.00  0.00    -0.200 F 
ATOM     91  C   UNL     1     -15.602  16.754  14.152  1.00  0.00     0.200 A 
ATOM     92  F   UNL     1     -17.532  15.621  14.907  1.00  0.00    -0.200 F 
ATOM     93  F   UNL     1     -15.864  17.778  14.977  1.00  0.00    -0.200 F 
ENDBRANCH  60  83
ENDBRANCH  34  35
ENDBRANCH  26  29
ENDBRANCH  24  25
ENDBRANCH  23  24
ENDBRANCH   1  23
TORSDOF 13
