REMARK SMILES CC1(C)[C@@H](CBr)CC[C@]1(C)C(=O)NCCCCNC(=O)c1ccc(-c2c3nc(c(-c4c(F)c(F)c(F)c(F)c4F)c4ccc([nH]4)c(-c4c(F)c(F)c(F)c(F)c4F)c4nc(c(-c5c(F)c(F)c(F)c(F)c5F)c5ccc2[nH]5)C=C4)C=C3)cc1
REMARK SMILES IDX 16 1 15 2 14 3 13 4 11 5 12 6 9 8 1 9 2 10 3 11 4 12 7 13
REMARK SMILES IDX 8 14 10 15 5 16 6 17 17 18 18 19 19 20 20 22 21 23 22 24
REMARK SMILES IDX 83 25 23 26 82 27 24 28 25 29 26 30 76 31 27 32 81 33 75 34
REMARK SMILES IDX 77 35 28 36 80 37 74 38 73 39 29 41 61 42 41 43 60 44 42 45
REMARK SMILES IDX 45 46 59 47 78 48 43 49 44 50 58 52 79 53 46 54 30 55 31 56
REMARK SMILES IDX 39 57 32 58 33 59 37 60 40 61 34 62 35 63 38 64 36 65 62 66
REMARK SMILES IDX 63 67 71 68 64 69 65 70 69 71 72 72 66 73 67 74 70 75 68 76
REMARK SMILES IDX 47 77 48 78 56 79 49 80 50 81 54 82 57 83 51 84 52 85 55 86
REMARK SMILES IDX 53 87
REMARK H PARENT 13 7 18 21 77 40 45 51
REMARK Flexibility Score: inf
ROOT
ATOM      1  C   UNL     1      -1.390   2.773  -2.885  1.00  0.00     0.023 C 
ENDROOT
BRANCH   1   2
ATOM      2  C   UNL     1      -0.509   2.033  -1.888  1.00  0.00     0.023 C 
BRANCH   2   3
ATOM      3  C   UNL     1      -1.252   1.424  -0.699  1.00  0.00     0.116 C 
BRANCH   3   4
ATOM      4  N   UNL     1      -1.977   0.226  -1.067  1.00  0.00    -0.356 N 
ATOM      5  C   UNL     1      -1.813  -1.093  -0.781  1.00  0.00     0.226 C 
ATOM      6  O   UNL     1      -2.642  -1.838  -1.316  1.00  0.00    -0.274 OA
ATOM      7  H   UNL     1      -2.753   0.404  -1.646  1.00  0.00     0.163 HD
BRANCH   5   8
ATOM      8  C   UNL     1      -0.697  -1.651   0.156  1.00  0.00     0.052 C 
ATOM      9  C   UNL     1       1.578  -0.305  -0.101  1.00  0.00     0.012 C 
ATOM     10  C   UNL     1       0.776  -1.569  -0.425  1.00  0.00    -0.018 C 
ATOM     11  C   UNL     1       0.749  -1.675  -1.985  1.00  0.00     0.012 C 
ATOM     12  C   UNL     1       1.495  -2.866   0.107  1.00  0.00     0.006 C 
ATOM     13  C   UNL     1       0.392  -3.915  -0.067  1.00  0.00     0.006 C 
ATOM     14  C   UNL     1      -0.902  -3.208   0.330  1.00  0.00     0.017 C 
ATOM     15  C   UNL     1      -0.924  -1.034   1.556  1.00  0.00     0.022 C 
BRANCH  12  16
ATOM     16  C   UNL     1       2.004  -2.964   1.552  1.00  0.00     0.084 C 
ATOM     17  Br  UNL     1       3.586  -1.914   1.946  1.00  0.00    -0.092 Br
ENDBRANCH  12  16
ENDBRANCH   5   8
ENDBRANCH   3   4
ENDBRANCH   2   3
ENDBRANCH   1   2
BRANCH   1  18
ATOM     18  C   UNL     1      -2.149   3.953  -2.301  1.00  0.00     0.116 C 
BRANCH  18  19
ATOM     19  N   UNL     1      -1.291   4.920  -1.625  1.00  0.00    -0.352 N 
ATOM     20  C   UNL     1      -1.340   6.291  -1.680  1.00  0.00     0.251 C 
ATOM     21  H   UNL     1      -0.584   4.539  -1.056  1.00  0.00     0.163 HD
ATOM     22  O   UNL     1      -0.484   6.977  -1.133  1.00  0.00    -0.269 OA
BRANCH  20  23
ATOM     23  C   UNL     1      -2.426   6.925  -2.449  1.00  0.00     0.039 A 
ATOM     24  C   UNL     1      -2.102   7.859  -3.433  1.00  0.00     0.014 A 
ATOM     25  C   UNL     1      -3.747   6.515  -2.256  1.00  0.00     0.014 A 
ATOM     26  C   UNL     1      -3.101   8.323  -4.288  1.00  0.00     0.010 A 
ATOM     27  C   UNL     1      -4.721   6.909  -3.161  1.00  0.00     0.010 A 
ATOM     28  C   UNL     1      -4.406   7.814  -4.186  1.00  0.00    -0.014 A 
BRANCH  28  29
ATOM     29  C   UNL     1      -5.468   8.211  -5.140  1.00  0.00     0.031 A 
ATOM     30  C   UNL     1      -6.678   8.945  -4.641  1.00  0.00     0.074 A 
ATOM     31  C   UNL     1      -5.382   7.834  -6.430  1.00  0.00     0.049 A 
ATOM     32  N   UNL     1      -7.760   9.295  -5.287  1.00  0.00    -0.248 NA
ATOM     33  C   UNL     1      -6.689   9.299  -3.213  1.00  0.00     0.031 C 
ATOM     34  C   UNL     1      -4.281   7.069  -7.018  1.00  0.00     0.029 A 
ATOM     35  N   UNL     1      -6.244   8.034  -7.477  1.00  0.00    -0.354 N 
ATOM     36  C   UNL     1      -8.585   9.888  -4.342  1.00  0.00     0.074 A 
ATOM     37  C   UNL     1      -7.906   9.796  -3.067  1.00  0.00     0.031 C 
ATOM     38  C   UNL     1      -4.520   6.891  -8.327  1.00  0.00     0.029 A 
ATOM     39  C   UNL     1      -5.805   7.496  -8.662  1.00  0.00     0.049 A 
ATOM     40  H   UNL     1      -7.098   8.517  -7.388  1.00  0.00     0.167 HD
ATOM     41  C   UNL     1      -9.788  10.480  -4.525  1.00  0.00     0.037 A 
ATOM     42  C   UNL     1      -6.379   7.493  -9.879  1.00  0.00     0.037 A 
ATOM     43  C   UNL     1     -10.440  10.598  -5.801  1.00  0.00     0.049 A 
ATOM     44  C   UNL     1      -7.714   8.162 -10.060  1.00  0.00     0.074 A 
ATOM     45  C   UNL     1     -11.624  11.243  -6.111  1.00  0.00     0.029 A 
ATOM     46  N   UNL     1      -9.957  10.057  -6.984  1.00  0.00    -0.354 N 
ATOM     47  N   UNL     1      -8.456   8.780  -9.174  1.00  0.00    -0.248 NA
ATOM     48  C   UNL     1      -8.290   8.132 -11.411  1.00  0.00     0.031 C 
ATOM     49  C   UNL     1     -11.876  11.059  -7.475  1.00  0.00     0.029 A 
ATOM     50  C   UNL     1     -10.829  10.335  -8.023  1.00  0.00     0.049 A 
ATOM     51  H   UNL     1      -9.117   9.550  -7.072  1.00  0.00     0.167 HD
ATOM     52  C   UNL     1      -9.572   9.234  -9.861  1.00  0.00     0.074 A 
ATOM     53  C   UNL     1      -9.405   8.829 -11.242  1.00  0.00     0.031 C 
ATOM     54  C   UNL     1     -10.640   9.925  -9.391  1.00  0.00     0.037 A 
BRANCH  41  55
ATOM     55  C   UNL     1     -10.464  11.047  -3.312  1.00  0.00     0.064 A 
ATOM     56  C   UNL     1      -9.960  12.178  -2.651  1.00  0.00     0.173 A 
ATOM     57  C   UNL     1     -11.626  10.452  -2.800  1.00  0.00     0.173 A 
ATOM     58  F   UNL     1      -8.841  12.774  -3.091  1.00  0.00    -0.203 F 
ATOM     59  C   UNL     1     -10.570  12.667  -1.499  1.00  0.00     0.198 A 
ATOM     60  C   UNL     1     -12.252  10.963  -1.666  1.00  0.00     0.198 A 
ATOM     61  F   UNL     1     -12.152   9.370  -3.395  1.00  0.00    -0.203 F 
ATOM     62  F   UNL     1     -10.033  13.708  -0.849  1.00  0.00    -0.200 F 
ATOM     63  C   UNL     1     -11.718  12.062  -1.010  1.00  0.00     0.200 A 
ATOM     64  F   UNL     1     -13.367  10.383  -1.199  1.00  0.00    -0.200 F 
ATOM     65  F   UNL     1     -12.303  12.531   0.100  1.00  0.00    -0.200 F 
ENDBRANCH  41  55
BRANCH  42  66
ATOM     66  C   UNL     1      -5.670   6.876 -11.028  1.00  0.00     0.064 A 
ATOM     67  C   UNL     1      -5.105   7.677 -12.030  1.00  0.00     0.173 A 
ATOM     68  C   UNL     1      -5.524   5.486 -11.142  1.00  0.00     0.173 A 
ATOM     69  F   UNL     1      -5.236   9.011 -11.972  1.00  0.00    -0.203 F 
ATOM     70  C   UNL     1      -4.429   7.111 -13.108  1.00  0.00     0.198 A 
ATOM     71  C   UNL     1      -4.829   4.922 -12.210  1.00  0.00     0.198 A 
ATOM     72  F   UNL     1      -6.043   4.678 -10.206  1.00  0.00    -0.203 F 
ATOM     73  F   UNL     1      -3.926   7.899 -14.069  1.00  0.00    -0.200 F 
ATOM     74  C   UNL     1      -4.286   5.734 -13.194  1.00  0.00     0.200 A 
ATOM     75  F   UNL     1      -4.682   3.592 -12.283  1.00  0.00    -0.200 F 
ATOM     76  F   UNL     1      -3.630   5.191 -14.228  1.00  0.00    -0.200 F 
ENDBRANCH  42  66
BRANCH  54  77
ATOM     77  C   UNL     1     -11.697  10.309 -10.383  1.00  0.00     0.064 A 
ATOM     78  C   UNL     1     -12.592   9.364 -10.902  1.00  0.00     0.173 A 
ATOM     79  C   UNL     1     -11.843  11.646 -10.782  1.00  0.00     0.173 A 
ATOM     80  F   UNL     1     -12.481   8.071 -10.563  1.00  0.00    -0.203 F 
ATOM     81  C   UNL     1     -13.586   9.741 -11.801  1.00  0.00     0.198 A 
ATOM     82  C   UNL     1     -12.854  12.024 -11.660  1.00  0.00     0.198 A 
ATOM     83  F   UNL     1     -11.013  12.588 -10.309  1.00  0.00    -0.203 F 
ATOM     84  F   UNL     1     -14.407   8.816 -12.316  1.00  0.00    -0.200 F 
ATOM     85  C   UNL     1     -13.721  11.071 -12.173  1.00  0.00     0.200 A 
ATOM     86  F   UNL     1     -12.990  13.310 -12.010  1.00  0.00    -0.200 F 
ATOM     87  F   UNL     1     -14.684  11.433 -13.032  1.00  0.00    -0.200 F 
ENDBRANCH  54  77
ENDBRANCH  28  29
ENDBRANCH  20  23
ENDBRANCH  18  19
ENDBRANCH   1  18
TORSDOF 12
