REMARK SMILES O=C(NCCCCNC(=O)c1cnc2c(C(F)(F)F)cccc2c1NCc1cccnc1)c1ccc(-c2c3nc(c(-c4c(F)c(F)c(F)c(F)c4F)c4ccc([nH]4)c(-c4c(F)c(F)c(F)c(F)c4F)c4nc(c(-c5c(F)c(F)c(F)c(F)c5F)c5ccc2[nH]5)C=C4)C=C3)cc1
REMARK SMILES IDX 6 1 5 2 4 3 3 4 1 5 2 6 33 8 34 9 95 10 35 11 94 12 36 13
REMARK SMILES IDX 37 14 38 15 88 16 39 17 93 18 87 19 89 20 40 21 92 22 86 23
REMARK SMILES IDX 85 24 41 26 73 27 53 28 72 29 54 30 57 31 71 32 90 33 55 34
REMARK SMILES IDX 56 35 70 37 91 38 58 39 42 40 43 41 51 42 44 43 45 44 49 45
REMARK SMILES IDX 52 46 46 47 47 48 50 49 48 50 74 51 75 52 83 53 76 54 77 55
REMARK SMILES IDX 81 56 84 57 78 58 79 59 82 60 80 61 59 62 60 63 68 64 61 65
REMARK SMILES IDX 62 66 66 67 69 68 63 69 64 70 67 71 65 72 7 73 8 74 9 75
REMARK SMILES IDX 10 77 11 78 12 79 24 80 13 81 23 82 14 83 22 84 15 85 21 86
REMARK SMILES IDX 20 87 25 88 26 90 27 91 28 92 32 93 29 94 31 95 30 96 16 97
REMARK SMILES IDX 17 98 18 99 19 100
REMARK H PARENT 3 7 89 25 57 36 8 76 25 89
REMARK Flexibility Score: inf
ROOT
ATOM      1  C   UNL     1       4.389   1.559  -3.738  1.00  0.00     0.023 C 
ENDROOT
BRANCH   1   2
ATOM      2  C   UNL     1       4.877   0.462  -2.799  1.00  0.00     0.023 C 
BRANCH   2   3
ATOM      3  C   UNL     1       4.499   0.618  -1.332  1.00  0.00     0.116 C 
BRANCH   3   4
ATOM      4  N   UNL     1       3.068   0.593  -1.077  1.00  0.00    -0.352 N 
ATOM      5  O   UNL     1       1.143  -0.076  -0.102  1.00  0.00    -0.269 OA
ATOM      6  C   UNL     1       2.364  -0.127  -0.134  1.00  0.00     0.251 C 
ATOM      7  H   UNL     1       2.525   1.171  -1.659  1.00  0.00     0.163 HD
BRANCH   6   8
ATOM      8  C   UNL     1       3.092  -1.000   0.817  1.00  0.00     0.039 A 
ATOM      9  C   UNL     1       4.246  -0.553   1.459  1.00  0.00     0.014 A 
ATOM     10  C   UNL     1       2.625  -2.299   1.045  1.00  0.00     0.014 A 
ATOM     11  C   UNL     1       5.027  -1.452   2.175  1.00  0.00     0.010 A 
ATOM     12  C   UNL     1       3.361  -3.175   1.852  1.00  0.00     0.010 A 
ATOM     13  C   UNL     1       4.592  -2.772   2.388  1.00  0.00    -0.014 A 
BRANCH  13  14
ATOM     14  C   UNL     1       5.432  -3.671   3.222  1.00  0.00     0.031 A 
ATOM     15  C   UNL     1       6.084  -4.899   2.649  1.00  0.00     0.074 A 
ATOM     16  C   UNL     1       5.667  -3.317   4.501  1.00  0.00     0.049 A 
ATOM     17  N   UNL     1       6.922  -5.728   3.222  1.00  0.00    -0.248 NA
ATOM     18  C   UNL     1       5.751  -5.253   1.261  1.00  0.00     0.031 C 
ATOM     19  C   UNL     1       5.066  -2.163   5.175  1.00  0.00     0.029 A 
ATOM     20  N   UNL     1       6.496  -3.860   5.449  1.00  0.00    -0.354 N 
ATOM     21  C   UNL     1       7.207  -6.702   2.274  1.00  0.00     0.074 A 
ATOM     22  C   UNL     1       6.431  -6.380   1.095  1.00  0.00     0.031 C 
ATOM     23  C   UNL     1       5.596  -2.044   6.400  1.00  0.00     0.029 A 
ATOM     24  C   UNL     1       6.527  -3.144   6.620  1.00  0.00     0.049 A 
ATOM     25  H   UNL     1       7.017  -4.683   5.304  1.00  0.00     0.167 HD
ATOM     26  C   UNL     1       8.048  -7.761   2.377  1.00  0.00     0.037 A 
ATOM     27  C   UNL     1       7.227  -3.349   7.751  1.00  0.00     0.037 A 
ATOM     28  C   UNL     1       8.828  -8.073   3.548  1.00  0.00     0.049 A 
ATOM     29  C   UNL     1       8.164  -4.518   7.826  1.00  0.00     0.074 A 
ATOM     30  C   UNL     1       9.713  -9.120   3.744  1.00  0.00     0.029 A 
ATOM     31  N   UNL     1       8.819  -7.335   4.723  1.00  0.00    -0.354 N 
ATOM     32  N   UNL     1       8.437  -5.417   6.913  1.00  0.00    -0.248 NA
ATOM     33  C   UNL     1       8.890  -4.701   9.089  1.00  0.00     0.031 C 
ATOM     34  C   UNL     1      10.215  -9.033   5.048  1.00  0.00     0.029 A 
ATOM     35  C   UNL     1       9.675  -7.910   5.651  1.00  0.00     0.049 A 
ATOM     36  H   UNL     1       8.283  -6.523   4.876  1.00  0.00     0.167 HD
ATOM     37  C   UNL     1       9.361  -6.275   7.489  1.00  0.00     0.074 A 
ATOM     38  C   UNL     1       9.635  -5.763   8.817  1.00  0.00     0.031 C 
ATOM     39  C   UNL     1       9.923  -7.394   6.972  1.00  0.00     0.037 A 
BRANCH  26  40
ATOM     40  C   UNL     1       8.174  -8.672   1.190  1.00  0.00     0.064 A 
ATOM     41  C   UNL     1       8.878  -8.284   0.040  1.00  0.00     0.173 A 
ATOM     42  C   UNL     1       7.647  -9.973   1.229  1.00  0.00     0.173 A 
ATOM     43  F   UNL     1       9.392  -7.048  -0.052  1.00  0.00    -0.203 F 
ATOM     44  C   UNL     1       9.039  -9.160  -1.031  1.00  0.00     0.198 A 
ATOM     45  C   UNL     1       7.830 -10.853   0.166  1.00  0.00     0.198 A 
ATOM     46  F   UNL     1       6.972 -10.396   2.308  1.00  0.00    -0.203 F 
ATOM     47  F   UNL     1       9.691  -8.758  -2.131  1.00  0.00    -0.200 F 
ATOM     48  C   UNL     1       8.523 -10.446  -0.964  1.00  0.00     0.200 A 
ATOM     49  F   UNL     1       7.341 -12.099   0.237  1.00  0.00    -0.200 F 
ATOM     50  F   UNL     1       8.691 -11.291  -1.990  1.00  0.00    -0.200 F 
ENDBRANCH  26  40
BRANCH  27  51
ATOM     51  C   UNL     1       7.058  -2.422   8.898  1.00  0.00     0.064 A 
ATOM     52  C   UNL     1       8.089  -1.560   9.293  1.00  0.00     0.173 A 
ATOM     53  C   UNL     1       5.851  -2.368   9.612  1.00  0.00     0.173 A 
ATOM     54  F   UNL     1       9.267  -1.588   8.652  1.00  0.00    -0.203 F 
ATOM     55  C   UNL     1       7.926  -0.691  10.370  1.00  0.00     0.198 A 
ATOM     56  C   UNL     1       5.678  -1.477  10.667  1.00  0.00     0.198 A 
ATOM     57  F   UNL     1       4.831  -3.168   9.267  1.00  0.00    -0.203 F 
ATOM     58  F   UNL     1       8.942   0.093  10.754  1.00  0.00    -0.200 F 
ATOM     59  C   UNL     1       6.719  -0.645  11.051  1.00  0.00     0.200 A 
ATOM     60  F   UNL     1       4.504  -1.423  11.310  1.00  0.00    -0.200 F 
ATOM     61  F   UNL     1       6.559   0.198  12.080  1.00  0.00    -0.200 F 
ENDBRANCH  27  51
BRANCH  39  62
ATOM     62  C   UNL     1      10.883  -8.135   7.854  1.00  0.00     0.064 A 
ATOM     63  C   UNL     1      10.436  -8.873   8.959  1.00  0.00     0.173 A 
ATOM     64  C   UNL     1      12.261  -8.106   7.593  1.00  0.00     0.173 A 
ATOM     65  F   UNL     1       9.129  -8.915   9.259  1.00  0.00    -0.203 F 
ATOM     66  C   UNL     1      11.338  -9.529   9.792  1.00  0.00     0.198 A 
ATOM     67  C   UNL     1      13.157  -8.786   8.413  1.00  0.00     0.198 A 
ATOM     68  F   UNL     1      12.736  -7.418   6.545  1.00  0.00    -0.203 F 
ATOM     69  F   UNL     1      10.893 -10.182  10.875  1.00  0.00    -0.200 F 
ATOM     70  C   UNL     1      12.696  -9.488   9.517  1.00  0.00     0.200 A 
ATOM     71  F   UNL     1      14.469  -8.751   8.142  1.00  0.00    -0.200 F 
ATOM     72  F   UNL     1      13.563 -10.115  10.323  1.00  0.00    -0.200 F 
ENDBRANCH  39  62
ENDBRANCH  13  14
ENDBRANCH   6   8
ENDBRANCH   3   4
ENDBRANCH   2   3
ENDBRANCH   1   2
BRANCH   1  73
ATOM     73  C   UNL     1       4.624   2.989  -3.267  1.00  0.00     0.116 C 
BRANCH  73  74
ATOM     74  N   UNL     1       6.013   3.282  -2.937  1.00  0.00    -0.352 N 
ATOM     75  C   UNL     1       6.837   4.247  -3.470  1.00  0.00     0.254 C 
ATOM     76  H   UNL     1       6.416   2.714  -2.241  1.00  0.00     0.163 HD
ATOM     77  O   UNL     1       7.913   4.508  -2.943  1.00  0.00    -0.269 OA
BRANCH  75  78
ATOM     78  C   UNL     1       6.370   5.010  -4.631  1.00  0.00     0.081 A 
ATOM     79  C   UNL     1       5.413   5.961  -4.311  1.00  0.00     0.127 A 
ATOM     80  C   UNL     1       6.761   4.840  -5.970  1.00  0.00     0.058 A 
ATOM     81  N   UNL     1       4.708   6.660  -5.215  1.00  0.00    -0.255 NA
ATOM     82  C   UNL     1       6.001   5.588  -6.950  1.00  0.00     0.025 A 
ATOM     83  C   UNL     1       4.966   6.463  -6.509  1.00  0.00     0.085 A 
ATOM     84  C   UNL     1       6.202   5.494  -8.354  1.00  0.00     0.012 A 
ATOM     85  C   UNL     1       4.169   7.137  -7.434  1.00  0.00     0.082 A 
ATOM     86  C   UNL     1       5.430   6.206  -9.270  1.00  0.00     0.001 A 
ATOM     87  C   UNL     1       4.408   7.016  -8.811  1.00  0.00     0.015 A 
BRANCH  80  88
ATOM     88  N   UNL     1       7.736   3.957  -6.436  1.00  0.00    -0.380 N 
ATOM     89  H   UNL     1       7.805   3.904  -7.417  1.00  0.00     0.160 HD
BRANCH  88  90
ATOM     90  C   UNL     1       8.669   3.102  -5.717  1.00  0.00     0.150 C 
BRANCH  90  91
ATOM     91  C   UNL     1       8.507   1.640  -6.052  1.00  0.00    -0.011 A 
ATOM     92  C   UNL     1       9.114   0.673  -5.238  1.00  0.00     0.009 A 
ATOM     93  C   UNL     1       7.852   1.177  -7.187  1.00  0.00     0.116 A 
ATOM     94  C   UNL     1       9.040  -0.675  -5.576  1.00  0.00     0.020 A 
ATOM     95  N   UNL     1       7.765  -0.128  -7.544  1.00  0.00    -0.264 NA
ATOM     96  C   UNL     1       8.363  -1.023  -6.731  1.00  0.00     0.111 A 
ENDBRANCH  90  91
ENDBRANCH  88  90
ENDBRANCH  80  88
BRANCH  85  97
ATOM     97  C   UNL     1       3.009   7.963  -6.942  1.00  0.00     0.418 C 
ATOM     98  F   UNL     1       2.068   7.229  -6.280  1.00  0.00    -0.166 F 
ATOM     99  F   UNL     1       3.362   8.985  -6.115  1.00  0.00    -0.166 F 
ATOM    100  F   UNL     1       2.323   8.561  -7.965  1.00  0.00    -0.166 F 
ENDBRANCH  85  97
ENDBRANCH  75  78
ENDBRANCH  73  74
ENDBRANCH   1  73
TORSDOF 15
