REMARK SMILES Cn1cncc1COc1c(F)cc(C(=O)NCCCCNC(=O)c2ccc(-c3c4nc(c(-c5c(F)c(F)c(F)c(F)c5F)c5ccc([nH]5)c(-c5c(F)c(F)c(F)c(F)c5F)c5nc(c(-c6c(F)c(F)c(F)c(F)c6F)c6ccc3[nH]6)C=C5)C=C4)cc2)cc1F
REMARK SMILES IDX 18 1 17 2 16 3 14 4 15 5 13 7 9 8 10 9 88 10 11 11 12 12
REMARK SMILES IDX 87 13 89 14 8 15 7 16 6 17 1 18 2 19 3 20 4 21 5 22 19 23
REMARK SMILES IDX 20 24 21 25 22 26 23 28 24 29 25 30 86 31 26 32 85 33 27 34
REMARK SMILES IDX 28 35 29 36 79 37 30 38 84 39 78 40 80 41 31 42 83 43 77 44
REMARK SMILES IDX 76 45 32 47 64 48 44 49 63 50 45 51 48 52 62 53 81 54 46 55
REMARK SMILES IDX 47 56 61 58 82 59 49 60 33 61 34 62 42 63 35 64 36 65 40 66
REMARK SMILES IDX 43 67 37 68 38 69 41 70 39 71 65 72 66 73 74 74 67 75 68 76
REMARK SMILES IDX 72 77 75 78 69 79 70 80 73 81 71 82 50 83 51 84 59 85 52 86
REMARK SMILES IDX 53 87 57 88 60 89 54 90 55 91 58 92 56 93
REMARK H PARENT 16 6 21 27 80 46 48 57
REMARK Flexibility Score: inf
ROOT
ATOM      1  C   UNL     1      -0.583   1.734   6.035  1.00  0.00     0.023 C 
ENDROOT
BRANCH   1   2
ATOM      2  C   UNL     1       0.818   1.113   6.026  1.00  0.00     0.116 C 
BRANCH   2   3
ATOM      3  N   UNL     1       0.866  -0.126   6.783  1.00  0.00    -0.352 N 
ATOM      4  C   UNL     1       0.800  -1.440   6.386  1.00  0.00     0.251 C 
ATOM      5  O   UNL     1       1.020  -2.311   7.227  1.00  0.00    -0.269 OA
ATOM      6  H   UNL     1       0.962  -0.002   7.755  1.00  0.00     0.163 HD
BRANCH   4   7
ATOM      7  C   UNL     1       0.499  -1.857   4.987  1.00  0.00     0.045 A 
ATOM      8  C   UNL     1      -0.056  -2.754   2.368  1.00  0.00     0.191 A 
ATOM      9  C   UNL     1      -0.571  -1.556   2.841  1.00  0.00     0.168 A 
ATOM     10  C   UNL     1       0.678  -3.544   3.247  1.00  0.00     0.168 A 
ATOM     11  F   UNL     1      -1.378  -0.800   2.089  1.00  0.00    -0.203 F 
ATOM     12  C   UNL     1      -0.294  -1.108   4.124  1.00  0.00     0.057 A 
ATOM     13  C   UNL     1       0.958  -3.108   4.546  1.00  0.00     0.057 A 
ATOM     14  F   UNL     1       1.125  -4.747   2.857  1.00  0.00    -0.203 F 
BRANCH   8  15
ATOM     15  O   UNL     1      -0.369  -3.200   1.112  1.00  0.00    -0.481 OA
BRANCH  15  16
ATOM     16  C   UNL     1       0.515  -2.677   0.103  1.00  0.00     0.285 C 
BRANCH  16  17
ATOM     17  C   UNL     1       0.020  -1.347  -0.350  1.00  0.00     0.075 A 
ATOM     18  C   UNL     1       2.175  -0.049  -0.124  1.00  0.00     0.151 C 
ATOM     19  N   UNL     1       0.767  -0.194  -0.401  1.00  0.00    -0.335 N 
ATOM     20  C   UNL     1      -0.062   0.827  -0.772  1.00  0.00     0.199 A 
ATOM     21  N   UNL     1      -1.274   0.395  -1.025  1.00  0.00    -0.245 NA
ATOM     22  C   UNL     1      -1.236  -0.951  -0.771  1.00  0.00     0.138 A 
ENDBRANCH  16  17
ENDBRANCH  15  16
ENDBRANCH   8  15
ENDBRANCH   4   7
ENDBRANCH   2   3
ENDBRANCH   1   2
BRANCH   1  23
ATOM     23  C   UNL     1      -0.915   2.587   7.256  1.00  0.00     0.023 C 
BRANCH  23  24
ATOM     24  C   UNL     1      -0.041   3.818   7.440  1.00  0.00     0.116 C 
BRANCH  24  25
ATOM     25  N   UNL     1      -0.053   4.722   6.301  1.00  0.00    -0.352 N 
ATOM     26  C   UNL     1       0.124   6.086   6.294  1.00  0.00     0.251 C 
ATOM     27  H   UNL     1      -0.207   4.305   5.423  1.00  0.00     0.163 HD
ATOM     28  O   UNL     1       0.005   6.723   5.258  1.00  0.00    -0.269 OA
BRANCH  26  29
ATOM     29  C   UNL     1       0.414   6.783   7.566  1.00  0.00     0.039 A 
ATOM     30  C   UNL     1      -0.322   7.925   7.886  1.00  0.00     0.014 A 
ATOM     31  C   UNL     1       1.381   6.296   8.449  1.00  0.00     0.014 A 
ATOM     32  C   UNL     1      -0.127   8.547   9.119  1.00  0.00     0.010 A 
ATOM     33  C   UNL     1       1.516   6.867   9.710  1.00  0.00     0.010 A 
ATOM     34  C   UNL     1       0.771   8.005  10.053  1.00  0.00    -0.014 A 
BRANCH  34  35
ATOM     35  C   UNL     1       0.956   8.632  11.385  1.00  0.00     0.031 A 
ATOM     36  C   UNL     1       2.281   9.235  11.756  1.00  0.00     0.074 A 
ATOM     37  C   UNL     1      -0.060   8.626  12.270  1.00  0.00     0.049 A 
ATOM     38  N   UNL     1       2.637   9.824  12.869  1.00  0.00    -0.248 NA
ATOM     39  C   UNL     1       3.359   9.142  10.757  1.00  0.00     0.031 C 
ATOM     40  C   UNL     1      -1.373   8.020  12.044  1.00  0.00     0.029 A 
ATOM     41  N   UNL     1      -0.149   9.149  13.536  1.00  0.00    -0.354 N 
ATOM     42  C   UNL     1       3.973  10.164  12.704  1.00  0.00     0.074 A 
ATOM     43  C   UNL     1       4.386   9.658  11.415  1.00  0.00     0.031 C 
ATOM     44  C   UNL     1      -2.149   8.241  13.116  1.00  0.00     0.029 A 
ATOM     45  C   UNL     1      -1.381   8.975  14.118  1.00  0.00     0.049 A 
ATOM     46  H   UNL     1       0.599   9.605  13.984  1.00  0.00     0.167 HD
ATOM     47  C   UNL     1       4.772  10.867  13.540  1.00  0.00     0.037 A 
ATOM     48  C   UNL     1      -1.841   9.372  15.321  1.00  0.00     0.037 A 
ATOM     49  C   UNL     1       4.343  11.401  14.803  1.00  0.00     0.049 A 
ATOM     50  C   UNL     1      -0.932  10.149  16.233  1.00  0.00     0.074 A 
ATOM     51  C   UNL     1       5.055  12.190  15.689  1.00  0.00     0.029 A 
ATOM     52  N   UNL     1       3.088  11.203  15.359  1.00  0.00    -0.354 N 
ATOM     53  N   UNL     1       0.305  10.535  16.032  1.00  0.00    -0.248 NA
ATOM     54  C   UNL     1      -1.479  10.550  17.538  1.00  0.00     0.031 C 
ATOM     55  C   UNL     1       4.248  12.430  16.803  1.00  0.00     0.029 A 
ATOM     56  C   UNL     1       3.015  11.832  16.590  1.00  0.00     0.049 A 
ATOM     57  H   UNL     1       2.359  10.691  14.941  1.00  0.00     0.167 HD
ATOM     58  C   UNL     1       0.676  11.239  17.169  1.00  0.00     0.074 A 
ATOM     59  C   UNL     1      -0.470  11.240  18.054  1.00  0.00     0.031 C 
ATOM     60  C   UNL     1       1.862  11.830  17.453  1.00  0.00     0.037 A 
BRANCH  47  61
ATOM     61  C   UNL     1       6.185  11.126  13.106  1.00  0.00     0.064 A 
ATOM     62  C   UNL     1       7.260  10.534  13.786  1.00  0.00     0.173 A 
ATOM     63  C   UNL     1       6.478  12.014  12.060  1.00  0.00     0.173 A 
ATOM     64  F   UNL     1       7.034   9.681  14.797  1.00  0.00    -0.203 F 
ATOM     65  C   UNL     1       8.575  10.830  13.441  1.00  0.00     0.198 A 
ATOM     66  C   UNL     1       7.794  12.285  11.698  1.00  0.00     0.198 A 
ATOM     67  F   UNL     1       5.485  12.597  11.372  1.00  0.00    -0.203 F 
ATOM     68  F   UNL     1       9.587  10.276  14.123  1.00  0.00    -0.200 F 
ATOM     69  C   UNL     1       8.841  11.701  12.395  1.00  0.00     0.200 A 
ATOM     70  F   UNL     1       8.048  13.107  10.671  1.00  0.00    -0.200 F 
ATOM     71  F   UNL     1      10.108  11.976  12.055  1.00  0.00    -0.200 F 
ENDBRANCH  47  61
BRANCH  48  72
ATOM     72  C   UNL     1      -3.247   9.078  15.703  1.00  0.00     0.064 A 
ATOM     73  C   UNL     1      -3.675   7.770  15.972  1.00  0.00     0.173 A 
ATOM     74  C   UNL     1      -4.200  10.103  15.772  1.00  0.00     0.173 A 
ATOM     75  F   UNL     1      -2.803   6.753  15.913  1.00  0.00    -0.203 F 
ATOM     76  C   UNL     1      -5.007   7.497  16.277  1.00  0.00     0.198 A 
ATOM     77  C   UNL     1      -5.526   9.833  16.103  1.00  0.00     0.198 A 
ATOM     78  F   UNL     1      -3.835  11.373  15.541  1.00  0.00    -0.203 F 
ATOM     79  F   UNL     1      -5.396   6.234  16.496  1.00  0.00    -0.200 F 
ATOM     80  C   UNL     1      -5.931   8.529  16.346  1.00  0.00     0.200 A 
ATOM     81  F   UNL     1      -6.411  10.835  16.190  1.00  0.00    -0.200 F 
ATOM     82  F   UNL     1      -7.209   8.267  16.650  1.00  0.00    -0.200 F 
ENDBRANCH  48  72
BRANCH  60  83
ATOM     83  C   UNL     1       1.996  12.540  18.767  1.00  0.00     0.064 A 
ATOM     84  C   UNL     1       2.096  13.939  18.810  1.00  0.00     0.173 A 
ATOM     85  C   UNL     1       2.147  11.830  19.965  1.00  0.00     0.173 A 
ATOM     86  F   UNL     1       1.969  14.662  17.687  1.00  0.00    -0.203 F 
ATOM     87  C   UNL     1       2.370  14.599  20.004  1.00  0.00     0.198 A 
ATOM     88  C   UNL     1       2.395  12.496  21.162  1.00  0.00     0.198 A 
ATOM     89  F   UNL     1       2.048  10.492  19.974  1.00  0.00    -0.203 F 
ATOM     90  F   UNL     1       2.510  15.932  20.015  1.00  0.00    -0.200 F 
ATOM     91  C   UNL     1       2.521  13.877  21.178  1.00  0.00     0.200 A 
ATOM     92  F   UNL     1       2.522  11.799  22.300  1.00  0.00    -0.200 F 
ATOM     93  F   UNL     1       2.790  14.513  22.327  1.00  0.00    -0.200 F 
ENDBRANCH  60  83
ENDBRANCH  34  35
ENDBRANCH  26  29
ENDBRANCH  24  25
ENDBRANCH  23  24
ENDBRANCH   1  23
TORSDOF 14
