REMARK SMILES O=C(C[N@H+]1CCC[C@@H]1C(=O)NCCCCNC(=O)c1ccc(-c2c3nc(c(-c4c(F)c(F)c(F)c(F)c4F)c4ccc([nH]4)c(-c4c(F)c(F)c(F)c(F)c4F)c4nc(c(-c5c(F)c(F)c(F)c(F)c5F)c5ccc2[nH]5)C=C4)C=C3)cc1)NCc1ccc(Cl)cc1
REMARK SMILES IDX 12 1 11 2 9 3 10 4 8 6 4 7 5 8 6 10 7 11 3 12 2 13 1 14
REMARK SMILES IDX 82 15 83 17 84 18 85 19 90 20 86 21 89 22 87 23 88 24 13 25
REMARK SMILES IDX 14 26 15 27 16 28 17 29 18 31 19 32 20 33 81 34 21 35 80 36
REMARK SMILES IDX 22 37 23 38 24 39 74 40 25 41 79 42 73 43 75 44 26 45 78 46
REMARK SMILES IDX 72 47 71 48 27 50 59 51 39 52 58 53 40 54 43 55 57 56 76 57
REMARK SMILES IDX 41 58 42 59 56 61 77 62 44 63 28 64 29 65 37 66 30 67 31 68
REMARK SMILES IDX 35 69 38 70 32 71 33 72 36 73 34 74 60 75 61 76 69 77 62 78
REMARK SMILES IDX 63 79 67 80 70 81 64 82 65 83 68 84 66 85 45 86 46 87 54 88
REMARK SMILES IDX 47 89 48 90 52 91 55 92 49 93 50 94 53 95 51 96
REMARK H PARENT 11 5 4 9 82 16 16 30 75 49 43 60
REMARK Flexibility Score: inf
ROOT
ATOM      1  C   UNL     1       0.857   2.798  -1.278  1.00  0.00     0.116 C 
ENDROOT
BRANCH   1   2
ATOM      2  N   UNL     1       1.721   2.991  -2.428  1.00  0.00    -0.351 N 
ATOM      3  C   UNL     1       3.085   2.973  -2.499  1.00  0.00     0.278 C 
ATOM      4  O   UNL     1       3.602   3.095  -3.615  1.00  0.00    -0.268 OA
ATOM      5  H   UNL     1       1.257   3.159  -3.279  1.00  0.00     0.163 HD
BRANCH   3   6
ATOM      6  C   UNL     1       3.968   2.864  -1.246  1.00  0.00     0.274 C 
ATOM      7  N   UNL     1       3.497   1.853  -0.295  1.00  0.00    -0.317 N 
ATOM      8  C   UNL     1       4.009   2.223   1.013  1.00  0.00     0.263 C 
ATOM      9  H   UNL     1       2.477   1.869  -0.259  1.00  0.00     0.349 HD
ATOM     10  C   UNL     1       3.725   3.715   1.019  1.00  0.00     0.068 C 
ATOM     11  C   UNL     1       3.963   4.156  -0.423  1.00  0.00     0.081 C 
BRANCH   7  12
ATOM     12  C   UNL     1       3.617   0.459  -0.700  1.00  0.00     0.364 C 
BRANCH  12  13
ATOM     13  C   UNL     1       2.600  -0.353   0.119  1.00  0.00     0.275 C 
ATOM     14  O   UNL     1       1.406  -0.406  -0.168  1.00  0.00    -0.268 OA
ATOM     15  N   UNL     1       3.131  -0.915   1.258  1.00  0.00    -0.347 N 
ATOM     16  H   UNL     1       4.109  -0.914   1.377  1.00  0.00     0.164 HD
BRANCH  15  17
ATOM     17  C   UNL     1       2.307  -1.507   2.282  1.00  0.00     0.151 C 
BRANCH  17  18
ATOM     18  C   UNL     1       2.643  -2.962   2.450  1.00  0.00    -0.029 A 
ATOM     19  C   UNL     1       1.849  -3.942   1.837  1.00  0.00     0.007 A 
ATOM     20  C   UNL     1       3.775  -3.354   3.180  1.00  0.00     0.007 A 
ATOM     21  C   UNL     1       2.173  -5.293   1.965  1.00  0.00     0.021 A 
ATOM     22  C   UNL     1       4.101  -4.705   3.303  1.00  0.00     0.021 A 
ATOM     23  C   UNL     1       3.298  -5.669   2.696  1.00  0.00     0.041 A 
ATOM     24  Cl  UNL     1       3.704  -7.334   2.845  1.00  0.00    -0.084 Cl
ENDBRANCH  17  18
ENDBRANCH  15  17
ENDBRANCH  12  13
ENDBRANCH   7  12
ENDBRANCH   3   6
ENDBRANCH   1   2
BRANCH   1  25
ATOM     25  C   UNL     1      -0.094   3.967  -1.069  1.00  0.00     0.023 C 
BRANCH  25  26
ATOM     26  C   UNL     1      -1.264   4.008  -2.044  1.00  0.00     0.023 C 
BRANCH  26  27
ATOM     27  C   UNL     1      -2.104   2.737  -2.095  1.00  0.00     0.116 C 
BRANCH  27  28
ATOM     28  N   UNL     1      -2.621   2.323  -0.797  1.00  0.00    -0.352 N 
ATOM     29  C   UNL     1      -3.866   1.827  -0.496  1.00  0.00     0.251 C 
ATOM     30  H   UNL     1      -1.999   2.411  -0.039  1.00  0.00     0.163 HD
ATOM     31  O   UNL     1      -4.204   1.613   0.664  1.00  0.00    -0.269 OA
BRANCH  29  32
ATOM     32  C   UNL     1      -4.816   1.591  -1.600  1.00  0.00     0.039 A 
ATOM     33  C   UNL     1      -6.083   2.174  -1.540  1.00  0.00     0.014 A 
ATOM     34  C   UNL     1      -4.418   0.860  -2.723  1.00  0.00     0.014 A 
ATOM     35  C   UNL     1      -6.927   2.090  -2.648  1.00  0.00     0.010 A 
ATOM     36  C   UNL     1      -5.229   0.843  -3.851  1.00  0.00     0.010 A 
ATOM     37  C   UNL     1      -6.489   1.462  -3.825  1.00  0.00    -0.014 A 
BRANCH  37  38
ATOM     38  C   UNL     1      -7.330   1.445  -5.047  1.00  0.00     0.031 A 
ATOM     39  C   UNL     1      -7.836   0.140  -5.591  1.00  0.00     0.074 A 
ATOM     40  C   UNL     1      -7.574   2.595  -5.705  1.00  0.00     0.049 A 
ATOM     41  N   UNL     1      -8.520  -0.093  -6.683  1.00  0.00    -0.248 NA
ATOM     42  C   UNL     1      -7.503  -1.069  -4.821  1.00  0.00     0.031 C 
ATOM     43  C   UNL     1      -7.091   3.918  -5.305  1.00  0.00     0.029 A 
ATOM     44  N   UNL     1      -8.281   2.834  -6.856  1.00  0.00    -0.354 N 
ATOM     45  C   UNL     1      -8.683  -1.470  -6.737  1.00  0.00     0.074 A 
ATOM     46  C   UNL     1      -7.983  -2.027  -5.600  1.00  0.00     0.031 C 
ATOM     47  C   UNL     1      -7.537   4.832  -6.183  1.00  0.00     0.029 A 
ATOM     48  C   UNL     1      -8.305   4.157  -7.224  1.00  0.00     0.049 A 
ATOM     49  H   UNL     1      -8.729   2.124  -7.370  1.00  0.00     0.167 HD
ATOM     50  C   UNL     1      -9.376  -2.202  -7.641  1.00  0.00     0.037 A 
ATOM     51  C   UNL     1      -8.879   4.755  -8.285  1.00  0.00     0.037 A 
ATOM     52  C   UNL     1     -10.096  -1.642  -8.753  1.00  0.00     0.049 A 
ATOM     53  C   UNL     1      -9.647   3.919  -9.272  1.00  0.00     0.074 A 
ATOM     54  C   UNL     1     -10.883  -2.292  -9.687  1.00  0.00     0.029 A 
ATOM     55  N   UNL     1     -10.117  -0.294  -9.080  1.00  0.00    -0.354 N 
ATOM     56  N   UNL     1      -9.856   2.625  -9.275  1.00  0.00    -0.248 NA
ATOM     57  C   UNL     1     -10.264   4.628 -10.402  1.00  0.00     0.031 C 
ATOM     58  C   UNL     1     -11.347  -1.343 -10.604  1.00  0.00     0.029 A 
ATOM     59  C   UNL     1     -10.888  -0.095 -10.214  1.00  0.00     0.049 A 
ATOM     60  H   UNL     1      -9.652   0.416  -8.581  1.00  0.00     0.167 HD
ATOM     61  C   UNL     1     -10.650   2.368 -10.383  1.00  0.00     0.074 A 
ATOM     62  C   UNL     1     -10.897   3.643 -11.024  1.00  0.00     0.031 C 
ATOM     63  C   UNL     1     -11.132   1.183 -10.831  1.00  0.00     0.037 A 
BRANCH  50  64
ATOM     64  C   UNL     1      -9.393  -3.691  -7.458  1.00  0.00     0.064 A 
ATOM     65  C   UNL     1     -10.096  -4.293  -6.403  1.00  0.00     0.173 A 
ATOM     66  C   UNL     1      -8.729  -4.529  -8.367  1.00  0.00     0.173 A 
ATOM     67  F   UNL     1     -10.737  -3.536  -5.500  1.00  0.00    -0.203 F 
ATOM     68  C   UNL     1     -10.109  -5.676  -6.248  1.00  0.00     0.198 A 
ATOM     69  C   UNL     1      -8.770  -5.913  -8.226  1.00  0.00     0.198 A 
ATOM     70  F   UNL     1      -8.047  -4.005  -9.396  1.00  0.00    -0.203 F 
ATOM     71  F   UNL     1     -10.747  -6.226  -5.205  1.00  0.00    -0.200 F 
ATOM     72  C   UNL     1      -9.453  -6.485  -7.163  1.00  0.00     0.200 A 
ATOM     73  F   UNL     1      -8.145  -6.695  -9.118  1.00  0.00    -0.200 F 
ATOM     74  F   UNL     1      -9.473  -7.817  -7.017  1.00  0.00    -0.200 F 
ENDBRANCH  50  64
BRANCH  51  75
ATOM     75  C   UNL     1      -8.778   6.228  -8.454  1.00  0.00     0.064 A 
ATOM     76  C   UNL     1      -9.903   7.047  -8.284  1.00  0.00     0.173 A 
ATOM     77  C   UNL     1      -7.566   6.846  -8.792  1.00  0.00     0.173 A 
ATOM     78  F   UNL     1     -11.089   6.500  -7.981  1.00  0.00    -0.203 F 
ATOM     79  C   UNL     1      -9.825   8.426  -8.467  1.00  0.00     0.198 A 
ATOM     80  C   UNL     1      -7.482   8.228  -8.948  1.00  0.00     0.198 A 
ATOM     81  F   UNL     1      -6.459   6.108  -8.961  1.00  0.00    -0.203 F 
ATOM     82  F   UNL     1     -10.925   9.180  -8.344  1.00  0.00    -0.200 F 
ATOM     83  C   UNL     1      -8.613   9.016  -8.794  1.00  0.00     0.200 A 
ATOM     84  F   UNL     1      -6.307   8.797  -9.252  1.00  0.00    -0.200 F 
ATOM     85  F   UNL     1      -8.537  10.343  -8.968  1.00  0.00    -0.200 F 
ENDBRANCH  51  75
BRANCH  63  86
ATOM     86  C   UNL     1     -12.006   1.212 -12.050  1.00  0.00     0.064 A 
ATOM     87  C   UNL     1     -11.479   1.452 -13.328  1.00  0.00     0.173 A 
ATOM     88  C   UNL     1     -13.381   0.954 -11.943  1.00  0.00     0.173 A 
ATOM     89  F   UNL     1     -10.173   1.720 -13.480  1.00  0.00    -0.203 F 
ATOM     90  C   UNL     1     -12.302   1.455 -14.451  1.00  0.00     0.198 A 
ATOM     91  C   UNL     1     -14.195   0.928 -13.071  1.00  0.00     0.198 A 
ATOM     92  F   UNL     1     -13.932   0.712 -10.744  1.00  0.00    -0.203 F 
ATOM     93  F   UNL     1     -11.785   1.730 -15.656  1.00  0.00    -0.200 F 
ATOM     94  C   UNL     1     -13.656   1.185 -14.323  1.00  0.00     0.200 A 
ATOM     95  F   UNL     1     -15.501   0.655 -12.947  1.00  0.00    -0.200 F 
ATOM     96  F   UNL     1     -14.445   1.180 -15.406  1.00  0.00    -0.200 F 
ENDBRANCH  63  86
ENDBRANCH  37  38
ENDBRANCH  29  32
ENDBRANCH  27  28
ENDBRANCH  26  27
ENDBRANCH  25  26
ENDBRANCH   1  25
TORSDOF 15
