REMARK SMILES [NH3+][C@@H]1CCCCC[C@H]1C(=O)N1[C@@H](C2CC2)SC[C@H]1C(=O)NCCCCNC(=O)c1ccc(-c2c3nc(c(-c4c(F)c(F)c(F)c(F)c4F)c4ccc([nH]4)c(-c4c(F)c(F)c(F)c(F)c4F)c4nc(c(-c5c(F)c(F)c(F)c(F)c5F)c5ccc2[nH]5)C=C4)C=C3)cc1
REMARK SMILES IDX 22 1 21 2 19 3 20 4 18 6 11 7 12 8 16 9 17 10 9 11 10 12
REMARK SMILES IDX 8 13 2 14 1 15 3 19 4 20 7 22 6 23 5 24 13 26 14 27 15 28
REMARK SMILES IDX 23 29 24 30 25 31 26 32 27 33 28 35 29 36 30 37 91 38 31 39
REMARK SMILES IDX 90 40 32 41 33 42 34 43 84 44 35 45 89 46 83 47 85 48 36 49
REMARK SMILES IDX 88 50 82 51 81 52 37 54 69 55 49 56 68 57 50 58 53 59 67 60
REMARK SMILES IDX 86 61 51 62 52 63 66 65 87 66 54 67 38 68 39 69 47 70 40 71
REMARK SMILES IDX 41 72 45 73 48 74 42 75 43 76 46 77 44 78 70 79 71 80 79 81
REMARK SMILES IDX 72 82 73 83 77 84 80 85 74 86 75 87 78 88 76 89 55 90 56 91
REMARK SMILES IDX 64 92 57 93 58 94 62 95 65 96 59 97 60 98 63 99 61 100
REMARK H PARENT 21 5 1 16 1 17 1 18 26 34 85 53 53 64
REMARK Flexibility Score: 90.00
ROOT
ATOM      1  C   UNL     1       5.803  -0.061   3.031  1.00  0.00     0.116 C 
ENDROOT
BRANCH   1   2
ATOM      2  N   UNL     1       6.224   1.173   2.417  1.00  0.00    -0.354 N 
ATOM      3  C   UNL     1       5.588   2.377   2.384  1.00  0.00     0.243 C 
ATOM      4  O   UNL     1       6.271   3.361   2.074  1.00  0.00    -0.273 OA
ATOM      5  H   UNL     1       7.094   1.142   1.956  1.00  0.00     0.163 HD
BRANCH   3   6
ATOM      6  C   UNL     1       4.145   2.580   2.897  1.00  0.00     0.185 C 
ATOM      7  N   UNL     1       3.090   1.643   2.470  1.00  0.00    -0.317 N 
ATOM      8  C   UNL     1       2.150   1.252   3.518  1.00  0.00     0.147 C 
ATOM      9  S   UNL     1       2.454   2.352   4.912  1.00  0.00    -0.134 SA
ATOM     10  C   UNL     1       4.154   2.698   4.418  1.00  0.00     0.107 C 
BRANCH   7  11
ATOM     11  C   UNL     1       2.840   1.626   1.110  1.00  0.00     0.233 C 
ATOM     12  O   UNL     1       3.766   1.413   0.320  1.00  0.00    -0.274 OA
BRANCH  11  13
ATOM     13  C   UNL     1       1.473   2.044   0.538  1.00  0.00     0.136 C 
BRANCH  13  14
ATOM     14  C   UNL     1       0.408   0.930   0.546  1.00  0.00     0.193 C 
BRANCH  14  15
ATOM     15  N   UNL     1       0.821  -0.194  -0.315  1.00  0.00    -0.354 N 
ATOM     16  H   UNL     1       0.103  -0.919  -0.295  1.00  0.00     0.344 HD
ATOM     17  H   UNL     1       1.702  -0.578   0.026  1.00  0.00     0.344 HD
ATOM     18  H   UNL     1       0.942   0.138  -1.272  1.00  0.00     0.344 HD
ENDBRANCH  14  15
BRANCH  14  19
ATOM     19  C   UNL     1      -0.991   1.367   0.061  1.00  0.00     0.066 C 
BRANCH  19  20
ATOM     20  C   UNL     1      -1.678   2.373   0.982  1.00  0.00     0.006 CG0
ATOM     21  G   UNL     1      -1.392   3.834   0.649  1.00  0.00     0.000 G0
ENDBRANCH  19  20
ENDBRANCH  14  19
ENDBRANCH  13  14
BRANCH  13  22
ATOM     22  C   UNL     1       1.081   3.417   1.123  1.00  0.00     0.020 C 
BRANCH  22  23
ATOM     23  C   UNL     1       0.049   4.162   0.283  1.00  0.00     0.001 C 
BRANCH  23  24
ATOM     24  C   UNL     1      -1.392   3.834   0.649  1.00  0.00     0.000 CG0
ATOM     25  G   UNL     1      -1.678   2.373   0.982  1.00  0.00     0.000 G0
ENDBRANCH  23  24
ENDBRANCH  22  23
ENDBRANCH  13  22
ENDBRANCH  11  13
ENDBRANCH   7  11
BRANCH   8  26
ATOM     26  C   UNL     1       2.305  -0.225   3.806  1.00  0.00     0.022 C 
ATOM     27  C   UNL     1       3.030  -0.824   5.002  1.00  0.00     0.007 C 
ATOM     28  C   UNL     1       1.536  -0.914   4.914  1.00  0.00     0.007 C 
ENDBRANCH   8  26
ENDBRANCH   3   6
ENDBRANCH   1   2
BRANCH   1  29
ATOM     29  C   UNL     1       5.415  -1.145   2.029  1.00  0.00     0.023 C 
BRANCH  29  30
ATOM     30  C   UNL     1       6.481  -2.220   1.815  1.00  0.00     0.023 C 
BRANCH  30  31
ATOM     31  C   UNL     1       6.899  -2.997   3.061  1.00  0.00     0.116 C 
BRANCH  31  32
ATOM     32  N   UNL     1       5.836  -3.768   3.689  1.00  0.00    -0.352 N 
ATOM     33  C   UNL     1       5.954  -4.949   4.393  1.00  0.00     0.251 C 
ATOM     34  H   UNL     1       4.926  -3.404   3.602  1.00  0.00     0.163 HD
ATOM     35  O   UNL     1       4.963  -5.513   4.845  1.00  0.00    -0.269 OA
BRANCH  33  36
ATOM     36  C   UNL     1       7.291  -5.568   4.534  1.00  0.00     0.039 A 
ATOM     37  C   UNL     1       7.466  -6.887   4.106  1.00  0.00     0.014 A 
ATOM     38  C   UNL     1       8.383  -4.819   4.976  1.00  0.00     0.014 A 
ATOM     39  C   UNL     1       8.757  -7.415   4.012  1.00  0.00     0.010 A 
ATOM     40  C   UNL     1       9.671  -5.319   4.811  1.00  0.00     0.010 A 
ATOM     41  C   UNL     1       9.873  -6.612   4.302  1.00  0.00    -0.014 A 
BRANCH  41  42
ATOM     42  C   UNL     1      11.255  -7.084   4.029  1.00  0.00     0.031 A 
ATOM     43  C   UNL     1      12.242  -7.240   5.151  1.00  0.00     0.074 A 
ATOM     44  C   UNL     1      11.651  -7.282   2.755  1.00  0.00     0.049 A 
ATOM     45  N   UNL     1      13.513  -7.549   5.098  1.00  0.00    -0.248 NA
ATOM     46  C   UNL     1      11.741  -6.984   6.509  1.00  0.00     0.031 C 
ATOM     47  C   UNL     1      10.811  -7.103   1.569  1.00  0.00     0.029 A 
ATOM     48  N   UNL     1      12.866  -7.665   2.243  1.00  0.00    -0.354 N 
ATOM     49  C   UNL     1      13.967  -7.503   6.409  1.00  0.00     0.074 A 
ATOM     50  C   UNL     1      12.848  -7.092   7.229  1.00  0.00     0.031 C 
ATOM     51  C   UNL     1      11.527  -7.397   0.473  1.00  0.00     0.029 A 
ATOM     52  C   UNL     1      12.885  -7.753   0.872  1.00  0.00     0.049 A 
ATOM     53  H   UNL     1      13.651  -7.859   2.805  1.00  0.00     0.167 HD
ATOM     54  C   UNL     1      15.199  -7.800   6.888  1.00  0.00     0.037 A 
ATOM     55  C   UNL     1      13.885  -8.078   0.030  1.00  0.00     0.037 A 
ATOM     56  C   UNL     1      16.302  -8.244   6.078  1.00  0.00     0.049 A 
ATOM     57  C   UNL     1      15.236  -8.426   0.591  1.00  0.00     0.074 A 
ATOM     58  C   UNL     1      17.567  -8.636   6.481  1.00  0.00     0.029 A 
ATOM     59  N   UNL     1      16.270  -8.357   4.696  1.00  0.00    -0.354 N 
ATOM     60  N   UNL     1      15.633  -8.448   1.839  1.00  0.00    -0.248 NA
ATOM     61  C   UNL     1      16.279  -8.799  -0.377  1.00  0.00     0.031 C 
ATOM     62  C   UNL     1      18.311  -8.955   5.341  1.00  0.00     0.029 A 
ATOM     63  C   UNL     1      17.498  -8.799   4.230  1.00  0.00     0.049 A 
ATOM     64  H   UNL     1      15.491  -8.153   4.130  1.00  0.00     0.167 HD
ATOM     65  C   UNL     1      16.958  -8.861   1.811  1.00  0.00     0.074 A 
ATOM     66  C   UNL     1      17.296  -9.091   0.422  1.00  0.00     0.031 C 
ATOM     67  C   UNL     1      17.817  -9.033   2.845  1.00  0.00     0.037 A 
BRANCH  54  68
ATOM     68  C   UNL     1      15.415  -7.662   8.366  1.00  0.00     0.064 A 
ATOM     69  C   UNL     1      14.836  -8.558   9.278  1.00  0.00     0.173 A 
ATOM     70  C   UNL     1      16.232  -6.642   8.876  1.00  0.00     0.173 A 
ATOM     71  F   UNL     1      14.037  -9.543   8.841  1.00  0.00    -0.203 F 
ATOM     72  C   UNL     1      15.044  -8.420  10.647  1.00  0.00     0.198 A 
ATOM     73  C   UNL     1      16.460  -6.524  10.244  1.00  0.00     0.198 A 
ATOM     74  F   UNL     1      16.813  -5.762   8.046  1.00  0.00    -0.203 F 
ATOM     75  F   UNL     1      14.441  -9.258  11.502  1.00  0.00    -0.200 F 
ATOM     76  C   UNL     1      15.860  -7.407  11.129  1.00  0.00     0.200 A 
ATOM     77  F   UNL     1      17.257  -5.551  10.708  1.00  0.00    -0.200 F 
ATOM     78  F   UNL     1      16.061  -7.278  12.447  1.00  0.00    -0.200 F 
ENDBRANCH  54  68
BRANCH  55  79
ATOM     79  C   UNL     1      13.637  -8.123  -1.434  1.00  0.00     0.064 A 
ATOM     80  C   UNL     1      13.587  -9.348  -2.114  1.00  0.00     0.173 A 
ATOM     81  C   UNL     1      13.451  -6.952  -2.182  1.00  0.00     0.173 A 
ATOM     82  F   UNL     1      13.782 -10.493  -1.443  1.00  0.00    -0.203 F 
ATOM     83  C   UNL     1      13.378  -9.400  -3.490  1.00  0.00     0.198 A 
ATOM     84  C   UNL     1      13.218  -7.006  -3.554  1.00  0.00     0.198 A 
ATOM     85  F   UNL     1      13.486  -5.756  -1.576  1.00  0.00    -0.203 F 
ATOM     86  F   UNL     1      13.377 -10.581  -4.121  1.00  0.00    -0.200 F 
ATOM     87  C   UNL     1      13.189  -8.229  -4.208  1.00  0.00     0.200 A 
ATOM     88  F   UNL     1      13.024  -5.874  -4.244  1.00  0.00    -0.200 F 
ATOM     89  F   UNL     1      12.986  -8.279  -5.532  1.00  0.00    -0.200 F 
ENDBRANCH  55  79
BRANCH  67  90
ATOM     90  C   UNL     1      19.196  -9.523   2.518  1.00  0.00     0.064 A 
ATOM     91  C   UNL     1      20.150  -8.686   1.923  1.00  0.00     0.173 A 
ATOM     92  C   UNL     1      19.578 -10.833   2.844  1.00  0.00     0.173 A 
ATOM     93  F   UNL     1      19.826  -7.431   1.579  1.00  0.00    -0.203 F 
ATOM     94  C   UNL     1      21.434  -9.150   1.647  1.00  0.00     0.198 A 
ATOM     95  C   UNL     1      20.870 -11.285   2.589  1.00  0.00     0.198 A 
ATOM     96  F   UNL     1      18.702 -11.671   3.418  1.00  0.00    -0.203 F 
ATOM     97  F   UNL     1      22.319  -8.346   1.042  1.00  0.00    -0.200 F 
ATOM     98  C   UNL     1      21.794 -10.446   1.987  1.00  0.00     0.200 A 
ATOM     99  F   UNL     1      21.220 -12.534   2.927  1.00  0.00    -0.200 F 
ATOM    100  F   UNL     1      23.032 -10.888   1.727  1.00  0.00    -0.200 F 
ENDBRANCH  67  90
ENDBRANCH  41  42
ENDBRANCH  33  36
ENDBRANCH  31  32
ENDBRANCH  30  31
ENDBRANCH  29  30
ENDBRANCH   1  29
TORSDOF 15
