REMARK SMILES CC(C)=C1[C@H]2CC[C@@H]1[C@@H](C(=O)Nc1cc(C)cc(C)c1)[C@@H]2C(=O)NCCCCNC(=O)c1ccc(-c2c3nc(c(-c4c(F)c(F)c(F)c(F)c4F)c4ccc([nH]4)c(-c4c(F)c(F)c(F)c(F)c4F)c4nc(c(-c5c(F)c(F)c(F)c(F)c5F)c5ccc2[nH]5)C=C4)C=C3)cc1
REMARK SMILES IDX 26 1 25 2 24 3 22 4 23 5 21 7 1 8 2 9 3 10 4 11 5 12 8 13
REMARK SMILES IDX 6 14 7 15 9 16 10 17 11 18 12 19 13 21 14 22 20 23 15 24
REMARK SMILES IDX 18 25 16 26 17 27 19 28 27 29 28 30 29 31 30 32 31 34 32 35
REMARK SMILES IDX 33 36 94 37 34 38 93 39 35 40 36 41 37 42 87 43 38 44 92 45
REMARK SMILES IDX 86 46 88 47 39 48 91 49 85 50 84 51 40 53 72 54 52 55 71 56
REMARK SMILES IDX 53 57 56 58 70 59 89 60 54 61 55 62 69 64 90 65 57 66 41 67
REMARK SMILES IDX 42 68 50 69 43 70 44 71 48 72 51 73 45 74 46 75 49 76 47 77
REMARK SMILES IDX 73 78 74 79 82 80 75 81 76 82 80 83 83 84 77 85 78 86 81 87
REMARK SMILES IDX 79 88 58 89 59 90 67 91 60 92 61 93 65 94 68 95 62 96 63 97
REMARK SMILES IDX 66 98 64 99
REMARK H PARENT 24 6 12 20 29 33 88 52 56 63
REMARK Flexibility Score: inf
ROOT
ATOM      1  C   UNL     1       3.773  -6.076   4.139  1.00  0.00     0.023 C 
ENDROOT
BRANCH   1   2
ATOM      2  C   UNL     1       2.459  -5.328   4.050  1.00  0.00     0.116 C 
BRANCH   2   3
ATOM      3  N   UNL     1       2.111  -4.468   5.147  1.00  0.00    -0.356 N 
ATOM      4  C   UNL     1       1.518  -3.242   5.123  1.00  0.00     0.224 C 
ATOM      5  O   UNL     1       1.036  -2.857   6.197  1.00  0.00    -0.275 OA
ATOM      6  H   UNL     1       2.334  -4.814   6.042  1.00  0.00     0.163 HD
BRANCH   4   7
ATOM      7  C   UNL     1       1.413  -2.320   3.892  1.00  0.00     0.098 C 
ATOM      8  C   UNL     1       0.728  -0.766  -0.603  1.00  0.00     0.039 C 
ATOM      9  C   UNL     1       0.042  -1.104   0.698  1.00  0.00    -0.077 C 
ATOM     10  C   UNL     1      -1.409  -0.736   0.763  1.00  0.00     0.039 C 
ATOM     11  C   UNL     1       0.657  -1.806   1.667  1.00  0.00    -0.064 C 
ATOM     12  C   UNL     1       0.180  -2.455   2.958  1.00  0.00     0.028 C 
ATOM     13  C   UNL     1       1.964  -2.524   1.544  1.00  0.00     0.028 C 
ATOM     14  C   UNL     1       0.073  -3.861   2.373  1.00  0.00     0.009 C 
ATOM     15  C   UNL     1       1.258  -3.900   1.370  1.00  0.00     0.009 C 
ATOM     16  C   UNL     1       2.590  -2.230   2.928  1.00  0.00     0.099 C 
BRANCH  16  17
ATOM     17  C   UNL     1       3.439  -0.936   2.948  1.00  0.00     0.228 C 
ATOM     18  O   UNL     1       4.674  -1.081   3.003  1.00  0.00    -0.274 OA
ATOM     19  N   UNL     1       3.028   0.349   2.765  1.00  0.00    -0.326 N 
ATOM     20  H   UNL     1       3.779   0.970   2.626  1.00  0.00     0.169 HD
BRANCH  19  21
ATOM     21  C   UNL     1       1.784   0.994   2.729  1.00  0.00     0.041 A 
ATOM     22  C   UNL     1       0.832   0.902   3.741  1.00  0.00     0.029 A 
ATOM     23  C   UNL     1       1.524   1.826   1.637  1.00  0.00     0.029 A 
ATOM     24  C   UNL     1      -0.450   1.445   3.580  1.00  0.00    -0.049 A 
ATOM     25  C   UNL     1       0.262   2.415   1.469  1.00  0.00    -0.049 A 
ATOM     26  C   UNL     1      -1.543   1.118   4.556  1.00  0.00     0.044 C 
ATOM     27  C   UNL     1      -0.729   2.196   2.434  1.00  0.00     0.007 A 
ATOM     28  C   UNL     1      -0.077   3.149   0.205  1.00  0.00     0.044 C 
ENDBRANCH  19  21
ENDBRANCH  16  17
ENDBRANCH   4   7
ENDBRANCH   2   3
ENDBRANCH   1   2
BRANCH   1  29
ATOM     29  C   UNL     1       3.710  -7.407   4.868  1.00  0.00     0.023 C 
BRANCH  29  30
ATOM     30  C   UNL     1       2.542  -8.313   4.496  1.00  0.00     0.116 C 
BRANCH  30  31
ATOM     31  N   UNL     1       2.415  -8.599   3.071  1.00  0.00    -0.352 N 
ATOM     32  C   UNL     1       2.079  -9.795   2.478  1.00  0.00     0.251 C 
ATOM     33  H   UNL     1       2.590  -7.846   2.461  1.00  0.00     0.163 HD
ATOM     34  O   UNL     1       2.049  -9.915   1.258  1.00  0.00    -0.269 OA
BRANCH  32  35
ATOM     35  C   UNL     1       1.800 -10.954   3.348  1.00  0.00     0.039 A 
ATOM     36  C   UNL     1       2.530 -12.130   3.168  1.00  0.00     0.014 A 
ATOM     37  C   UNL     1       0.899 -10.828   4.409  1.00  0.00     0.014 A 
ATOM     38  C   UNL     1       2.409 -13.159   4.102  1.00  0.00     0.010 A 
ATOM     39  C   UNL     1       0.858 -11.810   5.388  1.00  0.00     0.010 A 
ATOM     40  C   UNL     1       1.601 -12.992   5.239  1.00  0.00    -0.014 A 
BRANCH  40  41
ATOM     41  C   UNL     1       1.481 -14.059   6.264  1.00  0.00     0.031 A 
ATOM     42  C   UNL     1       0.142 -14.699   6.509  1.00  0.00     0.074 A 
ATOM     43  C   UNL     1       2.547 -14.409   7.009  1.00  0.00     0.049 A 
ATOM     44  N   UNL     1      -0.197 -15.604   7.392  1.00  0.00    -0.248 NA
ATOM     45  C   UNL     1      -0.976 -14.232   5.673  1.00  0.00     0.031 C 
ATOM     46  C   UNL     1       3.884 -13.819   6.909  1.00  0.00     0.029 A 
ATOM     47  N   UNL     1       2.673 -15.346   8.004  1.00  0.00    -0.354 N 
ATOM     48  C   UNL     1      -1.562 -15.794   7.229  1.00  0.00     0.074 A 
ATOM     49  C   UNL     1      -2.005 -14.863   6.216  1.00  0.00     0.031 C 
ATOM     50  C   UNL     1       4.700 -14.430   7.784  1.00  0.00     0.029 A 
ATOM     51  C   UNL     1       3.940 -15.431   8.526  1.00  0.00     0.049 A 
ATOM     52  H   UNL     1       1.924 -15.905   8.314  1.00  0.00     0.167 HD
ATOM     53  C   UNL     1      -2.370 -16.691   7.841  1.00  0.00     0.037 A 
ATOM     54  C   UNL     1       4.431 -16.232   9.492  1.00  0.00     0.037 A 
ATOM     55  C   UNL     1      -1.919 -17.643   8.818  1.00  0.00     0.049 A 
ATOM     56  C   UNL     1       3.516 -17.236  10.144  1.00  0.00     0.074 A 
ATOM     57  C   UNL     1      -2.642 -18.634   9.457  1.00  0.00     0.029 A 
ATOM     58  N   UNL     1      -0.618 -17.725   9.294  1.00  0.00    -0.354 N 
ATOM     59  N   UNL     1       2.242 -17.459   9.928  1.00  0.00    -0.248 NA
ATOM     60  C   UNL     1       4.112 -18.110  11.164  1.00  0.00     0.031 C 
ATOM     61  C   UNL     1      -1.788 -19.291  10.349  1.00  0.00     0.029 A 
ATOM     62  C   UNL     1      -0.521 -18.742  10.228  1.00  0.00     0.049 A 
ATOM     63  H   UNL     1       0.125 -17.145   9.010  1.00  0.00     0.167 HD
ATOM     64  C   UNL     1       1.894 -18.519  10.756  1.00  0.00     0.074 A 
ATOM     65  C   UNL     1       3.094 -18.902  11.469  1.00  0.00     0.031 C 
ATOM     66  C   UNL     1       0.689 -19.121  10.911  1.00  0.00     0.037 A 
BRANCH  53  67
ATOM     67  C   UNL     1      -3.821 -16.688   7.456  1.00  0.00     0.064 A 
ATOM     68  C   UNL     1      -4.245 -17.101   6.183  1.00  0.00     0.173 A 
ATOM     69  C   UNL     1      -4.802 -16.284   8.373  1.00  0.00     0.173 A 
ATOM     70  F   UNL     1      -3.346 -17.481   5.262  1.00  0.00    -0.203 F 
ATOM     71  C   UNL     1      -5.592 -17.074   5.831  1.00  0.00     0.198 A 
ATOM     72  C   UNL     1      -6.152 -16.291   8.030  1.00  0.00     0.198 A 
ATOM     73  F   UNL     1      -4.453 -15.883   9.605  1.00  0.00    -0.203 F 
ATOM     74  F   UNL     1      -5.965 -17.415   4.590  1.00  0.00    -0.200 F 
ATOM     75  C   UNL     1      -6.544 -16.677   6.757  1.00  0.00     0.200 A 
ATOM     76  F   UNL     1      -7.073 -15.919   8.929  1.00  0.00    -0.200 F 
ATOM     77  F   UNL     1      -7.841 -16.657   6.419  1.00  0.00    -0.200 F 
ENDBRANCH  53  67
BRANCH  54  78
ATOM     78  C   UNL     1       5.866 -16.154   9.872  1.00  0.00     0.064 A 
ATOM     79  C   UNL     1       6.749 -17.200   9.565  1.00  0.00     0.173 A 
ATOM     80  C   UNL     1       6.383 -15.047  10.560  1.00  0.00     0.173 A 
ATOM     81  F   UNL     1       6.298 -18.289   8.926  1.00  0.00    -0.203 F 
ATOM     82  C   UNL     1       8.086 -17.153   9.955  1.00  0.00     0.198 A 
ATOM     83  C   UNL     1       7.727 -14.988  10.924  1.00  0.00     0.198 A 
ATOM     84  F   UNL     1       5.583 -14.017  10.872  1.00  0.00    -0.203 F 
ATOM     85  F   UNL     1       8.894 -18.189   9.693  1.00  0.00    -0.200 F 
ATOM     86  C   UNL     1       8.575 -16.045  10.630  1.00  0.00     0.200 A 
ATOM     87  F   UNL     1       8.199 -13.910  11.564  1.00  0.00    -0.200 F 
ATOM     88  F   UNL     1       9.861 -16.000  11.004  1.00  0.00    -0.200 F 
ENDBRANCH  54  78
BRANCH  66  89
ATOM     89  C   UNL     1       0.619 -20.292  11.848  1.00  0.00     0.064 A 
ATOM     90  C   UNL     1       0.705 -20.132  13.238  1.00  0.00     0.173 A 
ATOM     91  C   UNL     1       0.418 -21.587  11.345  1.00  0.00     0.173 A 
ATOM     92  F   UNL     1       0.910 -18.916  13.767  1.00  0.00    -0.203 F 
ATOM     93  C   UNL     1       0.620 -21.230  14.090  1.00  0.00     0.198 A 
ATOM     94  C   UNL     1       0.302 -22.678  12.201  1.00  0.00     0.198 A 
ATOM     95  F   UNL     1       0.321 -21.791  10.023  1.00  0.00    -0.203 F 
ATOM     96  F   UNL     1       0.754 -21.061  15.412  1.00  0.00    -0.200 F 
ATOM     97  C   UNL     1       0.411 -22.500  13.572  1.00  0.00     0.200 A 
ATOM     98  F   UNL     1       0.085 -23.901  11.699  1.00  0.00    -0.200 F 
ATOM     99  F   UNL     1       0.321 -23.554  14.394  1.00  0.00    -0.200 F 
ENDBRANCH  66  89
ENDBRANCH  40  41
ENDBRANCH  32  35
ENDBRANCH  30  31
ENDBRANCH  29  30
ENDBRANCH   1  29
TORSDOF 13
