REMARK SMILES Cc1occc1C(=O)NN1C(=O)/C(=C\c2ccc(O[C@H](C)C(=O)NCCCCNC(=O)c3ccc(-c4c5nc(c(-c6c(F)c(F)c(F)c(F)c6F)c6ccc([nH]6)c(-c6c(F)c(F)c(F)c(F)c6F)c6nc(c(-c7c(F)c(F)c(F)c(F)c7F)c7ccc4[nH]7)C=C6)C=C5)cc3)cc2)SC1=S
REMARK SMILES IDX 25 1 24 2 22 3 23 4 20 6 21 7 19 8 18 9 15 10 16 11 96 12
REMARK SMILES IDX 17 13 95 14 14 15 10 16 11 17 98 18 12 19 13 20 97 21 99 22
REMARK SMILES IDX 9 23 7 24 8 25 6 27 1 28 2 29 3 30 4 31 5 32 26 33 27 34
REMARK SMILES IDX 28 35 29 36 30 37 31 39 32 40 33 41 94 42 34 43 93 44 35 45
REMARK SMILES IDX 36 46 37 47 87 48 38 49 92 50 86 51 88 52 39 53 91 54 85 55
REMARK SMILES IDX 84 56 40 58 72 59 52 60 71 61 53 62 56 63 70 64 89 65 54 66
REMARK SMILES IDX 55 67 69 69 90 70 57 71 41 72 42 73 50 74 43 75 44 76 48 77
REMARK SMILES IDX 51 78 45 79 46 80 49 81 47 82 73 83 74 84 82 85 75 86 76 87
REMARK SMILES IDX 80 88 83 89 77 90 78 91 81 92 79 93 58 94 59 95 67 96 60 97
REMARK SMILES IDX 61 98 65 99 68 100 62 101 63 102 66 103 64 104
REMARK H PARENT 24 5 9 26 29 38 88 57 56 68
REMARK Flexibility Score: inf
ROOT
ATOM      1  C   UNL     1       4.921  -2.335  -5.658  1.00  0.00     0.116 C 
ENDROOT
BRANCH   1   2
ATOM      2  N   UNL     1       5.487  -2.770  -6.912  1.00  0.00    -0.353 N 
ATOM      3  C   UNL     1       5.936  -3.989  -7.315  1.00  0.00     0.260 C 
ATOM      4  O   UNL     1       6.228  -4.083  -8.515  1.00  0.00    -0.271 OA
ATOM      5  H   UNL     1       5.560  -2.063  -7.593  1.00  0.00     0.163 HD
BRANCH   3   6
ATOM      6  C   UNL     1       6.208  -5.186  -6.359  1.00  0.00     0.258 C 
ATOM      7  C   UNL     1       7.636  -5.095  -5.825  1.00  0.00     0.064 C 
BRANCH   6   8
ATOM      8  O   UNL     1       5.194  -5.701  -5.506  1.00  0.00    -0.481 OA
BRANCH   8   9
ATOM      9  C   UNL     1       4.948  -5.312  -4.229  1.00  0.00     0.120 A 
ATOM     10  C   UNL     1       4.112  -4.462  -1.676  1.00  0.00    -0.024 A 
ATOM     11  C   UNL     1       5.455  -4.391  -2.053  1.00  0.00     0.012 A 
ATOM     12  C   UNL     1       3.180  -4.978  -2.577  1.00  0.00     0.012 A 
ATOM     13  C   UNL     1       5.871  -4.828  -3.312  1.00  0.00     0.047 A 
ATOM     14  C   UNL     1       3.605  -5.415  -3.838  1.00  0.00     0.047 A 
BRANCH  10  15
ATOM     15  C   UNL     1       3.790  -4.070  -0.303  1.00  0.00     0.029 C 
ATOM     16  N   UNL     1       3.201  -6.963   1.817  1.00  0.00    -0.198 N 
ATOM     17  C   UNL     1       3.481  -6.427   0.570  1.00  0.00     0.285 C 
ATOM     18  C   UNL     1       3.328  -6.149   2.922  1.00  0.00     0.168 C 
ATOM     19  O   UNL     1       3.619  -7.078  -0.451  1.00  0.00    -0.266 OA
ATOM     20  C   UNL     1       3.606  -4.946   0.693  1.00  0.00     0.082 C 
ATOM     21  S   UNL     1       3.531  -4.485   2.362  1.00  0.00    -0.052 SA
ATOM     22  S   UNL     1       3.321  -6.583   4.529  1.00  0.00    -0.050 S 
BRANCH  16  23
ATOM     23  N   UNL     1       3.038  -8.339   1.875  1.00  0.00    -0.254 N 
ATOM     24  C   UNL     1       1.854  -9.030   1.982  1.00  0.00     0.273 C 
ATOM     25  O   UNL     1       1.898 -10.241   1.753  1.00  0.00    -0.267 OA
ATOM     26  H   UNL     1       3.860  -8.880   1.837  1.00  0.00     0.192 HD
BRANCH  24  27
ATOM     27  C   UNL     1       0.619  -8.428   2.472  1.00  0.00     0.082 A 
ATOM     28  C   UNL     1       0.213  -6.010   1.413  1.00  0.00     0.088 C 
ATOM     29  C   UNL     1      -0.009  -7.209   2.245  1.00  0.00     0.113 A 
ATOM     30  O   UNL     1      -1.173  -7.138   2.958  1.00  0.00    -0.469 OA
ATOM     31  C   UNL     1      -1.346  -8.319   3.590  1.00  0.00     0.196 A 
ATOM     32  C   UNL     1      -0.298  -9.152   3.310  1.00  0.00     0.056 A 
ENDBRANCH  24  27
ENDBRANCH  16  23
ENDBRANCH  10  15
ENDBRANCH   8   9
ENDBRANCH   6   8
ENDBRANCH   3   6
ENDBRANCH   1   2
BRANCH   1  33
ATOM     33  C   UNL     1       5.915  -1.575  -4.785  1.00  0.00     0.023 C 
BRANCH  33  34
ATOM     34  C   UNL     1       5.939  -0.065  -5.031  1.00  0.00     0.023 C 
BRANCH  34  35
ATOM     35  C   UNL     1       4.606   0.653  -4.825  1.00  0.00     0.116 C 
BRANCH  35  36
ATOM     36  N   UNL     1       4.015   0.446  -3.511  1.00  0.00    -0.352 N 
ATOM     37  C   UNL     1       3.186   1.291  -2.810  1.00  0.00     0.251 C 
ATOM     38  H   UNL     1       4.236  -0.406  -3.069  1.00  0.00     0.163 HD
ATOM     39  O   UNL     1       2.832   1.014  -1.669  1.00  0.00    -0.269 OA
BRANCH  37  40
ATOM     40  C   UNL     1       2.769   2.566  -3.431  1.00  0.00     0.039 A 
ATOM     41  C   UNL     1       2.958   3.755  -2.724  1.00  0.00     0.014 A 
ATOM     42  C   UNL     1       2.251   2.591  -4.729  1.00  0.00     0.014 A 
ATOM     43  C   UNL     1       2.710   4.977  -3.352  1.00  0.00     0.010 A 
ATOM     44  C   UNL     1       2.072   3.810  -5.377  1.00  0.00     0.010 A 
ATOM     45  C   UNL     1       2.311   5.015  -4.699  1.00  0.00    -0.014 A 
BRANCH  45  46
ATOM     46  C   UNL     1       2.177   6.306  -5.420  1.00  0.00     0.031 A 
ATOM     47  C   UNL     1       0.841   6.758  -5.936  1.00  0.00     0.074 A 
ATOM     48  C   UNL     1       3.279   7.040  -5.669  1.00  0.00     0.049 A 
ATOM     49  N   UNL     1       0.537   7.839  -6.610  1.00  0.00    -0.248 NA
ATOM     50  C   UNL     1      -0.302   5.866  -5.687  1.00  0.00     0.031 C 
ATOM     51  C   UNL     1       4.643   6.674  -5.284  1.00  0.00     0.029 A 
ATOM     52  N   UNL     1       3.429   8.243  -6.312  1.00  0.00    -0.354 N 
ATOM     53  C   UNL     1      -0.823   7.752  -6.873  1.00  0.00     0.074 A 
ATOM     54  C   UNL     1      -1.276   6.487  -6.335  1.00  0.00     0.031 C 
ATOM     55  C   UNL     1       5.486   7.644  -5.672  1.00  0.00     0.029 A 
ATOM     56  C   UNL     1       4.728   8.686  -6.358  1.00  0.00     0.049 A 
ATOM     57  H   UNL     1       2.675   8.742  -6.704  1.00  0.00     0.167 HD
ATOM     58  C   UNL     1      -1.625   8.656  -7.483  1.00  0.00     0.037 A 
ATOM     59  C   UNL     1       5.249   9.808  -6.890  1.00  0.00     0.037 A 
ATOM     60  C   UNL     1      -1.177   9.924  -7.995  1.00  0.00     0.049 A 
ATOM     61  C   UNL     1       4.333  10.804  -7.547  1.00  0.00     0.074 A 
ATOM     62  C   UNL     1      -1.926  10.940  -8.563  1.00  0.00     0.029 A 
ATOM     63  N   UNL     1       0.143  10.350  -8.002  1.00  0.00    -0.354 N 
ATOM     64  N   UNL     1       3.034  10.750  -7.711  1.00  0.00    -0.248 NA
ATOM     65  C   UNL     1       4.956  12.021  -8.085  1.00  0.00     0.031 C 
ATOM     66  C   UNL     1      -1.054  11.962  -8.953  1.00  0.00     0.029 A 
ATOM     67  C   UNL     1       0.233  11.604  -8.585  1.00  0.00     0.049 A 
ATOM     68  H   UNL     1       0.904   9.836  -7.646  1.00  0.00     0.167 HD
ATOM     69  C   UNL     1       2.680  11.931  -8.348  1.00  0.00     0.074 A 
ATOM     70  C   UNL     1       3.900  12.692  -8.524  1.00  0.00     0.031 C 
ATOM     71  C   UNL     1       1.456  12.347  -8.754  1.00  0.00     0.037 A 
BRANCH  58  72
ATOM     72  C   UNL     1      -3.079   8.309  -7.621  1.00  0.00     0.064 A 
ATOM     73  C   UNL     1      -3.933   8.272  -6.508  1.00  0.00     0.173 A 
ATOM     74  C   UNL     1      -3.634   8.044  -8.882  1.00  0.00     0.173 A 
ATOM     75  F   UNL     1      -3.449   8.506  -5.278  1.00  0.00    -0.203 F 
ATOM     76  C   UNL     1      -5.282   7.956  -6.648  1.00  0.00     0.198 A 
ATOM     77  C   UNL     1      -4.989   7.757  -9.022  1.00  0.00     0.198 A 
ATOM     78  F   UNL     1      -2.863   8.071  -9.979  1.00  0.00    -0.203 F 
ATOM     79  F   UNL     1      -6.066   7.880  -5.564  1.00  0.00    -0.200 F 
ATOM     80  C   UNL     1      -5.810   7.705  -7.905  1.00  0.00     0.200 A 
ATOM     81  F   UNL     1      -5.502   7.526 -10.239  1.00  0.00    -0.200 F 
ATOM     82  F   UNL     1      -7.109   7.407  -8.040  1.00  0.00    -0.200 F 
ENDBRANCH  58  72
BRANCH  59  83
ATOM     83  C   UNL     1       6.708  10.069  -6.789  1.00  0.00     0.064 A 
ATOM     84  C   UNL     1       7.200  11.077  -5.948  1.00  0.00     0.173 A 
ATOM     85  C   UNL     1       7.637   9.321  -7.526  1.00  0.00     0.173 A 
ATOM     86  F   UNL     1       6.348  11.831  -5.239  1.00  0.00    -0.203 F 
ATOM     87  C   UNL     1       8.565  11.340  -5.863  1.00  0.00     0.198 A 
ATOM     88  C   UNL     1       9.004   9.568  -7.420  1.00  0.00     0.198 A 
ATOM     89  F   UNL     1       7.217   8.341  -8.340  1.00  0.00    -0.203 F 
ATOM     90  F   UNL     1       9.005  12.338  -5.084  1.00  0.00    -0.200 F 
ATOM     91  C   UNL     1       9.467  10.582  -6.595  1.00  0.00     0.200 A 
ATOM     92  F   UNL     1       9.873   8.824  -8.118  1.00  0.00    -0.200 F 
ATOM     93  F   UNL     1      10.780  10.833  -6.509  1.00  0.00    -0.200 F 
ENDBRANCH  59  83
BRANCH  71  94
ATOM     94  C   UNL     1       1.373  13.695  -9.408  1.00  0.00     0.064 A 
ATOM     95  C   UNL     1       1.864  13.913 -10.704  1.00  0.00     0.173 A 
ATOM     96  C   UNL     1       0.771  14.773  -8.743  1.00  0.00     0.173 A 
ATOM     97  F   UNL     1       2.463  12.917 -11.375  1.00  0.00    -0.203 F 
ATOM     98  C   UNL     1       1.779  15.168 -11.299  1.00  0.00     0.198 A 
ATOM     99  C   UNL     1       0.662  16.020  -9.352  1.00  0.00     0.198 A 
ATOM    100  F   UNL     1       0.281  14.615  -7.504  1.00  0.00    -0.203 F 
ATOM    101  F   UNL     1       2.299  15.366 -12.518  1.00  0.00    -0.200 F 
ATOM    102  C   UNL     1       1.173  16.219 -10.626  1.00  0.00     0.200 A 
ATOM    103  F   UNL     1       0.066  17.031  -8.705  1.00  0.00    -0.200 F 
ATOM    104  F   UNL     1       1.089  17.426 -11.202  1.00  0.00    -0.200 F 
ENDBRANCH  71  94
ENDBRANCH  45  46
ENDBRANCH  37  40
ENDBRANCH  35  36
ENDBRANCH  34  35
ENDBRANCH  33  34
ENDBRANCH   1  33
TORSDOF 16
