REMARK SMILES COc1ccc(-c2nc(NCC(=O)NCCCCNC(=O)c3ccc(-c4c5nc(c(-c6c(F)c(F)c(F)c(F)c6F)c6ccc([nH]6)c(-c6c(F)c(F)c(F)c(F)c6F)c6nc(c(-c7c(F)c(F)c(F)c(F)c7F)c7ccc4[nH]7)C=C6)C=C5)cc3)sc2-c2ccc(OC)cc2)cc1
REMARK SMILES IDX 15 1 14 2 12 3 13 4 11 6 10 7 9 9 7 10 8 11 86 12 85 13 6 14
REMARK SMILES IDX 3 15 4 16 96 17 5 18 95 19 2 20 1 21 87 22 88 23 94 24 89 25
REMARK SMILES IDX 93 26 90 27 91 28 92 29 16 30 17 31 18 32 19 33 20 34 21 36
REMARK SMILES IDX 22 37 23 38 84 39 24 40 83 41 25 42 26 43 27 44 77 45 28 46
REMARK SMILES IDX 82 47 76 48 78 49 29 50 81 51 75 52 74 53 30 55 62 56 42 57
REMARK SMILES IDX 61 58 43 59 46 60 60 61 79 62 44 63 45 64 59 66 80 67 47 68
REMARK SMILES IDX 31 69 32 70 40 71 33 72 34 73 38 74 41 75 35 76 36 77 39 78
REMARK SMILES IDX 37 79 63 80 64 81 72 82 65 83 66 84 70 85 73 86 67 87 68 88
REMARK SMILES IDX 71 89 69 90 48 91 49 92 57 93 50 94 51 95 55 96 58 97 52 98
REMARK SMILES IDX 53 99 56 100 54 101
REMARK H PARENT 14 5 10 8 19 35 78 54 46 65
REMARK Flexibility Score: inf
ROOT
ATOM      1  C   UNL     1       5.346   9.153   1.403  1.00  0.00     0.116 C 
ENDROOT
BRANCH   1   2
ATOM      2  N   UNL     1       6.065  10.044   0.516  1.00  0.00    -0.355 N 
ATOM      3  C   UNL     1       5.642  10.589  -0.666  1.00  0.00     0.239 C 
ATOM      4  O   UNL     1       6.440  11.273  -1.310  1.00  0.00    -0.273 OA
ATOM      5  H   UNL     1       6.975  10.289   0.800  1.00  0.00     0.163 HD
BRANCH   3   6
ATOM      6  C   UNL     1       4.194  10.386  -1.134  1.00  0.00     0.215 C 
BRANCH   6   7
ATOM      7  N   UNL     1       3.929   8.999  -1.477  1.00  0.00    -0.352 N 
ATOM      8  H   UNL     1       4.531   8.576  -2.131  1.00  0.00     0.163 HD
BRANCH   7   9
ATOM      9  C   UNL     1       2.932   8.240  -0.976  1.00  0.00     0.184 A 
ATOM     10  C   UNL     1       1.826   6.369  -0.529  1.00  0.00     0.091 A 
ATOM     11  N   UNL     1       2.868   6.953  -1.231  1.00  0.00    -0.220 NA
ATOM     12  C   UNL     1       1.146   7.212   0.337  1.00  0.00     0.064 A 
ATOM     13  S   UNL     1       1.684   8.815   0.067  1.00  0.00    -0.096 S 
BRANCH  10  14
ATOM     14  C   UNL     1       1.516   4.955  -0.679  1.00  0.00     0.002 A 
ATOM     15  C   UNL     1       0.866   2.231  -0.840  1.00  0.00     0.118 A 
ATOM     16  C   UNL     1      -0.099   3.199  -1.113  1.00  0.00     0.047 A 
ATOM     17  C   UNL     1       2.170   2.622  -0.529  1.00  0.00     0.047 A 
ATOM     18  C   UNL     1       0.220   4.554  -1.026  1.00  0.00     0.014 A 
ATOM     19  C   UNL     1       2.497   3.983  -0.455  1.00  0.00     0.014 A 
BRANCH  15  20
ATOM     20  O   UNL     1       0.444   0.936  -0.959  1.00  0.00    -0.497 OA
ATOM     21  C   UNL     1       1.038   0.022  -0.044  1.00  0.00     0.278 C 
ENDBRANCH  15  20
ENDBRANCH  10  14
BRANCH  12  22
ATOM     22  C   UNL     1       0.151   6.926   1.375  1.00  0.00    -0.006 A 
ATOM     23  C   UNL     1      -1.061   7.621   1.448  1.00  0.00     0.013 A 
ATOM     24  C   UNL     1       0.407   5.924   2.323  1.00  0.00     0.013 A 
ATOM     25  C   UNL     1      -1.997   7.303   2.438  1.00  0.00     0.047 A 
ATOM     26  C   UNL     1      -0.532   5.603   3.308  1.00  0.00     0.047 A 
ATOM     27  C   UNL     1      -1.744   6.287   3.363  1.00  0.00     0.118 A 
BRANCH  27  28
ATOM     28  O   UNL     1      -2.749   6.064   4.263  1.00  0.00    -0.497 OA
ATOM     29  C   UNL     1      -2.608   4.927   5.107  1.00  0.00     0.278 C 
ENDBRANCH  27  28
ENDBRANCH  12  22
ENDBRANCH   7   9
ENDBRANCH   6   7
ENDBRANCH   3   6
ENDBRANCH   1   2
BRANCH   1  30
ATOM     30  C   UNL     1       5.783   7.700   1.216  1.00  0.00     0.023 C 
BRANCH  30  31
ATOM     31  C   UNL     1       7.171   7.391   1.782  1.00  0.00     0.023 C 
BRANCH  31  32
ATOM     32  C   UNL     1       7.331   7.650   3.276  1.00  0.00     0.116 C 
BRANCH  32  33
ATOM     33  N   UNL     1       6.412   6.875   4.096  1.00  0.00    -0.352 N 
ATOM     34  C   UNL     1       6.644   6.272   5.309  1.00  0.00     0.251 C 
ATOM     35  H   UNL     1       5.503   6.770   3.734  1.00  0.00     0.163 HD
ATOM     36  O   UNL     1       5.793   5.548   5.816  1.00  0.00    -0.269 OA
BRANCH  34  37
ATOM     37  C   UNL     1       7.945   6.469   5.982  1.00  0.00     0.039 A 
ATOM     38  C   UNL     1       8.625   5.353   6.476  1.00  0.00     0.014 A 
ATOM     39  C   UNL     1       8.504   7.745   6.100  1.00  0.00     0.014 A 
ATOM     40  C   UNL     1       9.899   5.508   7.024  1.00  0.00     0.010 A 
ATOM     41  C   UNL     1       9.802   7.888   6.578  1.00  0.00     0.010 A 
ATOM     42  C   UNL     1      10.513   6.771   7.045  1.00  0.00    -0.014 A 
BRANCH  42  43
ATOM     43  C   UNL     1      11.900   6.945   7.544  1.00  0.00     0.031 A 
ATOM     44  C   UNL     1      12.166   7.775   8.767  1.00  0.00     0.074 A 
ATOM     45  C   UNL     1      12.927   6.410   6.856  1.00  0.00     0.049 A 
ATOM     46  N   UNL     1      13.309   8.087   9.326  1.00  0.00    -0.248 NA
ATOM     47  C   UNL     1      10.992   8.358   9.433  1.00  0.00     0.031 C 
ATOM     48  C   UNL     1      12.803   5.622   5.630  1.00  0.00     0.029 A 
ATOM     49  N   UNL     1      14.279   6.455   7.088  1.00  0.00    -0.354 N 
ATOM     50  C   UNL     1      12.992   8.910  10.397  1.00  0.00     0.074 A 
ATOM     51  C   UNL     1      11.557   9.100  10.373  1.00  0.00     0.031 C 
ATOM     52  C   UNL     1      14.024   5.227   5.237  1.00  0.00     0.029 A 
ATOM     53  C   UNL     1      15.019   5.766   6.160  1.00  0.00     0.049 A 
ATOM     54  H   UNL     1      14.680   6.935   7.849  1.00  0.00     0.167 HD
ATOM     55  C   UNL     1      13.818   9.439  11.332  1.00  0.00     0.037 A 
ATOM     56  C   UNL     1      16.350   5.589   6.065  1.00  0.00     0.037 A 
ATOM     57  C   UNL     1      15.242   9.236  11.360  1.00  0.00     0.049 A 
ATOM     58  C   UNL     1      17.251   6.207   7.098  1.00  0.00     0.074 A 
ATOM     59  C   UNL     1      16.160   9.677  12.297  1.00  0.00     0.029 A 
ATOM     60  N   UNL     1      15.959   8.538  10.398  1.00  0.00    -0.354 N 
ATOM     61  N   UNL     1      16.936   6.923   8.150  1.00  0.00    -0.248 NA
ATOM     62  C   UNL     1      18.694   5.989   6.931  1.00  0.00     0.031 C 
ATOM     63  C   UNL     1      17.437   9.290  11.875  1.00  0.00     0.029 A 
ATOM     64  C   UNL     1      17.311   8.561  10.703  1.00  0.00     0.049 A 
ATOM     65  H   UNL     1      15.565   8.093   9.613  1.00  0.00     0.167 HD
ATOM     66  C   UNL     1      18.134   7.215   8.787  1.00  0.00     0.074 A 
ATOM     67  C   UNL     1      19.183   6.590   8.007  1.00  0.00     0.031 C 
ATOM     68  C   UNL     1      18.345   7.933   9.918  1.00  0.00     0.037 A 
BRANCH  55  69
ATOM     69  C   UNL     1      13.189  10.296  12.395  1.00  0.00     0.064 A 
ATOM     70  C   UNL     1      12.327   9.758  13.363  1.00  0.00     0.173 A 
ATOM     71  C   UNL     1      13.446  11.675  12.443  1.00  0.00     0.173 A 
ATOM     72  F   UNL     1      12.038   8.447  13.357  1.00  0.00    -0.203 F 
ATOM     73  C   UNL     1      11.707  10.573  14.307  1.00  0.00     0.198 A 
ATOM     74  C   UNL     1      12.852  12.482  13.411  1.00  0.00     0.198 A 
ATOM     75  F   UNL     1      14.268  12.242  11.548  1.00  0.00    -0.203 F 
ATOM     76  F   UNL     1      10.832  10.046  15.174  1.00  0.00    -0.200 F 
ATOM     77  C   UNL     1      11.973  11.933  14.332  1.00  0.00     0.200 A 
ATOM     78  F   UNL     1      13.121  13.795  13.442  1.00  0.00    -0.200 F 
ATOM     79  F   UNL     1      11.372  12.718  15.237  1.00  0.00    -0.200 F 
ENDBRANCH  55  69
BRANCH  56  80
ATOM     80  C   UNL     1      16.904   4.746   4.974  1.00  0.00     0.064 A 
ATOM     81  C   UNL     1      17.442   3.483   5.255  1.00  0.00     0.173 A 
ATOM     82  C   UNL     1      16.888   5.168   3.637  1.00  0.00     0.173 A 
ATOM     83  F   UNL     1      17.497   3.046   6.522  1.00  0.00    -0.203 F 
ATOM     84  C   UNL     1      17.952   2.676   4.240  1.00  0.00     0.198 A 
ATOM     85  C   UNL     1      17.376   4.350   2.620  1.00  0.00     0.198 A 
ATOM     86  F   UNL     1      16.379   6.367   3.317  1.00  0.00    -0.203 F 
ATOM     87  F   UNL     1      18.490   1.486   4.540  1.00  0.00    -0.200 F 
ATOM     88  C   UNL     1      17.911   3.107   2.923  1.00  0.00     0.200 A 
ATOM     89  F   UNL     1      17.322   4.763   1.347  1.00  0.00    -0.200 F 
ATOM     90  F   UNL     1      18.392   2.326   1.946  1.00  0.00    -0.200 F 
ENDBRANCH  56  80
BRANCH  68  91
ATOM     91  C   UNL     1      19.762   8.054  10.401  1.00  0.00     0.064 A 
ATOM     92  C   UNL     1      20.706   8.846   9.731  1.00  0.00     0.173 A 
ATOM     93  C   UNL     1      20.169   7.396  11.572  1.00  0.00     0.173 A 
ATOM     94  F   UNL     1      20.371   9.481   8.598  1.00  0.00    -0.203 F 
ATOM     95  C   UNL     1      22.012   8.954  10.201  1.00  0.00     0.198 A 
ATOM     96  C   UNL     1      21.467   7.532  12.056  1.00  0.00     0.198 A 
ATOM     97  F   UNL     1      19.305   6.631  12.254  1.00  0.00    -0.203 F 
ATOM     98  F   UNL     1      22.910   9.677   9.517  1.00  0.00    -0.200 F 
ATOM     99  C   UNL     1      22.390   8.305  11.367  1.00  0.00     0.200 A 
ATOM    100  F   UNL     1      21.826   6.915  13.190  1.00  0.00    -0.200 F 
ATOM    101  F   UNL     1      23.645   8.417  11.822  1.00  0.00    -0.200 F 
ENDBRANCH  68  91
ENDBRANCH  42  43
ENDBRANCH  34  37
ENDBRANCH  32  33
ENDBRANCH  31  32
ENDBRANCH  30  31
ENDBRANCH   1  30
TORSDOF 17
