REMARK SMILES O=C(NCCCCNC(=O)c1ccc(-c2c3nc(c(-c4c(F)c(F)c(F)c(F)c4F)c4ccc([nH]4)c(-c4c(F)c(F)c(F)c(F)c4F)c4nc(c(-c5c(F)c(F)c(F)c(F)c5F)c5ccc2[nH]5)C=C4)C=C3)cc1)C1=C(C(=O)NCCC2=CCCCC2)CCCC1
REMARK SMILES IDX 4 1 3 2 1 3 2 4 74 6 75 7 90 8 87 9 89 10 88 11 76 12 77 13
REMARK SMILES IDX 78 14 79 16 80 17 81 18 82 19 86 20 83 21 85 22 84 23 5 24
REMARK SMILES IDX 6 25 7 26 8 27 9 28 10 30 11 31 12 32 73 33 13 34 72 35
REMARK SMILES IDX 14 36 15 37 16 38 66 39 17 40 71 41 65 42 67 43 18 44 70 45
REMARK SMILES IDX 64 46 63 47 19 49 51 50 31 51 50 52 32 53 35 54 49 55 68 56
REMARK SMILES IDX 33 57 34 58 48 60 69 61 36 62 20 63 21 64 29 65 22 66 23 67
REMARK SMILES IDX 27 68 30 69 24 70 25 71 28 72 26 73 52 74 53 75 61 76 54 77
REMARK SMILES IDX 55 78 59 79 62 80 56 81 57 82 60 83 58 84 37 85 38 86 46 87
REMARK SMILES IDX 39 88 40 89 44 90 47 91 41 92 42 93 45 94 43 95
REMARK H PARENT 3 5 78 15 8 29 67 48 35 59
REMARK Flexibility Score: inf
ROOT
ATOM      1  C   UNL     1       5.018   1.599  -0.217  1.00  0.00     0.116 C 
ENDROOT
BRANCH   1   2
ATOM      2  N   UNL     1       3.632   1.685  -0.640  1.00  0.00    -0.352 N 
ATOM      3  O   UNL     1       1.670   1.028  -1.483  1.00  0.00    -0.270 OA
ATOM      4  C   UNL     1       2.805   0.722  -1.119  1.00  0.00     0.247 C 
ATOM      5  H   UNL     1       3.230   2.581  -0.568  1.00  0.00     0.163 HD
BRANCH   4   6
ATOM      6  C   UNL     1       3.280  -0.676  -1.272  1.00  0.00     0.026 C 
ATOM      7  C   UNL     1       3.760  -1.456  -0.280  1.00  0.00     0.026 C 
ATOM      8  C   UNL     1       3.111  -1.171  -2.695  1.00  0.00     0.042 C 
ATOM      9  C   UNL     1       4.398  -2.801  -0.595  1.00  0.00     0.042 C 
ATOM     10  C   UNL     1       3.441  -2.650  -2.895  1.00  0.00     0.005 C 
ATOM     11  C   UNL     1       4.667  -3.027  -2.084  1.00  0.00     0.005 C 
BRANCH   7  12
ATOM     12  C   UNL     1       3.854  -1.114   1.175  1.00  0.00     0.247 C 
ATOM     13  O   UNL     1       4.897  -1.362   1.784  1.00  0.00    -0.270 OA
ATOM     14  N   UNL     1       2.814  -0.604   1.881  1.00  0.00    -0.352 N 
ATOM     15  H   UNL     1       2.974  -0.549   2.851  1.00  0.00     0.163 HD
BRANCH  14  16
ATOM     16  C   UNL     1       1.507  -0.125   1.467  1.00  0.00     0.120 C 
BRANCH  16  17
ATOM     17  C   UNL     1       0.469  -0.106   2.594  1.00  0.00     0.052 C 
BRANCH  17  18
ATOM     18  C   UNL     1       0.853   0.683   3.835  1.00  0.00    -0.072 C 
ATOM     19  C   UNL     1       0.895   0.087   5.042  1.00  0.00    -0.028 C 
ATOM     20  C   UNL     1       1.109   2.167   3.678  1.00  0.00     0.031 C 
ATOM     21  C   UNL     1       1.135   0.817   6.331  1.00  0.00     0.027 C 
ATOM     22  C   UNL     1       1.673   2.834   4.939  1.00  0.00     0.005 C 
ATOM     23  C   UNL     1       0.976   2.330   6.196  1.00  0.00     0.004 C 
ENDBRANCH  17  18
ENDBRANCH  16  17
ENDBRANCH  14  16
ENDBRANCH   7  12
ENDBRANCH   4   6
ENDBRANCH   1   2
BRANCH   1  24
ATOM     24  C   UNL     1       5.653   2.977  -0.043  1.00  0.00     0.023 C 
BRANCH  24  25
ATOM     25  C   UNL     1       5.018   3.847   1.054  1.00  0.00     0.023 C 
BRANCH  25  26
ATOM     26  C   UNL     1       5.104   3.286   2.474  1.00  0.00     0.116 C 
BRANCH  26  27
ATOM     27  N   UNL     1       6.479   3.157   2.931  1.00  0.00    -0.352 N 
ATOM     28  C   UNL     1       7.215   3.918   3.799  1.00  0.00     0.251 C 
ATOM     29  H   UNL     1       6.963   2.389   2.551  1.00  0.00     0.163 HD
ATOM     30  O   UNL     1       8.441   3.761   3.840  1.00  0.00    -0.269 OA
BRANCH  28  31
ATOM     31  C   UNL     1       6.596   4.929   4.686  1.00  0.00     0.039 A 
ATOM     32  C   UNL     1       7.290   6.120   4.927  1.00  0.00     0.014 A 
ATOM     33  C   UNL     1       5.395   4.689   5.361  1.00  0.00     0.014 A 
ATOM     34  C   UNL     1       6.761   7.080   5.795  1.00  0.00     0.010 A 
ATOM     35  C   UNL     1       4.833   5.677   6.176  1.00  0.00     0.010 A 
ATOM     36  C   UNL     1       5.513   6.881   6.407  1.00  0.00    -0.014 A 
BRANCH  36  37
ATOM     37  C   UNL     1       4.923   7.941   7.269  1.00  0.00     0.031 A 
ATOM     38  C   UNL     1       4.733   7.731   8.746  1.00  0.00     0.074 A 
ATOM     39  C   UNL     1       4.535   9.103   6.708  1.00  0.00     0.049 A 
ATOM     40  N   UNL     1       4.284   8.568   9.650  1.00  0.00    -0.248 NA
ATOM     41  C   UNL     1       5.070   6.402   9.277  1.00  0.00     0.031 C 
ATOM     42  C   UNL     1       4.607   9.414   5.280  1.00  0.00     0.029 A 
ATOM     43  N   UNL     1       4.011  10.241   7.270  1.00  0.00    -0.354 N 
ATOM     44  C   UNL     1       4.274   7.867  10.849  1.00  0.00     0.074 A 
ATOM     45  C   UNL     1       4.718   6.521  10.550  1.00  0.00     0.031 C 
ATOM     46  C   UNL     1       4.186  10.673   5.083  1.00  0.00     0.029 A 
ATOM     47  C   UNL     1       3.792  11.250   6.365  1.00  0.00     0.049 A 
ATOM     48  H   UNL     1       3.811  10.325   8.231  1.00  0.00     0.167 HD
ATOM     49  C   UNL     1       3.945   8.308  12.088  1.00  0.00     0.037 A 
ATOM     50  C   UNL     1       3.340  12.505   6.548  1.00  0.00     0.037 A 
ATOM     51  C   UNL     1       3.529   9.654  12.392  1.00  0.00     0.049 A 
ATOM     52  C   UNL     1       3.008  12.977   7.935  1.00  0.00     0.074 A 
ATOM     53  C   UNL     1       3.252  10.215  13.628  1.00  0.00     0.029 A 
ATOM     54  N   UNL     1       3.325  10.651  11.449  1.00  0.00    -0.354 N 
ATOM     55  N   UNL     1       3.090  12.332   9.072  1.00  0.00    -0.248 NA
ATOM     56  C   UNL     1       2.533  14.362   8.063  1.00  0.00     0.031 C 
ATOM     57  C   UNL     1       2.839  11.538  13.428  1.00  0.00     0.029 A 
ATOM     58  C   UNL     1       2.902  11.815  12.073  1.00  0.00     0.049 A 
ATOM     59  H   UNL     1       3.460  10.547  10.479  1.00  0.00     0.167 HD
ATOM     60  C   UNL     1       2.703  13.236  10.052  1.00  0.00     0.074 A 
ATOM     61  C   UNL     1       2.404  14.482   9.376  1.00  0.00     0.031 C 
ATOM     62  C   UNL     1       2.603  13.049  11.391  1.00  0.00     0.037 A 
BRANCH  49  63
ATOM     63  C   UNL     1       4.020   7.322  13.218  1.00  0.00     0.064 A 
ATOM     64  C   UNL     1       5.249   6.852  13.705  1.00  0.00     0.173 A 
ATOM     65  C   UNL     1       2.850   6.869  13.846  1.00  0.00     0.173 A 
ATOM     66  F   UNL     1       6.397   7.248  13.135  1.00  0.00    -0.203 F 
ATOM     67  C   UNL     1       5.303   5.943  14.759  1.00  0.00     0.198 A 
ATOM     68  C   UNL     1       2.909   5.981  14.918  1.00  0.00     0.198 A 
ATOM     69  F   UNL     1       1.649   7.292  13.425  1.00  0.00    -0.203 F 
ATOM     70  F   UNL     1       6.486   5.472  15.176  1.00  0.00    -0.200 F 
ATOM     71  C   UNL     1       4.134   5.513  15.368  1.00  0.00     0.200 A 
ATOM     72  F   UNL     1       1.778   5.576  15.513  1.00  0.00    -0.200 F 
ATOM     73  F   UNL     1       4.187   4.641  16.384  1.00  0.00    -0.200 F 
ENDBRANCH  49  63
BRANCH  50  74
ATOM     74  C   UNL     1       3.231  13.425   5.387  1.00  0.00     0.064 A 
ATOM     75  C   UNL     1       4.124  14.495   5.239  1.00  0.00     0.173 A 
ATOM     76  C   UNL     1       2.245  13.254   4.407  1.00  0.00     0.173 A 
ATOM     77  F   UNL     1       5.071  14.710   6.164  1.00  0.00    -0.203 F 
ATOM     78  C   UNL     1       4.024  15.370   4.160  1.00  0.00     0.198 A 
ATOM     79  C   UNL     1       2.162  14.115   3.315  1.00  0.00     0.198 A 
ATOM     80  F   UNL     1       1.370  12.242   4.503  1.00  0.00    -0.203 F 
ATOM     81  F   UNL     1       4.866  16.409   4.063  1.00  0.00    -0.200 F 
ATOM     82  C   UNL     1       3.047  15.176   3.196  1.00  0.00     0.200 A 
ATOM     83  F   UNL     1       1.224  13.917   2.378  1.00  0.00    -0.200 F 
ATOM     84  F   UNL     1       2.955  16.015   2.155  1.00  0.00    -0.200 F 
ENDBRANCH  50  74
BRANCH  62  85
ATOM     85  C   UNL     1       2.175  14.230  12.213  1.00  0.00     0.064 A 
ATOM     86  C   UNL     1       0.859  14.715  12.174  1.00  0.00     0.173 A 
ATOM     87  C   UNL     1       3.091  14.886  13.049  1.00  0.00     0.173 A 
ATOM     88  F   UNL     1      -0.051  14.134  11.378  1.00  0.00    -0.203 F 
ATOM     89  C   UNL     1       0.486  15.835  12.913  1.00  0.00     0.198 A 
ATOM     90  C   UNL     1       2.708  15.987  13.809  1.00  0.00     0.198 A 
ATOM     91  F   UNL     1       4.361  14.459  13.128  1.00  0.00    -0.203 F 
ATOM     92  F   UNL     1      -0.761  16.316  12.813  1.00  0.00    -0.200 F 
ATOM     93  C   UNL     1       1.409  16.467  13.733  1.00  0.00     0.200 A 
ATOM     94  F   UNL     1       3.598  16.591  14.608  1.00  0.00    -0.200 F 
ATOM     95  F   UNL     1       1.050  17.548  14.439  1.00  0.00    -0.200 F 
ENDBRANCH  62  85
ENDBRANCH  36  37
ENDBRANCH  28  31
ENDBRANCH  26  27
ENDBRANCH  25  26
ENDBRANCH  24  25
ENDBRANCH   1  24
TORSDOF 15
