REMARK SMILES COc1ccc(/C=C2/SC(=S)N(NS(=O)(=O)c3ccccc3)C2=O)c(C(=O)NCCCCNC(=O)c2ccc(-c3c4nc(c(-c5c(F)c(F)c(F)c(F)c5F)c5ccc([nH]5)c(-c5c(F)c(F)c(F)c(F)c5F)c5nc(c(-c6c(F)c(F)c(F)c(F)c6F)c6ccc3[nH]6)C=C5)C=C4)cc2)c1OC
REMARK SMILES IDX 29 1 28 2 26 3 27 4 25 6 3 7 4 8 99 9 5 10 6 11 2 12 1 13
REMARK SMILES IDX 100 14 101 15 7 16 8 17 9 18 23 19 10 20 12 21 24 22 11 23
REMARK SMILES IDX 13 24 14 26 15 27 16 28 17 29 18 30 22 31 19 32 21 33 20 34
REMARK SMILES IDX 30 35 31 36 32 37 33 38 34 39 35 41 36 42 37 43 98 44 38 45
REMARK SMILES IDX 97 46 39 47 40 48 41 49 91 50 42 51 96 52 90 53 92 54 43 55
REMARK SMILES IDX 95 56 89 57 88 58 44 60 76 61 56 62 75 63 57 64 60 65 74 66
REMARK SMILES IDX 93 67 58 68 59 69 73 71 94 72 61 73 45 74 46 75 54 76 47 77
REMARK SMILES IDX 48 78 52 79 55 80 49 81 50 82 53 83 51 84 77 85 78 86 86 87
REMARK SMILES IDX 79 88 80 89 84 90 87 91 81 92 82 93 85 94 83 95 62 96 63 97
REMARK SMILES IDX 71 98 64 99 65 100 69 101 72 102 66 103 67 104 70 105 68 106
REMARK H PARENT 28 5 13 25 33 40 92 59 60 70
REMARK Flexibility Score: inf
ROOT
ATOM      1  C   UNL     1       4.814  -2.271   0.364  1.00  0.00     0.116 C 
ENDROOT
BRANCH   1   2
ATOM      2  N   UNL     1       4.840  -3.352  -0.593  1.00  0.00    -0.352 N 
ATOM      3  C   UNL     1       3.751  -3.886  -1.271  1.00  0.00     0.255 C 
ATOM      4  O   UNL     1       3.967  -4.681  -2.186  1.00  0.00    -0.269 OA
ATOM      5  H   UNL     1       5.720  -3.750  -0.784  1.00  0.00     0.163 HD
BRANCH   3   6
ATOM      6  C   UNL     1       2.337  -3.631  -0.824  1.00  0.00     0.092 A 
ATOM      7  C   UNL     1       0.600  -2.169   0.059  1.00  0.00     0.161 A 
ATOM      8  C   UNL     1      -0.191  -3.289   0.333  1.00  0.00     0.051 A 
ATOM      9  C   UNL     1       1.840  -2.318  -0.591  1.00  0.00     0.174 A 
ATOM     10  C   UNL     1       0.244  -4.570  -0.005  1.00  0.00     0.013 A 
ATOM     11  C   UNL     1       1.522  -4.765  -0.548  1.00  0.00    -0.007 A 
BRANCH   7  12
ATOM     12  O   UNL     1       0.187  -1.018   0.679  1.00  0.00    -0.493 OA
ATOM     13  C   UNL     1      -0.339  -0.017  -0.182  1.00  0.00     0.278 C 
ENDBRANCH   7  12
BRANCH   9  14
ATOM     14  O   UNL     1       2.583  -1.281  -1.102  1.00  0.00    -0.492 OA
ATOM     15  C   UNL     1       2.684  -0.069  -0.360  1.00  0.00     0.278 C 
ENDBRANCH   9  14
BRANCH  11  16
ATOM     16  C   UNL     1       1.923  -6.181  -0.728  1.00  0.00     0.030 C 
ATOM     17  C   UNL     1       2.808  -6.843   0.034  1.00  0.00     0.082 C 
ATOM     18  S   UNL     1       3.203  -8.518  -0.155  1.00  0.00    -0.053 SA
ATOM     19  C   UNL     1       3.583  -6.271   1.163  1.00  0.00     0.281 C 
ATOM     20  C   UNL     1       4.318  -8.513   1.212  1.00  0.00     0.164 C 
ATOM     21  N   UNL     1       4.299  -7.266   1.796  1.00  0.00    -0.209 N 
ATOM     22  O   UNL     1       3.633  -5.082   1.433  1.00  0.00    -0.267 OA
ATOM     23  S   UNL     1       5.228  -9.826   1.687  1.00  0.00    -0.050 S 
BRANCH  21  24
ATOM     24  N   UNL     1       5.135  -6.920   2.966  1.00  0.00    -0.114 NA
ATOM     25  H   UNL     1       5.662  -6.079   2.736  1.00  0.00     0.168 HD
BRANCH  24  26
ATOM     26  S   UNL     1       4.287  -6.626   4.430  1.00  0.00     0.257 S 
ATOM     27  O   UNL     1       3.383  -7.748   4.596  1.00  0.00    -0.205 OA
ATOM     28  O   UNL     1       5.292  -6.330   5.426  1.00  0.00    -0.205 OA
BRANCH  26  29
ATOM     29  C   UNL     1       3.315  -5.166   4.184  1.00  0.00     0.084 A 
ATOM     30  C   UNL     1       3.920  -3.905   4.206  1.00  0.00     0.022 A 
ATOM     31  C   UNL     1       1.937  -5.291   3.961  1.00  0.00     0.022 A 
ATOM     32  C   UNL     1       3.148  -2.772   3.935  1.00  0.00     0.001 A 
ATOM     33  C   UNL     1       1.177  -4.154   3.688  1.00  0.00     0.001 A 
ATOM     34  C   UNL     1       1.784  -2.899   3.662  1.00  0.00     0.000 A 
ENDBRANCH  26  29
ENDBRANCH  24  26
ENDBRANCH  21  24
ENDBRANCH  11  16
ENDBRANCH   3   6
ENDBRANCH   1   2
BRANCH   1  35
ATOM     35  C   UNL     1       5.929  -2.149   1.387  1.00  0.00     0.023 C 
BRANCH  35  36
ATOM     36  C   UNL     1       7.339  -1.947   0.852  1.00  0.00     0.023 C 
BRANCH  36  37
ATOM     37  C   UNL     1       7.504  -1.019  -0.347  1.00  0.00     0.116 C 
BRANCH  37  38
ATOM     38  N   UNL     1       7.168   0.377  -0.094  1.00  0.00    -0.352 N 
ATOM     39  C   UNL     1       7.942   1.510  -0.219  1.00  0.00     0.251 C 
ATOM     40  H   UNL     1       6.246   0.534   0.214  1.00  0.00     0.163 HD
ATOM     41  O   UNL     1       7.483   2.608   0.083  1.00  0.00    -0.269 OA
BRANCH  39  42
ATOM     42  C   UNL     1       9.351   1.400  -0.661  1.00  0.00     0.039 A 
ATOM     43  C   UNL     1      10.344   2.050   0.077  1.00  0.00     0.014 A 
ATOM     44  C   UNL     1       9.702   0.612  -1.757  1.00  0.00     0.014 A 
ATOM     45  C   UNL     1      11.690   1.812  -0.213  1.00  0.00     0.010 A 
ATOM     46  C   UNL     1      11.039   0.292  -1.976  1.00  0.00     0.010 A 
ATOM     47  C   UNL     1      12.049   0.880  -1.200  1.00  0.00    -0.014 A 
BRANCH  47  48
ATOM     48  C   UNL     1      13.468   0.493  -1.427  1.00  0.00     0.031 A 
ATOM     49  C   UNL     1      14.108   0.716  -2.771  1.00  0.00     0.074 A 
ATOM     50  C   UNL     1      14.159  -0.129  -0.450  1.00  0.00     0.049 A 
ATOM     51  N   UNL     1      15.298   0.366  -3.192  1.00  0.00    -0.248 NA
ATOM     52  C   UNL     1      13.290   1.396  -3.788  1.00  0.00     0.031 C 
ATOM     53  C   UNL     1      13.639  -0.458   0.879  1.00  0.00     0.029 A 
ATOM     54  N   UNL     1      15.446  -0.611  -0.427  1.00  0.00    -0.354 N 
ATOM     55  C   UNL     1      15.364   0.773  -4.518  1.00  0.00     0.074 A 
ATOM     56  C   UNL     1      14.074   1.334  -4.853  1.00  0.00     0.031 C 
ATOM     57  C   UNL     1      14.601  -1.065   1.592  1.00  0.00     0.029 A 
ATOM     58  C   UNL     1      15.792  -1.211   0.761  1.00  0.00     0.049 A 
ATOM     59  H   UNL     1      16.063  -0.534  -1.191  1.00  0.00     0.167 HD
ATOM     60  C   UNL     1      16.415   0.714  -5.370  1.00  0.00     0.037 A 
ATOM     61  C   UNL     1      16.934  -1.821   1.134  1.00  0.00     0.037 A 
ATOM     62  C   UNL     1      17.704   0.173  -5.030  1.00  0.00     0.049 A 
ATOM     63  C   UNL     1      18.082  -1.887   0.160  1.00  0.00     0.074 A 
ATOM     64  C   UNL     1      18.846   0.111  -5.809  1.00  0.00     0.029 A 
ATOM     65  N   UNL     1      18.022  -0.401  -3.808  1.00  0.00    -0.354 N 
ATOM     66  N   UNL     1      18.154  -1.434  -1.068  1.00  0.00    -0.248 NA
ATOM     67  C   UNL     1      19.312  -2.542   0.629  1.00  0.00     0.031 C 
ATOM     68  C   UNL     1      19.840  -0.546  -5.077  1.00  0.00     0.029 A 
ATOM     69  C   UNL     1      19.337  -0.838  -3.820  1.00  0.00     0.049 A 
ATOM     70  H   UNL     1      17.405  -0.486  -3.045  1.00  0.00     0.167 HD
ATOM     71  C   UNL     1      19.441  -1.720  -1.506  1.00  0.00     0.074 A 
ATOM     72  C   UNL     1      20.122  -2.369  -0.406  1.00  0.00     0.031 C 
ATOM     73  C   UNL     1      20.006  -1.470  -2.712  1.00  0.00     0.037 A 
BRANCH  60  74
ATOM     74  C   UNL     1      16.218   1.263  -6.755  1.00  0.00     0.064 A 
ATOM     75  C   UNL     1      16.056   2.638  -6.982  1.00  0.00     0.173 A 
ATOM     76  C   UNL     1      16.238   0.413  -7.871  1.00  0.00     0.173 A 
ATOM     77  F   UNL     1      16.018   3.494  -5.949  1.00  0.00    -0.203 F 
ATOM     78  C   UNL     1      15.893   3.138  -8.271  1.00  0.00     0.198 A 
ATOM     79  C   UNL     1      16.108   0.920  -9.161  1.00  0.00     0.198 A 
ATOM     80  F   UNL     1      16.396  -0.910  -7.712  1.00  0.00    -0.203 F 
ATOM     81  F   UNL     1      15.689   4.450  -8.458  1.00  0.00    -0.200 F 
ATOM     82  C   UNL     1      15.928   2.281  -9.360  1.00  0.00     0.200 A 
ATOM     83  F   UNL     1      16.158   0.092 -10.213  1.00  0.00    -0.200 F 
ATOM     84  F   UNL     1      15.783   2.765 -10.601  1.00  0.00    -0.200 F 
ENDBRANCH  60  74
BRANCH  61  85
ATOM     85  C   UNL     1      17.059  -2.413   2.494  1.00  0.00     0.064 A 
ATOM     86  C   UNL     1      17.946  -1.875   3.438  1.00  0.00     0.173 A 
ATOM     87  C   UNL     1      16.317  -3.542   2.869  1.00  0.00     0.173 A 
ATOM     88  F   UNL     1      18.695  -0.808   3.121  1.00  0.00    -0.203 F 
ATOM     89  C   UNL     1      18.110  -2.464   4.691  1.00  0.00     0.198 A 
ATOM     90  C   UNL     1      16.457  -4.109   4.135  1.00  0.00     0.198 A 
ATOM     91  F   UNL     1      15.450  -4.094   2.007  1.00  0.00    -0.203 F 
ATOM     92  F   UNL     1      19.010  -1.965   5.549  1.00  0.00    -0.200 F 
ATOM     93  C   UNL     1      17.362  -3.577   5.040  1.00  0.00     0.200 A 
ATOM     94  F   UNL     1      15.720  -5.176   4.473  1.00  0.00    -0.200 F 
ATOM     95  F   UNL     1      17.521  -4.143   6.244  1.00  0.00    -0.200 F 
ENDBRANCH  61  85
BRANCH  73  96
ATOM     96  C   UNL     1      21.446  -1.857  -2.894  1.00  0.00     0.064 A 
ATOM     97  C   UNL     1      21.847  -3.199  -2.976  1.00  0.00     0.173 A 
ATOM     98  C   UNL     1      22.433  -0.869  -3.030  1.00  0.00     0.173 A 
ATOM     99  F   UNL     1      20.945  -4.183  -2.838  1.00  0.00    -0.203 F 
ATOM    100  C   UNL     1      23.186  -3.536  -3.158  1.00  0.00     0.198 A 
ATOM    101  C   UNL     1      23.765  -1.209  -3.247  1.00  0.00     0.198 A 
ATOM    102  F   UNL     1      22.103   0.430  -2.967  1.00  0.00    -0.203 F 
ATOM    103  F   UNL     1      23.552  -4.825  -3.181  1.00  0.00    -0.200 F 
ATOM    104  C   UNL     1      24.142  -2.542  -3.302  1.00  0.00     0.200 A 
ATOM    105  F   UNL     1      24.685  -0.246  -3.402  1.00  0.00    -0.200 F 
ATOM    106  F   UNL     1      25.428  -2.869  -3.486  1.00  0.00    -0.200 F 
ENDBRANCH  73  96
ENDBRANCH  47  48
ENDBRANCH  39  42
ENDBRANCH  37  38
ENDBRANCH  36  37
ENDBRANCH  35  36
ENDBRANCH   1  35
TORSDOF 17
