REMARK SMILES C#CC[N@@H+](CC(=O)NCCCCNC(=O)c1ccc(-c2c3nc(c(-c4c(F)c(F)c(F)c(F)c4F)c4ccc([nH]4)c(-c4c(F)c(F)c(F)c(F)c4F)c4nc(c(-c5c(F)c(F)c(F)c(F)c5F)c5ccc2[nH]5)C=C4)C=C3)cc1)Cc1cn(CC)c2ccccc12
REMARK SMILES IDX 9 1 8 2 6 3 7 4 5 6 4 7 3 9 2 10 1 11 79 12 80 13 81 14
REMARK SMILES IDX 90 15 82 16 85 17 89 18 86 19 88 20 87 21 83 22 84 23 10 24
REMARK SMILES IDX 11 25 12 26 13 27 14 28 15 30 16 31 17 32 78 33 18 34 77 35
REMARK SMILES IDX 19 36 20 37 21 38 71 39 22 40 76 41 70 42 72 43 23 44 75 45
REMARK SMILES IDX 69 46 68 47 24 49 56 50 36 51 55 52 37 53 40 54 54 55 73 56
REMARK SMILES IDX 38 57 39 58 53 60 74 61 41 62 25 63 26 64 34 65 27 66 28 67
REMARK SMILES IDX 32 68 35 69 29 70 30 71 33 72 31 73 57 74 58 75 66 76 59 77
REMARK SMILES IDX 60 78 64 79 67 80 61 81 62 82 65 83 63 84 42 85 43 86 51 87
REMARK SMILES IDX 44 88 45 89 49 90 52 91 46 92 47 93 50 94 48 95
REMARK H PARENT 8 5 4 8 13 29 72 48 40 59
REMARK Flexibility Score: inf
ROOT
ATOM      1  C   UNL     1      -3.466  -2.304   0.998  1.00  0.00     0.116 C 
ENDROOT
BRANCH   1   2
ATOM      2  N   UNL     1      -4.252  -1.260   1.639  1.00  0.00    -0.351 N 
ATOM      3  C   UNL     1      -4.592   0.017   1.276  1.00  0.00     0.275 C 
ATOM      4  O   UNL     1      -5.361   0.591   2.054  1.00  0.00    -0.269 OA
ATOM      5  H   UNL     1      -4.615  -1.526   2.514  1.00  0.00     0.163 HD
BRANCH   3   6
ATOM      6  C   UNL     1      -4.115   0.698  -0.038  1.00  0.00     0.364 C 
BRANCH   6   7
ATOM      7  N   UNL     1      -2.693   1.219  -0.068  1.00  0.00    -0.313 N 
ATOM      8  H   UNL     1      -2.541   1.750  -0.925  1.00  0.00     0.349 HD
BRANCH   7   9
ATOM      9  C   UNL     1      -1.892   0.037   0.063  1.00  0.00     0.354 C 
BRANCH   9  10
ATOM     10  C   UNL     1      -0.372   0.037   0.063  1.00  0.00    -0.047 C 
ATOM     11  C   UNL     1       0.932   0.037   0.063  1.00  0.00     0.010 C 
ENDBRANCH   9  10
ENDBRANCH   7   9
BRANCH   7  12
ATOM     12  C   UNL     1      -2.348   2.190   1.003  1.00  0.00     0.302 C 
BRANCH  12  13
ATOM     13  C   UNL     1      -3.381   3.256   1.040  1.00  0.00     0.032 A 
ATOM     14  C   UNL     1      -4.300   3.445   2.052  1.00  0.00     0.096 A 
ATOM     15  C   UNL     1      -3.779   4.079  -0.049  1.00  0.00     0.008 A 
ATOM     16  N   UNL     1      -5.439   3.919   1.435  1.00  0.00    -0.347 N 
ATOM     17  C   UNL     1      -5.109   4.440   0.194  1.00  0.00     0.048 A 
ATOM     18  C   UNL     1      -3.194   4.361  -1.300  1.00  0.00     0.011 A 
ATOM     19  C   UNL     1      -5.873   5.077  -0.794  1.00  0.00     0.027 A 
ATOM     20  C   UNL     1      -3.944   5.010  -2.278  1.00  0.00     0.001 A 
ATOM     21  C   UNL     1      -5.267   5.357  -2.026  1.00  0.00     0.002 A 
BRANCH  16  22
ATOM     22  C   UNL     1      -6.752   3.437   1.842  1.00  0.00     0.119 C 
ATOM     23  C   UNL     1      -7.797   4.494   2.106  1.00  0.00     0.027 C 
ENDBRANCH  16  22
ENDBRANCH  12  13
ENDBRANCH   7  12
ENDBRANCH   6   7
ENDBRANCH   3   6
ENDBRANCH   1   2
BRANCH   1  24
ATOM     24  C   UNL     1      -2.084  -2.530   1.664  1.00  0.00     0.023 C 
BRANCH  24  25
ATOM     25  C   UNL     1      -2.127  -3.175   3.029  1.00  0.00     0.023 C 
BRANCH  25  26
ATOM     26  C   UNL     1      -2.775  -4.525   2.983  1.00  0.00     0.116 C 
BRANCH  26  27
ATOM     27  N   UNL     1      -2.249  -5.363   1.908  1.00  0.00    -0.352 N 
ATOM     28  C   UNL     1      -2.058  -6.721   1.934  1.00  0.00     0.251 C 
ATOM     29  H   UNL     1      -2.006  -4.902   1.072  1.00  0.00     0.163 HD
ATOM     30  O   UNL     1      -1.488  -7.316   1.044  1.00  0.00    -0.269 OA
BRANCH  28  31
ATOM     31  C   UNL     1      -2.565  -7.403   3.128  1.00  0.00     0.039 A 
ATOM     32  C   UNL     1      -1.679  -8.131   3.916  1.00  0.00     0.014 A 
ATOM     33  C   UNL     1      -3.870  -7.120   3.542  1.00  0.00     0.014 A 
ATOM     34  C   UNL     1      -2.116  -8.576   5.155  1.00  0.00     0.010 A 
ATOM     35  C   UNL     1      -4.241  -7.423   4.833  1.00  0.00     0.010 A 
ATOM     36  C   UNL     1      -3.391  -8.209   5.621  1.00  0.00    -0.014 A 
BRANCH  36  37
ATOM     37  C   UNL     1      -3.921  -8.751   6.884  1.00  0.00     0.031 A 
ATOM     38  C   UNL     1      -5.129  -9.643   6.822  1.00  0.00     0.074 A 
ATOM     39  C   UNL     1      -3.345  -8.413   8.049  1.00  0.00     0.049 A 
ATOM     40  N   UNL     1      -5.788 -10.210   7.797  1.00  0.00    -0.248 NA
ATOM     41  C   UNL     1      -5.711  -9.890   5.489  1.00  0.00     0.031 C 
ATOM     42  C   UNL     1      -2.220  -7.487   8.208  1.00  0.00     0.029 A 
ATOM     43  N   UNL     1      -3.626  -8.819   9.325  1.00  0.00    -0.354 N 
ATOM     44  C   UNL     1      -6.865 -10.845   7.194  1.00  0.00     0.074 A 
ATOM     45  C   UNL     1      -6.831 -10.524   5.789  1.00  0.00     0.031 C 
ATOM     46  C   UNL     1      -1.879  -7.432   9.506  1.00  0.00     0.029 A 
ATOM     47  C   UNL     1      -2.773  -8.299  10.265  1.00  0.00     0.049 A 
ATOM     48  H   UNL     1      -4.369  -9.425   9.547  1.00  0.00     0.167 HD
ATOM     49  C   UNL     1      -7.775 -11.669   7.759  1.00  0.00     0.037 A 
ATOM     50  C   UNL     1      -2.720  -8.527  11.590  1.00  0.00     0.037 A 
ATOM     51  C   UNL     1      -7.746 -12.033   9.146  1.00  0.00     0.049 A 
ATOM     52  C   UNL     1      -3.693  -9.512  12.181  1.00  0.00     0.074 A 
ATOM     53  C   UNL     1      -8.565 -12.911   9.828  1.00  0.00     0.029 A 
ATOM     54  N   UNL     1      -6.824 -11.542  10.060  1.00  0.00    -0.354 N 
ATOM     55  N   UNL     1      -4.663 -10.173  11.593  1.00  0.00    -0.248 NA
ATOM     56  C   UNL     1      -3.549  -9.803  13.611  1.00  0.00     0.031 C 
ATOM     57  C   UNL     1      -8.158 -12.928  11.166  1.00  0.00     0.029 A 
ATOM     58  C   UNL     1      -7.055 -12.097  11.305  1.00  0.00     0.049 A 
ATOM     59  H   UNL     1      -6.112 -10.895   9.853  1.00  0.00     0.167 HD
ATOM     60  C   UNL     1      -5.224 -10.980  12.572  1.00  0.00     0.074 A 
ATOM     61  C   UNL     1      -4.470 -10.739  13.786  1.00  0.00     0.031 C 
ATOM     62  C   UNL     1      -6.269 -11.841  12.484  1.00  0.00     0.037 A 
BRANCH  49  63
ATOM     63  C   UNL     1      -8.843 -12.236   6.871  1.00  0.00     0.064 A 
ATOM     64  C   UNL     1      -8.548 -13.167   5.861  1.00  0.00     0.173 A 
ATOM     65  C   UNL     1     -10.180 -11.845   7.030  1.00  0.00     0.173 A 
ATOM     66  F   UNL     1      -7.281 -13.554   5.649  1.00  0.00    -0.203 F 
ATOM     67  C   UNL     1      -9.546 -13.660   5.026  1.00  0.00     0.198 A 
ATOM     68  C   UNL     1     -11.181 -12.367   6.215  1.00  0.00     0.198 A 
ATOM     69  F   UNL     1     -10.516 -10.953   7.974  1.00  0.00    -0.203 F 
ATOM     70  F   UNL     1      -9.230 -14.499   4.030  1.00  0.00    -0.200 F 
ATOM     71  C   UNL     1     -10.863 -13.266   5.209  1.00  0.00     0.200 A 
ATOM     72  F   UNL     1     -12.454 -11.990   6.397  1.00  0.00    -0.200 F 
ATOM     73  F   UNL     1     -11.824 -13.746   4.408  1.00  0.00    -0.200 F 
ENDBRANCH  49  63
BRANCH  50  74
ATOM     74  C   UNL     1      -1.679  -7.870  12.421  1.00  0.00     0.064 A 
ATOM     75  C   UNL     1      -0.628  -8.611  12.980  1.00  0.00     0.173 A 
ATOM     76  C   UNL     1      -1.713  -6.492  12.678  1.00  0.00     0.173 A 
ATOM     77  F   UNL     1      -0.556  -9.933  12.771  1.00  0.00    -0.203 F 
ATOM     78  C   UNL     1       0.330  -8.005  13.791  1.00  0.00     0.198 A 
ATOM     79  C   UNL     1      -0.739  -5.882  13.466  1.00  0.00     0.198 A 
ATOM     80  F   UNL     1      -2.688  -5.735  12.154  1.00  0.00    -0.203 F 
ATOM     81  F   UNL     1       1.294  -8.746  14.354  1.00  0.00    -0.200 F 
ATOM     82  C   UNL     1       0.275  -6.641  14.031  1.00  0.00     0.200 A 
ATOM     83  F   UNL     1      -0.785  -4.560  13.681  1.00  0.00    -0.200 F 
ATOM     84  F   UNL     1       1.196  -6.058  14.812  1.00  0.00    -0.200 F 
ENDBRANCH  50  74
BRANCH  62  85
ATOM     85  C   UNL     1      -6.617 -12.611  13.721  1.00  0.00     0.064 A 
ATOM     86  C   UNL     1      -7.218 -11.992  14.827  1.00  0.00     0.173 A 
ATOM     87  C   UNL     1      -6.374 -13.991  13.785  1.00  0.00     0.173 A 
ATOM     88  F   UNL     1      -7.459 -10.672  14.814  1.00  0.00    -0.203 F 
ATOM     89  C   UNL     1      -7.527 -12.722  15.969  1.00  0.00     0.198 A 
ATOM     90  C   UNL     1      -6.716 -14.723  14.916  1.00  0.00     0.198 A 
ATOM     91  F   UNL     1      -5.814 -14.628  12.746  1.00  0.00    -0.203 F 
ATOM     92  F   UNL     1      -8.045 -12.101  17.038  1.00  0.00    -0.200 F 
ATOM     93  C   UNL     1      -7.281 -14.087  16.011  1.00  0.00     0.200 A 
ATOM     94  F   UNL     1      -6.494 -16.044  14.949  1.00  0.00    -0.200 F 
ATOM     95  F   UNL     1      -7.582 -14.788  17.112  1.00  0.00    -0.200 F 
ENDBRANCH  62  85
ENDBRANCH  36  37
ENDBRANCH  28  31
ENDBRANCH  26  27
ENDBRANCH  25  26
ENDBRANCH  24  25
ENDBRANCH   1  24
TORSDOF 17
