REMARK SMILES Cc1c([C@@H]2[C@H](C(=O)NCCCCNC(=O)c3ccc(-c4c5nc(c(-c6c(F)c(F)c(F)c(F)c6F)c6ccc([nH]6)c(-c6c(F)c(F)c(F)c(F)c6F)c6nc(c(-c7c(F)c(F)c(F)c(F)c7F)c7ccc4[nH]7)C=C6)C=C5)cc3)CC(=O)N2C(C)C)cnn1C
REMARK SMILES IDX 11 1 10 2 9 3 8 4 6 5 7 6 5 8 4 9 82 10 79 11 80 12 81 13
REMARK SMILES IDX 3 14 1 15 2 16 88 17 86 18 87 19 89 20 83 21 84 22 85 23
REMARK SMILES IDX 12 24 13 25 14 26 15 28 16 29 17 30 78 31 18 32 77 33 19 34
REMARK SMILES IDX 20 35 21 36 71 37 22 38 76 39 70 40 72 41 23 42 75 43 69 44
REMARK SMILES IDX 68 45 24 47 56 48 36 49 55 50 37 51 40 52 54 53 73 54 38 55
REMARK SMILES IDX 39 56 53 58 74 59 41 60 25 61 26 62 34 63 27 64 28 65 32 66
REMARK SMILES IDX 35 67 29 68 30 69 33 70 31 71 57 72 58 73 66 74 59 75 60 76
REMARK SMILES IDX 64 77 67 78 61 79 62 80 65 81 63 82 42 83 43 84 51 85 44 86
REMARK SMILES IDX 45 87 49 88 52 89 46 90 47 91 50 92 48 93
REMARK H PARENT 8 7 13 27 72 46 40 57
REMARK Flexibility Score: inf
ROOT
ATOM      1  C   UNL     1      -5.364  -3.301   2.449  1.00  0.00     0.023 C 
ENDROOT
BRANCH   1   2
ATOM      2  C   UNL     1      -3.951  -3.744   2.082  1.00  0.00     0.023 C 
BRANCH   2   3
ATOM      3  C   UNL     1      -3.866  -4.721   0.916  1.00  0.00     0.116 C 
BRANCH   3   4
ATOM      4  N   UNL     1      -3.623  -4.033  -0.344  1.00  0.00    -0.356 N 
ATOM      5  C   UNL     1      -2.523  -3.648  -1.036  1.00  0.00     0.226 C 
ATOM      6  O   UNL     1      -2.760  -3.044  -2.091  1.00  0.00    -0.275 OA
ATOM      7  H   UNL     1      -4.458  -3.789  -0.804  1.00  0.00     0.163 HD
BRANCH   5   8
ATOM      8  C   UNL     1      -1.063  -3.868  -0.642  1.00  0.00     0.115 C 
ATOM      9  C   UNL     1      -0.379  -2.797   0.198  1.00  0.00     0.132 C 
ATOM     10  N   UNL     1      -0.706  -3.175   1.561  1.00  0.00    -0.332 N 
ATOM     11  C   UNL     1      -0.765  -5.111   0.183  1.00  0.00     0.116 C 
ATOM     12  C   UNL     1      -0.783  -4.575   1.605  1.00  0.00     0.224 C 
ATOM     13  O   UNL     1      -0.838  -5.273   2.604  1.00  0.00    -0.275 OA
BRANCH   9  14
ATOM     14  C   UNL     1      -0.480  -1.360  -0.153  1.00  0.00     0.016 A 
ATOM     15  C   UNL     1       2.060  -0.759  -0.372  1.00  0.00     0.067 C 
ATOM     16  C   UNL     1       0.595  -0.493  -0.340  1.00  0.00     0.040 A 
ATOM     17  N   UNL     1       0.048   0.757  -0.475  1.00  0.00    -0.273 N 
ATOM     18  C   UNL     1      -1.611  -0.544  -0.374  1.00  0.00     0.141 A 
ATOM     19  N   UNL     1      -1.293   0.741  -0.551  1.00  0.00    -0.181 NA
ATOM     20  C   UNL     1       0.745   2.022  -0.443  1.00  0.00     0.174 C 
ENDBRANCH   9  14
BRANCH  10  21
ATOM     21  C   UNL     1      -0.529  -2.386   2.795  1.00  0.00     0.079 C 
ATOM     22  C   UNL     1       0.940  -2.113   3.103  1.00  0.00     0.031 C 
ATOM     23  C   UNL     1      -1.339  -1.091   2.888  1.00  0.00     0.031 C 
ENDBRANCH  10  21
ENDBRANCH   5   8
ENDBRANCH   3   4
ENDBRANCH   2   3
ENDBRANCH   1   2
BRANCH   1  24
ATOM     24  C   UNL     1      -6.275  -4.414   2.947  1.00  0.00     0.116 C 
BRANCH  24  25
ATOM     25  N   UNL     1      -5.787  -5.103   4.132  1.00  0.00    -0.352 N 
ATOM     26  C   UNL     1      -6.532  -5.701   5.127  1.00  0.00     0.251 C 
ATOM     27  H   UNL     1      -4.809  -5.148   4.236  1.00  0.00     0.163 HD
ATOM     28  O   UNL     1      -6.002  -6.190   6.111  1.00  0.00    -0.269 OA
BRANCH  26  29
ATOM     29  C   UNL     1      -8.005  -5.689   5.002  1.00  0.00     0.039 A 
ATOM     30  C   UNL     1      -8.764  -5.165   6.051  1.00  0.00     0.014 A 
ATOM     31  C   UNL     1      -8.619  -6.108   3.820  1.00  0.00     0.014 A 
ATOM     32  C   UNL     1     -10.136  -4.979   5.878  1.00  0.00     0.010 A 
ATOM     33  C   UNL     1      -9.970  -5.850   3.621  1.00  0.00     0.010 A 
ATOM     34  C   UNL     1     -10.740  -5.277   4.645  1.00  0.00    -0.014 A 
BRANCH  34  35
ATOM     35  C   UNL     1     -12.174  -4.991   4.397  1.00  0.00     0.031 A 
ATOM     36  C   UNL     1     -13.123  -6.121   4.113  1.00  0.00     0.074 A 
ATOM     37  C   UNL     1     -12.603  -3.715   4.345  1.00  0.00     0.049 A 
ATOM     38  N   UNL     1     -14.386  -6.077   3.776  1.00  0.00    -0.248 NA
ATOM     39  C   UNL     1     -12.567  -7.481   4.186  1.00  0.00     0.031 C 
ATOM     40  C   UNL     1     -11.767  -2.531   4.547  1.00  0.00     0.029 A 
ATOM     41  N   UNL     1     -13.851  -3.201   4.092  1.00  0.00    -0.354 N 
ATOM     42  C   UNL     1     -14.768  -7.396   3.575  1.00  0.00     0.074 A 
ATOM     43  C   UNL     1     -13.591  -8.214   3.776  1.00  0.00     0.031 C 
ATOM     44  C   UNL     1     -12.529  -1.430   4.434  1.00  0.00     0.029 A 
ATOM     45  C   UNL     1     -13.897  -1.829   4.117  1.00  0.00     0.049 A 
ATOM     46  H   UNL     1     -14.638  -3.763   3.909  1.00  0.00     0.167 HD
ATOM     47  C   UNL     1     -15.995  -7.884   3.276  1.00  0.00     0.037 A 
ATOM     48  C   UNL     1     -14.927  -0.988   3.905  1.00  0.00     0.037 A 
ATOM     49  C   UNL     1     -17.170  -7.071   3.115  1.00  0.00     0.049 A 
ATOM     50  C   UNL     1     -16.284  -1.557   3.590  1.00  0.00     0.074 A 
ATOM     51  C   UNL     1     -18.472  -7.473   2.876  1.00  0.00     0.029 A 
ATOM     52  N   UNL     1     -17.184  -5.685   3.181  1.00  0.00    -0.354 N 
ATOM     53  N   UNL     1     -16.648  -2.810   3.467  1.00  0.00    -0.248 NA
ATOM     54  C   UNL     1     -17.375  -0.593   3.388  1.00  0.00     0.031 C 
ATOM     55  C   UNL     1     -19.269  -6.329   2.765  1.00  0.00     0.029 A 
ATOM     56  C   UNL     1     -18.471  -5.216   2.974  1.00  0.00     0.049 A 
ATOM     57  H   UNL     1     -16.396  -5.120   3.350  1.00  0.00     0.167 HD
ATOM     58  C   UNL     1     -18.010  -2.788   3.201  1.00  0.00     0.074 A 
ATOM     59  C   UNL     1     -18.411  -1.397   3.192  1.00  0.00     0.031 C 
ATOM     60  C   UNL     1     -18.852  -3.827   2.982  1.00  0.00     0.037 A 
BRANCH  47  61
ATOM     61  C   UNL     1     -16.126  -9.370   3.116  1.00  0.00     0.064 A 
ATOM     62  C   UNL     1     -16.029 -10.236   4.216  1.00  0.00     0.173 A 
ATOM     63  C   UNL     1     -16.376  -9.932   1.856  1.00  0.00     0.173 A 
ATOM     64  F   UNL     1     -15.777  -9.748   5.440  1.00  0.00    -0.203 F 
ATOM     65  C   UNL     1     -16.146 -11.614   4.054  1.00  0.00     0.198 A 
ATOM     66  C   UNL     1     -16.522 -11.309   1.703  1.00  0.00     0.198 A 
ATOM     67  F   UNL     1     -16.482  -9.148   0.773  1.00  0.00    -0.203 F 
ATOM     68  F   UNL     1     -15.998 -12.425   5.111  1.00  0.00    -0.200 F 
ATOM     69  C   UNL     1     -16.399 -12.148   2.800  1.00  0.00     0.200 A 
ATOM     70  F   UNL     1     -16.776 -11.823   0.492  1.00  0.00    -0.200 F 
ATOM     71  F   UNL     1     -16.516 -13.475   2.647  1.00  0.00    -0.200 F 
ENDBRANCH  47  61
BRANCH  48  72
ATOM     72  C   UNL     1     -14.726   0.479   4.019  1.00  0.00     0.064 A 
ATOM     73  C   UNL     1     -15.269   1.195   5.095  1.00  0.00     0.173 A 
ATOM     74  C   UNL     1     -13.995   1.195   3.060  1.00  0.00     0.173 A 
ATOM     75  F   UNL     1     -15.994   0.556   6.025  1.00  0.00    -0.203 F 
ATOM     76  C   UNL     1     -15.105   2.574   5.198  1.00  0.00     0.198 A 
ATOM     77  C   UNL     1     -13.810   2.571   3.178  1.00  0.00     0.198 A 
ATOM     78  F   UNL     1     -13.451   0.556   2.014  1.00  0.00    -0.203 F 
ATOM     79  F   UNL     1     -15.671   3.240   6.214  1.00  0.00    -0.200 F 
ATOM     80  C   UNL     1     -14.372   3.261   4.242  1.00  0.00     0.200 A 
ATOM     81  F   UNL     1     -13.092   3.230   2.259  1.00  0.00    -0.200 F 
ATOM     82  F   UNL     1     -14.213   4.588   4.343  1.00  0.00    -0.200 F 
ENDBRANCH  48  72
BRANCH  60  83
ATOM     83  C   UNL     1     -20.297  -3.502   2.750  1.00  0.00     0.064 A 
ATOM     84  C   UNL     1     -20.739  -2.947   1.541  1.00  0.00     0.173 A 
ATOM     85  C   UNL     1     -21.256  -3.796   3.732  1.00  0.00     0.173 A 
ATOM     86  F   UNL     1     -19.858  -2.635   0.580  1.00  0.00    -0.203 F 
ATOM     87  C   UNL     1     -22.089  -2.679   1.331  1.00  0.00     0.198 A 
ATOM     88  C   UNL     1     -22.607  -3.551   3.507  1.00  0.00     0.198 A 
ATOM     89  F   UNL     1     -20.882  -4.333   4.903  1.00  0.00    -0.203 F 
ATOM     90  F   UNL     1     -22.486  -2.112   0.183  1.00  0.00    -0.200 F 
ATOM     91  C   UNL     1     -23.022  -2.989   2.309  1.00  0.00     0.200 A 
ATOM     92  F   UNL     1     -23.509  -3.861   4.449  1.00  0.00    -0.200 F 
ATOM     93  F   UNL     1     -24.322  -2.738   2.101  1.00  0.00    -0.200 F 
ENDBRANCH  60  83
ENDBRANCH  34  35
ENDBRANCH  26  29
ENDBRANCH  24  25
ENDBRANCH   1  24
TORSDOF 13
