REMARK SMILES O=C(NCCCCNC(=O)[C@@H]1CCCN(c2ccc3cc(S(=O)(=O)N4CCCCC4)ccc3n2)C1)c1ccc(-c2c3nc(c(-c4c(F)c(F)c(F)c(F)c4F)c4ccc([nH]4)c(-c4c(F)c(F)c(F)c(F)c4F)c4nc(c(-c5c(F)c(F)c(F)c(F)c5F)c5ccc2[nH]5)C=C4)C=C3)cc1
REMARK SMILES IDX 6 1 5 2 4 3 3 4 1 5 2 6 36 8 37 9 98 10 38 11 97 12 39 13
REMARK SMILES IDX 40 14 41 15 91 16 42 17 96 18 90 19 92 20 43 21 95 22 89 23
REMARK SMILES IDX 88 24 44 26 76 27 56 28 75 29 57 30 60 31 74 32 93 33 58 34
REMARK SMILES IDX 59 35 73 37 94 38 61 39 45 40 46 41 54 42 47 43 48 44 52 45
REMARK SMILES IDX 55 46 49 47 50 48 53 49 51 50 77 51 78 52 86 53 79 54 80 55
REMARK SMILES IDX 84 56 87 57 81 58 82 59 85 60 83 61 62 62 63 63 71 64 64 65
REMARK SMILES IDX 65 66 69 67 72 68 66 69 67 70 70 71 68 72 7 73 8 74 9 75
REMARK SMILES IDX 10 77 11 78 12 79 35 80 13 81 15 82 14 83 16 84 17 85 34 86
REMARK SMILES IDX 18 87 33 88 19 89 32 90 20 91 31 92 21 93 22 94 23 95 24 96
REMARK SMILES IDX 25 97 26 98 30 99 27 100 29 101 28 102
REMARK H PARENT 3 7 92 25 60 36 8 76
REMARK Flexibility Score: inf
ROOT
ATOM      1  C   UNL     1       4.589   3.484  -1.196  1.00  0.00     0.023 C 
ENDROOT
BRANCH   1   2
ATOM      2  C   UNL     1       5.017   2.045  -1.457  1.00  0.00     0.023 C 
BRANCH   2   3
ATOM      3  C   UNL     1       4.649   1.076  -0.344  1.00  0.00     0.116 C 
BRANCH   3   4
ATOM      4  N   UNL     1       3.217   1.016  -0.085  1.00  0.00    -0.352 N 
ATOM      5  O   UNL     1       1.206  -0.005   0.125  1.00  0.00    -0.269 OA
ATOM      6  C   UNL     1       2.425  -0.099   0.046  1.00  0.00     0.251 C 
ATOM      7  H   UNL     1       2.759   1.883   0.007  1.00  0.00     0.163 HD
BRANCH   6   8
ATOM      8  C   UNL     1       3.077  -1.422   0.056  1.00  0.00     0.039 A 
ATOM      9  C   UNL     1       4.199  -1.633   0.860  1.00  0.00     0.014 A 
ATOM     10  C   UNL     1       2.611  -2.425  -0.795  1.00  0.00     0.014 A 
ATOM     11  C   UNL     1       4.951  -2.785   0.692  1.00  0.00     0.010 A 
ATOM     12  C   UNL     1       3.308  -3.631  -0.878  1.00  0.00     0.010 A 
ATOM     13  C   UNL     1       4.500  -3.808  -0.157  1.00  0.00    -0.014 A 
BRANCH  13  14
ATOM     14  C   UNL     1       5.251  -5.087  -0.202  1.00  0.00     0.031 A 
ATOM     15  C   UNL     1       5.894  -5.576  -1.467  1.00  0.00     0.074 A 
ATOM     16  C   UNL     1       5.359  -5.797   0.938  1.00  0.00     0.049 A 
ATOM     17  N   UNL     1       6.574  -6.677  -1.671  1.00  0.00    -0.248 NA
ATOM     18  C   UNL     1       5.752  -4.730  -2.662  1.00  0.00     0.031 C 
ATOM     19  C   UNL     1       4.767  -5.417   2.224  1.00  0.00     0.029 A 
ATOM     20  N   UNL     1       6.008  -6.973   1.208  1.00  0.00    -0.354 N 
ATOM     21  C   UNL     1       6.925  -6.666  -3.014  1.00  0.00     0.074 A 
ATOM     22  C   UNL     1       6.359  -5.462  -3.587  1.00  0.00     0.031 C 
ATOM     23  C   UNL     1       5.117  -6.316   3.153  1.00  0.00     0.029 A 
ATOM     24  C   UNL     1       5.886  -7.375   2.515  1.00  0.00     0.049 A 
ATOM     25  H   UNL     1       6.513  -7.479   0.531  1.00  0.00     0.167 HD
ATOM     26  C   UNL     1       7.658  -7.577  -3.699  1.00  0.00     0.037 A 
ATOM     27  C   UNL     1       6.317  -8.492   3.128  1.00  0.00     0.037 A 
ATOM     28  C   UNL     1       8.220  -8.769  -3.113  1.00  0.00     0.049 A 
ATOM     29  C   UNL     1       7.085  -9.504   2.329  1.00  0.00     0.074 A 
ATOM     30  C   UNL     1       9.006  -9.738  -3.715  1.00  0.00     0.029 A 
ATOM     31  N   UNL     1       8.049  -9.161  -1.793  1.00  0.00    -0.354 N 
ATOM     32  N   UNL     1       7.443  -9.464   1.069  1.00  0.00    -0.248 NA
ATOM     33  C   UNL     1       7.508 -10.718   3.037  1.00  0.00     0.031 C 
ATOM     34  C   UNL     1       9.255 -10.745  -2.778  1.00  0.00     0.029 A 
ATOM     35  C   UNL     1       8.687 -10.372  -1.571  1.00  0.00     0.049 A 
ATOM     36  H   UNL     1       7.548  -8.654  -1.114  1.00  0.00     0.167 HD
ATOM     37  C   UNL     1       8.156 -10.632   0.839  1.00  0.00     0.074 A 
ATOM     38  C   UNL     1       8.197 -11.348   2.098  1.00  0.00     0.031 C 
ATOM     39  C   UNL     1       8.725 -11.071  -0.310  1.00  0.00     0.037 A 
BRANCH  26  40
ATOM     40  C   UNL     1       7.882  -7.342  -5.167  1.00  0.00     0.064 A 
ATOM     41  C   UNL     1       8.709  -6.310  -5.635  1.00  0.00     0.173 A 
ATOM     42  C   UNL     1       7.309  -8.202  -6.118  1.00  0.00     0.173 A 
ATOM     43  F   UNL     1       9.275  -5.454  -4.772  1.00  0.00    -0.203 F 
ATOM     44  C   UNL     1       8.936  -6.135  -6.999  1.00  0.00     0.198 A 
ATOM     45  C   UNL     1       7.564  -8.043  -7.478  1.00  0.00     0.198 A 
ATOM     46  F   UNL     1       6.516  -9.211  -5.727  1.00  0.00    -0.203 F 
ATOM     47  F   UNL     1       9.696  -5.116  -7.424  1.00  0.00    -0.200 F 
ATOM     48  C   UNL     1       8.371  -7.006  -7.918  1.00  0.00     0.200 A 
ATOM     49  F   UNL     1       7.031  -8.898  -8.363  1.00  0.00    -0.200 F 
ATOM     50  F   UNL     1       8.602  -6.844  -9.228  1.00  0.00    -0.200 F 
ENDBRANCH  26  40
BRANCH  27  51
ATOM     51  C   UNL     1       6.012  -8.711   4.565  1.00  0.00     0.064 A 
ATOM     52  C   UNL     1       7.033  -8.738   5.525  1.00  0.00     0.173 A 
ATOM     53  C   UNL     1       4.694  -8.900   5.008  1.00  0.00     0.173 A 
ATOM     54  F   UNL     1       8.310  -8.576   5.149  1.00  0.00    -0.203 F 
ATOM     55  C   UNL     1       6.749  -8.974   6.868  1.00  0.00     0.198 A 
ATOM     56  C   UNL     1       4.409  -9.097   6.357  1.00  0.00     0.198 A 
ATOM     57  F   UNL     1       3.679  -8.873   4.132  1.00  0.00    -0.203 F 
ATOM     58  F   UNL     1       7.749  -9.050   7.757  1.00  0.00    -0.200 F 
ATOM     59  C   UNL     1       5.438  -9.146   7.284  1.00  0.00     0.200 A 
ATOM     60  F   UNL     1       3.138  -9.241   6.756  1.00  0.00    -0.200 F 
ATOM     61  F   UNL     1       5.166  -9.368   8.577  1.00  0.00    -0.200 F 
ENDBRANCH  27  51
BRANCH  39  62
ATOM     62  C   UNL     1       9.482 -12.367  -0.247  1.00  0.00     0.064 A 
ATOM     63  C   UNL     1       8.831 -13.597  -0.070  1.00  0.00     0.173 A 
ATOM     64  C   UNL     1      10.878 -12.377  -0.391  1.00  0.00     0.173 A 
ATOM     65  F   UNL     1       7.500 -13.640   0.090  1.00  0.00    -0.203 F 
ATOM     66  C   UNL     1       9.553 -14.786  -0.009  1.00  0.00     0.198 A 
ATOM     67  C   UNL     1      11.592 -13.571  -0.366  1.00  0.00     0.198 A 
ATOM     68  F   UNL     1      11.549 -11.229  -0.568  1.00  0.00    -0.203 F 
ATOM     69  F   UNL     1       8.917 -15.943   0.220  1.00  0.00    -0.200 F 
ATOM     70  C   UNL     1      10.931 -14.773  -0.165  1.00  0.00     0.200 A 
ATOM     71  F   UNL     1      12.922 -13.558  -0.535  1.00  0.00    -0.200 F 
ATOM     72  F   UNL     1      11.624 -15.919  -0.114  1.00  0.00    -0.200 F 
ENDBRANCH  39  62
ENDBRANCH  13  14
ENDBRANCH   6   8
ENDBRANCH   3   4
ENDBRANCH   2   3
ENDBRANCH   1   2
BRANCH   1  73
ATOM     73  C   UNL     1       5.182   4.059   0.084  1.00  0.00     0.116 C 
BRANCH  73  74
ATOM     74  N   UNL     1       6.562   4.469  -0.121  1.00  0.00    -0.356 N 
ATOM     75  C   UNL     1       7.059   5.747  -0.203  1.00  0.00     0.224 C 
ATOM     76  H   UNL     1       7.220   3.742  -0.212  1.00  0.00     0.163 HD
ATOM     77  O   UNL     1       8.252   5.911  -0.448  1.00  0.00    -0.275 OA
BRANCH  75  78
ATOM     78  C   UNL     1       6.094   6.883   0.093  1.00  0.00     0.098 C 
ATOM     79  C   UNL     1       6.451   8.225  -0.579  1.00  0.00     0.017 C 
ATOM     80  C   UNL     1       5.877   6.891   1.613  1.00  0.00     0.131 C 
ATOM     81  C   UNL     1       6.915   9.368   0.330  1.00  0.00     0.022 C 
ATOM     82  N   UNL     1       6.543   8.008   2.228  1.00  0.00    -0.356 N 
ATOM     83  C   UNL     1       6.267   9.322   1.706  1.00  0.00     0.118 C 
BRANCH  82  84
ATOM     84  C   UNL     1       7.360   7.860   3.313  1.00  0.00     0.129 A 
ATOM     85  C   UNL     1       8.552   7.147   3.230  1.00  0.00     0.047 A 
ATOM     86  N   UNL     1       6.972   8.455   4.453  1.00  0.00    -0.231 NA
ATOM     87  C   UNL     1       9.380   7.062   4.348  1.00  0.00     0.014 A 
ATOM     88  C   UNL     1       7.744   8.340   5.537  1.00  0.00     0.073 A 
ATOM     89  C   UNL     1       8.980   7.665   5.543  1.00  0.00     0.002 A 
ATOM     90  C   UNL     1       7.293   8.914   6.708  1.00  0.00     0.030 A 
ATOM     91  C   UNL     1       9.751   7.616   6.721  1.00  0.00     0.032 A 
ATOM     92  C   UNL     1       8.038   8.853   7.885  1.00  0.00     0.024 A 
ATOM     93  C   UNL     1       9.275   8.215   7.894  1.00  0.00     0.083 A 
BRANCH  93  94
ATOM     94  S   UNL     1      10.315   8.118   9.342  1.00  0.00     0.243 S 
ATOM     95  O   UNL     1      10.382   6.711   9.687  1.00  0.00    -0.207 OA
ATOM     96  O   UNL     1      11.507   8.872   9.027  1.00  0.00    -0.207 OA
BRANCH  94  97
ATOM     97  N   UNL     1       9.507   8.927  10.614  1.00  0.00    -0.198 NA
ATOM     98  C   UNL     1       9.455  10.407  10.517  1.00  0.00     0.102 C 
ATOM     99  C   UNL     1       8.342   8.220  11.202  1.00  0.00     0.102 C 
ATOM    100  C   UNL     1       8.890  11.048  11.777  1.00  0.00     0.017 C 
ATOM    101  C   UNL     1       7.806   8.924  12.441  1.00  0.00     0.017 C 
ATOM    102  C   UNL     1       7.574  10.404  12.184  1.00  0.00     0.003 C 
ENDBRANCH  94  97
ENDBRANCH  93  94
ENDBRANCH  82  84
ENDBRANCH  75  78
ENDBRANCH  73  74
ENDBRANCH   1  73
TORSDOF 14
