REMARK SMILES CCOc1cc2c(cc1/C=C1/C(=O)N(c3cccc(C(=O)NCCCCNC(=O)c4ccc(-c5c6nc(c(-c7c(F)c(F)c(F)c(F)c7F)c7ccc([nH]7)c(-c7c(F)c(F)c(F)c(F)c7F)c7nc(c(-c8c(F)c(F)c(F)c(F)c8F)c8ccc5[nH]8)C=C7)C=C6)cc4)c3)C(=S)N=C1O)OCO2
REMARK SMILES IDX 23 1 22 2 20 3 21 4 19 6 15 7 16 8 93 9 17 10 18 11 14 12
REMARK SMILES IDX 10 13 11 14 12 15 97 16 13 17 96 18 94 19 95 20 9 21 4 22
REMARK SMILES IDX 5 23 6 24 8 25 7 26 101 27 99 28 100 29 3 30 2 31 1 32 98 33
REMARK SMILES IDX 24 35 25 36 26 37 27 38 28 39 29 41 30 42 31 43 92 44 32 45
REMARK SMILES IDX 91 46 33 47 34 48 35 49 85 50 36 51 90 52 84 53 86 54 37 55
REMARK SMILES IDX 89 56 83 57 82 58 38 60 70 61 50 62 69 63 51 64 54 65 68 66
REMARK SMILES IDX 87 67 52 68 53 69 67 71 88 72 55 73 39 74 40 75 48 76 41 77
REMARK SMILES IDX 42 78 46 79 49 80 43 81 44 82 47 83 45 84 71 85 72 86 80 87
REMARK SMILES IDX 73 88 74 89 78 90 81 91 75 92 76 93 79 94 77 95 56 96 57 97
REMARK SMILES IDX 65 98 58 99 59 100 63 101 66 102 60 103 61 104 64 105 62 106
REMARK H PARENT 22 5 98 34 27 40 86 59 54 70
REMARK Flexibility Score: inf
ROOT
ATOM      1  C   UNL     1       0.094   2.454  -9.149  1.00  0.00     0.116 C 
ENDROOT
BRANCH   1   2
ATOM      2  N   UNL     1      -0.983   2.283 -10.112  1.00  0.00    -0.352 N 
ATOM      3  C   UNL     1      -1.433   1.155 -10.770  1.00  0.00     0.251 C 
ATOM      4  O   UNL     1      -2.381   1.262 -11.546  1.00  0.00    -0.269 OA
ATOM      5  H   UNL     1      -1.472   3.108 -10.332  1.00  0.00     0.163 HD
BRANCH   3   6
ATOM      6  C   UNL     1      -0.752  -0.162 -10.628  1.00  0.00     0.041 A 
ATOM      7  C   UNL     1       0.835  -1.563  -9.447  1.00  0.00     0.052 A 
ATOM      8  C   UNL     1       0.901  -2.401 -10.572  1.00  0.00     0.027 A 
ATOM      9  C   UNL     1      -0.120  -0.544  -9.443  1.00  0.00     0.040 A 
ATOM     10  C   UNL     1       0.128  -2.138 -11.706  1.00  0.00     0.003 A 
ATOM     11  C   UNL     1      -0.662  -0.991 -11.752  1.00  0.00     0.014 A 
BRANCH   7  12
ATOM     12  N   UNL     1       1.828  -1.631  -8.394  1.00  0.00    -0.251 N 
ATOM     13  C   UNL     1       2.242  -0.939  -4.816  1.00  0.00     0.031 C 
ATOM     14  C   UNL     1       2.514  -1.443  -6.044  1.00  0.00     0.103 C 
ATOM     15  C   UNL     1       1.413  -1.440  -7.063  1.00  0.00     0.270 C 
ATOM     16  C   UNL     1       3.752  -2.032  -6.542  1.00  0.00     0.226 C 
ATOM     17  O   UNL     1       0.248  -1.263  -6.705  1.00  0.00    -0.268 OA
ATOM     18  N   UNL     1       4.074  -2.183  -7.768  1.00  0.00    -0.184 NA
ATOM     19  C   UNL     1       3.203  -1.720  -8.723  1.00  0.00     0.210 C 
ATOM     20  S   UNL     1       3.888  -1.210 -10.197  1.00  0.00    -0.038 S 
BRANCH  13  21
ATOM     21  C   UNL     1       3.082  -0.865  -3.594  1.00  0.00     0.021 A 
ATOM     22  C   UNL     1       2.509  -1.094  -2.313  1.00  0.00     0.130 A 
ATOM     23  C   UNL     1       3.304  -1.285  -1.177  1.00  0.00     0.097 A 
ATOM     24  C   UNL     1       4.659  -1.121  -1.314  1.00  0.00     0.169 A 
ATOM     25  C   UNL     1       4.456  -0.581  -3.653  1.00  0.00     0.062 A 
ATOM     26  C   UNL     1       5.216  -0.750  -2.511  1.00  0.00     0.166 A 
ATOM     27  O   UNL     1       5.583  -1.287  -0.333  1.00  0.00    -0.453 OA
ATOM     28  O   UNL     1       6.569  -0.628  -2.431  1.00  0.00    -0.454 OA
ATOM     29  C   UNL     1       6.799  -1.057  -1.071  1.00  0.00     0.468 C 
BRANCH  22  30
ATOM     30  O   UNL     1       1.146  -1.198  -2.155  1.00  0.00    -0.493 OA
BRANCH  30  31
ATOM     31  C   UNL     1       0.587   0.023  -1.631  1.00  0.00     0.226 C 
ATOM     32  C   UNL     1       0.559   0.046  -0.108  1.00  0.00     0.049 C 
ENDBRANCH  30  31
ENDBRANCH  22  30
ENDBRANCH  13  21
BRANCH  16  33
ATOM     33  O   UNL     1       4.618  -2.506  -5.650  1.00  0.00    -0.493 OA
ATOM     34  H   UNL     1       4.439  -2.425  -4.734  1.00  0.00     0.295 HD
ENDBRANCH  16  33
ENDBRANCH   7  12
ENDBRANCH   3   6
ENDBRANCH   1   2
BRANCH   1  35
ATOM     35  C   UNL     1       0.924   3.718  -9.316  1.00  0.00     0.023 C 
BRANCH  35  36
ATOM     36  C   UNL     1       0.185   5.039  -9.171  1.00  0.00     0.023 C 
BRANCH  36  37
ATOM     37  C   UNL     1      -0.679   5.190  -7.926  1.00  0.00     0.116 C 
BRANCH  37  38
ATOM     38  N   UNL     1       0.048   5.024  -6.675  1.00  0.00    -0.352 N 
ATOM     39  C   UNL     1       0.122   5.857  -5.579  1.00  0.00     0.251 C 
ATOM     40  H   UNL     1       0.565   4.190  -6.601  1.00  0.00     0.163 HD
ATOM     41  O   UNL     1       0.849   5.575  -4.639  1.00  0.00    -0.269 OA
BRANCH  39  42
ATOM     42  C   UNL     1      -0.646   7.123  -5.566  1.00  0.00     0.039 A 
ATOM     43  C   UNL     1       0.010   8.303  -5.205  1.00  0.00     0.014 A 
ATOM     44  C   UNL     1      -1.989   7.154  -5.946  1.00  0.00     0.014 A 
ATOM     45  C   UNL     1      -0.654   9.527  -5.325  1.00  0.00     0.010 A 
ATOM     46  C   UNL     1      -2.619   8.379  -6.148  1.00  0.00     0.010 A 
ATOM     47  C   UNL     1      -1.955   9.579  -5.850  1.00  0.00    -0.014 A 
BRANCH  47  48
ATOM     48  C   UNL     1      -2.630  10.875  -6.120  1.00  0.00     0.031 A 
ATOM     49  C   UNL     1      -3.902  11.231  -5.405  1.00  0.00     0.074 A 
ATOM     50  C   UNL     1      -2.142  11.694  -7.073  1.00  0.00     0.049 A 
ATOM     51  N   UNL     1      -4.678  12.274  -5.563  1.00  0.00    -0.248 NA
ATOM     52  C   UNL     1      -4.385  10.272  -4.399  1.00  0.00     0.031 C 
ATOM     53  C   UNL     1      -0.949  11.435  -7.881  1.00  0.00     0.029 A 
ATOM     54  N   UNL     1      -2.596  12.905  -7.534  1.00  0.00    -0.354 N 
ATOM     55  C   UNL     1      -5.744  12.087  -4.693  1.00  0.00     0.074 A 
ATOM     56  C   UNL     1      -5.545  10.806  -4.050  1.00  0.00     0.031 C 
ATOM     57  C   UNL     1      -0.754  12.464  -8.721  1.00  0.00     0.029 A 
ATOM     58  C   UNL     1      -1.827  13.437  -8.540  1.00  0.00     0.049 A 
ATOM     59  H   UNL     1      -3.399  13.350  -7.177  1.00  0.00     0.167 HD
ATOM     60  C   UNL     1      -6.782  12.918  -4.436  1.00  0.00     0.037 A 
ATOM     61  C   UNL     1      -1.973  14.576  -9.242  1.00  0.00     0.037 A 
ATOM     62  C   UNL     1      -6.963  14.204  -5.058  1.00  0.00     0.049 A 
ATOM     63  C   UNL     1      -3.132  15.485  -8.935  1.00  0.00     0.074 A 
ATOM     64  C   UNL     1      -7.940  15.152  -4.812  1.00  0.00     0.029 A 
ATOM     65  N   UNL     1      -6.148  14.720  -6.056  1.00  0.00    -0.354 N 
ATOM     66  N   UNL     1      -4.090  15.335  -8.053  1.00  0.00    -0.248 NA
ATOM     67  C   UNL     1      -3.227  16.725  -9.718  1.00  0.00     0.031 C 
ATOM     68  C   UNL     1      -7.746  16.220  -5.694  1.00  0.00     0.029 A 
ATOM     69  C   UNL     1      -6.616  15.962  -6.453  1.00  0.00     0.049 A 
ATOM     70  H   UNL     1      -5.355  14.270  -6.426  1.00  0.00     0.167 HD
ATOM     71  C   UNL     1      -4.885  16.468  -8.156  1.00  0.00     0.074 A 
ATOM     72  C   UNL     1      -4.288  17.306  -9.175  1.00  0.00     0.031 C 
ATOM     73  C   UNL     1      -6.009  16.786  -7.468  1.00  0.00     0.037 A 
BRANCH  60  74
ATOM     74  C   UNL     1      -7.802  12.463  -3.432  1.00  0.00     0.064 A 
ATOM     75  C   UNL     1      -7.497  12.361  -2.066  1.00  0.00     0.173 A 
ATOM     76  C   UNL     1      -9.109  12.152  -3.836  1.00  0.00     0.173 A 
ATOM     77  F   UNL     1      -6.258  12.636  -1.629  1.00  0.00    -0.203 F 
ATOM     78  C   UNL     1      -8.451  11.933  -1.148  1.00  0.00     0.198 A 
ATOM     79  C   UNL     1     -10.070  11.755  -2.910  1.00  0.00     0.198 A 
ATOM     80  F   UNL     1      -9.457  12.239  -5.129  1.00  0.00    -0.203 F 
ATOM     81  F   UNL     1      -8.120  11.791   0.143  1.00  0.00    -0.200 F 
ATOM     82  C   UNL     1      -9.739  11.637  -1.569  1.00  0.00     0.200 A 
ATOM     83  F   UNL     1     -11.318  11.483  -3.316  1.00  0.00    -0.200 F 
ATOM     84  F   UNL     1     -10.658  11.230  -0.682  1.00  0.00    -0.200 F 
ENDBRANCH  60  74
BRANCH  61  85
ATOM     85  C   UNL     1      -0.979  14.936 -10.287  1.00  0.00     0.064 A 
ATOM     86  C   UNL     1      -0.094  16.007 -10.099  1.00  0.00     0.173 A 
ATOM     87  C   UNL     1      -0.891  14.221 -11.490  1.00  0.00     0.173 A 
ATOM     88  F   UNL     1      -0.154  16.734  -8.974  1.00  0.00    -0.203 F 
ATOM     89  C   UNL     1       0.829  16.360 -11.081  1.00  0.00     0.198 A 
ATOM     90  C   UNL     1       0.051  14.557 -12.460  1.00  0.00     0.198 A 
ATOM     91  F   UNL     1      -1.711  13.184 -11.717  1.00  0.00    -0.203 F 
ATOM     92  F   UNL     1       1.633  17.415 -10.893  1.00  0.00    -0.200 F 
ATOM     93  C   UNL     1       0.905  15.631 -12.258  1.00  0.00     0.200 A 
ATOM     94  F   UNL     1       0.132  13.841 -13.590  1.00  0.00    -0.200 F 
ATOM     95  F   UNL     1       1.797  15.967 -13.200  1.00  0.00    -0.200 F 
ENDBRANCH  61  85
BRANCH  73  96
ATOM     96  C   UNL     1      -6.652  18.108  -7.773  1.00  0.00     0.064 A 
ATOM     97  C   UNL     1      -7.336  18.333  -8.977  1.00  0.00     0.173 A 
ATOM     98  C   UNL     1      -6.617  19.148  -6.832  1.00  0.00     0.173 A 
ATOM     99  F   UNL     1      -7.384  17.376  -9.915  1.00  0.00    -0.203 F 
ATOM    100  C   UNL     1      -7.940  19.560  -9.237  1.00  0.00     0.198 A 
ATOM    101  C   UNL     1      -7.249  20.363  -7.083  1.00  0.00     0.198 A 
ATOM    102  F   UNL     1      -5.982  18.981  -5.663  1.00  0.00    -0.203 F 
ATOM    103  F   UNL     1      -8.547  19.770 -10.414  1.00  0.00    -0.200 F 
ATOM    104  C   UNL     1      -7.903  20.571  -8.288  1.00  0.00     0.200 A 
ATOM    105  F   UNL     1      -7.223  21.333  -6.159  1.00  0.00    -0.200 F 
ATOM    106  F   UNL     1      -8.491  21.748  -8.537  1.00  0.00    -0.200 F 
ENDBRANCH  73  96
ENDBRANCH  47  48
ENDBRANCH  39  42
ENDBRANCH  37  38
ENDBRANCH  36  37
ENDBRANCH  35  36
ENDBRANCH   1  35
TORSDOF 16
