REMARK SMILES COc1ccc([C@H]2CC(c3ccc(S(C)(=O)=O)cc3)=NN2c2ccc(C(=O)NCCCCNC(=O)c3ccc(-c4c5nc(c(-c6c(F)c(F)c(F)c(F)c6F)c6ccc([nH]6)c(-c6c(F)c(F)c(F)c(F)c6F)c6nc(c(-c7c(F)c(F)c(F)c(F)c7F)c7ccc4[nH]7)C=C6)C=C5)cc3)cc2)cc1OC
REMARK SMILES IDX 30 1 29 2 28 3 26 4 27 5 25 7 22 8 23 9 100 10 24 11 99 12
REMARK SMILES IDX 21 13 7 14 8 15 9 16 20 17 6 18 3 19 4 20 102 21 5 22 101 23
REMARK SMILES IDX 2 24 1 25 103 26 104 27 10 28 11 29 19 30 12 31 18 32 13 33
REMARK SMILES IDX 14 34 15 35 16 36 17 37 31 38 32 39 33 40 34 41 35 43 36 44
REMARK SMILES IDX 37 45 98 46 38 47 97 48 39 49 40 50 41 51 91 52 42 53 96 54
REMARK SMILES IDX 90 55 92 56 43 57 95 58 89 59 88 60 44 62 76 63 56 64 75 65
REMARK SMILES IDX 57 66 60 67 74 68 93 69 58 70 59 71 73 73 94 74 61 75 45 76
REMARK SMILES IDX 46 77 54 78 47 79 48 80 52 81 55 82 49 83 50 84 53 85 51 86
REMARK SMILES IDX 77 87 78 88 86 89 79 90 80 91 84 92 87 93 81 94 82 95 85 96
REMARK SMILES IDX 83 97 62 98 63 99 71 100 64 101 65 102 69 103 72 104 66 105
REMARK SMILES IDX 67 106 70 107 68 108
REMARK H PARENT 28 6 33 42 92 61 60 72
REMARK Flexibility Score: inf
ROOT
ATOM      1  C   UNL     1      -0.037 -11.436  -2.672  1.00  0.00     0.023 C 
ENDROOT
BRANCH   1   2
ATOM      2  C   UNL     1       0.144 -10.409  -1.551  1.00  0.00     0.116 C 
BRANCH   2   3
ATOM      3  N   UNL     1       1.498 -10.458  -1.043  1.00  0.00    -0.352 N 
ATOM      4  C   UNL     1       2.619  -9.728  -1.344  1.00  0.00     0.251 C 
ATOM      5  O   UNL     1       3.653 -10.019  -0.741  1.00  0.00    -0.269 OA
ATOM      6  H   UNL     1       1.641 -11.145  -0.352  1.00  0.00     0.163 HD
BRANCH   4   7
ATOM      7  C   UNL     1       2.629  -8.586  -2.304  1.00  0.00     0.039 A 
ATOM      8  C   UNL     1       2.762  -6.301  -3.973  1.00  0.00     0.060 A 
ATOM      9  C   UNL     1       3.701  -6.504  -2.957  1.00  0.00     0.029 A 
ATOM     10  C   UNL     1       1.789  -7.278  -4.177  1.00  0.00     0.029 A 
ATOM     11  C   UNL     1       3.625  -7.619  -2.118  1.00  0.00     0.016 A 
ATOM     12  C   UNL     1       1.750  -8.428  -3.379  1.00  0.00     0.016 A 
BRANCH   8  13
ATOM     13  N   UNL     1       2.838  -5.176  -4.772  1.00  0.00    -0.257 N 
ATOM     14  C   UNL     1       1.772  -4.189  -4.943  1.00  0.00     0.144 C 
ATOM     15  C   UNL     1       2.328  -3.292  -6.059  1.00  0.00     0.091 C 
ATOM     16  C   UNL     1       3.617  -4.005  -6.353  1.00  0.00     0.071 C 
ATOM     17  N   UNL     1       3.875  -5.048  -5.633  1.00  0.00    -0.176 NA
BRANCH  14  18
ATOM     18  C   UNL     1       1.507  -3.421  -3.658  1.00  0.00    -0.019 A 
ATOM     19  C   UNL     1       1.055  -2.022  -1.250  1.00  0.00     0.160 A 
ATOM     20  C   UNL     1      -0.011  -2.616  -1.942  1.00  0.00     0.051 A 
ATOM     21  C   UNL     1       2.358  -2.133  -1.744  1.00  0.00     0.161 A 
ATOM     22  C   UNL     1       0.211  -3.304  -3.140  1.00  0.00     0.010 A 
ATOM     23  C   UNL     1       2.563  -2.827  -2.943  1.00  0.00     0.056 A 
BRANCH  19  24
ATOM     24  O   UNL     1       0.792  -1.443  -0.037  1.00  0.00    -0.493 OA
ATOM     25  C   UNL     1       0.143  -0.180  -0.180  1.00  0.00     0.278 C 
ENDBRANCH  19  24
BRANCH  21  26
ATOM     26  O   UNL     1       3.524  -1.665  -1.204  1.00  0.00    -0.493 OA
ATOM     27  C   UNL     1       3.456  -0.750  -0.124  1.00  0.00     0.278 C 
ENDBRANCH  21  26
ENDBRANCH  14  18
BRANCH  16  28
ATOM     28  C   UNL     1       4.504  -3.560  -7.428  1.00  0.00    -0.002 A 
ATOM     29  C   UNL     1       4.767  -4.437  -8.486  1.00  0.00     0.011 A 
ATOM     30  C   UNL     1       5.105  -2.302  -7.365  1.00  0.00     0.011 A 
ATOM     31  C   UNL     1       5.625  -4.041  -9.511  1.00  0.00     0.021 A 
ATOM     32  C   UNL     1       5.984  -1.914  -8.377  1.00  0.00     0.021 A 
ATOM     33  C   UNL     1       6.238  -2.785  -9.443  1.00  0.00     0.067 A 
BRANCH  33  34
ATOM     34  S   UNL     1       7.332  -2.285 -10.753  1.00  0.00     0.175 S 
ATOM     35  C   UNL     1       8.660  -3.458 -10.688  1.00  0.00     0.163 C 
ATOM     36  O   UNL     1       6.605  -2.482 -11.996  1.00  0.00    -0.224 OA
ATOM     37  O   UNL     1       7.873  -0.989 -10.403  1.00  0.00    -0.224 OA
ENDBRANCH  33  34
ENDBRANCH  16  28
ENDBRANCH   8  13
ENDBRANCH   4   7
ENDBRANCH   2   3
ENDBRANCH   1   2
BRANCH   1  38
ATOM     38  C   UNL     1      -0.202 -12.874  -2.174  1.00  0.00     0.023 C 
BRANCH  38  39
ATOM     39  C   UNL     1      -1.436 -13.111  -1.312  1.00  0.00     0.116 C 
BRANCH  39  40
ATOM     40  N   UNL     1      -2.678 -12.752  -1.979  1.00  0.00    -0.352 N 
ATOM     41  C   UNL     1      -3.918 -13.324  -1.839  1.00  0.00     0.251 C 
ATOM     42  H   UNL     1      -2.622 -12.001  -2.613  1.00  0.00     0.163 HD
ATOM     43  O   UNL     1      -4.850 -12.978  -2.557  1.00  0.00    -0.269 OA
BRANCH  41  44
ATOM     44  C   UNL     1      -4.107 -14.394  -0.840  1.00  0.00     0.039 A 
ATOM     45  C   UNL     1      -4.725 -15.581  -1.238  1.00  0.00     0.014 A 
ATOM     46  C   UNL     1      -3.643 -14.238   0.468  1.00  0.00     0.014 A 
ATOM     47  C   UNL     1      -4.819 -16.641  -0.337  1.00  0.00     0.010 A 
ATOM     48  C   UNL     1      -3.671 -15.320   1.341  1.00  0.00     0.010 A 
ATOM     49  C   UNL     1      -4.261 -16.530   0.948  1.00  0.00    -0.014 A 
BRANCH  49  50
ATOM     50  C   UNL     1      -4.285 -17.674   1.890  1.00  0.00     0.031 A 
ATOM     51  C   UNL     1      -5.069 -17.585   3.167  1.00  0.00     0.074 A 
ATOM     52  C   UNL     1      -3.554 -18.772   1.618  1.00  0.00     0.049 A 
ATOM     53  N   UNL     1      -5.191 -18.466   4.128  1.00  0.00    -0.248 NA
ATOM     54  C   UNL     1      -5.791 -16.327   3.410  1.00  0.00     0.031 C 
ATOM     55  C   UNL     1      -2.712 -18.955   0.435  1.00  0.00     0.029 A 
ATOM     56  N   UNL     1      -3.403 -19.941   2.319  1.00  0.00    -0.354 N 
ATOM     57  C   UNL     1      -5.995 -17.868   5.088  1.00  0.00     0.074 A 
ATOM     58  C   UNL     1      -6.277 -16.526   4.626  1.00  0.00     0.031 C 
ATOM     59  C   UNL     1      -2.160 -20.178   0.474  1.00  0.00     0.029 A 
ATOM     60  C   UNL     1      -2.582 -20.851   1.699  1.00  0.00     0.049 A 
ATOM     61  H   UNL     1      -3.841 -20.112   3.184  1.00  0.00     0.167 HD
ATOM     62  C   UNL     1      -6.479 -18.399   6.236  1.00  0.00     0.037 A 
ATOM     63  C   UNL     1      -2.216 -22.090   2.076  1.00  0.00     0.037 A 
ATOM     64  C   UNL     1      -6.204 -19.738   6.685  1.00  0.00     0.049 A 
ATOM     65  C   UNL     1      -2.750 -22.650   3.366  1.00  0.00     0.074 A 
ATOM     66  C   UNL     1      -6.686 -20.391   7.806  1.00  0.00     0.029 A 
ATOM     67  N   UNL     1      -5.363 -20.630   6.034  1.00  0.00    -0.354 N 
ATOM     68  N   UNL     1      -3.570 -22.104   4.231  1.00  0.00    -0.248 NA
ATOM     69  C   UNL     1      -2.309 -24.004   3.728  1.00  0.00     0.031 C 
ATOM     70  C   UNL     1      -6.100 -21.661   7.858  1.00  0.00     0.029 A 
ATOM     71  C   UNL     1      -5.293 -21.820   6.743  1.00  0.00     0.049 A 
ATOM     72  H   UNL     1      -4.886 -20.446   5.193  1.00  0.00     0.167 HD
ATOM     73  C   UNL     1      -3.763 -23.053   5.225  1.00  0.00     0.074 A 
ATOM     74  C   UNL     1      -2.989 -24.217   4.845  1.00  0.00     0.031 C 
ATOM     75  C   UNL     1      -4.514 -22.968   6.352  1.00  0.00     0.037 A 
BRANCH  62  76
ATOM     76  C   UNL     1      -7.356 -17.520   7.082  1.00  0.00     0.064 A 
ATOM     77  C   UNL     1      -8.636 -17.129   6.654  1.00  0.00     0.173 A 
ATOM     78  C   UNL     1      -6.918 -17.065   8.334  1.00  0.00     0.173 A 
ATOM     79  F   UNL     1      -9.098 -17.526   5.458  1.00  0.00    -0.203 F 
ATOM     80  C   UNL     1      -9.424 -16.282   7.428  1.00  0.00     0.198 A 
ATOM     81  C   UNL     1      -7.724 -16.245   9.121  1.00  0.00     0.198 A 
ATOM     82  F   UNL     1      -5.708 -17.412   8.795  1.00  0.00    -0.203 F 
ATOM     83  F   UNL     1     -10.614 -15.871   6.968  1.00  0.00    -0.200 F 
ATOM     84  C   UNL     1      -8.970 -15.845   8.662  1.00  0.00     0.200 A 
ATOM     85  F   UNL     1      -7.289 -15.833  10.319  1.00  0.00    -0.200 F 
ATOM     86  F   UNL     1      -9.729 -15.028   9.406  1.00  0.00    -0.200 F 
ENDBRANCH  62  76
BRANCH  63  87
ATOM     87  C   UNL     1      -1.333 -22.901   1.199  1.00  0.00     0.064 A 
ATOM     88  C   UNL     1      -1.835 -24.018   0.518  1.00  0.00     0.173 A 
ATOM     89  C   UNL     1       0.019 -22.577   1.017  1.00  0.00     0.173 A 
ATOM     90  F   UNL     1      -3.117 -24.378   0.676  1.00  0.00    -0.203 F 
ATOM     91  C   UNL     1      -1.014 -24.791  -0.301  1.00  0.00     0.198 A 
ATOM     92  C   UNL     1       0.832 -23.335   0.177  1.00  0.00     0.198 A 
ATOM     93  F   UNL     1       0.546 -21.515   1.643  1.00  0.00    -0.203 F 
ATOM     94  F   UNL     1      -1.510 -25.877  -0.909  1.00  0.00    -0.200 F 
ATOM     95  C   UNL     1       0.317 -24.445  -0.475  1.00  0.00     0.200 A 
ATOM     96  F   UNL     1       2.115 -22.990  -0.000  1.00  0.00    -0.200 F 
ATOM     97  F   UNL     1       1.105 -25.185  -1.268  1.00  0.00    -0.200 F 
ENDBRANCH  63  87
BRANCH  75  98
ATOM     98  C   UNL     1      -4.551 -24.178   7.240  1.00  0.00     0.064 A 
ATOM     99  C   UNL     1      -3.438 -24.567   8.001  1.00  0.00     0.173 A 
ATOM    100  C   UNL     1      -5.721 -24.944   7.350  1.00  0.00     0.173 A 
ATOM    101  F   UNL     1      -2.290 -23.877   7.919  1.00  0.00    -0.203 F 
ATOM    102  C   UNL     1      -3.486 -25.696   8.814  1.00  0.00     0.198 A 
ATOM    103  C   UNL     1      -5.775 -26.054   8.188  1.00  0.00     0.198 A 
ATOM    104  F   UNL     1      -6.815 -24.612   6.649  1.00  0.00    -0.203 F 
ATOM    105  F   UNL     1      -2.393 -26.080   9.489  1.00  0.00    -0.200 F 
ATOM    106  C   UNL     1      -4.655 -26.434   8.912  1.00  0.00     0.200 A 
ATOM    107  F   UNL     1      -6.911 -26.758   8.292  1.00  0.00    -0.200 F 
ATOM    108  F   UNL     1      -4.701 -27.519   9.698  1.00  0.00    -0.200 F 
ENDBRANCH  75  98
ENDBRANCH  49  50
ENDBRANCH  41  44
ENDBRANCH  39  40
ENDBRANCH  38  39
ENDBRANCH   1  38
TORSDOF 17
