REMARK SMILES COC[C@H](C)[C@H](CC(C)C)C(=O)NCCCCNC(=O)c1ccc(-c2c3nc(c(-c4c(F)c(F)c(F)c(F)c4F)c4ccc([nH]4)c(-c4c(F)c(F)c(F)c(F)c4F)c4nc(c(-c5c(F)c(F)c(F)c(F)c5F)c5ccc2[nH]5)C=C4)C=C3)cc1
REMARK SMILES IDX 15 1 14 2 13 3 11 4 12 5 6 7 4 8 5 9 3 10 2 11 1 12 7 13
REMARK SMILES IDX 8 14 9 15 10 16 16 17 17 18 18 19 19 20 20 22 21 23 22 24
REMARK SMILES IDX 83 25 23 26 82 27 24 28 25 29 26 30 76 31 27 32 81 33 75 34
REMARK SMILES IDX 77 35 28 36 80 37 74 38 73 39 29 41 61 42 41 43 60 44 42 45
REMARK SMILES IDX 45 46 59 47 78 48 43 49 44 50 58 52 79 53 46 54 30 55 31 56
REMARK SMILES IDX 39 57 32 58 33 59 37 60 40 61 34 62 35 63 38 64 36 65 62 66
REMARK SMILES IDX 63 67 71 68 64 69 65 70 69 71 72 72 66 73 67 74 70 75 68 76
REMARK SMILES IDX 47 77 48 78 56 79 49 80 50 81 54 82 57 83 51 84 52 85 55 86
REMARK SMILES IDX 53 87
REMARK H PARENT 13 6 18 21 77 40 45 51
REMARK Flexibility Score: inf
ROOT
ATOM      1  C   UNL     1      -2.769   3.622   0.227  1.00  0.00     0.023 C 
ENDROOT
BRANCH   1   2
ATOM      2  C   UNL     1      -1.994   4.088  -0.998  1.00  0.00     0.116 C 
BRANCH   2   3
ATOM      3  N   UNL     1      -0.821   4.873  -0.670  1.00  0.00    -0.356 N 
ATOM      4  C   UNL     1       0.484   4.748  -1.038  1.00  0.00     0.223 C 
ATOM      5  O   UNL     1       1.252   5.645  -0.677  1.00  0.00    -0.275 OA
ATOM      6  H   UNL     1      -1.000   5.635  -0.072  1.00  0.00     0.163 HD
BRANCH   4   7
ATOM      7  C   UNL     1       1.007   3.582  -1.893  1.00  0.00     0.084 C 
BRANCH   7   8
ATOM      8  C   UNL     1       0.729   3.861  -3.407  1.00  0.00     0.024 C 
ATOM      9  C   UNL     1       1.865   3.333  -4.299  1.00  0.00     0.011 C 
BRANCH   8  10
ATOM     10  C   UNL     1      -0.636   3.436  -3.970  1.00  0.00     0.163 C 
BRANCH  10  11
ATOM     11  O   UNL     1      -0.825   3.818  -5.337  1.00  0.00    -0.384 OA
ATOM     12  C   UNL     1      -1.137   5.198  -5.497  1.00  0.00     0.194 C 
ENDBRANCH  10  11
ENDBRANCH   8  10
ENDBRANCH   7   8
BRANCH   7  13
ATOM     13  C   UNL     1       0.713   2.233  -1.193  1.00  0.00     0.017 C 
BRANCH  13  14
ATOM     14  C   UNL     1       0.938   0.923  -1.958  1.00  0.00    -0.017 C 
ATOM     15  C   UNL     1       2.398   0.481  -1.892  1.00  0.00     0.007 C 
ATOM     16  C   UNL     1       0.039  -0.172  -1.369  1.00  0.00     0.007 C 
ENDBRANCH  13  14
ENDBRANCH   7  13
ENDBRANCH   4   7
ENDBRANCH   2   3
ENDBRANCH   1   2
BRANCH   1  17
ATOM     17  C   UNL     1      -3.582   4.713   0.919  1.00  0.00     0.023 C 
BRANCH  17  18
ATOM     18  C   UNL     1      -4.477   5.547   0.008  1.00  0.00     0.116 C 
BRANCH  18  19
ATOM     19  N   UNL     1      -5.353   4.751  -0.846  1.00  0.00    -0.352 N 
ATOM     20  C   UNL     1      -6.682   4.923  -1.137  1.00  0.00     0.251 C 
ATOM     21  H   UNL     1      -4.926   3.976  -1.277  1.00  0.00     0.163 HD
ATOM     22  O   UNL     1      -7.276   4.098  -1.815  1.00  0.00    -0.269 OA
BRANCH  20  23
ATOM     23  C   UNL     1      -7.410   6.087  -0.583  1.00  0.00     0.039 A 
ATOM     24  C   UNL     1      -8.652   5.869   0.018  1.00  0.00     0.014 A 
ATOM     25  C   UNL     1      -6.860   7.371  -0.621  1.00  0.00     0.014 A 
ATOM     26  C   UNL     1      -9.302   6.926   0.653  1.00  0.00     0.010 A 
ATOM     27  C   UNL     1      -7.470   8.404   0.085  1.00  0.00     0.010 A 
ATOM     28  C   UNL     1      -8.695   8.191   0.735  1.00  0.00    -0.014 A 
BRANCH  28  29
ATOM     29  C   UNL     1      -9.325   9.280   1.522  1.00  0.00     0.031 A 
ATOM     30  C   UNL     1      -9.791  10.540   0.849  1.00  0.00     0.074 A 
ATOM     31  C   UNL     1      -9.441   9.144   2.858  1.00  0.00     0.049 A 
ATOM     32  N   UNL     1     -10.370  11.592   1.375  1.00  0.00    -0.248 NA
ATOM     33  C   UNL     1      -9.555  10.648  -0.599  1.00  0.00     0.031 C 
ATOM     34  C   UNL     1      -8.957   8.002   3.637  1.00  0.00     0.029 A 
ATOM     35  N   UNL     1     -10.002   9.972   3.798  1.00  0.00    -0.354 N 
ATOM     36  C   UNL     1     -10.569  12.478   0.325  1.00  0.00     0.074 A 
ATOM     37  C   UNL     1      -9.989  11.874  -0.855  1.00  0.00     0.031 C 
ATOM     38  C   UNL     1      -9.270   8.186   4.929  1.00  0.00     0.029 A 
ATOM     39  C   UNL     1      -9.950   9.469   5.076  1.00  0.00     0.049 A 
ATOM     40  H   UNL     1     -10.404  10.843   3.578  1.00  0.00     0.167 HD
ATOM     41  C   UNL     1     -11.207  13.673   0.337  1.00  0.00     0.037 A 
ATOM     42  C   UNL     1     -10.404   9.983   6.234  1.00  0.00     0.037 A 
ATOM     43  C   UNL     1     -11.795  14.267   1.509  1.00  0.00     0.049 A 
ATOM     44  C   UNL     1     -11.124  11.304   6.214  1.00  0.00     0.074 A 
ATOM     45  C   UNL     1     -12.497  15.454   1.617  1.00  0.00     0.029 A 
ATOM     46  N   UNL     1     -11.747  13.715   2.781  1.00  0.00    -0.354 N 
ATOM     47  N   UNL     1     -11.374  12.096   5.200  1.00  0.00    -0.248 NA
ATOM     48  C   UNL     1     -11.641  11.793   7.499  1.00  0.00     0.031 C 
ATOM     49  C   UNL     1     -12.842  15.640   2.960  1.00  0.00     0.029 A 
ATOM     50  C   UNL     1     -12.397  14.545   3.681  1.00  0.00     0.049 A 
ATOM     51  H   UNL     1     -11.316  12.860   3.010  1.00  0.00     0.167 HD
ATOM     52  C   UNL     1     -12.090  13.165   5.719  1.00  0.00     0.074 A 
ATOM     53  C   UNL     1     -12.264  12.903   7.133  1.00  0.00     0.031 C 
ATOM     54  C   UNL     1     -12.556  14.270   5.086  1.00  0.00     0.037 A 
BRANCH  41  55
ATOM     55  C   UNL     1     -11.325  14.409  -0.967  1.00  0.00     0.064 A 
ATOM     56  C   UNL     1     -12.159  13.943  -1.995  1.00  0.00     0.173 A 
ATOM     57  C   UNL     1     -10.639  15.614  -1.175  1.00  0.00     0.173 A 
ATOM     58  F   UNL     1     -12.827  12.788  -1.852  1.00  0.00    -0.203 F 
ATOM     59  C   UNL     1     -12.285  14.645  -3.191  1.00  0.00     0.198 A 
ATOM     60  C   UNL     1     -10.790  16.329  -2.361  1.00  0.00     0.198 A 
ATOM     61  F   UNL     1      -9.831  16.106  -0.224  1.00  0.00    -0.203 F 
ATOM     62  F   UNL     1     -13.054  14.158  -4.174  1.00  0.00    -0.200 F 
ATOM     63  C   UNL     1     -11.608  15.842  -3.369  1.00  0.00     0.200 A 
ATOM     64  F   UNL     1     -10.145  17.492  -2.527  1.00  0.00    -0.200 F 
ATOM     65  F   UNL     1     -11.739  16.523  -4.516  1.00  0.00    -0.200 F 
ENDBRANCH  41  55
BRANCH  42  66
ATOM     66  C   UNL     1     -10.216   9.238   7.507  1.00  0.00     0.064 A 
ATOM     67  C   UNL     1     -11.309   8.686   8.191  1.00  0.00     0.173 A 
ATOM     68  C   UNL     1      -8.944   9.080   8.076  1.00  0.00     0.173 A 
ATOM     69  F   UNL     1     -12.547   8.826   7.696  1.00  0.00    -0.203 F 
ATOM     70  C   UNL     1     -11.141   8.034   9.411  1.00  0.00     0.198 A 
ATOM     71  C   UNL     1      -8.773   8.400   9.280  1.00  0.00     0.198 A 
ATOM     72  F   UNL     1      -7.864   9.581   7.458  1.00  0.00    -0.203 F 
ATOM     73  F   UNL     1     -12.209   7.568  10.071  1.00  0.00    -0.200 F 
ATOM     74  C   UNL     1      -9.873   7.888   9.952  1.00  0.00     0.200 A 
ATOM     75  F   UNL     1      -7.545   8.246   9.792  1.00  0.00    -0.200 F 
ATOM     76  F   UNL     1      -9.711   7.261  11.126  1.00  0.00    -0.200 F 
ENDBRANCH  42  66
BRANCH  54  77
ATOM     77  C   UNL     1     -13.313  15.264   5.920  1.00  0.00     0.064 A 
ATOM     78  C   UNL     1     -12.669  16.052   6.886  1.00  0.00     0.173 A 
ATOM     79  C   UNL     1     -14.695  15.433   5.748  1.00  0.00     0.173 A 
ATOM     80  F   UNL     1     -11.351  15.918   7.099  1.00  0.00    -0.203 F 
ATOM     81  C   UNL     1     -13.389  16.944   7.677  1.00  0.00     0.198 A 
ATOM     82  C   UNL     1     -15.405  16.349   6.518  1.00  0.00     0.198 A 
ATOM     83  F   UNL     1     -15.357  14.710   4.832  1.00  0.00    -0.203 F 
ATOM     84  F   UNL     1     -12.764  17.639   8.637  1.00  0.00    -0.200 F 
ATOM     85  C   UNL     1     -14.755  17.095   7.490  1.00  0.00     0.200 A 
ATOM     86  F   UNL     1     -16.723  16.504   6.327  1.00  0.00    -0.200 F 
ATOM     87  F   UNL     1     -15.446  17.951   8.254  1.00  0.00    -0.200 F 
ENDBRANCH  54  77
ENDBRANCH  28  29
ENDBRANCH  20  23
ENDBRANCH  18  19
ENDBRANCH  17  18
ENDBRANCH   1  17
TORSDOF 16
