REMARK SMILES Cc1c(Cl)cccc1S(=O)(=O)N[C@H]1C=C[C@@H](C(=O)NCCCCNC(=O)c2ccc(-c3c4nc(c(-c5c(F)c(F)c(F)c(F)c5F)c5ccc([nH]5)c(-c5c(F)c(F)c(F)c(F)c5F)c5nc(c(-c6c(F)c(F)c(F)c(F)c6F)c6ccc3[nH]6)C=C5)C=C4)cc2)C1
REMARK SMILES IDX 21 1 20 2 19 3 17 4 18 5 16 7 13 8 14 9 90 10 15 11 12 12
REMARK SMILES IDX 9 14 10 15 11 16 8 17 1 18 2 19 3 20 4 21 5 22 7 23 6 24
REMARK SMILES IDX 22 25 23 26 24 27 25 28 26 30 27 31 28 32 89 33 29 34 88 35
REMARK SMILES IDX 30 36 31 37 32 38 82 39 33 40 87 41 81 42 83 43 34 44 86 45
REMARK SMILES IDX 80 46 79 47 35 49 67 50 47 51 66 52 48 53 51 54 65 55 84 56
REMARK SMILES IDX 49 57 50 58 64 60 85 61 52 62 36 63 37 64 45 65 38 66 39 67
REMARK SMILES IDX 43 68 46 69 40 70 41 71 44 72 42 73 68 74 69 75 77 76 70 77
REMARK SMILES IDX 71 78 75 79 78 80 72 81 73 82 76 83 74 84 53 85 54 86 62 87
REMARK SMILES IDX 55 88 56 89 60 90 63 91 57 92 58 93 61 94 59 95
REMARK H PARENT 19 6 12 13 24 29 83 48 51 59
REMARK Flexibility Score: inf
ROOT
ATOM      1  C   UNL     1       1.110   3.183   2.440  1.00  0.00     0.023 C 
ENDROOT
BRANCH   1   2
ATOM      2  C   UNL     1       1.971   3.915   1.403  1.00  0.00     0.116 C 
BRANCH   2   3
ATOM      3  N   UNL     1       2.726   3.036   0.524  1.00  0.00    -0.356 N 
ATOM      4  C   UNL     1       2.801   2.893  -0.827  1.00  0.00     0.226 C 
ATOM      5  O   UNL     1       3.583   2.017  -1.224  1.00  0.00    -0.274 OA
ATOM      6  H   UNL     1       3.307   2.409   1.012  1.00  0.00     0.163 HD
BRANCH   4   7
ATOM      7  C   UNL     1       1.970   3.666  -1.871  1.00  0.00     0.103 C 
ATOM      8  C   UNL     1      -0.486   3.818  -1.702  1.00  0.00     0.093 C 
ATOM      9  C   UNL     1       0.198   5.130  -1.434  1.00  0.00    -0.011 C 
ATOM     10  C   UNL     1       0.651   2.995  -2.308  1.00  0.00     0.042 C 
ATOM     11  C   UNL     1       1.531   5.048  -1.530  1.00  0.00    -0.016 C 
BRANCH   8  12
ATOM     12  N   UNL     1      -0.937   3.265  -0.417  1.00  0.00    -0.204 NA
ATOM     13  H   UNL     1      -0.150   2.751  -0.022  1.00  0.00     0.142 HD
BRANCH  12  14
ATOM     14  S   UNL     1      -2.265   2.232  -0.386  1.00  0.00     0.241 S 
ATOM     15  O   UNL     1      -2.951   2.362  -1.652  1.00  0.00    -0.207 OA
ATOM     16  O   UNL     1      -2.927   2.571   0.859  1.00  0.00    -0.207 OA
BRANCH  14  17
ATOM     17  C   UNL     1      -1.812   0.502  -0.219  1.00  0.00     0.086 A 
ATOM     18  C   UNL     1       0.728   0.677   0.171  1.00  0.00     0.047 C 
ATOM     19  C   UNL     1      -0.543  -0.071  -0.007  1.00  0.00    -0.012 A 
ATOM     20  C   UNL     1      -0.445  -1.483   0.065  1.00  0.00     0.045 A 
ATOM     21  Cl  UNL     1       1.080  -2.285   0.294  1.00  0.00    -0.084 Cl
ATOM     22  C   UNL     1      -1.565  -2.303  -0.037  1.00  0.00     0.021 A 
ATOM     23  C   UNL     1      -2.937  -0.350  -0.304  1.00  0.00     0.022 A 
ATOM     24  C   UNL     1      -2.816  -1.736  -0.211  1.00  0.00     0.003 A 
ENDBRANCH  14  17
ENDBRANCH  12  14
ENDBRANCH   8  12
ENDBRANCH   4   7
ENDBRANCH   2   3
ENDBRANCH   1   2
BRANCH   1  25
ATOM     25  C   UNL     1       1.878   2.311   3.432  1.00  0.00     0.023 C 
BRANCH  25  26
ATOM     26  C   UNL     1       2.758   3.101   4.389  1.00  0.00     0.116 C 
BRANCH  26  27
ATOM     27  N   UNL     1       1.996   4.100   5.127  1.00  0.00    -0.352 N 
ATOM     28  C   UNL     1       1.876   4.295   6.477  1.00  0.00     0.251 C 
ATOM     29  H   UNL     1       1.488   4.732   4.569  1.00  0.00     0.163 HD
ATOM     30  O   UNL     1       0.993   5.027   6.915  1.00  0.00    -0.269 OA
BRANCH  28  31
ATOM     31  C   UNL     1       2.813   3.631   7.401  1.00  0.00     0.039 A 
ATOM     32  C   UNL     1       2.338   3.156   8.625  1.00  0.00     0.014 A 
ATOM     33  C   UNL     1       4.165   3.507   7.070  1.00  0.00     0.014 A 
ATOM     34  C   UNL     1       3.216   2.517   9.498  1.00  0.00     0.010 A 
ATOM     35  C   UNL     1       5.013   2.781   7.892  1.00  0.00     0.010 A 
ATOM     36  C   UNL     1       4.553   2.300   9.124  1.00  0.00    -0.014 A 
BRANCH  36  37
ATOM     37  C   UNL     1       5.492   1.589  10.021  1.00  0.00     0.031 A 
ATOM     38  C   UNL     1       6.701   2.301  10.560  1.00  0.00     0.074 A 
ATOM     39  C   UNL     1       5.276   0.290  10.299  1.00  0.00     0.049 A 
ATOM     40  N   UNL     1       7.653   1.845  11.334  1.00  0.00    -0.248 NA
ATOM     41  C   UNL     1       6.886   3.702  10.148  1.00  0.00     0.031 C 
ATOM     42  C   UNL     1       4.171  -0.514   9.772  1.00  0.00     0.029 A 
ATOM     43  N   UNL     1       5.974  -0.583  11.091  1.00  0.00    -0.354 N 
ATOM     44  C   UNL     1       8.548   2.895  11.488  1.00  0.00     0.074 A 
ATOM     45  C   UNL     1       8.068   3.987  10.672  1.00  0.00     0.031 C 
ATOM     46  C   UNL     1       4.243  -1.751  10.287  1.00  0.00     0.029 A 
ATOM     47  C   UNL     1       5.417  -1.836  11.149  1.00  0.00     0.049 A 
ATOM     48  H   UNL     1       6.796  -0.335  11.573  1.00  0.00     0.167 HD
ATOM     49  C   UNL     1       9.654   2.952  12.267  1.00  0.00     0.037 A 
ATOM     50  C   UNL     1       5.813  -2.929  11.827  1.00  0.00     0.037 A 
ATOM     51  C   UNL     1      10.106   1.864  13.093  1.00  0.00     0.049 A 
ATOM     52  C   UNL     1       7.039  -2.834  12.694  1.00  0.00     0.074 A 
ATOM     53  C   UNL     1      11.178   1.829  13.966  1.00  0.00     0.029 A 
ATOM     54  N   UNL     1       9.507   0.613  13.142  1.00  0.00    -0.354 N 
ATOM     55  N   UNL     1       7.834  -1.812  12.897  1.00  0.00    -0.248 NA
ATOM     56  C   UNL     1       7.414  -4.044  13.436  1.00  0.00     0.031 C 
ATOM     57  C   UNL     1      11.258   0.540  14.506  1.00  0.00     0.029 A 
ATOM     58  C   UNL     1      10.201  -0.210  14.014  1.00  0.00     0.049 A 
ATOM     59  H   UNL     1       8.707   0.349  12.632  1.00  0.00     0.167 HD
ATOM     60  C   UNL     1       8.788  -2.245  13.807  1.00  0.00     0.074 A 
ATOM     61  C   UNL     1       8.454  -3.616  14.136  1.00  0.00     0.031 C 
ATOM     62  C   UNL     1       9.848  -1.573  14.322  1.00  0.00     0.037 A 
BRANCH  49  63
ATOM     63  C   UNL     1      10.441   4.233  12.265  1.00  0.00     0.064 A 
ATOM     64  C   UNL     1       9.923   5.418  12.812  1.00  0.00     0.173 A 
ATOM     65  C   UNL     1      11.738   4.273  11.732  1.00  0.00     0.173 A 
ATOM     66  F   UNL     1       8.682   5.441  13.322  1.00  0.00    -0.203 F 
ATOM     67  C   UNL     1      10.659   6.600  12.794  1.00  0.00     0.198 A 
ATOM     68  C   UNL     1      12.485   5.448  11.748  1.00  0.00     0.198 A 
ATOM     69  F   UNL     1      12.285   3.170  11.199  1.00  0.00    -0.203 F 
ATOM     70  F   UNL     1      10.119   7.731  13.270  1.00  0.00    -0.200 F 
ATOM     71  C   UNL     1      11.942   6.612  12.270  1.00  0.00     0.200 A 
ATOM     72  F   UNL     1      13.730   5.456  11.252  1.00  0.00    -0.200 F 
ATOM     73  F   UNL     1      12.652   7.749  12.260  1.00  0.00    -0.200 F 
ENDBRANCH  49  63
BRANCH  50  74
ATOM     74  C   UNL     1       5.022  -4.184  11.743  1.00  0.00     0.064 A 
ATOM     75  C   UNL     1       4.311  -4.663  12.854  1.00  0.00     0.173 A 
ATOM     76  C   UNL     1       4.957  -4.931  10.558  1.00  0.00     0.173 A 
ATOM     77  F   UNL     1       4.354  -3.993  14.015  1.00  0.00    -0.203 F 
ATOM     78  C   UNL     1       3.589  -5.852  12.789  1.00  0.00     0.198 A 
ATOM     79  C   UNL     1       4.208  -6.103  10.485  1.00  0.00     0.198 A 
ATOM     80  F   UNL     1       5.609  -4.512   9.464  1.00  0.00    -0.203 F 
ATOM     81  F   UNL     1       2.961  -6.312  13.880  1.00  0.00    -0.200 F 
ATOM     82  C   UNL     1       3.533  -6.569  11.603  1.00  0.00     0.200 A 
ATOM     83  F   UNL     1       4.142  -6.783   9.332  1.00  0.00    -0.200 F 
ATOM     84  F   UNL     1       2.835  -7.711  11.540  1.00  0.00    -0.200 F 
ENDBRANCH  50  74
BRANCH  62  85
ATOM     85  C   UNL     1      10.701  -2.310  15.315  1.00  0.00     0.064 A 
ATOM     86  C   UNL     1      11.521  -3.381  14.930  1.00  0.00     0.173 A 
ATOM     87  C   UNL     1      10.708  -1.929  16.665  1.00  0.00     0.173 A 
ATOM     88  F   UNL     1      11.539  -3.793  13.653  1.00  0.00    -0.203 F 
ATOM     89  C   UNL     1      12.285  -4.070  15.868  1.00  0.00     0.198 A 
ATOM     90  C   UNL     1      11.502  -2.595  17.593  1.00  0.00     0.198 A 
ATOM     91  F   UNL     1       9.950  -0.905  17.084  1.00  0.00    -0.203 F 
ATOM     92  F   UNL     1      13.010  -5.131  15.489  1.00  0.00    -0.200 F 
ATOM     93  C   UNL     1      12.280  -3.672  17.196  1.00  0.00     0.200 A 
ATOM     94  F   UNL     1      11.509  -2.200  18.873  1.00  0.00    -0.200 F 
ATOM     95  F   UNL     1      13.018  -4.336  18.098  1.00  0.00    -0.200 F 
ENDBRANCH  62  85
ENDBRANCH  36  37
ENDBRANCH  28  31
ENDBRANCH  26  27
ENDBRANCH  25  26
ENDBRANCH   1  25
TORSDOF 14
