REMARK SMILES CC[C@@H]1C=CCN1S(=O)(=O)c1sc2c(c1C(=O)NCCCCNC(=O)c1ccc(-c3c4nc(c(-c5c(F)c(F)c(F)c(F)c5F)c5ccc([nH]5)c(-c5c(F)c(F)c(F)c(F)c5F)c5nc(c(-c6c(F)c(F)c(F)c(F)c6F)c6ccc3[nH]6)C=C5)C=C4)cc1)CC[NH2+]C2
REMARK SMILES IDX 20 1 19 2 18 3 16 4 17 5 15 7 11 8 12 9 13 10 14 11 92 12
REMARK SMILES IDX 89 13 91 14 90 15 8 18 9 19 10 20 7 21 3 22 4 23 5 24 6 25
REMARK SMILES IDX 2 26 1 27 21 28 22 29 23 30 24 31 25 33 26 34 27 35 88 36
REMARK SMILES IDX 28 37 87 38 29 39 30 40 31 41 81 42 32 43 86 44 80 45 82 46
REMARK SMILES IDX 33 47 85 48 79 49 78 50 34 52 66 53 46 54 65 55 47 56 50 57
REMARK SMILES IDX 64 58 83 59 48 60 49 61 63 63 84 64 51 65 35 66 36 67 44 68
REMARK SMILES IDX 37 69 38 70 42 71 45 72 39 73 40 74 43 75 41 76 67 77 68 78
REMARK SMILES IDX 76 79 69 80 70 81 74 82 77 83 71 84 72 85 75 86 73 87 52 88
REMARK SMILES IDX 53 89 61 90 54 91 55 92 59 93 62 94 56 95 57 96 60 97 58 98
REMARK H PARENT 18 6 91 16 91 17 23 32 82 51 50 62
REMARK Flexibility Score: inf
ROOT
ATOM      1  C   UNL     1       4.070   0.151   2.975  1.00  0.00     0.023 C 
ENDROOT
BRANCH   1   2
ATOM      2  C   UNL     1       2.833   0.604   3.744  1.00  0.00     0.116 C 
BRANCH   2   3
ATOM      3  N   UNL     1       2.958   0.754   5.168  1.00  0.00    -0.352 N 
ATOM      4  C   UNL     1       2.375   1.647   6.036  1.00  0.00     0.253 C 
ATOM      5  O   UNL     1       2.515   1.338   7.225  1.00  0.00    -0.269 OA
ATOM      6  H   UNL     1       3.565   0.106   5.594  1.00  0.00     0.163 HD
BRANCH   4   7
ATOM      7  C   UNL     1       1.757   2.953   5.681  1.00  0.00     0.074 A 
ATOM      8  C   UNL     1       0.944   3.357   4.598  1.00  0.00     0.148 A 
ATOM      9  S   UNL     1       0.493   5.026   4.750  1.00  0.00    -0.120 S 
ATOM     10  C   UNL     1       1.319   5.256   6.177  1.00  0.00     0.064 A 
ATOM     11  C   UNL     1       1.881   4.089   6.641  1.00  0.00    -0.009 A 
ATOM     12  C   UNL     1       1.309   6.587   6.869  1.00  0.00     0.308 C 
ATOM     13  C   UNL     1       2.547   4.120   8.005  1.00  0.00     0.099 C 
ATOM     14  N   UNL     1       2.293   6.631   7.961  1.00  0.00    -0.342 N 
ATOM     15  C   UNL     1       2.182   5.413   8.784  1.00  0.00     0.265 C 
ATOM     16  H   UNL     1       3.232   6.690   7.568  1.00  0.00     0.346 HD
ATOM     17  H   UNL     1       2.112   7.449   8.544  1.00  0.00     0.346 HD
BRANCH   8  18
ATOM     18  S   UNL     1       0.126   2.665   3.109  1.00  0.00     0.254 S 
ATOM     19  O   UNL     1      -1.180   3.275   3.041  1.00  0.00    -0.206 OA
ATOM     20  O   UNL     1       0.216   1.222   3.243  1.00  0.00    -0.206 OA
BRANCH  18  21
ATOM     21  N   UNL     1       1.010   3.145   1.701  1.00  0.00    -0.186 NA
ATOM     22  C   UNL     1       0.568   2.476   0.412  1.00  0.00     0.096 C 
ATOM     23  C   UNL     1      -0.069   3.595  -0.351  1.00  0.00    -0.010 C 
ATOM     24  C   UNL     1       0.221   4.779   0.181  1.00  0.00    -0.013 C 
ATOM     25  C   UNL     1       1.000   4.623   1.433  1.00  0.00     0.130 C 
BRANCH  22  26
ATOM     26  C   UNL     1       1.812   1.924  -0.326  1.00  0.00     0.021 C 
ATOM     27  C   UNL     1       1.723   1.934  -1.855  1.00  0.00     0.006 C 
ENDBRANCH  22  26
ENDBRANCH  18  21
ENDBRANCH   8  18
ENDBRANCH   4   7
ENDBRANCH   2   3
ENDBRANCH   1   2
BRANCH   1  28
ATOM     28  C   UNL     1       4.451  -1.333   3.017  1.00  0.00     0.023 C 
BRANCH  28  29
ATOM     29  C   UNL     1       3.349  -2.324   2.656  1.00  0.00     0.116 C 
BRANCH  29  30
ATOM     30  N   UNL     1       2.806  -2.177   1.304  1.00  0.00    -0.352 N 
ATOM     31  C   UNL     1       1.875  -2.997   0.683  1.00  0.00     0.251 C 
ATOM     32  H   UNL     1       3.137  -1.413   0.779  1.00  0.00     0.163 HD
ATOM     33  O   UNL     1       1.716  -2.982  -0.531  1.00  0.00    -0.269 OA
BRANCH  31  34
ATOM     34  C   UNL     1       1.067  -3.896   1.528  1.00  0.00     0.039 A 
ATOM     35  C   UNL     1       0.872  -5.244   1.209  1.00  0.00     0.014 A 
ATOM     36  C   UNL     1       0.562  -3.359   2.707  1.00  0.00     0.014 A 
ATOM     37  C   UNL     1       0.245  -6.072   2.142  1.00  0.00     0.010 A 
ATOM     38  C   UNL     1       0.104  -4.202   3.684  1.00  0.00     0.010 A 
ATOM     39  C   UNL     1      -0.115  -5.546   3.391  1.00  0.00    -0.014 A 
BRANCH  39  40
ATOM     40  C   UNL     1      -0.612  -6.401   4.469  1.00  0.00     0.031 A 
ATOM     41  C   UNL     1       0.321  -7.492   4.876  1.00  0.00     0.074 A 
ATOM     42  C   UNL     1      -1.681  -6.036   5.213  1.00  0.00     0.049 A 
ATOM     43  N   UNL     1       0.110  -8.767   4.874  1.00  0.00    -0.248 NA
ATOM     44  C   UNL     1       1.707  -7.128   5.224  1.00  0.00     0.031 C 
ATOM     45  C   UNL     1      -2.462  -4.794   5.093  1.00  0.00     0.029 A 
ATOM     46  N   UNL     1      -2.216  -6.610   6.328  1.00  0.00    -0.354 N 
ATOM     47  C   UNL     1       1.259  -9.351   5.412  1.00  0.00     0.074 A 
ATOM     48  C   UNL     1       2.263  -8.325   5.424  1.00  0.00     0.031 C 
ATOM     49  C   UNL     1      -3.169  -4.588   6.223  1.00  0.00     0.029 A 
ATOM     50  C   UNL     1      -3.042  -5.763   7.061  1.00  0.00     0.049 A 
ATOM     51  H   UNL     1      -2.035  -7.542   6.590  1.00  0.00     0.167 HD
ATOM     52  C   UNL     1       1.189 -10.544   6.067  1.00  0.00     0.037 A 
ATOM     53  C   UNL     1      -3.571  -5.990   8.286  1.00  0.00     0.037 A 
ATOM     54  C   UNL     1      -0.065 -11.197   5.783  1.00  0.00     0.049 A 
ATOM     55  C   UNL     1      -3.516  -7.448   8.524  1.00  0.00     0.074 A 
ATOM     56  C   UNL     1      -0.659 -11.789   4.691  1.00  0.00     0.029 A 
ATOM     57  N   UNL     1      -1.057 -10.931   6.689  1.00  0.00    -0.354 N 
ATOM     58  N   UNL     1      -4.209  -8.319   7.845  1.00  0.00    -0.248 NA
ATOM     59  C   UNL     1      -2.394  -7.993   9.276  1.00  0.00     0.031 C 
ATOM     60  C   UNL     1      -2.062 -11.588   4.863  1.00  0.00     0.029 A 
ATOM     61  C   UNL     1      -2.276 -10.929   6.074  1.00  0.00     0.049 A 
ATOM     62  H   UNL     1      -0.911 -10.766   7.649  1.00  0.00     0.167 HD
ATOM     63  C   UNL     1      -3.369  -9.411   7.726  1.00  0.00     0.074 A 
ATOM     64  C   UNL     1      -2.360  -9.225   8.763  1.00  0.00     0.031 C 
ATOM     65  C   UNL     1      -3.398 -10.182   6.600  1.00  0.00     0.037 A 
BRANCH  52  66
ATOM     66  C   UNL     1       1.963 -10.897   7.332  1.00  0.00     0.064 A 
ATOM     67  C   UNL     1       1.754 -12.168   7.917  1.00  0.00     0.173 A 
ATOM     68  C   UNL     1       2.605  -9.956   8.166  1.00  0.00     0.173 A 
ATOM     69  F   UNL     1       1.156 -13.150   7.224  1.00  0.00    -0.203 F 
ATOM     70  C   UNL     1       2.052 -12.430   9.258  1.00  0.00     0.198 A 
ATOM     71  C   UNL     1       2.946 -10.238   9.491  1.00  0.00     0.198 A 
ATOM     72  F   UNL     1       2.832  -8.695   7.788  1.00  0.00    -0.203 F 
ATOM     73  F   UNL     1       1.701 -13.603   9.803  1.00  0.00    -0.200 F 
ATOM     74  C   UNL     1       2.636 -11.459  10.048  1.00  0.00     0.200 A 
ATOM     75  F   UNL     1       3.499  -9.277  10.245  1.00  0.00    -0.200 F 
ATOM     76  F   UNL     1       2.856 -11.679  11.351  1.00  0.00    -0.200 F 
ENDBRANCH  52  66
BRANCH  53  77
ATOM     77  C   UNL     1      -3.891  -5.012   9.351  1.00  0.00     0.064 A 
ATOM     78  C   UNL     1      -4.803  -5.312  10.375  1.00  0.00     0.173 A 
ATOM     79  C   UNL     1      -3.105  -3.857   9.529  1.00  0.00     0.173 A 
ATOM     80  F   UNL     1      -5.555  -6.420  10.303  1.00  0.00    -0.203 F 
ATOM     81  C   UNL     1      -4.907  -4.515  11.520  1.00  0.00     0.198 A 
ATOM     82  C   UNL     1      -3.213  -3.059  10.670  1.00  0.00     0.198 A 
ATOM     83  F   UNL     1      -2.151  -3.535   8.644  1.00  0.00    -0.203 F 
ATOM     84  F   UNL     1      -5.746  -4.865  12.505  1.00  0.00    -0.200 F 
ATOM     85  C   UNL     1      -4.105  -3.395  11.671  1.00  0.00     0.200 A 
ATOM     86  F   UNL     1      -2.403  -2.002  10.822  1.00  0.00    -0.200 F 
ATOM     87  F   UNL     1      -4.161  -2.667  12.795  1.00  0.00    -0.200 F 
ENDBRANCH  53  77
BRANCH  65  88
ATOM     88  C   UNL     1      -4.627 -10.102   5.743  1.00  0.00     0.064 A 
ATOM     89  C   UNL     1      -5.029  -8.964   5.025  1.00  0.00     0.173 A 
ATOM     90  C   UNL     1      -5.372 -11.275   5.564  1.00  0.00     0.173 A 
ATOM     91  F   UNL     1      -4.321  -7.830   5.074  1.00  0.00    -0.203 F 
ATOM     92  C   UNL     1      -6.150  -8.992   4.198  1.00  0.00     0.198 A 
ATOM     93  C   UNL     1      -6.466 -11.312   4.708  1.00  0.00     0.198 A 
ATOM     94  F   UNL     1      -5.004 -12.405   6.189  1.00  0.00    -0.203 F 
ATOM     95  F   UNL     1      -6.525  -7.888   3.535  1.00  0.00    -0.200 F 
ATOM     96  C   UNL     1      -6.863 -10.168   4.034  1.00  0.00     0.200 A 
ATOM     97  F   UNL     1      -7.123 -12.465   4.517  1.00  0.00    -0.200 F 
ATOM     98  F   UNL     1      -7.918 -10.207   3.208  1.00  0.00    -0.200 F 
ENDBRANCH  65  88
ENDBRANCH  39  40
ENDBRANCH  31  34
ENDBRANCH  29  30
ENDBRANCH  28  29
ENDBRANCH   1  28
TORSDOF 14
