REMARK SMILES O=C(NCCCCNC(=O)c1ccc(-c2c3nc(c(-c4c(F)c(F)c(F)c(F)c4F)c4ccc([nH]4)c(-c4c(F)c(F)c(F)c(F)c4F)c4nc(c(-c5c(F)c(F)c(F)c(F)c5F)c5ccc2[nH]5)C=C4)C=C3)cc1)c1ccc(NC(=O)c2c(F)c(F)c(F)c(F)c2F)cc1
REMARK SMILES IDX 5 1 4 2 3 3 1 4 2 5 74 7 75 8 93 9 76 10 92 11 77 12 78 13
REMARK SMILES IDX 79 14 80 16 81 17 82 18 90 19 83 20 84 21 88 22 91 23 85 24
REMARK SMILES IDX 86 25 89 26 87 27 6 28 7 29 8 30 9 31 10 33 11 34 12 35
REMARK SMILES IDX 73 36 13 37 72 38 14 39 15 40 16 41 66 42 17 43 71 44 65 45
REMARK SMILES IDX 67 46 18 47 70 48 64 49 63 50 19 52 51 53 31 54 50 55 32 56
REMARK SMILES IDX 35 57 49 58 68 59 33 60 34 61 48 63 69 64 36 65 20 66 21 67
REMARK SMILES IDX 29 68 22 69 23 70 27 71 30 72 24 73 25 74 28 75 26 76 52 77
REMARK SMILES IDX 53 78 61 79 54 80 55 81 59 82 62 83 56 84 57 85 60 86 58 87
REMARK SMILES IDX 37 88 38 89 46 90 39 91 40 92 44 93 47 94 41 95 42 96 45 97
REMARK SMILES IDX 43 98
REMARK H PARENT 3 6 78 15 8 32 67 51 35 62
REMARK Flexibility Score: inf
ROOT
ATOM      1  C   UNL     1       4.723   0.664  -2.950  1.00  0.00     0.023 C 
ENDROOT
BRANCH   1   2
ATOM      2  C   UNL     1       4.332   0.620  -1.481  1.00  0.00     0.116 C 
BRANCH   2   3
ATOM      3  N   UNL     1       2.895   0.560  -1.249  1.00  0.00    -0.352 N 
ATOM      4  O   UNL     1       0.990  -0.221  -0.295  1.00  0.00    -0.269 OA
ATOM      5  C   UNL     1       2.216  -0.200  -0.319  1.00  0.00     0.251 C 
ATOM      6  H   UNL     1       2.341   1.133  -1.826  1.00  0.00     0.163 HD
BRANCH   5   7
ATOM      7  C   UNL     1       2.991  -1.022   0.635  1.00  0.00     0.039 A 
ATOM      8  C   UNL     1       4.069  -0.461   1.311  1.00  0.00     0.016 A 
ATOM      9  C   UNL     1       2.707  -2.377   0.793  1.00  0.00     0.016 A 
ATOM     10  C   UNL     1       4.958  -1.280   2.001  1.00  0.00     0.027 A 
ATOM     11  C   UNL     1       3.563  -3.178   1.563  1.00  0.00     0.027 A 
ATOM     12  C   UNL     1       4.717  -2.642   2.159  1.00  0.00     0.041 A 
BRANCH  12  13
ATOM     13  N   UNL     1       5.553  -3.534   2.863  1.00  0.00    -0.322 N 
ATOM     14  C   UNL     1       6.716  -3.384   3.587  1.00  0.00     0.261 C 
ATOM     15  H   UNL     1       5.237  -4.466   2.829  1.00  0.00     0.170 HD
ATOM     16  O   UNL     1       7.282  -4.363   4.067  1.00  0.00    -0.269 OA
BRANCH  14  17
ATOM     17  C   UNL     1       7.328  -2.081   3.816  1.00  0.00     0.117 A 
ATOM     18  C   UNL     1       8.496  -1.749   3.131  1.00  0.00     0.177 A 
ATOM     19  C   UNL     1       6.725  -1.153   4.663  1.00  0.00     0.177 A 
ATOM     20  F   UNL     1       9.087  -2.631   2.314  1.00  0.00    -0.203 F 
ATOM     21  C   UNL     1       9.015  -0.463   3.237  1.00  0.00     0.198 A 
ATOM     22  C   UNL     1       7.236   0.138   4.744  1.00  0.00     0.198 A 
ATOM     23  F   UNL     1       5.592  -1.457   5.310  1.00  0.00    -0.203 F 
ATOM     24  F   UNL     1      10.105  -0.123   2.535  1.00  0.00    -0.200 F 
ATOM     25  C   UNL     1       8.373   0.485   4.024  1.00  0.00     0.200 A 
ATOM     26  F   UNL     1       6.588   1.068   5.458  1.00  0.00    -0.200 F 
ATOM     27  F   UNL     1       8.827   1.745   4.058  1.00  0.00    -0.200 F 
ENDBRANCH  14  17
ENDBRANCH  12  13
ENDBRANCH   5   7
ENDBRANCH   2   3
ENDBRANCH   1   2
BRANCH   1  28
ATOM     28  C   UNL     1       4.293   1.915  -3.705  1.00  0.00     0.023 C 
BRANCH  28  29
ATOM     29  C   UNL     1       4.693   3.241  -3.066  1.00  0.00     0.116 C 
BRANCH  29  30
ATOM     30  N   UNL     1       6.133   3.397  -2.898  1.00  0.00    -0.352 N 
ATOM     31  C   UNL     1       6.990   4.329  -3.437  1.00  0.00     0.251 C 
ATOM     32  H   UNL     1       6.558   2.734  -2.307  1.00  0.00     0.163 HD
ATOM     33  O   UNL     1       8.199   4.236  -3.256  1.00  0.00    -0.269 OA
BRANCH  31  34
ATOM     34  C   UNL     1       6.453   5.415  -4.282  1.00  0.00     0.039 A 
ATOM     35  C   UNL     1       7.017   5.629  -5.542  1.00  0.00     0.014 A 
ATOM     36  C   UNL     1       5.362   6.175  -3.858  1.00  0.00     0.014 A 
ATOM     37  C   UNL     1       6.406   6.518  -6.428  1.00  0.00     0.010 A 
ATOM     38  C   UNL     1       4.710   7.003  -4.766  1.00  0.00     0.010 A 
ATOM     39  C   UNL     1       5.210   7.160  -6.068  1.00  0.00    -0.014 A 
BRANCH  39  40
ATOM     40  C   UNL     1       4.423   7.940  -7.054  1.00  0.00     0.031 A 
ATOM     41  C   UNL     1       4.183   9.406  -6.847  1.00  0.00     0.074 A 
ATOM     42  C   UNL     1       3.822   7.296  -8.074  1.00  0.00     0.049 A 
ATOM     43  N   UNL     1       3.415  10.222  -7.523  1.00  0.00    -0.248 NA
ATOM     44  C   UNL     1       4.873  10.029  -5.708  1.00  0.00     0.031 C 
ATOM     45  C   UNL     1       3.921   5.860  -8.343  1.00  0.00     0.029 A 
ATOM     46  N   UNL     1       2.983   7.760  -9.057  1.00  0.00    -0.354 N 
ATOM     47  C   UNL     1       3.515  11.449  -6.882  1.00  0.00     0.074 A 
ATOM     48  C   UNL     1       4.381  11.259  -5.738  1.00  0.00     0.031 C 
ATOM     49  C   UNL     1       3.176   5.561  -9.418  1.00  0.00     0.029 A 
ATOM     50  C   UNL     1       2.518   6.775  -9.892  1.00  0.00     0.049 A 
ATOM     51  H   UNL     1       2.738   8.709  -9.153  1.00  0.00     0.167 HD
ATOM     52  C   UNL     1       2.949  12.629  -7.229  1.00  0.00     0.037 A 
ATOM     53  C   UNL     1       1.643   6.836 -10.914  1.00  0.00     0.037 A 
ATOM     54  C   UNL     1       2.110  12.820  -8.382  1.00  0.00     0.049 A 
ATOM     55  C   UNL     1       1.034   8.157 -11.285  1.00  0.00     0.074 A 
ATOM     56  C   UNL     1       1.571  13.997  -8.873  1.00  0.00     0.029 A 
ATOM     57  N   UNL     1       1.683  11.803  -9.223  1.00  0.00    -0.354 N 
ATOM     58  N   UNL     1       1.199   9.328 -10.721  1.00  0.00    -0.248 NA
ATOM     59  C   UNL     1       0.117   8.166 -12.434  1.00  0.00     0.031 C 
ATOM     60  C   UNL     1       0.785  13.686  -9.988  1.00  0.00     0.029 A 
ATOM     61  C   UNL     1       0.862  12.321 -10.213  1.00  0.00     0.049 A 
ATOM     62  H   UNL     1       1.927  10.854  -9.131  1.00  0.00     0.167 HD
ATOM     63  C   UNL     1       0.415  10.214 -11.445  1.00  0.00     0.074 A 
ATOM     64  C   UNL     1      -0.212   9.449 -12.504  1.00  0.00     0.031 C 
ATOM     65  C   UNL     1       0.231  11.542 -11.248  1.00  0.00     0.037 A 
BRANCH  52  66
ATOM     66  C   UNL     1       3.225  13.808  -6.345  1.00  0.00     0.064 A 
ATOM     67  C   UNL     1       4.489  14.417  -6.308  1.00  0.00     0.173 A 
ATOM     68  C   UNL     1       2.213  14.345  -5.536  1.00  0.00     0.173 A 
ATOM     69  F   UNL     1       5.494  13.931  -7.054  1.00  0.00    -0.203 F 
ATOM     70  C   UNL     1       4.739  15.499  -5.469  1.00  0.00     0.198 A 
ATOM     71  C   UNL     1       2.459  15.445  -4.718  1.00  0.00     0.198 A 
ATOM     72  F   UNL     1       0.987  13.803  -5.538  1.00  0.00    -0.203 F 
ATOM     73  F   UNL     1       5.967  16.031  -5.412  1.00  0.00    -0.200 F 
ATOM     74  C   UNL     1       3.723  16.015  -4.679  1.00  0.00     0.200 A 
ATOM     75  F   UNL     1       1.475  15.948  -3.960  1.00  0.00    -0.200 F 
ATOM     76  F   UNL     1       3.965  17.056  -3.870  1.00  0.00    -0.200 F 
ENDBRANCH  52  66
BRANCH  53  77
ATOM     77  C   UNL     1       1.300   5.597 -11.656  1.00  0.00     0.064 A 
ATOM     78  C   UNL     1       1.803   5.368 -12.943  1.00  0.00     0.173 A 
ATOM     79  C   UNL     1       0.493   4.605 -11.080  1.00  0.00     0.173 A 
ATOM     80  F   UNL     1       2.563   6.298 -13.539  1.00  0.00    -0.203 F 
ATOM     81  C   UNL     1       1.508   4.193 -13.630  1.00  0.00     0.198 A 
ATOM     82  C   UNL     1       0.216   3.421 -11.760  1.00  0.00     0.198 A 
ATOM     83  F   UNL     1      -0.007   4.777  -9.848  1.00  0.00    -0.203 F 
ATOM     84  F   UNL     1       1.982   4.007 -14.869  1.00  0.00    -0.200 F 
ATOM     85  C   UNL     1       0.721   3.217 -13.035  1.00  0.00     0.200 A 
ATOM     86  F   UNL     1      -0.534   2.476 -11.177  1.00  0.00    -0.200 F 
ATOM     87  F   UNL     1       0.448   2.082 -13.692  1.00  0.00    -0.200 F 
ENDBRANCH  53  77
BRANCH  65  88
ATOM     88  C   UNL     1      -0.690  12.252 -12.194  1.00  0.00     0.064 A 
ATOM     89  C   UNL     1      -2.082  12.106 -12.100  1.00  0.00     0.173 A 
ATOM     90  C   UNL     1      -0.182  13.118 -13.173  1.00  0.00     0.173 A 
ATOM     91  F   UNL     1      -2.613  11.274 -11.191  1.00  0.00    -0.203 F 
ATOM     92  C   UNL     1      -2.932  12.791 -12.963  1.00  0.00     0.198 A 
ATOM     93  C   UNL     1      -1.036  13.819 -14.020  1.00  0.00     0.198 A 
ATOM     94  F   UNL     1       1.142  13.292 -13.300  1.00  0.00    -0.203 F 
ATOM     95  F   UNL     1      -4.257  12.611 -12.879  1.00  0.00    -0.200 F 
ATOM     96  C   UNL     1      -2.409  13.652 -13.917  1.00  0.00     0.200 A 
ATOM     97  F   UNL     1      -0.530  14.656 -14.935  1.00  0.00    -0.200 F 
ATOM     98  F   UNL     1      -3.229  14.317 -14.742  1.00  0.00    -0.200 F 
ENDBRANCH  65  88
ENDBRANCH  39  40
ENDBRANCH  31  34
ENDBRANCH  29  30
ENDBRANCH  28  29
ENDBRANCH   1  28
TORSDOF 13
