REMARK SMILES COc1ccc(-c2cc(=O)oc3cc(OCC(=O)N[C@@H](C)C(=O)NCCCCNC(=O)c4ccc(-c5c6nc(c(-c7c(F)c(F)c(F)c(F)c7F)c7ccc([nH]7)c(-c7c(F)c(F)c(F)c(F)c7F)c7nc(c(-c8c(F)c(F)c(F)c(F)c8F)c8ccc5[nH]8)C=C7)C=C6)cc4)ccc23)cc1
REMARK SMILES IDX 22 1 23 2 24 3 20 5 21 6 19 7 17 8 18 9 16 11 15 12 14 13
REMARK SMILES IDX 7 14 8 15 97 16 9 17 12 18 96 19 10 20 11 21 13 22 95 23
REMARK SMILES IDX 6 24 3 25 4 26 99 27 5 28 98 29 2 30 1 31 25 32 26 33 27 34
REMARK SMILES IDX 28 35 29 36 30 37 31 39 32 40 33 41 94 42 34 43 93 44 35 45
REMARK SMILES IDX 36 46 37 47 87 48 38 49 92 50 86 51 88 52 39 53 91 54 85 55
REMARK SMILES IDX 84 56 40 58 72 59 52 60 71 61 53 62 56 63 70 64 89 65 54 66
REMARK SMILES IDX 55 67 69 69 90 70 57 71 41 72 42 73 50 74 43 75 44 76 48 77
REMARK SMILES IDX 51 78 45 79 46 80 49 81 47 82 73 83 74 84 82 85 75 86 76 87
REMARK SMILES IDX 80 88 83 89 77 90 78 91 81 92 79 93 58 94 59 95 67 96 60 97
REMARK SMILES IDX 61 98 65 99 68 100 62 101 63 102 66 103 64 104
REMARK H PARENT 24 4 19 10 29 38 88 57 56 68
REMARK Flexibility Score: inf
ROOT
ATOM      1  C   UNL     1       8.288   1.578   4.120  1.00  0.00     0.242 C 
ATOM      2  O   UNL     1       7.641   2.432   4.729  1.00  0.00    -0.273 OA
ATOM      3  N   UNL     1       9.590   1.375   4.489  1.00  0.00    -0.354 N 
ATOM      4  H   UNL     1       9.941   2.028   5.137  1.00  0.00     0.163 HD
ENDROOT
BRANCH   1   5
ATOM      5  C   UNL     1       7.624   0.684   3.058  1.00  0.00     0.168 C 
ATOM      6  C   UNL     1       7.392  -0.707   3.654  1.00  0.00     0.041 C 
BRANCH   5   7
ATOM      7  N   UNL     1       8.447   0.708   1.843  1.00  0.00    -0.342 N 
ATOM      8  C   UNL     1       8.071   0.672   0.531  1.00  0.00     0.258 C 
ATOM      9  O   UNL     1       8.930   0.866  -0.331  1.00  0.00    -0.271 OA
ATOM     10  H   UNL     1       9.418   0.757   1.997  1.00  0.00     0.164 HD
BRANCH   8  11
ATOM     11  C   UNL     1       6.625   0.409   0.172  1.00  0.00     0.329 C 
BRANCH  11  12
ATOM     12  O   UNL     1       6.317  -0.812   0.822  1.00  0.00    -0.484 OA
BRANCH  12  13
ATOM     13  C   UNL     1       5.949  -1.879   0.066  1.00  0.00     0.123 A 
ATOM     14  C   UNL     1       3.383  -4.920  -0.261  1.00  0.00    -0.000 A 
ATOM     15  C   UNL     1       3.617  -6.112   0.306  1.00  0.00     0.103 A 
ATOM     16  C   UNL     1       4.557  -4.116  -0.670  1.00  0.00     0.026 A 
ATOM     17  C   UNL     1       5.009  -6.533   0.595  1.00  0.00     0.336 A 
ATOM     18  C   UNL     1       5.645  -4.253   0.179  1.00  0.00     0.142 A 
ATOM     19  C   UNL     1       4.364  -2.931  -1.389  1.00  0.00     0.016 A 
ATOM     20  O   UNL     1       5.282  -7.700   0.834  1.00  0.00    -0.246 OA
ATOM     21  O   UNL     1       5.923  -5.493   0.768  1.00  0.00    -0.423 OA
ATOM     22  C   UNL     1       6.331  -3.123   0.585  1.00  0.00     0.094 A 
ATOM     23  C   UNL     1       5.052  -1.789  -0.996  1.00  0.00     0.047 A 
BRANCH  14  24
ATOM     24  C   UNL     1       2.130  -4.210   0.105  1.00  0.00    -0.017 A 
ATOM     25  C   UNL     1       0.208  -2.241   0.490  1.00  0.00     0.118 A 
ATOM     26  C   UNL     1       0.001  -3.245  -0.461  1.00  0.00     0.047 A 
ATOM     27  C   UNL     1       1.301  -2.281   1.343  1.00  0.00     0.047 A 
ATOM     28  C   UNL     1       0.973  -4.231  -0.668  1.00  0.00     0.012 A 
ATOM     29  C   UNL     1       2.256  -3.269   1.154  1.00  0.00     0.012 A 
BRANCH  25  30
ATOM     30  O   UNL     1      -0.671  -1.195   0.563  1.00  0.00    -0.497 OA
ATOM     31  C   UNL     1      -0.087  -0.037  -0.048  1.00  0.00     0.278 C 
ENDBRANCH  25  30
ENDBRANCH  14  24
ENDBRANCH  12  13
ENDBRANCH  11  12
ENDBRANCH   8  11
ENDBRANCH   5   7
ENDBRANCH   1   5
BRANCH   3  32
ATOM     32  C   UNL     1      10.542   0.352   4.081  1.00  0.00     0.116 C 
BRANCH  32  33
ATOM     33  C   UNL     1      11.703   0.937   3.279  1.00  0.00     0.023 C 
BRANCH  33  34
ATOM     34  C   UNL     1      12.587   1.910   4.057  1.00  0.00     0.023 C 
BRANCH  34  35
ATOM     35  C   UNL     1      13.117   1.379   5.381  1.00  0.00     0.116 C 
BRANCH  35  36
ATOM     36  N   UNL     1      13.837   0.124   5.244  1.00  0.00    -0.352 N 
ATOM     37  C   UNL     1      14.951  -0.306   5.917  1.00  0.00     0.251 C 
ATOM     38  H   UNL     1      13.475  -0.502   4.577  1.00  0.00     0.163 HD
ATOM     39  O   UNL     1      15.496  -1.358   5.596  1.00  0.00    -0.269 OA
BRANCH  37  40
ATOM     40  C   UNL     1      15.515   0.514   7.008  1.00  0.00     0.039 A 
ATOM     41  C   UNL     1      16.898   0.701   7.054  1.00  0.00     0.014 A 
ATOM     42  C   UNL     1      14.693   1.084   7.985  1.00  0.00     0.014 A 
ATOM     43  C   UNL     1      17.456   1.489   8.060  1.00  0.00     0.010 A 
ATOM     44  C   UNL     1      15.242   1.929   8.944  1.00  0.00     0.010 A 
ATOM     45  C   UNL     1      16.630   2.120   9.004  1.00  0.00    -0.014 A 
BRANCH  45  46
ATOM     46  C   UNL     1      17.212   2.946  10.087  1.00  0.00     0.031 A 
ATOM     47  C   UNL     1      17.108   2.493  11.515  1.00  0.00     0.074 A 
ATOM     48  C   UNL     1      17.785   4.127   9.791  1.00  0.00     0.049 A 
ATOM     49  N   UNL     1      17.541   3.076  12.604  1.00  0.00    -0.248 NA
ATOM     50  C   UNL     1      16.388   1.232  11.755  1.00  0.00     0.031 C 
ATOM     51  C   UNL     1      17.874   4.711   8.453  1.00  0.00     0.029 A 
ATOM     52  N   UNL     1      18.392   5.051  10.602  1.00  0.00    -0.354 N 
ATOM     53  C   UNL     1      17.127   2.267  13.653  1.00  0.00     0.074 A 
ATOM     54  C   UNL     1      16.362   1.183  13.077  1.00  0.00     0.031 C 
ATOM     55  C   UNL     1      18.515   5.889   8.532  1.00  0.00     0.029 A 
ATOM     56  C   UNL     1      18.869   6.145   9.925  1.00  0.00     0.049 A 
ATOM     57  H   UNL     1      18.477   4.940  11.577  1.00  0.00     0.167 HD
ATOM     58  C   UNL     1      17.384   2.402  14.976  1.00  0.00     0.037 A 
ATOM     59  C   UNL     1      19.529   7.226  10.380  1.00  0.00     0.037 A 
ATOM     60  C   UNL     1      18.180   3.460  15.540  1.00  0.00     0.049 A 
ATOM     61  C   UNL     1      19.877   7.315  11.839  1.00  0.00     0.074 A 
ATOM     62  C   UNL     1      18.568   3.645  16.854  1.00  0.00     0.029 A 
ATOM     63  N   UNL     1      18.713   4.514  14.812  1.00  0.00    -0.354 N 
ATOM     64  N   UNL     1      19.561   6.498  12.814  1.00  0.00    -0.248 NA
ATOM     65  C   UNL     1      20.693   8.463  12.257  1.00  0.00     0.031 C 
ATOM     66  C   UNL     1      19.312   4.829  16.927  1.00  0.00     0.029 A 
ATOM     67  C   UNL     1      19.419   5.360  15.651  1.00  0.00     0.049 A 
ATOM     68  H   UNL     1      18.605   4.642  13.842  1.00  0.00     0.167 HD
ATOM     69  C   UNL     1      20.156   7.017  13.956  1.00  0.00     0.074 A 
ATOM     70  C   UNL     1      20.864   8.213  13.548  1.00  0.00     0.031 C 
ATOM     71  C   UNL     1      20.119   6.545  15.226  1.00  0.00     0.037 A 
BRANCH  58  72
ATOM     72  C   UNL     1      16.794   1.373  15.896  1.00  0.00     0.064 A 
ATOM     73  C   UNL     1      17.250   0.046  15.905  1.00  0.00     0.173 A 
ATOM     74  C   UNL     1      15.753   1.715  16.772  1.00  0.00     0.173 A 
ATOM     75  F   UNL     1      18.233  -0.336  15.075  1.00  0.00    -0.203 F 
ATOM     76  C   UNL     1      16.657  -0.910  16.725  1.00  0.00     0.198 A 
ATOM     77  C   UNL     1      15.183   0.763  17.613  1.00  0.00     0.198 A 
ATOM     78  F   UNL     1      15.282   2.970  16.806  1.00  0.00    -0.203 F 
ATOM     79  F   UNL     1      17.066  -2.186  16.668  1.00  0.00    -0.200 F 
ATOM     80  C   UNL     1      15.627  -0.551  17.581  1.00  0.00     0.200 A 
ATOM     81  F   UNL     1      14.193   1.113  18.446  1.00  0.00    -0.200 F 
ATOM     82  F   UNL     1      15.053  -1.474  18.365  1.00  0.00    -0.200 F 
ENDBRANCH  58  72
BRANCH  59  83
ATOM     83  C   UNL     1      19.953   8.276   9.421  1.00  0.00     0.064 A 
ATOM     84  C   UNL     1      21.293   8.392   9.027  1.00  0.00     0.173 A 
ATOM     85  C   UNL     1      19.023   9.156   8.850  1.00  0.00     0.173 A 
ATOM     86  F   UNL     1      22.218   7.580   9.559  1.00  0.00    -0.203 F 
ATOM     87  C   UNL     1      21.690   9.357   8.105  1.00  0.00     0.198 A 
ATOM     88  C   UNL     1      19.419  10.107   7.912  1.00  0.00     0.198 A 
ATOM     89  F   UNL     1      17.728   9.077   9.188  1.00  0.00    -0.203 F 
ATOM     90  F   UNL     1      22.982   9.464   7.766  1.00  0.00    -0.200 F 
ATOM     91  C   UNL     1      20.752  10.210   7.543  1.00  0.00     0.200 A 
ATOM     92  F   UNL     1      18.507  10.920   7.360  1.00  0.00    -0.200 F 
ATOM     93  F   UNL     1      21.133  11.130   6.647  1.00  0.00    -0.200 F 
ENDBRANCH  59  83
BRANCH  71  94
ATOM     94  C   UNL     1      20.887   7.311  16.262  1.00  0.00     0.064 A 
ATOM     95  C   UNL     1      20.437   8.549  16.742  1.00  0.00     0.173 A 
ATOM     96  C   UNL     1      22.070   6.784  16.802  1.00  0.00     0.173 A 
ATOM     97  F   UNL     1      19.320   9.100  16.246  1.00  0.00    -0.203 F 
ATOM     98  C   UNL     1      21.158   9.244  17.709  1.00  0.00     0.198 A 
ATOM     99  C   UNL     1      22.774   7.470  17.787  1.00  0.00     0.198 A 
ATOM    100  F   UNL     1      22.538   5.600  16.379  1.00  0.00    -0.203 F 
ATOM    101  F   UNL     1      20.735  10.447  18.123  1.00  0.00    -0.200 F 
ATOM    102  C   UNL     1      22.322   8.702  18.235  1.00  0.00     0.200 A 
ATOM    103  F   UNL     1      23.893   6.940  18.300  1.00  0.00    -0.200 F 
ATOM    104  F   UNL     1      23.013   9.372  19.167  1.00  0.00    -0.200 F 
ENDBRANCH  71  94
ENDBRANCH  45  46
ENDBRANCH  37  40
ENDBRANCH  35  36
ENDBRANCH  34  35
ENDBRANCH  33  34
ENDBRANCH  32  33
ENDBRANCH   3  32
TORSDOF 17
