REMARK SMILES Cc1noc2c1-c1c(c(C(=O)NCCCCNC(=O)c3ccc(-c4c5nc(c(-c6c(F)c(F)c(F)c(F)c6F)c6ccc([nH]6)c(-c6c(F)c(F)c(F)c(F)c6F)c6nc(c(-c7c(F)c(F)c(F)c(F)c7F)c7ccc4[nH]7)C=C6)C=C5)cc3)nn1C)CC2
REMARK SMILES IDX 15 1 14 2 13 3 12 4 10 5 11 6 9 8 1 9 2 10 3 11 6 12 4 13
REMARK SMILES IDX 5 14 7 15 87 16 8 17 84 18 86 19 83 20 85 21 16 22 17 23
REMARK SMILES IDX 18 24 19 26 20 27 21 28 82 29 22 30 81 31 23 32 24 33 25 34
REMARK SMILES IDX 75 35 26 36 80 37 74 38 76 39 27 40 79 41 73 42 72 43 28 45
REMARK SMILES IDX 60 46 40 47 59 48 41 49 44 50 58 51 77 52 42 53 43 54 57 56
REMARK SMILES IDX 78 57 45 58 29 59 30 60 38 61 31 62 32 63 36 64 39 65 33 66
REMARK SMILES IDX 34 67 37 68 35 69 61 70 62 71 70 72 63 73 64 74 68 75 71 76
REMARK SMILES IDX 65 77 66 78 69 79 67 80 46 81 47 82 55 83 48 84 49 85 53 86
REMARK SMILES IDX 56 87 50 88 51 89 54 90 52 91
REMARK H PARENT 12 7 17 25 76 44 44 55
REMARK Flexibility Score: inf
ROOT
ATOM      1  C   UNL     1       4.866   8.759  -1.792  1.00  0.00     0.023 C 
ENDROOT
BRANCH   1   2
ATOM      2  C   UNL     1       4.640   7.345  -1.256  1.00  0.00     0.023 C 
BRANCH   2   3
ATOM      3  C   UNL     1       3.436   6.558  -1.767  1.00  0.00     0.116 C 
BRANCH   3   4
ATOM      4  N   UNL     1       3.431   6.191  -3.160  1.00  0.00    -0.351 N 
ATOM      5  C   UNL     1       2.895   5.064  -3.764  1.00  0.00     0.272 C 
ATOM      6  O   UNL     1       3.011   5.013  -4.992  1.00  0.00    -0.267 OA
ATOM      7  H   UNL     1       3.868   6.830  -3.768  1.00  0.00     0.163 HD
BRANCH   5   8
ATOM      8  C   UNL     1       2.274   3.956  -2.984  1.00  0.00     0.154 A 
ATOM      9  C   UNL     1       0.813  -0.368   0.297  1.00  0.00     0.071 C 
ATOM     10  C   UNL     1       0.334   1.019   0.475  1.00  0.00     0.090 A 
ATOM     11  N   UNL     1      -0.408   1.312   1.560  1.00  0.00    -0.084 NA
ATOM     12  C   UNL     1       0.551   2.172  -0.301  1.00  0.00     0.066 A 
ATOM     13  O   UNL     1      -0.693   2.669   1.484  1.00  0.00    -0.360 OA
ATOM     14  C   UNL     1      -0.118   3.162   0.370  1.00  0.00     0.146 A 
ATOM     15  C   UNL     1       1.266   2.580  -1.527  1.00  0.00     0.077 A 
ATOM     16  C   UNL     1      -0.296   4.579  -0.016  1.00  0.00     0.084 C 
ATOM     17  C   UNL     1       1.434   3.930  -1.815  1.00  0.00     0.012 A 
ATOM     18  N   UNL     1       1.845   1.890  -2.539  1.00  0.00    -0.267 N 
ATOM     19  C   UNL     1       0.865   5.024  -0.939  1.00  0.00     0.048 C 
ATOM     20  N   UNL     1       2.477   2.689  -3.415  1.00  0.00    -0.167 NA
ATOM     21  C   UNL     1       1.769   0.477  -2.818  1.00  0.00     0.174 C 
ENDBRANCH   5   8
ENDBRANCH   3   4
ENDBRANCH   2   3
ENDBRANCH   1   2
BRANCH   1  22
ATOM     22  C   UNL     1       3.689   9.716  -1.665  1.00  0.00     0.116 C 
BRANCH  22  23
ATOM     23  N   UNL     1       3.300  10.029  -0.294  1.00  0.00    -0.352 N 
ATOM     24  C   UNL     1       2.331  10.946   0.102  1.00  0.00     0.251 C 
ATOM     25  H   UNL     1       3.769   9.543   0.422  1.00  0.00     0.163 HD
ATOM     26  O   UNL     1       2.251  11.351   1.237  1.00  0.00    -0.269 OA
BRANCH  24  27
ATOM     27  C   UNL     1       1.399  11.425  -0.942  1.00  0.00     0.039 A 
ATOM     28  C   UNL     1       1.278  12.788  -1.223  1.00  0.00     0.014 A 
ATOM     29  C   UNL     1       0.753  10.469  -1.719  1.00  0.00     0.014 A 
ATOM     30  C   UNL     1       0.588  13.182  -2.371  1.00  0.00     0.010 A 
ATOM     31  C   UNL     1       0.169  10.854  -2.906  1.00  0.00     0.010 A 
ATOM     32  C   UNL     1       0.063  12.210  -3.236  1.00  0.00    -0.014 A 
BRANCH  32  33
ATOM     33  C   UNL     1      -0.492  12.590  -4.541  1.00  0.00     0.031 A 
ATOM     34  C   UNL     1       0.388  13.373  -5.471  1.00  0.00     0.074 A 
ATOM     35  C   UNL     1      -1.623  12.036  -5.030  1.00  0.00     0.049 A 
ATOM     36  N   UNL     1       0.109  14.464  -6.115  1.00  0.00    -0.248 NA
ATOM     37  C   UNL     1       1.754  12.882  -5.715  1.00  0.00     0.031 C 
ATOM     38  C   UNL     1      -2.471  11.007  -4.418  1.00  0.00     0.029 A 
ATOM     39  N   UNL     1      -2.171  12.181  -6.269  1.00  0.00    -0.354 N 
ATOM     40  C   UNL     1       1.202  14.736  -6.942  1.00  0.00     0.074 A 
ATOM     41  C   UNL     1       2.217  13.775  -6.593  1.00  0.00     0.031 C 
ATOM     42  C   UNL     1      -3.255  10.451  -5.366  1.00  0.00     0.029 A 
ATOM     43  C   UNL     1      -3.088  11.195  -6.600  1.00  0.00     0.049 A 
ATOM     44  H   UNL     1      -1.937  12.921  -6.876  1.00  0.00     0.167 HD
ATOM     45  C   UNL     1       1.140  15.641  -7.963  1.00  0.00     0.037 A 
ATOM     46  C   UNL     1      -3.648  10.977  -7.812  1.00  0.00     0.037 A 
ATOM     47  C   UNL     1       0.023  16.534  -7.816  1.00  0.00     0.049 A 
ATOM     48  C   UNL     1      -3.517  12.227  -8.597  1.00  0.00     0.074 A 
ATOM     49  C   UNL     1      -0.380  17.436  -6.849  1.00  0.00     0.029 A 
ATOM     50  N   UNL     1      -1.073  16.369  -8.626  1.00  0.00    -0.354 N 
ATOM     51  N   UNL     1      -4.163  13.327  -8.329  1.00  0.00    -0.248 NA
ATOM     52  C   UNL     1      -2.348  12.379  -9.450  1.00  0.00     0.031 C 
ATOM     53  C   UNL     1      -1.802  17.326  -6.817  1.00  0.00     0.029 A 
ATOM     54  C   UNL     1      -2.163  16.401  -7.796  1.00  0.00     0.049 A 
ATOM     55  H   UNL     1      -1.075  16.251  -9.603  1.00  0.00     0.167 HD
ATOM     56  C   UNL     1      -3.261  14.340  -8.612  1.00  0.00     0.074 A 
ATOM     57  C   UNL     1      -2.211  13.706  -9.402  1.00  0.00     0.031 C 
ATOM     58  C   UNL     1      -3.302  15.530  -7.943  1.00  0.00     0.037 A 
BRANCH  45  59
ATOM     59  C   UNL     1       1.923  15.564  -9.253  1.00  0.00     0.064 A 
ATOM     60  C   UNL     1       1.912  16.659 -10.145  1.00  0.00     0.173 A 
ATOM     61  C   UNL     1       2.431  14.360  -9.781  1.00  0.00     0.173 A 
ATOM     62  F   UNL     1       1.435  17.852  -9.759  1.00  0.00    -0.203 F 
ATOM     63  C   UNL     1       2.304  16.533 -11.482  1.00  0.00     0.198 A 
ATOM     64  C   UNL     1       2.872  14.251 -11.102  1.00  0.00     0.198 A 
ATOM     65  F   UNL     1       2.418  13.221  -9.078  1.00  0.00    -0.203 F 
ATOM     66  F   UNL     1       2.156  17.568 -12.321  1.00  0.00    -0.200 F 
ATOM     67  C   UNL     1       2.778  15.327 -11.961  1.00  0.00     0.200 A 
ATOM     68  F   UNL     1       3.314  13.069 -11.554  1.00  0.00    -0.200 F 
ATOM     69  F   UNL     1       3.096  15.185 -13.254  1.00  0.00    -0.200 F 
ENDBRANCH  45  59
BRANCH  46  70
ATOM     70  C   UNL     1      -4.115   9.702  -8.399  1.00  0.00     0.064 A 
ATOM     71  C   UNL     1      -4.997   9.686  -9.489  1.00  0.00     0.173 A 
ATOM     72  C   UNL     1      -3.512   8.475  -8.059  1.00  0.00     0.173 A 
ATOM     73  F   UNL     1      -5.580  10.820  -9.904  1.00  0.00    -0.203 F 
ATOM     74  C   UNL     1      -5.245   8.515 -10.211  1.00  0.00     0.198 A 
ATOM     75  C   UNL     1      -3.771   7.304  -8.772  1.00  0.00     0.198 A 
ATOM     76  F   UNL     1      -2.594   8.404  -7.084  1.00  0.00    -0.203 F 
ATOM     77  F   UNL     1      -6.048   8.550 -11.284  1.00  0.00    -0.200 F 
ATOM     78  C   UNL     1      -4.627   7.327  -9.857  1.00  0.00     0.200 A 
ATOM     79  F   UNL     1      -3.143   6.168  -8.436  1.00  0.00    -0.200 F 
ATOM     80  F   UNL     1      -4.824   6.217 -10.582  1.00  0.00    -0.200 F 
ENDBRANCH  46  70
BRANCH  58  81
ATOM     81  C   UNL     1      -4.491  15.813  -7.071  1.00  0.00     0.064 A 
ATOM     82  C   UNL     1      -4.839  15.037  -5.951  1.00  0.00     0.173 A 
ATOM     83  C   UNL     1      -5.213  16.995  -7.280  1.00  0.00     0.173 A 
ATOM     84  F   UNL     1      -4.127  13.957  -5.612  1.00  0.00    -0.203 F 
ATOM     85  C   UNL     1      -5.893  15.398  -5.116  1.00  0.00     0.198 A 
ATOM     86  C   UNL     1      -6.242  17.375  -6.422  1.00  0.00     0.198 A 
ATOM     87  F   UNL     1      -4.885  17.813  -8.294  1.00  0.00    -0.203 F 
ATOM     88  F   UNL     1      -6.211  14.629  -4.064  1.00  0.00    -0.200 F 
ATOM     89  C   UNL     1      -6.590  16.571  -5.349  1.00  0.00     0.200 A 
ATOM     90  F   UNL     1      -6.879  18.538  -6.620  1.00  0.00    -0.200 F 
ATOM     91  F   UNL     1      -7.578  16.941  -4.522  1.00  0.00    -0.200 F 
ENDBRANCH  58  81
ENDBRANCH  32  33
ENDBRANCH  24  27
ENDBRANCH  22  23
ENDBRANCH   1  22
TORSDOF 11
