REMARK SMILES [NH3+]C1(C(=O)N2[C@@H](C(=O)NCCCCNC(=O)c3ccc(-c4c5nc(c(-c6c(F)c(F)c(F)c(F)c6F)c6ccc([nH]6)c(-c6c(F)c(F)c(F)c(F)c6F)c6nc(c(-c7c(F)c(F)c(F)c(F)c7F)c7ccc4[nH]7)C=C6)C=C5)cc3)CC[C@@H]3CCCC[C@@H]32)CC1
REMARK SMILES IDX 11 1 10 2 9 3 7 4 8 5 6 7 5 8 87 9 80 10 82 11 86 12 81 13
REMARK SMILES IDX 83 14 85 15 84 16 3 17 4 18 2 19 88 20 89 21 1 22 12 26
REMARK SMILES IDX 13 27 14 28 15 29 16 31 17 32 18 33 79 34 19 35 78 36 20 37
REMARK SMILES IDX 21 38 22 39 72 40 23 41 77 42 71 43 73 44 24 45 76 46 70 47
REMARK SMILES IDX 69 48 25 50 57 51 37 52 56 53 38 54 41 55 55 56 74 57 39 58
REMARK SMILES IDX 40 59 54 61 75 62 42 63 26 64 27 65 35 66 28 67 29 68 33 69
REMARK SMILES IDX 36 70 30 71 31 72 34 73 32 74 58 75 59 76 67 77 60 78 61 79
REMARK SMILES IDX 65 80 68 81 62 82 63 83 66 84 64 85 43 86 44 87 52 88 45 89
REMARK SMILES IDX 46 90 50 91 53 92 47 93 48 94 51 95 49 96
REMARK H PARENT 9 6 1 23 1 24 1 25 14 30 73 49 41 60
REMARK Flexibility Score: inf
ROOT
ATOM      1  C   UNL     1      -1.814  -4.605  -0.902  1.00  0.00     0.023 C 
ENDROOT
BRANCH   1   2
ATOM      2  C   UNL     1      -1.238  -3.190  -0.894  1.00  0.00     0.116 C 
BRANCH   2   3
ATOM      3  N   UNL     1      -0.395  -2.986  -2.054  1.00  0.00    -0.354 N 
ATOM      4  C   UNL     1      -0.623  -2.227  -3.158  1.00  0.00     0.242 C 
ATOM      5  O   UNL     1       0.044  -2.482  -4.165  1.00  0.00    -0.273 OA
ATOM      6  H   UNL     1       0.464  -3.466  -2.042  1.00  0.00     0.163 HD
BRANCH   4   7
ATOM      7  C   UNL     1      -1.761  -1.187  -3.213  1.00  0.00     0.175 C 
ATOM      8  N   UNL     1      -1.933  -0.294  -2.040  1.00  0.00    -0.322 N 
ATOM      9  C   UNL     1      -3.187   0.490  -1.989  1.00  0.00     0.089 C 
ATOM     10  C   UNL     1      -3.049  -2.012  -3.491  1.00  0.00     0.036 C 
ATOM     11  C   UNL     1      -4.404  -0.419  -2.095  1.00  0.00     0.012 C 
ATOM     12  C   UNL     1      -3.185   1.620  -3.044  1.00  0.00     0.025 C 
ATOM     13  C   UNL     1      -4.351  -1.229  -3.393  1.00  0.00     0.008 C 
ATOM     14  C   UNL     1      -5.665   0.437  -1.969  1.00  0.00     0.006 C 
ATOM     15  C   UNL     1      -4.544   2.201  -3.460  1.00  0.00     0.002 C 
ATOM     16  C   UNL     1      -5.810   1.414  -3.124  1.00  0.00     0.000 C 
BRANCH   8  17
ATOM     17  C   UNL     1      -0.951   0.117  -1.129  1.00  0.00     0.284 C 
ATOM     18  O   UNL     1      -1.282   0.486   0.001  1.00  0.00    -0.268 OA
BRANCH  17  19
ATOM     19  C   UNL     1       0.540   0.154  -1.442  1.00  0.00     0.174 C 
ATOM     20  C   UNL     1       0.984   1.460  -2.098  1.00  0.00     0.086 C 
ATOM     21  C   UNL     1       1.210   0.163  -2.793  1.00  0.00     0.086 C 
BRANCH  19  22
ATOM     22  N   UNL     1       1.380  -0.256  -0.277  1.00  0.00    -0.345 N 
ATOM     23  H   UNL     1       0.820  -0.223   0.574  1.00  0.00     0.345 HD
ATOM     24  H   UNL     1       2.172   0.380  -0.188  1.00  0.00     0.345 HD
ATOM     25  H   UNL     1       1.722  -1.206  -0.422  1.00  0.00     0.345 HD
ENDBRANCH  19  22
ENDBRANCH  17  19
ENDBRANCH   8  17
ENDBRANCH   4   7
ENDBRANCH   2   3
ENDBRANCH   1   2
BRANCH   1  26
ATOM     26  C   UNL     1      -0.760  -5.708  -0.796  1.00  0.00     0.023 C 
BRANCH  26  27
ATOM     27  C   UNL     1       0.183  -5.562   0.389  1.00  0.00     0.116 C 
BRANCH  27  28
ATOM     28  N   UNL     1      -0.522  -5.525   1.660  1.00  0.00    -0.352 N 
ATOM     29  C   UNL     1      -0.240  -6.213   2.813  1.00  0.00     0.251 C 
ATOM     30  H   UNL     1      -1.305  -4.929   1.698  1.00  0.00     0.163 HD
ATOM     31  O   UNL     1      -1.028  -6.210   3.753  1.00  0.00    -0.269 OA
BRANCH  29  32
ATOM     32  C   UNL     1       1.013  -6.985   2.894  1.00  0.00     0.039 A 
ATOM     33  C   UNL     1       0.965  -8.308   3.334  1.00  0.00     0.014 A 
ATOM     34  C   UNL     1       2.221  -6.412   2.486  1.00  0.00     0.014 A 
ATOM     35  C   UNL     1       2.125  -9.081   3.308  1.00  0.00     0.010 A 
ATOM     36  C   UNL     1       3.355  -7.208   2.380  1.00  0.00     0.010 A 
ATOM     37  C   UNL     1       3.320  -8.547   2.796  1.00  0.00    -0.014 A 
BRANCH  37  38
ATOM     38  C   UNL     1       4.544  -9.377   2.686  1.00  0.00     0.031 A 
ATOM     39  C   UNL     1       5.775  -9.010   3.463  1.00  0.00     0.074 A 
ATOM     40  C   UNL     1       4.569 -10.414   1.827  1.00  0.00     0.049 A 
ATOM     41  N   UNL     1       6.957  -9.573   3.456  1.00  0.00    -0.248 NA
ATOM     42  C   UNL     1       5.676  -7.832   4.337  1.00  0.00     0.031 C 
ATOM     43  C   UNL     1       3.458 -10.825   0.968  1.00  0.00     0.029 A 
ATOM     44  N   UNL     1       5.571 -11.300   1.523  1.00  0.00    -0.354 N 
ATOM     45  C   UNL     1       7.743  -8.806   4.305  1.00  0.00     0.074 A 
ATOM     46  C   UNL     1       6.923  -7.705   4.762  1.00  0.00     0.031 C 
ATOM     47  C   UNL     1       3.833 -11.893   0.248  1.00  0.00     0.029 A 
ATOM     48  C   UNL     1       5.220 -12.218   0.565  1.00  0.00     0.049 A 
ATOM     49  H   UNL     1       6.457 -11.280   1.952  1.00  0.00     0.167 HD
ATOM     50  C   UNL     1       9.026  -9.015   4.687  1.00  0.00     0.037 A 
ATOM     51  C   UNL     1       5.939 -13.205  -0.003  1.00  0.00     0.037 A 
ATOM     52  C   UNL     1       9.826 -10.126   4.243  1.00  0.00     0.049 A 
ATOM     53  C   UNL     1       7.357 -13.430   0.446  1.00  0.00     0.074 A 
ATOM     54  C   UNL     1      11.104 -10.480   4.637  1.00  0.00     0.029 A 
ATOM     55  N   UNL     1       9.428 -11.057   3.294  1.00  0.00    -0.354 N 
ATOM     56  N   UNL     1       8.062 -12.758   1.323  1.00  0.00    -0.248 NA
ATOM     57  C   UNL     1       8.074 -14.557  -0.164  1.00  0.00     0.031 C 
ATOM     58  C   UNL     1      11.504 -11.587   3.879  1.00  0.00     0.029 A 
ATOM     59  C   UNL     1      10.450 -11.964   3.061  1.00  0.00     0.049 A 
ATOM     60  H   UNL     1       8.549 -11.072   2.851  1.00  0.00     0.167 HD
ATOM     61  C   UNL     1       9.297 -13.389   1.387  1.00  0.00     0.074 A 
ATOM     62  C   UNL     1       9.237 -14.510   0.470  1.00  0.00     0.031 C 
ATOM     63  C   UNL     1      10.380 -13.070   2.138  1.00  0.00     0.037 A 
BRANCH  50  64
ATOM     64  C   UNL     1       9.642  -8.009   5.618  1.00  0.00     0.064 A 
ATOM     65  C   UNL     1       9.197  -7.850   6.941  1.00  0.00     0.173 A 
ATOM     66  C   UNL     1      10.695  -7.191   5.181  1.00  0.00     0.173 A 
ATOM     67  F   UNL     1       8.187  -8.599   7.408  1.00  0.00    -0.203 F 
ATOM     68  C   UNL     1       9.750  -6.880   7.772  1.00  0.00     0.198 A 
ATOM     69  C   UNL     1      11.271  -6.247   6.028  1.00  0.00     0.198 A 
ATOM     70  F   UNL     1      11.166  -7.303   3.930  1.00  0.00    -0.203 F 
ATOM     71  F   UNL     1       9.259  -6.699   9.007  1.00  0.00    -0.200 F 
ATOM     72  C   UNL     1      10.789  -6.083   7.318  1.00  0.00     0.200 A 
ATOM     73  F   UNL     1      12.286  -5.489   5.592  1.00  0.00    -0.200 F 
ATOM     74  F   UNL     1      11.319  -5.148   8.119  1.00  0.00    -0.200 F 
ENDBRANCH  50  64
BRANCH  51  75
ATOM     75  C   UNL     1       5.311 -14.061  -1.041  1.00  0.00     0.064 A 
ATOM     76  C   UNL     1       4.977 -15.395  -0.773  1.00  0.00     0.173 A 
ATOM     77  C   UNL     1       4.994 -13.550  -2.308  1.00  0.00     0.173 A 
ATOM     78  F   UNL     1       5.275 -15.934   0.418  1.00  0.00    -0.203 F 
ATOM     79  C   UNL     1       4.357 -16.189  -1.737  1.00  0.00     0.198 A 
ATOM     80  C   UNL     1       4.349 -14.336  -3.261  1.00  0.00     0.198 A 
ATOM     81  F   UNL     1       5.285 -12.276  -2.611  1.00  0.00    -0.203 F 
ATOM     82  F   UNL     1       4.076 -17.470  -1.466  1.00  0.00    -0.200 F 
ATOM     83  C   UNL     1       4.035 -15.656  -2.976  1.00  0.00     0.200 A 
ATOM     84  F   UNL     1       4.024 -13.811  -4.450  1.00  0.00    -0.200 F 
ATOM     85  F   UNL     1       3.424 -16.414  -3.896  1.00  0.00    -0.200 F 
ENDBRANCH  51  75
BRANCH  63  86
ATOM     86  C   UNL     1      11.587 -13.958   2.019  1.00  0.00     0.064 A 
ATOM     87  C   UNL     1      12.383 -13.971   0.864  1.00  0.00     0.173 A 
ATOM     88  C   UNL     1      11.977 -14.772   3.093  1.00  0.00     0.173 A 
ATOM     89  F   UNL     1      12.046 -13.222  -0.198  1.00  0.00    -0.203 F 
ATOM     90  C   UNL     1      13.509 -14.786   0.779  1.00  0.00     0.198 A 
ATOM     91  C   UNL     1      13.122 -15.560   3.018  1.00  0.00     0.198 A 
ATOM     92  F   UNL     1      11.256 -14.792   4.224  1.00  0.00    -0.203 F 
ATOM     93  F   UNL     1      14.226 -14.820  -0.353  1.00  0.00    -0.200 F 
ATOM     94  C   UNL     1      13.883 -15.572   1.859  1.00  0.00     0.200 A 
ATOM     95  F   UNL     1      13.491 -16.306   4.068  1.00  0.00    -0.200 F 
ATOM     96  F   UNL     1      14.972 -16.348   1.779  1.00  0.00    -0.200 F 
ENDBRANCH  63  86
ENDBRANCH  37  38
ENDBRANCH  29  32
ENDBRANCH  27  28
ENDBRANCH  26  27
ENDBRANCH   1  26
TORSDOF 14
