REMARK SMILES CC1=C[C@@H]([C@@H]2N=N[C@H](S)N2/N=C/c2ccc(C(=O)NCCCCNC(=O)c3ccc(-c4c5nc(c(-c6c(F)c(F)c(F)c(F)c6F)c6ccc([nH]6)c(-c6c(F)c(F)c(F)c(F)c6F)c6nc(c(-c7c(F)c(F)c(F)c(F)c7F)c7ccc4[nH]7)C=C6)C=C5)cc3)cc2)N=N1
REMARK SMILES IDX 21 1 20 2 19 3 17 4 18 5 16 7 13 8 14 9 91 10 15 11 90 12
REMARK SMILES IDX 12 13 11 14 10 15 5 16 6 17 7 18 8 19 4 20 1 21 2 22 3 23
REMARK SMILES IDX 93 24 92 25 9 26 22 28 23 29 24 30 25 31 26 33 27 34 28 35
REMARK SMILES IDX 89 36 29 37 88 38 30 39 31 40 32 41 82 42 33 43 87 44 81 45
REMARK SMILES IDX 83 46 34 47 86 48 80 49 79 50 35 52 67 53 47 54 66 55 48 56
REMARK SMILES IDX 51 57 65 58 84 59 49 60 50 61 64 63 85 64 52 65 36 66 37 67
REMARK SMILES IDX 45 68 38 69 39 70 43 71 46 72 40 73 41 74 44 75 42 76 68 77
REMARK SMILES IDX 69 78 77 79 70 80 71 81 75 82 78 83 72 84 73 85 76 86 74 87
REMARK SMILES IDX 53 88 54 89 62 90 55 91 56 92 60 93 63 94 57 95 58 96 61 97
REMARK SMILES IDX 59 98
REMARK H PARENT 19 6 9 27 24 32 83 51 51 62
REMARK Flexibility Score: inf
ROOT
ATOM      1  C   UNL     1      -4.681  -0.516   4.522  1.00  0.00     0.023 C 
ENDROOT
BRANCH   1   2
ATOM      2  C   UNL     1      -5.014  -1.729   3.643  1.00  0.00     0.116 C 
BRANCH   2   3
ATOM      3  N   UNL     1      -6.425  -1.784   3.322  1.00  0.00    -0.352 N 
ATOM      4  C   UNL     1      -7.161  -1.308   2.268  1.00  0.00     0.251 C 
ATOM      5  O   UNL     1      -8.370  -1.548   2.281  1.00  0.00    -0.269 OA
ATOM      6  H   UNL     1      -6.964  -2.258   3.996  1.00  0.00     0.163 HD
BRANCH   4   7
ATOM      7  C   UNL     1      -6.587  -0.565   1.106  1.00  0.00     0.039 A 
ATOM      8  C   UNL     1      -5.678   0.768  -1.193  1.00  0.00    -0.005 A 
ATOM      9  C   UNL     1      -6.930   0.152  -1.202  1.00  0.00     0.010 A 
ATOM     10  C   UNL     1      -4.890   0.749  -0.049  1.00  0.00     0.010 A 
ATOM     11  C   UNL     1      -7.372  -0.520  -0.061  1.00  0.00     0.014 A 
ATOM     12  C   UNL     1      -5.362   0.112   1.102  1.00  0.00     0.014 A 
BRANCH   8  13
ATOM     13  C   UNL     1      -5.242   1.498  -2.391  1.00  0.00     0.141 C 
ATOM     14  N   UNL     1      -3.996   1.760  -2.636  1.00  0.00    -0.180 NA
BRANCH  14  15
ATOM     15  N   UNL     1      -3.718   2.481  -3.754  1.00  0.00    -0.233 NA
ATOM     16  C   UNL     1      -2.458   2.303  -4.490  1.00  0.00     0.274 C 
ATOM     17  N   UNL     1      -2.763   2.498  -5.936  1.00  0.00    -0.161 NA
ATOM     18  N   UNL     1      -3.924   2.942  -6.088  1.00  0.00    -0.153 NA
ATOM     19  C   UNL     1      -4.641   2.929  -4.800  1.00  0.00     0.298 C 
BRANCH  16  20
ATOM     20  C   UNL     1      -1.333   3.304  -4.055  1.00  0.00     0.201 C 
ATOM     21  C   UNL     1      -2.007   6.645  -5.428  1.00  0.00     0.068 C 
ATOM     22  C   UNL     1      -1.450   5.354  -4.951  1.00  0.00     0.058 C 
ATOM     23  C   UNL     1      -1.835   4.695  -3.860  1.00  0.00     0.031 C 
ATOM     24  N   UNL     1      -0.549   4.642  -5.701  1.00  0.00    -0.160 NA
ATOM     25  N   UNL     1      -0.370   3.497  -5.187  1.00  0.00    -0.177 NA
ENDBRANCH  16  20
BRANCH  19  26
ATOM     26  S   UNL     1      -5.410   4.507  -4.294  1.00  0.00    -0.128 SA
ATOM     27  H   UNL     1      -4.440   5.439  -4.089  1.00  0.00     0.106 HD
ENDBRANCH  19  26
ENDBRANCH  14  15
ENDBRANCH   8  13
ENDBRANCH   4   7
ENDBRANCH   2   3
ENDBRANCH   1   2
BRANCH   1  28
ATOM     28  C   UNL     1      -5.068  -0.641   6.003  1.00  0.00     0.023 C 
BRANCH  28  29
ATOM     29  C   UNL     1      -4.244  -1.641   6.805  1.00  0.00     0.116 C 
BRANCH  29  30
ATOM     30  N   UNL     1      -2.802  -1.344   6.810  1.00  0.00    -0.352 N 
ATOM     31  C   UNL     1      -1.749  -2.183   7.117  1.00  0.00     0.251 C 
ATOM     32  H   UNL     1      -2.556  -0.423   6.562  1.00  0.00     0.163 HD
ATOM     33  O   UNL     1      -0.638  -1.736   7.434  1.00  0.00    -0.269 OA
BRANCH  31  34
ATOM     34  C   UNL     1      -1.956  -3.631   7.022  1.00  0.00     0.039 A 
ATOM     35  C   UNL     1      -1.448  -4.562   7.934  1.00  0.00     0.014 A 
ATOM     36  C   UNL     1      -2.765  -4.037   5.973  1.00  0.00     0.014 A 
ATOM     37  C   UNL     1      -1.824  -5.898   7.798  1.00  0.00     0.010 A 
ATOM     38  C   UNL     1      -3.359  -5.258   6.028  1.00  0.00     0.010 A 
ATOM     39  C   UNL     1      -2.785  -6.228   6.835  1.00  0.00    -0.014 A 
BRANCH  39  40
ATOM     40  C   UNL     1      -3.217  -7.584   6.551  1.00  0.00     0.031 A 
ATOM     41  C   UNL     1      -3.974  -8.279   7.620  1.00  0.00     0.074 A 
ATOM     42  C   UNL     1      -3.193  -8.039   5.277  1.00  0.00     0.049 A 
ATOM     43  N   UNL     1      -3.653  -9.369   8.232  1.00  0.00    -0.248 NA
ATOM     44  C   UNL     1      -5.199  -7.649   8.133  1.00  0.00     0.031 C 
ATOM     45  C   UNL     1      -2.803  -7.333   4.044  1.00  0.00     0.029 A 
ATOM     46  N   UNL     1      -3.650  -9.221   4.800  1.00  0.00    -0.354 N 
ATOM     47  C   UNL     1      -4.694  -9.650   9.113  1.00  0.00     0.074 A 
ATOM     48  C   UNL     1      -5.543  -8.487   9.114  1.00  0.00     0.031 C 
ATOM     49  C   UNL     1      -3.260  -8.008   2.968  1.00  0.00     0.029 A 
ATOM     50  C   UNL     1      -3.804  -9.272   3.423  1.00  0.00     0.049 A 
ATOM     51  H   UNL     1      -3.857  -9.986   5.386  1.00  0.00     0.167 HD
ATOM     52  C   UNL     1      -4.864 -10.898   9.636  1.00  0.00     0.037 A 
ATOM     53  C   UNL     1      -4.374 -10.280   2.722  1.00  0.00     0.037 A 
ATOM     54  C   UNL     1      -3.706 -11.721   9.393  1.00  0.00     0.049 A 
ATOM     55  C   UNL     1      -4.358 -11.477   3.605  1.00  0.00     0.074 A 
ATOM     56  C   UNL     1      -2.384 -11.658   9.787  1.00  0.00     0.029 A 
ATOM     57  N   UNL     1      -3.735 -12.574   8.315  1.00  0.00    -0.354 N 
ATOM     58  N   UNL     1      -3.259 -12.075   3.986  1.00  0.00    -0.248 NA
ATOM     59  C   UNL     1      -5.515 -11.699   4.462  1.00  0.00     0.031 C 
ATOM     60  C   UNL     1      -1.642 -12.053   8.635  1.00  0.00     0.029 A 
ATOM     61  C   UNL     1      -2.554 -12.403   7.636  1.00  0.00     0.049 A 
ATOM     62  H   UNL     1      -4.464 -13.190   8.076  1.00  0.00     0.167 HD
ATOM     63  C   UNL     1      -3.470 -12.399   5.319  1.00  0.00     0.074 A 
ATOM     64  C   UNL     1      -4.904 -12.213   5.534  1.00  0.00     0.031 C 
ATOM     65  C   UNL     1      -2.429 -12.499   6.199  1.00  0.00     0.037 A 
BRANCH  52  66
ATOM     66  C   UNL     1      -6.166 -11.491  10.108  1.00  0.00     0.064 A 
ATOM     67  C   UNL     1      -6.151 -12.716  10.809  1.00  0.00     0.173 A 
ATOM     68  C   UNL     1      -7.433 -11.060   9.666  1.00  0.00     0.173 A 
ATOM     69  F   UNL     1      -4.999 -13.226  11.272  1.00  0.00    -0.203 F 
ATOM     70  C   UNL     1      -7.304 -13.485  10.980  1.00  0.00     0.198 A 
ATOM     71  C   UNL     1      -8.592 -11.804   9.888  1.00  0.00     0.198 A 
ATOM     72  F   UNL     1      -7.586  -9.966   8.911  1.00  0.00    -0.203 F 
ATOM     73  F   UNL     1      -7.218 -14.698  11.543  1.00  0.00    -0.200 F 
ATOM     74  C   UNL     1      -8.523 -13.031  10.513  1.00  0.00     0.200 A 
ATOM     75  F   UNL     1      -9.763 -11.353   9.418  1.00  0.00    -0.200 F 
ATOM     76  F   UNL     1      -9.620 -13.792  10.622  1.00  0.00    -0.200 F 
ENDBRANCH  52  66
BRANCH  53  77
ATOM     77  C   UNL     1      -5.180 -10.173   1.485  1.00  0.00     0.064 A 
ATOM     78  C   UNL     1      -5.408 -11.286   0.662  1.00  0.00     0.173 A 
ATOM     79  C   UNL     1      -5.954  -9.025   1.214  1.00  0.00     0.173 A 
ATOM     80  F   UNL     1      -4.744 -12.430   0.881  1.00  0.00    -0.203 F 
ATOM     81  C   UNL     1      -6.363 -11.257  -0.361  1.00  0.00     0.198 A 
ATOM     82  C   UNL     1      -6.901  -8.995   0.190  1.00  0.00     0.198 A 
ATOM     83  F   UNL     1      -5.867  -7.938   1.994  1.00  0.00    -0.203 F 
ATOM     84  F   UNL     1      -6.590 -12.356  -1.094  1.00  0.00    -0.200 F 
ATOM     85  C   UNL     1      -7.114 -10.116  -0.590  1.00  0.00     0.200 A 
ATOM     86  F   UNL     1      -7.644  -7.895   0.004  1.00  0.00    -0.200 F 
ATOM     87  F   UNL     1      -8.067 -10.107  -1.532  1.00  0.00    -0.200 F 
ENDBRANCH  53  77
BRANCH  65  88
ATOM     88  C   UNL     1      -1.028 -12.446   5.650  1.00  0.00     0.064 A 
ATOM     89  C   UNL     1      -0.476 -11.310   5.030  1.00  0.00     0.173 A 
ATOM     90  C   UNL     1      -0.157 -13.504   5.932  1.00  0.00     0.173 A 
ATOM     91  F   UNL     1      -1.210 -10.215   4.821  1.00  0.00    -0.203 F 
ATOM     92  C   UNL     1       0.871 -11.251   4.681  1.00  0.00     0.198 A 
ATOM     93  C   UNL     1       1.198 -13.431   5.614  1.00  0.00     0.198 A 
ATOM     94  F   UNL     1      -0.608 -14.590   6.579  1.00  0.00    -0.203 F 
ATOM     95  F   UNL     1       1.366 -10.151   4.093  1.00  0.00    -0.200 F 
ATOM     96  C   UNL     1       1.710 -12.309   4.982  1.00  0.00     0.200 A 
ATOM     97  F   UNL     1       2.017 -14.435   5.956  1.00  0.00    -0.200 F 
ATOM     98  F   UNL     1       3.017 -12.234   4.693  1.00  0.00    -0.200 F 
ENDBRANCH  65  88
ENDBRANCH  39  40
ENDBRANCH  31  34
ENDBRANCH  29  30
ENDBRANCH  28  29
ENDBRANCH   1  28
TORSDOF 15
