REMARK SMILES Cc1ccc(C)c(S(=O)(=O)N[C@H](CC2=c3ccccc3=NC2)C(=O)NCCCCNC(=O)c2ccc(-c3c4nc(c(-c5c(F)c(F)c(F)c(F)c5F)c5ccc([nH]5)c(-c5c(F)c(F)c(F)c(F)c5F)c5nc(c(-c6c(F)c(F)c(F)c(F)c6F)c6ccc3[nH]6)C=C5)C=C4)cc2)c1
REMARK SMILES IDX 27 1 26 2 25 3 23 4 24 5 12 7 11 8 8 10 9 11 10 12 7 13 1 14
REMARK SMILES IDX 2 15 3 16 96 17 4 18 5 19 6 20 13 21 14 22 15 23 22 24 16 25
REMARK SMILES IDX 20 26 21 27 17 28 19 29 18 30 28 31 29 32 30 33 31 34 32 36
REMARK SMILES IDX 33 37 34 38 95 39 35 40 94 41 36 42 37 43 38 44 88 45 39 46
REMARK SMILES IDX 93 47 87 48 89 49 40 50 92 51 86 52 85 53 41 55 73 56 53 57
REMARK SMILES IDX 72 58 54 59 57 60 71 61 90 62 55 63 56 64 70 66 91 67 58 68
REMARK SMILES IDX 42 69 43 70 51 71 44 72 45 73 49 74 52 75 46 76 47 77 50 78
REMARK SMILES IDX 48 79 74 80 75 81 83 82 76 83 77 84 81 85 84 86 78 87 79 88
REMARK SMILES IDX 82 89 80 90 59 91 60 92 68 93 61 94 62 95 66 96 69 97 63 98
REMARK SMILES IDX 64 99 67 100 65 101
REMARK H PARENT 25 6 11 9 30 35 89 54 57 65
REMARK Flexibility Score: inf
ROOT
ATOM      1  C   UNL     1      -1.645   8.063  -0.779  1.00  0.00     0.023 C 
ENDROOT
BRANCH   1   2
ATOM      2  C   UNL     1      -1.024   6.975  -1.711  1.00  0.00     0.116 C 
BRANCH   2   3
ATOM      3  N   UNL     1       0.407   6.697  -1.656  1.00  0.00    -0.355 N 
ATOM      4  C   UNL     1       1.167   5.578  -1.411  1.00  0.00     0.238 C 
ATOM      5  O   UNL     1       2.393   5.746  -1.441  1.00  0.00    -0.273 OA
ATOM      6  H   UNL     1       0.955   7.495  -1.836  1.00  0.00     0.163 HD
BRANCH   4   7
ATOM      7  C   UNL     1       0.602   4.180  -1.061  1.00  0.00     0.163 C 
BRANCH   7   8
ATOM      8  N   UNL     1      -0.422   3.798  -2.086  1.00  0.00    -0.198 NA
ATOM      9  H   UNL     1      -1.211   3.401  -1.576  1.00  0.00     0.142 HD
BRANCH   8  10
ATOM     10  S   UNL     1      -0.042   2.704  -3.317  1.00  0.00     0.241 S 
ATOM     11  O   UNL     1       1.377   2.779  -3.566  1.00  0.00    -0.207 OA
ATOM     12  O   UNL     1      -1.014   2.978  -4.355  1.00  0.00    -0.207 OA
BRANCH  10  13
ATOM     13  C   UNL     1      -0.431   1.102  -2.648  1.00  0.00     0.085 A 
ATOM     14  C   UNL     1      -1.732  -0.204   0.684  1.00  0.00     0.044 C 
ATOM     15  C   UNL     1      -1.191  -0.175  -0.714  1.00  0.00    -0.050 A 
ATOM     16  C   UNL     1      -0.823  -1.351  -1.367  1.00  0.00     0.004 A 
ATOM     17  C   UNL     1      -1.030   1.040  -1.382  1.00  0.00     0.025 A 
ATOM     18  C   UNL     1      -0.302  -1.305  -2.664  1.00  0.00     0.005 A 
ATOM     19  C   UNL     1      -0.094  -0.081  -3.327  1.00  0.00    -0.031 A 
ATOM     20  C   UNL     1       0.448  -0.140  -4.728  1.00  0.00     0.046 C 
ENDBRANCH  10  13
ENDBRANCH   8  10
ENDBRANCH   7   8
BRANCH   7  21
ATOM     21  C   UNL     1       0.062   3.912   0.399  1.00  0.00     0.063 C 
BRANCH  21  22
ATOM     22  C   UNL     1       0.316   4.858   1.553  1.00  0.00    -0.037 C 
ATOM     23  C   UNL     1       0.734   4.739   2.817  1.00  0.00     0.001 A 
ATOM     24  C   UNL     1      -0.115   6.257   1.342  1.00  0.00     0.174 C 
ATOM     25  C   UNL     1       1.154   3.698   3.700  1.00  0.00     0.010 A 
ATOM     26  C   UNL     1       0.585   6.118   3.346  1.00  0.00     0.065 A 
ATOM     27  N   UNL     1       0.052   7.011   2.581  1.00  0.00    -0.280 NA
ATOM     28  C   UNL     1       1.486   4.017   4.968  1.00  0.00     0.001 A 
ATOM     29  C   UNL     1       1.034   6.408   4.711  1.00  0.00     0.028 A 
ATOM     30  C   UNL     1       1.469   5.387   5.457  1.00  0.00     0.002 A 
ENDBRANCH  21  22
ENDBRANCH   7  21
ENDBRANCH   4   7
ENDBRANCH   2   3
ENDBRANCH   1   2
BRANCH   1  31
ATOM     31  C   UNL     1      -0.768   8.966   0.123  1.00  0.00     0.023 C 
BRANCH  31  32
ATOM     32  C   UNL     1      -0.733  10.490  -0.059  1.00  0.00     0.116 C 
BRANCH  32  33
ATOM     33  N   UNL     1      -2.026  11.100  -0.370  1.00  0.00    -0.352 N 
ATOM     34  C   UNL     1      -2.540  11.628  -1.542  1.00  0.00     0.251 C 
ATOM     35  H   UNL     1      -2.644  11.142   0.395  1.00  0.00     0.163 HD
ATOM     36  O   UNL     1      -3.607  12.234  -1.526  1.00  0.00    -0.269 OA
BRANCH  34  37
ATOM     37  C   UNL     1      -1.819  11.456  -2.820  1.00  0.00     0.039 A 
ATOM     38  C   UNL     1      -2.232  11.967  -4.050  1.00  0.00     0.014 A 
ATOM     39  C   UNL     1      -0.754  10.584  -2.841  1.00  0.00     0.014 A 
ATOM     40  C   UNL     1      -1.608  11.473  -5.207  1.00  0.00     0.010 A 
ATOM     41  C   UNL     1       0.139  10.609  -3.845  1.00  0.00     0.010 A 
ATOM     42  C   UNL     1      -0.482  10.655  -5.061  1.00  0.00    -0.014 A 
BRANCH  42  43
ATOM     43  C   UNL     1       0.330  10.098  -6.112  1.00  0.00     0.031 A 
ATOM     44  C   UNL     1       1.236  11.101  -6.697  1.00  0.00     0.074 A 
ATOM     45  C   UNL     1       0.564   8.782  -6.279  1.00  0.00     0.049 A 
ATOM     46  N   UNL     1       0.983  11.822  -7.734  1.00  0.00    -0.248 NA
ATOM     47  C   UNL     1       2.403  11.550  -5.917  1.00  0.00     0.031 C 
ATOM     48  C   UNL     1       0.128   7.626  -5.497  1.00  0.00     0.029 A 
ATOM     49  N   UNL     1       1.330   8.216  -7.244  1.00  0.00    -0.354 N 
ATOM     50  C   UNL     1       2.076  12.659  -7.860  1.00  0.00     0.074 A 
ATOM     51  C   UNL     1       2.722  12.665  -6.577  1.00  0.00     0.031 C 
ATOM     52  C   UNL     1       0.775   6.512  -5.925  1.00  0.00     0.029 A 
ATOM     53  C   UNL     1       1.542   6.852  -7.111  1.00  0.00     0.049 A 
ATOM     54  H   UNL     1       1.709   8.737  -7.988  1.00  0.00     0.167 HD
ATOM     55  C   UNL     1       2.532  13.021  -9.089  1.00  0.00     0.037 A 
ATOM     56  C   UNL     1       2.316   6.103  -7.936  1.00  0.00     0.037 A 
ATOM     57  C   UNL     1       1.596  12.613 -10.115  1.00  0.00     0.049 A 
ATOM     58  C   UNL     1       2.462   6.874  -9.204  1.00  0.00     0.074 A 
ATOM     59  C   UNL     1       0.272  12.902 -10.387  1.00  0.00     0.029 A 
ATOM     60  N   UNL     1       1.863  11.433 -10.771  1.00  0.00    -0.354 N 
ATOM     61  N   UNL     1       1.475   7.137 -10.018  1.00  0.00    -0.248 NA
ATOM     62  C   UNL     1       3.618   7.749  -9.330  1.00  0.00     0.031 C 
ATOM     63  C   UNL     1      -0.304  11.662 -10.800  1.00  0.00     0.029 A 
ATOM     64  C   UNL     1       0.705  10.697 -10.826  1.00  0.00     0.049 A 
ATOM     65  H   UNL     1       2.735  11.163 -11.139  1.00  0.00     0.167 HD
ATOM     66  C   UNL     1       1.701   8.437 -10.449  1.00  0.00     0.074 A 
ATOM     67  C   UNL     1       3.081   8.726 -10.066  1.00  0.00     0.031 C 
ATOM     68  C   UNL     1       0.662   9.248 -10.809  1.00  0.00     0.037 A 
BRANCH  55  69
ATOM     69  C   UNL     1       3.957  13.397  -9.397  1.00  0.00     0.064 A 
ATOM     70  C   UNL     1       4.246  13.948 -10.658  1.00  0.00     0.173 A 
ATOM     71  C   UNL     1       5.080  13.036  -8.620  1.00  0.00     0.173 A 
ATOM     72  F   UNL     1       3.257  14.306 -11.490  1.00  0.00    -0.203 F 
ATOM     73  C   UNL     1       5.556  14.073 -11.126  1.00  0.00     0.198 A 
ATOM     74  C   UNL     1       6.387  13.221  -9.065  1.00  0.00     0.198 A 
ATOM     75  F   UNL     1       4.976  12.390  -7.455  1.00  0.00    -0.203 F 
ATOM     76  F   UNL     1       5.774  14.494 -12.379  1.00  0.00    -0.200 F 
ATOM     77  C   UNL     1       6.625  13.711 -10.329  1.00  0.00     0.200 A 
ATOM     78  F   UNL     1       7.408  12.846  -8.280  1.00  0.00    -0.200 F 
ATOM     79  F   UNL     1       7.879  13.786 -10.793  1.00  0.00    -0.200 F 
ENDBRANCH  55  69
BRANCH  56  80
ATOM     80  C   UNL     1       3.215   4.970  -7.607  1.00  0.00     0.064 A 
ATOM     81  C   UNL     1       3.755   4.170  -8.630  1.00  0.00     0.173 A 
ATOM     82  C   UNL     1       3.820   4.862  -6.341  1.00  0.00     0.173 A 
ATOM     83  F   UNL     1       3.265   4.247  -9.876  1.00  0.00    -0.203 F 
ATOM     84  C   UNL     1       4.869   3.353  -8.413  1.00  0.00     0.198 A 
ATOM     85  C   UNL     1       4.929   4.041  -6.124  1.00  0.00     0.198 A 
ATOM     86  F   UNL     1       3.424   5.644  -5.326  1.00  0.00    -0.203 F 
ATOM     87  F   UNL     1       5.410   2.675  -9.435  1.00  0.00    -0.200 F 
ATOM     88  C   UNL     1       5.465   3.301  -7.164  1.00  0.00     0.200 A 
ATOM     89  F   UNL     1       5.534   4.037  -4.927  1.00  0.00    -0.200 F 
ATOM     90  F   UNL     1       6.583   2.586  -6.978  1.00  0.00    -0.200 F 
ENDBRANCH  56  80
BRANCH  68  91
ATOM     91  C   UNL     1      -0.690   8.607 -10.999  1.00  0.00     0.064 A 
ATOM     92  C   UNL     1      -1.430   7.988  -9.975  1.00  0.00     0.173 A 
ATOM     93  C   UNL     1      -1.324   8.757 -12.240  1.00  0.00     0.173 A 
ATOM     94  F   UNL     1      -0.940   7.885  -8.736  1.00  0.00    -0.203 F 
ATOM     95  C   UNL     1      -2.724   7.516 -10.194  1.00  0.00     0.198 A 
ATOM     96  C   UNL     1      -2.630   8.317 -12.447  1.00  0.00     0.198 A 
ATOM     97  F   UNL     1      -0.690   9.381 -13.245  1.00  0.00    -0.203 F 
ATOM     98  F   UNL     1      -3.404   6.927  -9.198  1.00  0.00    -0.200 F 
ATOM     99  C   UNL     1      -3.327   7.690 -11.428  1.00  0.00     0.200 A 
ATOM    100  F   UNL     1      -3.224   8.532 -13.629  1.00  0.00    -0.200 F 
ATOM    101  F   UNL     1      -4.588   7.280 -11.627  1.00  0.00    -0.200 F 
ENDBRANCH  68  91
ENDBRANCH  42  43
ENDBRANCH  34  37
ENDBRANCH  32  33
ENDBRANCH  31  32
ENDBRANCH   1  31
TORSDOF 16
