REMARK SMILES O=C(C[NH+]1CC[NH+](Cc2cc(Cl)ccc2[N+](=O)[O-])CC1)NCCCCNC(=O)c1ccc(-c2c3nc(c(-c4c(F)c(F)c(F)c(F)c4F)c4ccc([nH]4)c(-c4c(F)c(F)c(F)c(F)c4F)c4nc(c(-c5c(F)c(F)c(F)c(F)c5F)c5ccc2[nH]5)C=C4)C=C3)cc1
REMARK SMILES IDX 22 1 21 2 1 3 2 4 3 6 4 7 5 8 20 9 6 11 19 12 7 13 8 15 9 16
REMARK SMILES IDX 10 17 15 18 11 19 14 20 12 21 13 22 16 23 17 24 18 25 23 26
REMARK SMILES IDX 24 27 25 28 26 29 27 30 28 32 29 33 30 34 91 35 31 36 90 37
REMARK SMILES IDX 32 38 33 39 34 40 84 41 35 42 89 43 83 44 85 45 36 46 88 47
REMARK SMILES IDX 82 48 81 49 37 51 69 52 49 53 68 54 50 55 53 56 67 57 86 58
REMARK SMILES IDX 51 59 52 60 66 62 87 63 54 64 38 65 39 66 47 67 40 68 41 69
REMARK SMILES IDX 45 70 48 71 42 72 43 73 46 74 44 75 70 76 71 77 79 78 72 79
REMARK SMILES IDX 73 80 77 81 80 82 74 83 75 84 78 85 76 86 55 87 56 88 64 89
REMARK SMILES IDX 57 90 58 91 62 92 65 93 59 94 60 95 63 96 61 97
REMARK H PARENT 21 5 4 10 7 14 26 31 85 50 53 61
REMARK Flexibility Score: inf
ROOT
ATOM      1  C   UNL     1       1.821   1.583  -1.891  1.00  0.00     0.116 C 
ENDROOT
BRANCH   1   2
ATOM      2  N   UNL     1       2.304   0.647  -0.898  1.00  0.00    -0.351 N 
ATOM      3  O   UNL     1       0.427   0.682   0.414  1.00  0.00    -0.269 OA
ATOM      4  C   UNL     1       1.565   0.265   0.202  1.00  0.00     0.275 C 
ATOM      5  H   UNL     1       3.204   0.265  -1.013  1.00  0.00     0.163 HD
BRANCH   4   6
ATOM      6  C   UNL     1       2.267  -0.689   1.193  1.00  0.00     0.363 C 
BRANCH   6   7
ATOM      7  N   UNL     1       3.440  -1.352   0.581  1.00  0.00    -0.318 N 
ATOM      8  C   UNL     1       4.686  -0.595   0.818  1.00  0.00     0.325 C 
ATOM      9  C   UNL     1       3.571  -2.756   1.027  1.00  0.00     0.325 C 
ATOM     10  H   UNL     1       3.280  -1.365  -0.426  1.00  0.00     0.348 HD
ATOM     11  C   UNL     1       5.478  -0.901   2.111  1.00  0.00     0.324 C 
ATOM     12  C   UNL     1       4.311  -2.992   2.365  1.00  0.00     0.324 C 
ATOM     13  N   UNL     1       5.601  -2.311   2.480  1.00  0.00    -0.322 N 
ATOM     14  H   UNL     1       5.837  -2.325   3.472  1.00  0.00     0.348 HD
BRANCH  13  15
ATOM     15  C   UNL     1       6.797  -3.032   2.014  1.00  0.00     0.306 C 
BRANCH  15  16
ATOM     16  C   UNL     1       6.819  -3.466   0.559  1.00  0.00     0.085 A 
ATOM     17  C   UNL     1       7.158  -2.465  -0.382  1.00  0.00     0.037 A 
ATOM     18  C   UNL     1       6.455  -4.734   0.048  1.00  0.00     0.278 A 
ATOM     19  C   UNL     1       6.971  -2.646  -1.752  1.00  0.00     0.042 A 
ATOM     20  C   UNL     1       6.290  -4.912  -1.346  1.00  0.00     0.088 A 
ATOM     21  Cl  UNL     1       7.239  -1.333  -2.830  1.00  0.00    -0.084 Cl
ATOM     22  C   UNL     1       6.513  -3.861  -2.237  1.00  0.00     0.027 A 
BRANCH  18  23
ATOM     23  N   UNL     1       6.240  -5.936   0.886  1.00  0.00     0.063 N 
ATOM     24  O   UNL     1       6.125  -7.023   0.300  1.00  0.00    -0.258 OA
ATOM     25  O   UNL     1       6.192  -5.817   2.113  1.00  0.00    -0.258 OA
ENDBRANCH  18  23
ENDBRANCH  15  16
ENDBRANCH  13  15
ENDBRANCH   6   7
ENDBRANCH   4   6
ENDBRANCH   1   2
BRANCH   1  26
ATOM     26  C   UNL     1       2.289   3.016  -1.631  1.00  0.00     0.023 C 
BRANCH  26  27
ATOM     27  C   UNL     1       3.795   3.251  -1.780  1.00  0.00     0.023 C 
BRANCH  27  28
ATOM     28  C   UNL     1       4.392   2.907  -3.143  1.00  0.00     0.116 C 
BRANCH  28  29
ATOM     29  N   UNL     1       3.812   3.671  -4.238  1.00  0.00    -0.352 N 
ATOM     30  C   UNL     1       4.422   4.386  -5.240  1.00  0.00     0.251 C 
ATOM     31  H   UNL     1       2.828   3.676  -4.264  1.00  0.00     0.163 HD
ATOM     32  O   UNL     1       3.739   5.064  -6.007  1.00  0.00    -0.269 OA
BRANCH  30  33
ATOM     33  C   UNL     1       5.895   4.383  -5.391  1.00  0.00     0.039 A 
ATOM     34  C   UNL     1       6.542   5.590  -5.674  1.00  0.00     0.014 A 
ATOM     35  C   UNL     1       6.641   3.208  -5.274  1.00  0.00     0.014 A 
ATOM     36  C   UNL     1       7.936   5.631  -5.763  1.00  0.00     0.010 A 
ATOM     37  C   UNL     1       8.034   3.263  -5.286  1.00  0.00     0.010 A 
ATOM     38  C   UNL     1       8.698   4.476  -5.526  1.00  0.00    -0.014 A 
BRANCH  38  39
ATOM     39  C   UNL     1      10.185   4.523  -5.509  1.00  0.00     0.031 A 
ATOM     40  C   UNL     1      10.986   3.738  -6.511  1.00  0.00     0.074 A 
ATOM     41  C   UNL     1      10.819   5.226  -4.549  1.00  0.00     0.049 A 
ATOM     42  N   UNL     1      12.285   3.597  -6.607  1.00  0.00    -0.248 NA
ATOM     43  C   UNL     1      10.226   2.993  -7.525  1.00  0.00     0.031 C 
ATOM     44  C   UNL     1      10.160   5.997  -3.493  1.00  0.00     0.029 A 
ATOM     45  N   UNL     1      12.158   5.397  -4.296  1.00  0.00    -0.354 N 
ATOM     46  C   UNL     1      12.495   2.745  -7.683  1.00  0.00     0.074 A 
ATOM     47  C   UNL     1      11.190   2.353  -8.171  1.00  0.00     0.031 C 
ATOM     48  C   UNL     1      11.094   6.572  -2.720  1.00  0.00     0.029 A 
ATOM     49  C   UNL     1      12.417   6.177  -3.195  1.00  0.00     0.049 A 
ATOM     50  H   UNL     1      12.866   4.999  -4.852  1.00  0.00     0.167 HD
ATOM     51  C   UNL     1      13.668   2.345  -8.230  1.00  0.00     0.037 A 
ATOM     52  C   UNL     1      13.586   6.522  -2.621  1.00  0.00     0.037 A 
ATOM     53  C   UNL     1      14.966   2.744  -7.750  1.00  0.00     0.049 A 
ATOM     54  C   UNL     1      14.875   6.041  -3.232  1.00  0.00     0.074 A 
ATOM     55  C   UNL     1      16.212   2.427  -8.264  1.00  0.00     0.029 A 
ATOM     56  N   UNL     1      15.187   3.542  -6.637  1.00  0.00    -0.354 N 
ATOM     57  N   UNL     1      15.061   5.287  -4.288  1.00  0.00    -0.248 NA
ATOM     58  C   UNL     1      16.119   6.465  -2.574  1.00  0.00     0.031 C 
ATOM     59  C   UNL     1      17.186   2.985  -7.431  1.00  0.00     0.029 A 
ATOM     60  C   UNL     1      16.549   3.706  -6.434  1.00  0.00     0.049 A 
ATOM     61  H   UNL     1      14.481   3.935  -6.074  1.00  0.00     0.167 HD
ATOM     62  C   UNL     1      16.437   5.173  -4.439  1.00  0.00     0.074 A 
ATOM     63  C   UNL     1      17.039   5.949  -3.375  1.00  0.00     0.031 C 
ATOM     64  C   UNL     1      17.138   4.487  -5.375  1.00  0.00     0.037 A 
BRANCH  51  65
ATOM     65  C   UNL     1      13.604   1.423  -9.416  1.00  0.00     0.064 A 
ATOM     66  C   UNL     1      13.119   1.857 -10.660  1.00  0.00     0.173 A 
ATOM     67  C   UNL     1      14.071   0.103  -9.321  1.00  0.00     0.173 A 
ATOM     68  F   UNL     1      12.652   3.106 -10.805  1.00  0.00    -0.203 F 
ATOM     69  C   UNL     1      13.073   0.995 -11.753  1.00  0.00     0.198 A 
ATOM     70  C   UNL     1      14.056  -0.745 -10.425  1.00  0.00     0.198 A 
ATOM     71  F   UNL     1      14.553  -0.362  -8.159  1.00  0.00    -0.203 F 
ATOM     72  F   UNL     1      12.555   1.416 -12.915  1.00  0.00    -0.200 F 
ATOM     73  C   UNL     1      13.548  -0.302 -11.637  1.00  0.00     0.200 A 
ATOM     74  F   UNL     1      14.531  -1.994 -10.316  1.00  0.00    -0.200 F 
ATOM     75  F   UNL     1      13.511  -1.128 -12.692  1.00  0.00    -0.200 F 
ENDBRANCH  51  65
BRANCH  52  76
ATOM     76  C   UNL     1      13.593   7.377  -1.404  1.00  0.00     0.064 A 
ATOM     77  C   UNL     1      14.100   8.684  -1.441  1.00  0.00     0.173 A 
ATOM     78  C   UNL     1      13.107   6.903  -0.177  1.00  0.00     0.173 A 
ATOM     79  F   UNL     1      14.596   9.177  -2.586  1.00  0.00    -0.203 F 
ATOM     80  C   UNL     1      14.144   9.473  -0.293  1.00  0.00     0.198 A 
ATOM     81  C   UNL     1      13.121   7.704   0.963  1.00  0.00     0.198 A 
ATOM     82  F   UNL     1      12.607   5.661  -0.086  1.00  0.00    -0.203 F 
ATOM     83  F   UNL     1      14.684  10.698  -0.346  1.00  0.00    -0.200 F 
ATOM     84  C   UNL     1      13.649   8.985   0.906  1.00  0.00     0.200 A 
ATOM     85  F   UNL     1      12.625   7.234   2.116  1.00  0.00    -0.200 F 
ATOM     86  F   UNL     1      13.688   9.745   2.009  1.00  0.00    -0.200 F 
ENDBRANCH  52  76
BRANCH  64  87
ATOM     87  C   UNL     1      18.637   4.575  -5.319  1.00  0.00     0.064 A 
ATOM     88  C   UNL     1      19.378   3.965  -4.296  1.00  0.00     0.173 A 
ATOM     89  C   UNL     1      19.345   5.250  -6.327  1.00  0.00     0.173 A 
ATOM     90  F   UNL     1      18.750   3.320  -3.301  1.00  0.00    -0.203 F 
ATOM     91  C   UNL     1      20.767   4.051  -4.268  1.00  0.00     0.198 A 
ATOM     92  C   UNL     1      20.736   5.304  -6.315  1.00  0.00     0.198 A 
ATOM     93  F   UNL     1      18.687   5.845  -7.333  1.00  0.00    -0.203 F 
ATOM     94  F   UNL     1      21.450   3.506  -3.252  1.00  0.00    -0.200 F 
ATOM     95  C   UNL     1      21.445   4.713  -5.281  1.00  0.00     0.200 A 
ATOM     96  F   UNL     1      21.389   5.929  -7.304  1.00  0.00    -0.200 F 
ATOM     97  F   UNL     1      22.783   4.787  -5.257  1.00  0.00    -0.200 F 
ENDBRANCH  64  87
ENDBRANCH  38  39
ENDBRANCH  30  33
ENDBRANCH  28  29
ENDBRANCH  27  28
ENDBRANCH  26  27
ENDBRANCH   1  26
TORSDOF 15
