REMARK SMILES C/C=C/C=C/C(=O)N[C@@](C)(C(=O)NCCCCNC(=O)c1ccc(-c2c3nc(c(-c4c(F)c(F)c(F)c(F)c4F)c4ccc([nH]4)c(-c4c(F)c(F)c(F)c(F)c4F)c4nc(c(-c5c(F)c(F)c(F)c(F)c5F)c5ccc2[nH]5)C=C4)C=C3)cc1)C(F)(F)F
REMARK SMILES IDX 15 1 14 2 13 3 11 4 12 5 9 7 10 8 8 9 6 10 7 11 5 13 4 14
REMARK SMILES IDX 3 15 1 16 2 17 84 18 85 19 86 20 87 21 16 22 17 23 18 24
REMARK SMILES IDX 19 25 20 27 21 28 22 29 83 30 23 31 82 32 24 33 25 34 26 35
REMARK SMILES IDX 76 36 27 37 81 38 75 39 77 40 28 41 80 42 74 43 73 44 29 46
REMARK SMILES IDX 61 47 41 48 60 49 42 50 45 51 59 52 78 53 43 54 44 55 58 57
REMARK SMILES IDX 79 58 46 59 30 60 31 61 39 62 32 63 33 64 37 65 40 66 34 67
REMARK SMILES IDX 35 68 38 69 36 70 62 71 63 72 71 73 64 74 65 75 69 76 72 77
REMARK SMILES IDX 66 78 67 79 70 80 68 81 47 82 48 83 56 84 49 85 50 86 54 87
REMARK SMILES IDX 57 88 51 89 52 90 55 91 53 92
REMARK H PARENT 13 6 8 12 18 26 77 45 45 56
REMARK Flexibility Score: inf
ROOT
ATOM      1  C   UNL     1      -3.475   6.040   6.750  1.00  0.00     0.023 C 
ENDROOT
BRANCH   1   2
ATOM      2  C   UNL     1      -2.074   5.463   6.567  1.00  0.00     0.116 C 
BRANCH   2   3
ATOM      3  N   UNL     1      -2.132   4.033   6.346  1.00  0.00    -0.354 N 
ATOM      4  C   UNL     1      -1.627   3.205   5.396  1.00  0.00     0.254 C 
ATOM      5  O   UNL     1      -2.082   2.057   5.446  1.00  0.00    -0.272 OA
ATOM      6  H   UNL     1      -2.650   3.557   7.035  1.00  0.00     0.163 HD
BRANCH   4   7
ATOM      7  C   UNL     1      -0.626   3.658   4.311  1.00  0.00     0.212 C 
ATOM      8  C   UNL     1       0.560   4.461   4.888  1.00  0.00     0.056 C 
BRANCH   7   9
ATOM      9  N   UNL     1      -1.383   4.597   3.396  1.00  0.00    -0.331 N 
ATOM     10  C   UNL     1      -1.909   4.688   2.157  1.00  0.00     0.245 C 
ATOM     11  O   UNL     1      -2.648   5.653   1.946  1.00  0.00    -0.270 OA
ATOM     12  H   UNL     1      -1.550   5.441   3.874  1.00  0.00     0.165 HD
BRANCH  10  13
ATOM     13  C   UNL     1      -1.710   3.718   1.072  1.00  0.00     0.071 C 
ATOM     14  C   UNL     1      -0.541   3.125   0.831  1.00  0.00     0.005 C 
BRANCH  14  15
ATOM     15  C   UNL     1      -0.327   2.066  -0.126  1.00  0.00    -0.004 C 
ATOM     16  C   UNL     1       0.846  -0.113  -0.659  1.00  0.00     0.035 C 
ATOM     17  C   UNL     1       0.491   1.051   0.199  1.00  0.00    -0.030 C 
ENDBRANCH  14  15
ENDBRANCH  10  13
ENDBRANCH   7   9
BRANCH   7  18
ATOM     18  C   UNL     1      -0.009   2.315   3.841  1.00  0.00     0.420 C 
ATOM     19  F   UNL     1      -0.845   1.537   3.131  1.00  0.00    -0.168 F 
ATOM     20  F   UNL     1       1.108   2.525   3.095  1.00  0.00    -0.168 F 
ATOM     21  F   UNL     1       0.438   1.581   4.898  1.00  0.00    -0.168 F 
ENDBRANCH   7  18
ENDBRANCH   4   7
ENDBRANCH   2   3
ENDBRANCH   1   2
BRANCH   1  22
ATOM     22  C   UNL     1      -4.275   5.434   7.904  1.00  0.00     0.023 C 
BRANCH  22  23
ATOM     23  C   UNL     1      -3.539   5.379   9.236  1.00  0.00     0.116 C 
BRANCH  23  24
ATOM     24  N   UNL     1      -3.092   6.688   9.679  1.00  0.00    -0.352 N 
ATOM     25  C   UNL     1      -3.280   7.304  10.891  1.00  0.00     0.251 C 
ATOM     26  H   UNL     1      -2.581   7.206   9.017  1.00  0.00     0.163 HD
ATOM     27  O   UNL     1      -2.972   8.479  11.038  1.00  0.00    -0.269 OA
BRANCH  25  28
ATOM     28  C   UNL     1      -3.876   6.547  12.012  1.00  0.00     0.039 A 
ATOM     29  C   UNL     1      -4.854   7.165  12.793  1.00  0.00     0.014 A 
ATOM     30  C   UNL     1      -3.469   5.241  12.294  1.00  0.00     0.014 A 
ATOM     31  C   UNL     1      -5.449   6.457  13.837  1.00  0.00     0.010 A 
ATOM     32  C   UNL     1      -4.130   4.506  13.272  1.00  0.00     0.010 A 
ATOM     33  C   UNL     1      -5.107   5.115  14.073  1.00  0.00    -0.014 A 
BRANCH  33  34
ATOM     34  C   UNL     1      -5.724   4.358  15.191  1.00  0.00     0.031 A 
ATOM     35  C   UNL     1      -4.867   3.857  16.323  1.00  0.00     0.074 A 
ATOM     36  C   UNL     1      -7.045   4.097  15.177  1.00  0.00     0.049 A 
ATOM     37  N   UNL     1      -5.211   3.175  17.386  1.00  0.00    -0.248 NA
ATOM     38  C   UNL     1      -3.424   4.134  16.234  1.00  0.00     0.031 C 
ATOM     39  C   UNL     1      -7.972   4.481  14.111  1.00  0.00     0.029 A 
ATOM     40  N   UNL     1      -7.839   3.449  16.089  1.00  0.00    -0.354 N 
ATOM     41  C   UNL     1      -4.032   2.936  18.080  1.00  0.00     0.074 A 
ATOM     42  C   UNL     1      -2.954   3.478  17.284  1.00  0.00     0.031 C 
ATOM     43  C   UNL     1      -9.213   4.094  14.447  1.00  0.00     0.029 A 
ATOM     44  C   UNL     1      -9.165   3.405  15.733  1.00  0.00     0.049 A 
ATOM     45  H   UNL     1      -7.491   3.053  16.921  1.00  0.00     0.167 HD
ATOM     46  C   UNL     1      -3.863   2.348  19.288  1.00  0.00     0.037 A 
ATOM     47  C   UNL     1     -10.221   2.873  16.376  1.00  0.00     0.037 A 
ATOM     48  C   UNL     1      -4.942   1.828  20.087  1.00  0.00     0.049 A 
ATOM     49  C   UNL     1     -10.007   2.225  17.719  1.00  0.00     0.074 A 
ATOM     50  C   UNL     1      -4.887   1.256  21.345  1.00  0.00     0.029 A 
ATOM     51  N   UNL     1      -6.274   1.817  19.701  1.00  0.00    -0.354 N 
ATOM     52  N   UNL     1      -8.897   2.070  18.400  1.00  0.00    -0.248 NA
ATOM     53  C   UNL     1     -11.201   1.693  18.390  1.00  0.00     0.031 C 
ATOM     54  C   UNL     1      -6.178   0.848  21.697  1.00  0.00     0.029 A 
ATOM     55  C   UNL     1      -7.048   1.230  20.689  1.00  0.00     0.049 A 
ATOM     56  H   UNL     1      -6.619   2.174  18.850  1.00  0.00     0.167 HD
ATOM     57  C   UNL     1      -9.263   1.460  19.593  1.00  0.00     0.074 A 
ATOM     58  C   UNL     1     -10.700   1.290  19.549  1.00  0.00     0.031 C 
ATOM     59  C   UNL     1      -8.481   1.078  20.634  1.00  0.00     0.037 A 
BRANCH  46  60
ATOM     60  C   UNL     1      -2.461   2.239  19.817  1.00  0.00     0.064 A 
ATOM     61  C   UNL     1      -1.723   3.373  20.195  1.00  0.00     0.173 A 
ATOM     62  C   UNL     1      -1.852   0.984  19.971  1.00  0.00     0.173 A 
ATOM     63  F   UNL     1      -2.250   4.599  20.056  1.00  0.00    -0.203 F 
ATOM     64  C   UNL     1      -0.419   3.257  20.669  1.00  0.00     0.198 A 
ATOM     65  C   UNL     1      -0.561   0.869  20.481  1.00  0.00     0.198 A 
ATOM     66  F   UNL     1      -2.510  -0.134  19.631  1.00  0.00    -0.203 F 
ATOM     67  F   UNL     1       0.286   4.359  20.963  1.00  0.00    -0.200 F 
ATOM     68  C   UNL     1       0.158   2.005  20.820  1.00  0.00     0.200 A 
ATOM     69  F   UNL     1      -0.010  -0.342  20.640  1.00  0.00    -0.200 F 
ATOM     70  F   UNL     1       1.411   1.895  21.283  1.00  0.00    -0.200 F 
ENDBRANCH  46  60
BRANCH  47  71
ATOM     71  C   UNL     1     -11.581   2.963  15.781  1.00  0.00     0.064 A 
ATOM     72  C   UNL     1     -12.578   3.752  16.373  1.00  0.00     0.173 A 
ATOM     73  C   UNL     1     -11.918   2.251  14.621  1.00  0.00     0.173 A 
ATOM     74  F   UNL     1     -12.310   4.438  17.494  1.00  0.00    -0.203 F 
ATOM     75  C   UNL     1     -13.867   3.801  15.847  1.00  0.00     0.198 A 
ATOM     76  C   UNL     1     -13.199   2.327  14.076  1.00  0.00     0.198 A 
ATOM     77  F   UNL     1     -11.001   1.488  14.010  1.00  0.00    -0.203 F 
ATOM     78  F   UNL     1     -14.814   4.517  16.467  1.00  0.00    -0.200 F 
ATOM     79  C   UNL     1     -14.175   3.092  14.696  1.00  0.00     0.200 A 
ATOM     80  F   UNL     1     -13.488   1.654  12.954  1.00  0.00    -0.200 F 
ATOM     81  F   UNL     1     -15.415   3.139  14.190  1.00  0.00    -0.200 F 
ENDBRANCH  47  71
BRANCH  59  82
ATOM     82  C   UNL     1      -9.171   0.492  21.834  1.00  0.00     0.064 A 
ATOM     83  C   UNL     1      -9.801  -0.761  21.793  1.00  0.00     0.173 A 
ATOM     84  C   UNL     1      -9.189   1.194  23.049  1.00  0.00     0.173 A 
ATOM     85  F   UNL     1      -9.823  -1.469  20.654  1.00  0.00    -0.203 F 
ATOM     86  C   UNL     1     -10.461  -1.267  22.910  1.00  0.00     0.198 A 
ATOM     87  C   UNL     1      -9.816   0.667  24.175  1.00  0.00     0.198 A 
ATOM     88  F   UNL     1      -8.592   2.392  23.149  1.00  0.00    -0.203 F 
ATOM     89  F   UNL     1     -11.116  -2.433  22.826  1.00  0.00    -0.200 F 
ATOM     90  C   UNL     1     -10.463  -0.556  24.100  1.00  0.00     0.200 A 
ATOM     91  F   UNL     1      -9.799   1.347  25.329  1.00  0.00    -0.200 F 
ATOM     92  F   UNL     1     -11.099  -1.045  25.174  1.00  0.00    -0.200 F 
ENDBRANCH  59  82
ENDBRANCH  33  34
ENDBRANCH  25  28
ENDBRANCH  23  24
ENDBRANCH  22  23
ENDBRANCH   1  22
TORSDOF 15
