REMARK SMILES CC[C@@H]1CC(=O)N(Cc2ccc(/C=C/C(=O)NCCCCNC(=O)c3ccc(-c4c5nc(c(-c6c(F)c(F)c(F)c(F)c6F)c6ccc([nH]6)c(-c6c(F)c(F)c(F)c(F)c6F)c6nc(c(-c7c(F)c(F)c(F)c(F)c7F)c7ccc4[nH]7)C=C6)C=C5)cc3)cc2F)C1
REMARK SMILES IDX 18 1 17 2 15 3 16 4 14 6 13 7 12 8 9 9 10 10 89 11 11 12
REMARK SMILES IDX 88 13 90 14 8 15 7 16 3 17 4 18 91 19 5 20 6 21 2 22 1 23
REMARK SMILES IDX 19 24 20 25 21 26 22 27 23 28 24 30 25 31 26 32 87 33 27 34
REMARK SMILES IDX 86 35 28 36 29 37 30 38 80 39 31 40 85 41 79 42 81 43 32 44
REMARK SMILES IDX 84 45 78 46 77 47 33 49 65 50 45 51 64 52 46 53 49 54 63 55
REMARK SMILES IDX 82 56 47 57 48 58 62 60 83 61 50 62 34 63 35 64 43 65 36 66
REMARK SMILES IDX 37 67 41 68 44 69 38 70 39 71 42 72 40 73 66 74 67 75 75 76
REMARK SMILES IDX 68 77 69 78 73 79 76 80 70 81 71 82 74 83 72 84 51 85 52 86
REMARK SMILES IDX 60 87 53 88 54 89 58 90 61 91 55 92 56 93 59 94 57 95
REMARK H PARENT 17 5 22 29 81 48 49 59
REMARK Flexibility Score: inf
ROOT
ATOM      1  C   UNL     1      -0.516  10.755  -5.061  1.00  0.00     0.116 C 
ENDROOT
BRANCH   1   2
ATOM      2  N   UNL     1       0.044  11.940  -4.437  1.00  0.00    -0.353 N 
ATOM      3  C   UNL     1       0.611  12.122  -3.213  1.00  0.00     0.243 C 
ATOM      4  O   UNL     1       1.080  13.220  -2.923  1.00  0.00    -0.270 OA
ATOM      5  H   UNL     1       0.009  12.751  -4.995  1.00  0.00     0.163 HD
BRANCH   3   6
ATOM      6  C   UNL     1       0.762  10.995  -2.263  1.00  0.00     0.072 C 
ATOM      7  C   UNL     1      -0.202  10.107  -1.985  1.00  0.00     0.014 C 
BRANCH   7   8
ATOM      8  C   UNL     1      -0.061   8.947  -1.095  1.00  0.00    -0.023 A 
ATOM      9  C   UNL     1       0.041   6.669   0.584  1.00  0.00     0.007 A 
ATOM     10  C   UNL     1       0.812   7.803   0.871  1.00  0.00     0.009 A 
ATOM     11  C   UNL     1      -0.778   6.702  -0.546  1.00  0.00     0.128 A 
ATOM     12  C   UNL     1       0.750   8.937   0.046  1.00  0.00     0.008 A 
ATOM     13  C   UNL     1      -0.824   7.811  -1.384  1.00  0.00     0.047 A 
ATOM     14  F   UNL     1      -1.552   5.650  -0.849  1.00  0.00    -0.207 F 
BRANCH   9  15
ATOM     15  C   UNL     1       0.077   5.450   1.469  1.00  0.00     0.158 C 
BRANCH  15  16
ATOM     16  N   UNL     1       0.825   4.343   0.898  1.00  0.00    -0.338 N 
ATOM     17  C   UNL     1       1.231   2.355  -0.274  1.00  0.00     0.017 C 
ATOM     18  C   UNL     1       2.526   2.815   0.412  1.00  0.00     0.105 C 
ATOM     19  C   UNL     1       0.377   3.617  -0.262  1.00  0.00     0.124 C 
ATOM     20  C   UNL     1       2.075   3.934   1.326  1.00  0.00     0.223 C 
ATOM     21  O   UNL     1       2.726   4.409   2.238  1.00  0.00    -0.275 OA
BRANCH  17  22
ATOM     22  C   UNL     1       0.546   1.200   0.477  1.00  0.00     0.002 C 
ATOM     23  C   UNL     1       1.111  -0.153   0.066  1.00  0.00     0.004 C 
ENDBRANCH  17  22
ENDBRANCH  15  16
ENDBRANCH   9  15
ENDBRANCH   7   8
ENDBRANCH   3   6
ENDBRANCH   1   2
BRANCH   1  24
ATOM     24  C   UNL     1      -2.043  10.843  -5.116  1.00  0.00     0.023 C 
BRANCH  24  25
ATOM     25  C   UNL     1      -2.576  11.785  -6.199  1.00  0.00     0.023 C 
BRANCH  25  26
ATOM     26  C   UNL     1      -2.183  11.413  -7.624  1.00  0.00     0.116 C 
BRANCH  26  27
ATOM     27  N   UNL     1      -2.605  10.073  -8.005  1.00  0.00    -0.352 N 
ATOM     28  C   UNL     1      -3.072   9.639  -9.222  1.00  0.00     0.251 C 
ATOM     29  H   UNL     1      -2.548   9.389  -7.299  1.00  0.00     0.163 HD
ATOM     30  O   UNL     1      -3.504   8.500  -9.357  1.00  0.00    -0.269 OA
BRANCH  28  31
ATOM     31  C   UNL     1      -3.083  10.580 -10.359  1.00  0.00     0.039 A 
ATOM     32  C   UNL     1      -4.262  10.744 -11.089  1.00  0.00     0.014 A 
ATOM     33  C   UNL     1      -1.948  11.336 -10.663  1.00  0.00     0.014 A 
ATOM     34  C   UNL     1      -4.324  11.725 -12.079  1.00  0.00     0.010 A 
ATOM     35  C   UNL     1      -2.036  12.363 -11.595  1.00  0.00     0.010 A 
ATOM     36  C   UNL     1      -3.226  12.571 -12.309  1.00  0.00    -0.014 A 
BRANCH  36  37
ATOM     37  C   UNL     1      -3.305  13.689 -13.283  1.00  0.00     0.031 A 
ATOM     38  C   UNL     1      -2.413  13.697 -14.491  1.00  0.00     0.074 A 
ATOM     39  C   UNL     1      -4.138  14.721 -13.046  1.00  0.00     0.049 A 
ATOM     40  N   UNL     1      -2.277  14.617 -15.411  1.00  0.00    -0.248 NA
ATOM     41  C   UNL     1      -1.540  12.526 -14.682  1.00  0.00     0.031 C 
ATOM     42  C   UNL     1      -5.030  14.841 -11.892  1.00  0.00     0.029 A 
ATOM     43  N   UNL     1      -4.369  15.871 -13.762  1.00  0.00    -0.354 N 
ATOM     44  C   UNL     1      -1.309  14.139 -16.283  1.00  0.00     0.074 A 
ATOM     45  C   UNL     1      -0.844  12.877 -15.753  1.00  0.00     0.031 C 
ATOM     46  C   UNL     1      -5.734  15.979 -11.995  1.00  0.00     0.029 A 
ATOM     47  C   UNL     1      -5.309  16.696 -13.194  1.00  0.00     0.049 A 
ATOM     48  H   UNL     1      -3.904  16.084 -14.603  1.00  0.00     0.167 HD
ATOM     49  C   UNL     1      -0.872  14.690 -17.438  1.00  0.00     0.037 A 
ATOM     50  C   UNL     1      -5.772  17.898 -13.590  1.00  0.00     0.037 A 
ATOM     51  C   UNL     1      -1.353  15.936 -17.972  1.00  0.00     0.049 A 
ATOM     52  C   UNL     1      -5.233  18.509 -14.856  1.00  0.00     0.074 A 
ATOM     53  C   UNL     1      -0.995  16.559 -19.154  1.00  0.00     0.029 A 
ATOM     54  N   UNL     1      -2.298  16.747 -17.361  1.00  0.00    -0.354 N 
ATOM     55  N   UNL     1      -4.350  18.025 -15.696  1.00  0.00    -0.248 NA
ATOM     56  C   UNL     1      -5.752  19.832 -15.231  1.00  0.00     0.031 C 
ATOM     57  C   UNL     1      -1.682  17.772 -19.234  1.00  0.00     0.029 A 
ATOM     58  C   UNL     1      -2.518  17.876 -18.133  1.00  0.00     0.049 A 
ATOM     59  H   UNL     1      -2.746  16.550 -16.507  1.00  0.00     0.167 HD
ATOM     60  C   UNL     1      -4.234  18.964 -16.712  1.00  0.00     0.074 A 
ATOM     61  C   UNL     1      -5.143  20.043 -16.390  1.00  0.00     0.031 C 
ATOM     62  C   UNL     1      -3.443  18.933 -17.811  1.00  0.00     0.037 A 
BRANCH  49  63
ATOM     63  C   UNL     1       0.165  13.946 -18.228  1.00  0.00     0.064 A 
ATOM     64  C   UNL     1       1.457  14.472 -18.385  1.00  0.00     0.173 A 
ATOM     65  C   UNL     1      -0.149  12.761 -18.910  1.00  0.00     0.173 A 
ATOM     66  F   UNL     1       1.807  15.605 -17.758  1.00  0.00    -0.203 F 
ATOM     67  C   UNL     1       2.386  13.852 -19.216  1.00  0.00     0.198 A 
ATOM     68  C   UNL     1       0.793  12.127 -19.715  1.00  0.00     0.198 A 
ATOM     69  F   UNL     1      -1.366  12.211 -18.783  1.00  0.00    -0.203 F 
ATOM     70  F   UNL     1       3.599  14.396 -19.386  1.00  0.00    -0.200 F 
ATOM     71  C   UNL     1       2.054  12.680 -19.879  1.00  0.00     0.200 A 
ATOM     72  F   UNL     1       0.478  10.982 -20.336  1.00  0.00    -0.200 F 
ATOM     73  F   UNL     1       2.950  12.083 -20.677  1.00  0.00    -0.200 F 
ENDBRANCH  49  63
BRANCH  50  74
ATOM     74  C   UNL     1      -6.823  18.588 -12.796  1.00  0.00     0.064 A 
ATOM     75  C   UNL     1      -6.566  19.083 -11.509  1.00  0.00     0.173 A 
ATOM     76  C   UNL     1      -8.117  18.756 -13.310  1.00  0.00     0.173 A 
ATOM     77  F   UNL     1      -5.347  18.946 -10.967  1.00  0.00    -0.203 F 
ATOM     78  C   UNL     1      -7.566  19.704 -10.762  1.00  0.00     0.198 A 
ATOM     79  C   UNL     1      -9.107  19.405 -12.575  1.00  0.00     0.198 A 
ATOM     80  F   UNL     1      -8.408  18.318 -14.544  1.00  0.00    -0.203 F 
ATOM     81  F   UNL     1      -7.301  20.137  -9.522  1.00  0.00    -0.200 F 
ATOM     82  C   UNL     1      -8.833  19.871 -11.299  1.00  0.00     0.200 A 
ATOM     83  F   UNL     1     -10.322  19.589 -13.109  1.00  0.00    -0.200 F 
ATOM     84  F   UNL     1      -9.789  20.485 -10.588  1.00  0.00    -0.200 F 
ENDBRANCH  50  74
BRANCH  62  85
ATOM     85  C   UNL     1      -3.541  20.074 -18.782  1.00  0.00     0.064 A 
ATOM     86  C   UNL     1      -4.072  19.867 -20.065  1.00  0.00     0.173 A 
ATOM     87  C   UNL     1      -3.017  21.339 -18.484  1.00  0.00     0.173 A 
ATOM     88  F   UNL     1      -4.576  18.671 -20.404  1.00  0.00    -0.203 F 
ATOM     89  C   UNL     1      -4.051  20.878 -21.021  1.00  0.00     0.198 A 
ATOM     90  C   UNL     1      -3.027  22.359 -19.432  1.00  0.00     0.198 A 
ATOM     91  F   UNL     1      -2.509  21.591 -17.268  1.00  0.00    -0.203 F 
ATOM     92  F   UNL     1      -4.519  20.642 -22.254  1.00  0.00    -0.200 F 
ATOM     93  C   UNL     1      -3.531  22.123 -20.703  1.00  0.00     0.200 A 
ATOM     94  F   UNL     1      -2.547  23.569 -19.117  1.00  0.00    -0.200 F 
ATOM     95  F   UNL     1      -3.514  23.098 -21.623  1.00  0.00    -0.200 F 
ENDBRANCH  62  85
ENDBRANCH  36  37
ENDBRANCH  28  31
ENDBRANCH  26  27
ENDBRANCH  25  26
ENDBRANCH  24  25
ENDBRANCH   1  24
TORSDOF 15
