REMARK SMILES COc1ccc([C@H](CC(=O)NCCCCNC(=O)c2ccc(-c3c4nc(c(-c5c(F)c(F)c(F)c(F)c5F)c5ccc([nH]5)c(-c5c(F)c(F)c(F)c(F)c5F)c5nc(c(-c6c(F)c(F)c(F)c(F)c6F)c6ccc3[nH]6)C=C5)C=C4)cc2)NC(C)=O)cc1
REMARK SMILES IDX 13 1 12 2 11 3 9 4 10 5 8 7 7 8 6 9 3 10 4 11 87 12 5 13
REMARK SMILES IDX 86 14 2 15 1 16 82 17 83 18 84 20 85 21 14 22 15 23 16 24
REMARK SMILES IDX 17 25 18 27 19 28 20 29 81 30 21 31 80 32 22 33 23 34 24 35
REMARK SMILES IDX 74 36 25 37 79 38 73 39 75 40 26 41 78 42 72 43 71 44 27 46
REMARK SMILES IDX 59 47 39 48 58 49 40 50 43 51 57 52 76 53 41 54 42 55 56 57
REMARK SMILES IDX 77 58 44 59 28 60 29 61 37 62 30 63 31 64 35 65 38 66 32 67
REMARK SMILES IDX 33 68 36 69 34 70 60 71 61 72 69 73 62 74 63 75 67 76 70 77
REMARK SMILES IDX 64 78 65 79 68 80 66 81 45 82 46 83 54 84 47 85 48 86 52 87
REMARK SMILES IDX 55 88 49 89 50 90 53 91 51 92
REMARK H PARENT 11 6 82 19 16 26 75 45 43 56
REMARK Flexibility Score: inf
ROOT
ATOM      1  C   UNL     1       4.422  -2.380   6.131  1.00  0.00     0.023 C 
ENDROOT
BRANCH   1   2
ATOM      2  C   UNL     1       3.280  -1.678   5.399  1.00  0.00     0.116 C 
BRANCH   2   3
ATOM      3  N   UNL     1       3.395  -1.867   3.968  1.00  0.00    -0.356 N 
ATOM      4  C   UNL     1       2.708  -2.704   3.143  1.00  0.00     0.222 C 
ATOM      5  O   UNL     1       3.032  -2.737   1.955  1.00  0.00    -0.275 OA
ATOM      6  H   UNL     1       4.070  -1.304   3.525  1.00  0.00     0.163 HD
BRANCH   4   7
ATOM      7  C   UNL     1       1.537  -3.522   3.655  1.00  0.00     0.129 C 
BRANCH   7   8
ATOM      8  C   UNL     1       1.965  -4.780   4.437  1.00  0.00     0.121 C 
BRANCH   8   9
ATOM      9  C   UNL     1       1.764  -4.681   5.946  1.00  0.00    -0.025 A 
ATOM     10  C   UNL     1       1.561  -4.309   8.738  1.00  0.00     0.118 A 
ATOM     11  C   UNL     1       2.685  -4.919   8.184  1.00  0.00     0.047 A 
ATOM     12  C   UNL     1       0.505  -3.946   7.904  1.00  0.00     0.047 A 
ATOM     13  C   UNL     1       2.776  -5.129   6.806  1.00  0.00     0.010 A 
ATOM     14  C   UNL     1       0.600  -4.144   6.520  1.00  0.00     0.010 A 
BRANCH  10  15
ATOM     15  O   UNL     1       1.633  -4.092  10.084  1.00  0.00    -0.497 OA
ATOM     16  C   UNL     1       0.412  -3.816  10.756  1.00  0.00     0.278 C 
ENDBRANCH  10  15
ENDBRANCH   8   9
BRANCH   8  17
ATOM     17  N   UNL     1       1.241  -5.957   3.973  1.00  0.00    -0.349 N 
ATOM     18  C   UNL     1       1.889  -7.086   3.532  1.00  0.00     0.217 C 
ATOM     19  H   UNL     1       0.256  -5.944   3.976  1.00  0.00     0.164 HD
ATOM     20  C   UNL     1       0.973  -8.216   3.147  1.00  0.00     0.114 C 
ATOM     21  O   UNL     1       3.109  -7.187   3.450  1.00  0.00    -0.275 OA
ENDBRANCH   8  17
ENDBRANCH   7   8
ENDBRANCH   4   7
ENDBRANCH   2   3
ENDBRANCH   1   2
BRANCH   1  22
ATOM     22  C   UNL     1       5.741  -1.613   6.149  1.00  0.00     0.023 C 
BRANCH  22  23
ATOM     23  C   UNL     1       5.693  -0.288   6.899  1.00  0.00     0.116 C 
BRANCH  23  24
ATOM     24  N   UNL     1       5.289  -0.414   8.292  1.00  0.00    -0.352 N 
ATOM     25  C   UNL     1       5.724   0.309   9.377  1.00  0.00     0.251 C 
ATOM     26  H   UNL     1       4.617  -1.108   8.482  1.00  0.00     0.163 HD
ATOM     27  O   UNL     1       5.348   0.030  10.511  1.00  0.00    -0.269 OA
BRANCH  25  28
ATOM     28  C   UNL     1       6.691   1.405   9.169  1.00  0.00     0.039 A 
ATOM     29  C   UNL     1       7.842   1.446   9.960  1.00  0.00     0.014 A 
ATOM     30  C   UNL     1       6.487   2.352   8.163  1.00  0.00     0.014 A 
ATOM     31  C   UNL     1       8.828   2.395   9.688  1.00  0.00     0.010 A 
ATOM     32  C   UNL     1       7.504   3.243   7.842  1.00  0.00     0.010 A 
ATOM     33  C   UNL     1       8.684   3.272   8.601  1.00  0.00    -0.014 A 
BRANCH  33  34
ATOM     34  C   UNL     1       9.758   4.226   8.233  1.00  0.00     0.031 A 
ATOM     35  C   UNL     1       9.508   5.704   8.300  1.00  0.00     0.074 A 
ATOM     36  C   UNL     1      10.923   3.758   7.747  1.00  0.00     0.049 A 
ATOM     37  N   UNL     1      10.286   6.694   7.942  1.00  0.00    -0.248 NA
ATOM     38  C   UNL     1       8.191   6.125   8.801  1.00  0.00     0.031 C 
ATOM     39  C   UNL     1      11.255   2.344   7.560  1.00  0.00     0.029 A 
ATOM     40  N   UNL     1      12.037   4.423   7.300  1.00  0.00    -0.354 N 
ATOM     41  C   UNL     1       9.545   7.848   8.151  1.00  0.00     0.074 A 
ATOM     42  C   UNL     1       8.238   7.435   8.613  1.00  0.00     0.031 C 
ATOM     43  C   UNL     1      12.491   2.248   7.047  1.00  0.00     0.029 A 
ATOM     44  C   UNL     1      13.027   3.590   6.843  1.00  0.00     0.049 A 
ATOM     45  H   UNL     1      12.118   5.404   7.307  1.00  0.00     0.167 HD
ATOM     46  C   UNL     1       9.929   9.138   7.994  1.00  0.00     0.037 A 
ATOM     47  C   UNL     1      14.230   3.877   6.311  1.00  0.00     0.037 A 
ATOM     48  C   UNL     1      11.241   9.542   7.565  1.00  0.00     0.049 A 
ATOM     49  C   UNL     1      14.653   5.314   6.185  1.00  0.00     0.074 A 
ATOM     50  C   UNL     1      11.762  10.820   7.465  1.00  0.00     0.029 A 
ATOM     51  N   UNL     1      12.241   8.669   7.160  1.00  0.00    -0.354 N 
ATOM     52  N   UNL     1      13.980   6.401   6.475  1.00  0.00    -0.248 NA
ATOM     53  C   UNL     1      16.006   5.564   5.670  1.00  0.00     0.031 C 
ATOM     54  C   UNL     1      13.062  10.722   6.956  1.00  0.00     0.029 A 
ATOM     55  C   UNL     1      13.369   9.382   6.784  1.00  0.00     0.049 A 
ATOM     56  H   UNL     1      12.161   7.688   7.142  1.00  0.00     0.167 HD
ATOM     57  C   UNL     1      14.829   7.462   6.194  1.00  0.00     0.074 A 
ATOM     58  C   UNL     1      16.074   6.887   5.727  1.00  0.00     0.031 C 
ATOM     59  C   UNL     1      14.597   8.793   6.313  1.00  0.00     0.037 A 
BRANCH  46  60
ATOM     60  C   UNL     1       8.908  10.198   8.289  1.00  0.00     0.064 A 
ATOM     61  C   UNL     1       8.449  10.438   9.594  1.00  0.00     0.173 A 
ATOM     62  C   UNL     1       8.377  10.982   7.254  1.00  0.00     0.173 A 
ATOM     63  F   UNL     1       8.915   9.708  10.619  1.00  0.00    -0.203 F 
ATOM     64  C   UNL     1       7.466  11.392   9.845  1.00  0.00     0.198 A 
ATOM     65  C   UNL     1       7.418  11.958   7.513  1.00  0.00     0.198 A 
ATOM     66  F   UNL     1       8.784  10.799   5.989  1.00  0.00    -0.203 F 
ATOM     67  F   UNL     1       6.996  11.556  11.089  1.00  0.00    -0.200 F 
ATOM     68  C   UNL     1       6.955  12.153   8.806  1.00  0.00     0.200 A 
ATOM     69  F   UNL     1       6.932  12.701   6.510  1.00  0.00    -0.200 F 
ATOM     70  F   UNL     1       6.005  13.068   9.048  1.00  0.00    -0.200 F 
ENDBRANCH  46  60
BRANCH  47  71
ATOM     71  C   UNL     1      15.124   2.769   5.890  1.00  0.00     0.064 A 
ATOM     72  C   UNL     1      16.259   2.435   6.641  1.00  0.00     0.173 A 
ATOM     73  C   UNL     1      14.839   1.996   4.755  1.00  0.00     0.173 A 
ATOM     74  F   UNL     1      16.580   3.157   7.725  1.00  0.00    -0.203 F 
ATOM     75  C   UNL     1      17.081   1.373   6.268  1.00  0.00     0.198 A 
ATOM     76  C   UNL     1      15.649   0.920   4.397  1.00  0.00     0.198 A 
ATOM     77  F   UNL     1      13.760   2.272   4.009  1.00  0.00    -0.203 F 
ATOM     78  F   UNL     1      18.175   1.091   6.988  1.00  0.00    -0.200 F 
ATOM     79  C   UNL     1      16.770   0.612   5.151  1.00  0.00     0.200 A 
ATOM     80  F   UNL     1      15.337   0.178   3.325  1.00  0.00    -0.200 F 
ATOM     81  F   UNL     1      17.553  -0.418   4.802  1.00  0.00    -0.200 F 
ENDBRANCH  47  71
BRANCH  59  82
ATOM     82  C   UNL     1      15.718   9.720   5.944  1.00  0.00     0.064 A 
ATOM     83  C   UNL     1      16.085   9.929   4.607  1.00  0.00     0.173 A 
ATOM     84  C   UNL     1      16.401  10.440   6.936  1.00  0.00     0.173 A 
ATOM     85  F   UNL     1      15.472   9.253   3.624  1.00  0.00    -0.203 F 
ATOM     86  C   UNL     1      17.111  10.811   4.278  1.00  0.00     0.198 A 
ATOM     87  C   UNL     1      17.408  11.341   6.601  1.00  0.00     0.198 A 
ATOM     88  F   UNL     1      16.083  10.278   8.229  1.00  0.00    -0.203 F 
ATOM     89  F   UNL     1      17.474  10.966   2.997  1.00  0.00    -0.200 F 
ATOM     90  C   UNL     1      17.766  11.521   5.273  1.00  0.00     0.200 A 
ATOM     91  F   UNL     1      18.031  12.035   7.563  1.00  0.00    -0.200 F 
ATOM     92  F   UNL     1      18.747  12.376   4.954  1.00  0.00    -0.200 F 
ENDBRANCH  59  82
ENDBRANCH  33  34
ENDBRANCH  25  28
ENDBRANCH  23  24
ENDBRANCH  22  23
ENDBRANCH   1  22
TORSDOF 15
