REMARK SMILES CC(C)[C@H](/N=C1\C(=O)C(=O)[C@H]1[NH+]1CCCC1)C(=O)NCCCCNC(=O)c1ccc(-c2c3nc(c(-c4c(F)c(F)c(F)c(F)c4F)c4ccc([nH]4)c(-c4c(F)c(F)c(F)c(F)c4F)c4nc(c(-c5c(F)c(F)c(F)c(F)c5F)c5ccc2[nH]5)C=C4)C=C3)cc1
REMARK SMILES IDX 21 1 20 2 19 3 17 4 18 5 4 7 2 8 1 9 3 10 5 11 6 12 7 13
REMARK SMILES IDX 11 14 8 15 9 16 10 17 12 18 13 19 16 20 14 22 15 23 22 24
REMARK SMILES IDX 23 25 24 26 25 27 26 29 27 30 28 31 89 32 29 33 88 34 30 35
REMARK SMILES IDX 31 36 32 37 82 38 33 39 87 40 81 41 83 42 34 43 86 44 80 45
REMARK SMILES IDX 79 46 35 48 67 49 47 50 66 51 48 52 51 53 65 54 84 55 49 56
REMARK SMILES IDX 50 57 64 59 85 60 52 61 36 62 37 63 45 64 38 65 39 66 43 67
REMARK SMILES IDX 46 68 40 69 41 70 44 71 42 72 68 73 69 74 77 75 70 76 71 77
REMARK SMILES IDX 75 78 78 79 72 80 73 81 76 82 74 83 53 84 54 85 62 86 55 87
REMARK SMILES IDX 56 88 60 89 63 90 57 91 58 92 61 93 59 94
REMARK H PARENT 19 6 12 21 24 28 83 47 51 58
REMARK Flexibility Score: inf
ROOT
ATOM      1  C   UNL     1       0.988   1.839   4.356  1.00  0.00     0.023 C 
ENDROOT
BRANCH   1   2
ATOM      2  C   UNL     1      -0.345   1.365   3.792  1.00  0.00     0.116 C 
BRANCH   2   3
ATOM      3  N   UNL     1      -1.046   2.383   3.035  1.00  0.00    -0.354 N 
ATOM      4  C   UNL     1      -1.371   2.439   1.713  1.00  0.00     0.245 C 
ATOM      5  O   UNL     1      -1.972   3.445   1.324  1.00  0.00    -0.273 OA
ATOM      6  H   UNL     1      -1.335   3.162   3.563  1.00  0.00     0.163 HD
BRANCH   4   7
ATOM      7  C   UNL     1      -0.959   1.334   0.715  1.00  0.00     0.197 C 
BRANCH   7   8
ATOM      8  C   UNL     1      -1.493  -0.087   1.033  1.00  0.00     0.017 C 
ATOM      9  C   UNL     1      -2.947  -0.067   1.522  1.00  0.00     0.010 C 
ATOM     10  C   UNL     1      -1.394  -1.000  -0.196  1.00  0.00     0.010 C 
ENDBRANCH   7   8
BRANCH   7  11
ATOM     11  N   UNL     1       0.526   1.356   0.657  1.00  0.00    -0.266 NA
ATOM     12  C   UNL     1       1.069   2.007  -0.308  1.00  0.00     0.153 C 
ATOM     13  C   UNL     1       0.576   2.628  -1.564  1.00  0.00     0.255 C 
ATOM     14  C   UNL     1       2.542   2.260  -0.680  1.00  0.00     0.314 C 
ATOM     15  O   UNL     1      -0.489   2.932  -1.992  1.00  0.00    -0.283 OA
ATOM     16  C   UNL     1       1.987   2.689  -2.092  1.00  0.00     0.268 C 
ATOM     17  O   UNL     1       2.356   3.022  -3.185  1.00  0.00    -0.283 OA
BRANCH  14  18
ATOM     18  N   UNL     1       3.315   3.314   0.031  1.00  0.00    -0.321 N 
ATOM     19  C   UNL     1       3.413   3.064   1.470  1.00  0.00     0.263 C 
ATOM     20  C   UNL     1       2.876   4.705  -0.163  1.00  0.00     0.263 C 
ATOM     21  H   UNL     1       4.226   3.234  -0.421  1.00  0.00     0.349 HD
ATOM     22  C   UNL     1       2.487   4.082   2.107  1.00  0.00     0.067 C 
ATOM     23  C   UNL     1       2.630   5.293   1.218  1.00  0.00     0.067 C 
ENDBRANCH  14  18
ENDBRANCH   7  11
ENDBRANCH   4   7
ENDBRANCH   2   3
ENDBRANCH   1   2
BRANCH   1  24
ATOM     24  C   UNL     1       0.913   3.086   5.234  1.00  0.00     0.023 C 
BRANCH  24  25
ATOM     25  C   UNL     1       0.018   2.934   6.456  1.00  0.00     0.116 C 
BRANCH  25  26
ATOM     26  N   UNL     1       0.446   1.837   7.309  1.00  0.00    -0.352 N 
ATOM     27  C   UNL     1       0.674   1.815   8.659  1.00  0.00     0.251 C 
ATOM     28  H   UNL     1       0.595   0.981   6.846  1.00  0.00     0.163 HD
ATOM     29  O   UNL     1       1.235   0.849   9.167  1.00  0.00    -0.269 OA
BRANCH  27  30
ATOM     30  C   UNL     1       0.256   2.953   9.502  1.00  0.00     0.039 A 
ATOM     31  C   UNL     1       1.103   3.363  10.535  1.00  0.00     0.014 A 
ATOM     32  C   UNL     1      -0.977   3.583   9.310  1.00  0.00     0.014 A 
ATOM     33  C   UNL     1       0.726   4.426  11.354  1.00  0.00     0.010 A 
ATOM     34  C   UNL     1      -1.319   4.691  10.080  1.00  0.00     0.010 A 
ATOM     35  C   UNL     1      -0.479   5.109  11.120  1.00  0.00    -0.014 A 
BRANCH  35  36
ATOM     36  C   UNL     1      -0.869   6.253  11.976  1.00  0.00     0.031 A 
ATOM     37  C   UNL     1      -2.057   6.147  12.889  1.00  0.00     0.074 A 
ATOM     38  C   UNL     1      -0.166   7.397  11.902  1.00  0.00     0.049 A 
ATOM     39  N   UNL     1      -2.528   7.026  13.738  1.00  0.00    -0.248 NA
ATOM     40  C   UNL     1      -2.840   4.903  12.820  1.00  0.00     0.031 C 
ATOM     41  C   UNL     1       0.957   7.639  10.995  1.00  0.00     0.029 A 
ATOM     42  N   UNL     1      -0.288   8.569  12.602  1.00  0.00    -0.354 N 
ATOM     43  C   UNL     1      -3.662   6.447  14.291  1.00  0.00     0.074 A 
ATOM     44  C   UNL     1      -3.842   5.165  13.645  1.00  0.00     0.031 C 
ATOM     45  C   UNL     1       1.442   8.871  11.217  1.00  0.00     0.029 A 
ATOM     46  C   UNL     1       0.657   9.507  12.270  1.00  0.00     0.049 A 
ATOM     47  H   UNL     1      -0.987   8.723  13.279  1.00  0.00     0.167 HD
ATOM     48  C   UNL     1      -4.465   6.931  15.268  1.00  0.00     0.037 A 
ATOM     49  C   UNL     1       0.875  10.735  12.775  1.00  0.00     0.037 A 
ATOM     50  C   UNL     1      -4.260   8.194  15.928  1.00  0.00     0.049 A 
ATOM     51  C   UNL     1       0.013  11.221  13.907  1.00  0.00     0.074 A 
ATOM     52  C   UNL     1      -4.973   8.750  16.974  1.00  0.00     0.029 A 
ATOM     53  N   UNL     1      -3.259   9.098  15.600  1.00  0.00    -0.354 N 
ATOM     54  N   UNL     1      -1.003  10.628  14.486  1.00  0.00    -0.248 NA
ATOM     55  C   UNL     1       0.344  12.535  14.471  1.00  0.00     0.031 C 
ATOM     56  C   UNL     1      -4.424  10.006  17.259  1.00  0.00     0.029 A 
ATOM     57  C   UNL     1      -3.342  10.213  16.418  1.00  0.00     0.049 A 
ATOM     58  H   UNL     1      -2.589   8.966  14.891  1.00  0.00     0.167 HD
ATOM     59  C   UNL     1      -1.420  11.484  15.494  1.00  0.00     0.074 A 
ATOM     60  C   UNL     1      -0.531  12.629  15.462  1.00  0.00     0.031 C 
ATOM     61  C   UNL     1      -2.446  11.339  16.368  1.00  0.00     0.037 A 
BRANCH  48  62
ATOM     62  C   UNL     1      -5.634   6.087  15.685  1.00  0.00     0.064 A 
ATOM     63  C   UNL     1      -5.459   4.890  16.398  1.00  0.00     0.173 A 
ATOM     64  C   UNL     1      -6.945   6.488  15.390  1.00  0.00     0.173 A 
ATOM     65  F   UNL     1      -4.225   4.455  16.693  1.00  0.00    -0.203 F 
ATOM     66  C   UNL     1      -6.551   4.112  16.773  1.00  0.00     0.198 A 
ATOM     67  C   UNL     1      -8.037   5.721  15.792  1.00  0.00     0.198 A 
ATOM     68  F   UNL     1      -7.170   7.624  14.713  1.00  0.00    -0.203 F 
ATOM     69  F   UNL     1      -6.356   2.949  17.409  1.00  0.00    -0.200 F 
ATOM     70  C   UNL     1      -7.839   4.531  16.476  1.00  0.00     0.200 A 
ATOM     71  F   UNL     1      -9.282   6.132  15.512  1.00  0.00    -0.200 F 
ATOM     72  F   UNL     1      -8.889   3.783  16.841  1.00  0.00    -0.200 F 
ENDBRANCH  48  62
BRANCH  49  73
ATOM     73  C   UNL     1       1.998  11.555  12.256  1.00  0.00     0.064 A 
ATOM     74  C   UNL     1       3.153  11.759  13.023  1.00  0.00     0.173 A 
ATOM     75  C   UNL     1       1.950  12.132  10.979  1.00  0.00     0.173 A 
ATOM     76  F   UNL     1       3.238  11.238  14.256  1.00  0.00    -0.203 F 
ATOM     77  C   UNL     1       4.212  12.523  12.539  1.00  0.00     0.198 A 
ATOM     78  C   UNL     1       3.020  12.876  10.486  1.00  0.00     0.198 A 
ATOM     79  F   UNL     1       0.871  11.956  10.203  1.00  0.00    -0.203 F 
ATOM     80  F   UNL     1       5.290  12.732  13.307  1.00  0.00    -0.200 F 
ATOM     81  C   UNL     1       4.147  13.076  11.269  1.00  0.00     0.200 A 
ATOM     82  F   UNL     1       2.961  13.395   9.253  1.00  0.00    -0.200 F 
ATOM     83  F   UNL     1       5.170  13.805  10.801  1.00  0.00    -0.200 F 
ENDBRANCH  49  73
BRANCH  61  84
ATOM     84  C   UNL     1      -2.643  12.436  17.371  1.00  0.00     0.064 A 
ATOM     85  C   UNL     1      -3.151  13.689  16.997  1.00  0.00     0.173 A 
ATOM     86  C   UNL     1      -2.335  12.226  18.723  1.00  0.00     0.173 A 
ATOM     87  F   UNL     1      -3.447  13.942  15.713  1.00  0.00    -0.203 F 
ATOM     88  C   UNL     1      -3.311  14.704  17.937  1.00  0.00     0.198 A 
ATOM     89  C   UNL     1      -2.522  13.234  19.664  1.00  0.00     0.198 A 
ATOM     90  F   UNL     1      -1.852  11.043  19.131  1.00  0.00    -0.203 F 
ATOM     91  F   UNL     1      -3.747  15.910  17.549  1.00  0.00    -0.200 F 
ATOM     92  C   UNL     1      -3.001  14.474  19.269  1.00  0.00     0.200 A 
ATOM     93  F   UNL     1      -2.232  13.008  20.953  1.00  0.00    -0.200 F 
ATOM     94  F   UNL     1      -3.154  15.453  20.172  1.00  0.00    -0.200 F 
ENDBRANCH  61  84
ENDBRANCH  35  36
ENDBRANCH  27  30
ENDBRANCH  25  26
ENDBRANCH  24  25
ENDBRANCH   1  24
TORSDOF 14
