REMARK SMILES Nc1nccc(N2CCC[C@@](Cc3ccc(F)cc3F)(C(=O)NCCCCNC(=O)c3ccc(-c4c5nc(c(-c6c(F)c(F)c(F)c(F)c6F)c6ccc([nH]6)c(-c6c(F)c(F)c(F)c(F)c6F)c6nc(c(-c7c(F)c(F)c(F)c(F)c7F)c7ccc4[nH]7)C=C6)C=C5)cc3)C2)n1
REMARK SMILES IDX 25 1 24 2 23 3 21 4 22 5 11 7 7 8 8 9 94 10 9 11 10 12 6 13
REMARK SMILES IDX 2 14 3 15 95 16 4 17 5 18 1 19 12 22 13 23 14 24 19 25 15 26
REMARK SMILES IDX 18 27 20 28 16 29 17 30 26 31 27 32 28 33 29 34 30 36 31 37
REMARK SMILES IDX 32 38 93 39 33 40 92 41 34 42 35 43 36 44 86 45 37 46 91 47
REMARK SMILES IDX 85 48 87 49 38 50 90 51 84 52 83 53 39 55 71 56 51 57 70 58
REMARK SMILES IDX 52 59 55 60 69 61 88 62 53 63 54 64 68 66 89 67 56 68 40 69
REMARK SMILES IDX 41 70 49 71 42 72 43 73 47 74 50 75 44 76 45 77 48 78 46 79
REMARK SMILES IDX 72 80 73 81 81 82 74 83 75 84 79 85 82 86 76 87 77 88 80 89
REMARK SMILES IDX 78 90 57 91 58 92 66 93 59 94 60 95 64 96 67 97 61 98 62 99
REMARK SMILES IDX 65 100 63 101
REMARK H PARENT 23 6 1 20 1 21 28 35 87 54 55 65
REMARK Flexibility Score: inf
ROOT
ATOM      1  C   UNL     1       5.470  -7.285  -2.545  1.00  0.00     0.023 C 
ENDROOT
BRANCH   1   2
ATOM      2  C   UNL     1       4.993  -5.892  -2.932  1.00  0.00     0.116 C 
BRANCH   2   3
ATOM      3  N   UNL     1       3.556  -5.786  -3.083  1.00  0.00    -0.356 N 
ATOM      4  C   UNL     1       2.657  -4.861  -2.643  1.00  0.00     0.228 C 
ATOM      5  O   UNL     1       1.533  -4.950  -3.151  1.00  0.00    -0.274 OA
ATOM      6  H   UNL     1       3.154  -6.521  -3.600  1.00  0.00     0.163 HD
BRANCH   4   7
ATOM      7  C   UNL     1       2.979  -3.761  -1.604  1.00  0.00     0.071 C 
ATOM      8  N   UNL     1       1.815  -2.260  -0.034  1.00  0.00    -0.355 N 
ATOM      9  C   UNL     1       2.342  -2.819   1.197  1.00  0.00     0.118 C 
ATOM     10  C   UNL     1       1.582  -3.207  -1.125  1.00  0.00     0.135 C 
ATOM     11  C   UNL     1       3.701  -3.426   0.882  1.00  0.00     0.023 C 
ATOM     12  C   UNL     1       3.666  -4.353  -0.338  1.00  0.00     0.021 C 
BRANCH   8  13
ATOM     13  C   UNL     1       1.047  -1.115   0.054  1.00  0.00     0.134 A 
ATOM     14  C   UNL     1      -0.963  -0.033  -0.069  1.00  0.00     0.221 A 
ATOM     15  N   UNL     1      -0.435   1.168   0.190  1.00  0.00    -0.222 NA
ATOM     16  N   UNL     1      -0.274  -1.175  -0.166  1.00  0.00    -0.196 NA
ATOM     17  C   UNL     1       0.891   1.200   0.377  1.00  0.00     0.119 A 
ATOM     18  C   UNL     1       1.680   0.081   0.338  1.00  0.00     0.067 A 
BRANCH  14  19
ATOM     19  N   UNL     1      -2.319  -0.093  -0.214  1.00  0.00    -0.368 N 
ATOM     20  H   UNL     1      -2.858   0.728  -0.148  1.00  0.00     0.159 HD
ATOM     21  H   UNL     1      -2.757  -0.958  -0.383  1.00  0.00     0.159 HD
ENDBRANCH  14  19
ENDBRANCH   8  13
BRANCH   7  22
ATOM     22  C   UNL     1       3.696  -2.535  -2.260  1.00  0.00     0.057 C 
BRANCH  22  23
ATOM     23  C   UNL     1       5.019  -2.694  -2.964  1.00  0.00    -0.011 A 
ATOM     24  C   UNL     1       5.067  -2.863  -4.358  1.00  0.00     0.010 A 
ATOM     25  C   UNL     1       6.226  -2.639  -2.256  1.00  0.00     0.129 A 
ATOM     26  C   UNL     1       6.294  -3.015  -5.006  1.00  0.00     0.040 A 
ATOM     27  C   UNL     1       7.451  -2.796  -2.893  1.00  0.00     0.078 A 
ATOM     28  F   UNL     1       6.214  -2.459  -0.929  1.00  0.00    -0.207 F 
ATOM     29  C   UNL     1       7.472  -2.988  -4.266  1.00  0.00     0.126 A 
ATOM     30  F   UNL     1       8.644  -3.155  -4.891  1.00  0.00    -0.207 F 
ENDBRANCH  22  23
ENDBRANCH   7  22
ENDBRANCH   4   7
ENDBRANCH   2   3
ENDBRANCH   1   2
BRANCH   1  31
ATOM     31  C   UNL     1       5.507  -8.291  -3.694  1.00  0.00     0.023 C 
BRANCH  31  32
ATOM     32  C   UNL     1       6.228  -7.835  -4.961  1.00  0.00     0.116 C 
BRANCH  32  33
ATOM     33  N   UNL     1       7.585  -7.350  -4.739  1.00  0.00    -0.352 N 
ATOM     34  C   UNL     1       8.669  -7.474  -5.580  1.00  0.00     0.251 C 
ATOM     35  H   UNL     1       7.745  -6.880  -3.890  1.00  0.00     0.163 HD
ATOM     36  O   UNL     1       9.780  -7.070  -5.257  1.00  0.00    -0.269 OA
BRANCH  34  37
ATOM     37  C   UNL     1       8.470  -8.163  -6.867  1.00  0.00     0.039 A 
ATOM     38  C   UNL     1       9.164  -9.351  -7.107  1.00  0.00     0.014 A 
ATOM     39  C   UNL     1       7.499  -7.702  -7.759  1.00  0.00     0.014 A 
ATOM     40  C   UNL     1       8.806 -10.141  -8.200  1.00  0.00     0.010 A 
ATOM     41  C   UNL     1       7.108  -8.516  -8.816  1.00  0.00     0.010 A 
ATOM     42  C   UNL     1       7.737  -9.754  -9.026  1.00  0.00    -0.014 A 
BRANCH  42  43
ATOM     43  C   UNL     1       7.218 -10.644 -10.091  1.00  0.00     0.031 A 
ATOM     44  C   UNL     1       7.330 -10.233 -11.527  1.00  0.00     0.074 A 
ATOM     45  C   UNL     1       6.558 -11.769  -9.757  1.00  0.00     0.049 A 
ATOM     46  N   UNL     1       6.789 -10.774 -12.588  1.00  0.00    -0.248 NA
ATOM     47  C   UNL     1       8.137  -9.035 -11.801  1.00  0.00     0.031 C 
ATOM     48  C   UNL     1       6.366 -12.265  -8.394  1.00  0.00     0.029 A 
ATOM     49  N   UNL     1       5.912 -12.690 -10.541  1.00  0.00    -0.354 N 
ATOM     50  C   UNL     1       7.173  -9.973 -13.653  1.00  0.00     0.074 A 
ATOM     51  C   UNL     1       7.961  -8.888 -13.105  1.00  0.00     0.031 C 
ATOM     52  C   UNL     1       5.668 -13.412  -8.439  1.00  0.00     0.029 A 
ATOM     53  C   UNL     1       5.326 -13.706  -9.827  1.00  0.00     0.049 A 
ATOM     54  H   UNL     1       5.872 -12.629 -11.523  1.00  0.00     0.167 HD
ATOM     55  C   UNL     1       6.902 -10.135 -14.969  1.00  0.00     0.037 A 
ATOM     56  C   UNL     1       4.584 -14.748 -10.245  1.00  0.00     0.037 A 
ATOM     57  C   UNL     1       6.129 -11.221 -15.512  1.00  0.00     0.049 A 
ATOM     58  C   UNL     1       4.281 -14.898 -11.709  1.00  0.00     0.074 A 
ATOM     59  C   UNL     1       5.813 -11.482 -16.833  1.00  0.00     0.029 A 
ATOM     60  N   UNL     1       5.555 -12.233 -14.756  1.00  0.00    -0.354 N 
ATOM     61  N   UNL     1       4.642 -14.133 -12.709  1.00  0.00    -0.248 NA
ATOM     62  C   UNL     1       3.459 -16.052 -12.099  1.00  0.00     0.031 C 
ATOM     63  C   UNL     1       5.026 -12.639 -16.875  1.00  0.00     0.029 A 
ATOM     64  C   UNL     1       4.881 -13.118 -15.583  1.00  0.00     0.049 A 
ATOM     65  H   UNL     1       5.617 -12.312 -13.777  1.00  0.00     0.167 HD
ATOM     66  C   UNL     1       4.103 -14.714 -13.848  1.00  0.00     0.074 A 
ATOM     67  C   UNL     1       3.402 -15.906 -13.416  1.00  0.00     0.031 C 
ATOM     68  C   UNL     1       4.182 -14.295 -15.135  1.00  0.00     0.037 A 
BRANCH  55  69
ATOM     69  C   UNL     1       7.446  -9.100 -15.907  1.00  0.00     0.064 A 
ATOM     70  C   UNL     1       6.593  -8.174 -16.523  1.00  0.00     0.173 A 
ATOM     71  C   UNL     1       8.818  -9.024 -16.193  1.00  0.00     0.173 A 
ATOM     72  F   UNL     1       5.273  -8.205 -16.282  1.00  0.00    -0.203 F 
ATOM     73  C   UNL     1       7.094  -7.204 -17.387  1.00  0.00     0.198 A 
ATOM     74  C   UNL     1       9.319  -8.036 -17.037  1.00  0.00     0.198 A 
ATOM     75  F   UNL     1       9.677  -9.876 -15.614  1.00  0.00    -0.203 F 
ATOM     76  F   UNL     1       6.259  -6.333 -17.970  1.00  0.00    -0.200 F 
ATOM     77  C   UNL     1       8.457  -7.130 -17.635  1.00  0.00     0.200 A 
ATOM     78  F   UNL     1      10.639  -7.947 -17.251  1.00  0.00    -0.200 F 
ATOM     79  F   UNL     1       8.941  -6.177 -18.444  1.00  0.00    -0.200 F 
ENDBRANCH  55  69
BRANCH  56  80
ATOM     80  C   UNL     1       4.104 -15.746  -9.258  1.00  0.00     0.064 A 
ATOM     81  C   UNL     1       3.066 -15.455  -8.363  1.00  0.00     0.173 A 
ATOM     82  C   UNL     1       4.711 -17.006  -9.171  1.00  0.00     0.173 A 
ATOM     83  F   UNL     1       2.458 -14.260  -8.406  1.00  0.00    -0.203 F 
ATOM     84  C   UNL     1       2.664 -16.383  -7.405  1.00  0.00     0.198 A 
ATOM     85  C   UNL     1       4.297 -17.939  -8.225  1.00  0.00     0.198 A 
ATOM     86  F   UNL     1       5.696 -17.333 -10.021  1.00  0.00    -0.203 F 
ATOM     87  F   UNL     1       1.688 -16.071  -6.541  1.00  0.00    -0.200 F 
ATOM     88  C   UNL     1       3.279 -17.624  -7.337  1.00  0.00     0.200 A 
ATOM     89  F   UNL     1       4.881 -19.144  -8.174  1.00  0.00    -0.200 F 
ATOM     90  F   UNL     1       2.890 -18.518  -6.417  1.00  0.00    -0.200 F 
ENDBRANCH  56  80
BRANCH  68  91
ATOM     91  C   UNL     1       3.503 -15.139 -16.171  1.00  0.00     0.064 A 
ATOM     92  C   UNL     1       4.257 -15.928 -17.052  1.00  0.00     0.173 A 
ATOM     93  C   UNL     1       2.109 -15.132 -16.320  1.00  0.00     0.173 A 
ATOM     94  F   UNL     1       5.594 -15.965 -16.949  1.00  0.00    -0.203 F 
ATOM     95  C   UNL     1       3.639 -16.675 -18.050  1.00  0.00     0.198 A 
ATOM     96  C   UNL     1       1.492 -15.898 -17.306  1.00  0.00     0.198 A 
ATOM     97  F   UNL     1       1.345 -14.406 -15.491  1.00  0.00    -0.203 F 
ATOM     98  F   UNL     1       4.381 -17.408 -18.893  1.00  0.00    -0.200 F 
ATOM     99  C   UNL     1       2.258 -16.663 -18.174  1.00  0.00     0.200 A 
ATOM    100  F   UNL     1       0.156 -15.905 -17.410  1.00  0.00    -0.200 F 
ATOM    101  F   UNL     1       1.663 -17.395 -19.126  1.00  0.00    -0.200 F 
ENDBRANCH  68  91
ENDBRANCH  42  43
ENDBRANCH  34  37
ENDBRANCH  32  33
ENDBRANCH  31  32
ENDBRANCH   1  31
TORSDOF 15
