REMARK SMILES C[C@H](NC(=O)c1ccc(C(C)(C)C)cc1)C(=O)N[C@@H](C(=O)NCCCCNC(=O)c1ccc(-c2c3nc(c(-c4c(F)c(F)c(F)c(F)c4F)c4ccc([nH]4)c(-c4c(F)c(F)c(F)c(F)c4F)c4nc(c(-c5c(F)c(F)c(F)c(F)c5F)c5ccc2[nH]5)C=C4)C=C3)cc1)[C@H](C)O
REMARK SMILES IDX 23 1 22 2 20 3 21 4 19 6 18 7 16 8 17 9 2 11 1 12 3 13 4 14
REMARK SMILES IDX 5 16 6 17 7 18 15 19 8 20 14 21 9 22 10 23 11 24 12 25 13 26
REMARK SMILES IDX 93 27 94 28 95 29 24 31 25 32 26 33 27 34 28 35 29 37 30 38
REMARK SMILES IDX 31 39 92 40 32 41 91 42 33 43 34 44 35 45 85 46 36 47 90 48
REMARK SMILES IDX 84 49 86 50 37 51 89 52 83 53 82 54 38 56 70 57 50 58 69 59
REMARK SMILES IDX 51 60 54 61 68 62 87 63 52 64 53 65 67 67 88 68 55 69 39 70
REMARK SMILES IDX 40 71 48 72 41 73 42 74 46 75 49 76 43 77 44 78 47 79 45 80
REMARK SMILES IDX 71 81 72 82 80 83 73 84 74 85 78 86 81 87 75 88 76 89 79 90
REMARK SMILES IDX 77 91 56 92 57 93 65 94 58 95 59 96 63 97 66 98 60 99 61 100
REMARK SMILES IDX 64 101 62 102
REMARK H PARENT 22 5 18 10 3 15 95 30 27 36 86 55 54 66
REMARK Flexibility Score: inf
ROOT
ATOM      1  C   UNL     1       0.918  -3.481  -5.844  1.00  0.00     0.116 C 
ENDROOT
BRANCH   1   2
ATOM      2  N   UNL     1       1.048  -3.635  -4.381  1.00  0.00    -0.354 N 
ATOM      3  C   UNL     1       0.353  -3.844  -3.231  1.00  0.00     0.245 C 
ATOM      4  O   UNL     1       1.190  -3.972  -2.309  1.00  0.00    -0.273 OA
ATOM      5  H   UNL     1       2.002  -3.555  -4.150  1.00  0.00     0.163 HD
BRANCH   3   6
ATOM      6  C   UNL     1      -1.238  -4.008  -2.850  1.00  0.00     0.200 C 
BRANCH   6   7
ATOM      7  N   UNL     1      -2.269  -2.926  -2.564  1.00  0.00    -0.340 N 
ATOM      8  C   UNL     1      -3.521  -2.544  -2.953  1.00  0.00     0.243 C 
ATOM      9  O   UNL     1      -4.243  -2.053  -2.074  1.00  0.00    -0.273 OA
ATOM     10  H   UNL     1      -1.924  -2.304  -1.883  1.00  0.00     0.164 HD
BRANCH   8  11
ATOM     11  C   UNL     1      -3.912  -2.357  -4.415  1.00  0.00     0.168 C 
ATOM     12  C   UNL     1      -3.919  -3.648  -5.216  1.00  0.00     0.041 C 
BRANCH  11  13
ATOM     13  N   UNL     1      -3.140  -1.207  -4.916  1.00  0.00    -0.341 N 
ATOM     14  C   UNL     1      -1.779  -1.281  -4.772  1.00  0.00     0.251 C 
ATOM     15  H   UNL     1      -3.578  -0.429  -5.331  1.00  0.00     0.164 HD
ATOM     16  O   UNL     1      -1.266  -2.127  -5.486  1.00  0.00    -0.269 OA
BRANCH  14  17
ATOM     17  C   UNL     1      -1.073  -0.560  -3.630  1.00  0.00     0.039 A 
ATOM     18  C   UNL     1       0.287  -0.772  -3.364  1.00  0.00     0.014 A 
ATOM     19  C   UNL     1      -1.770   0.176  -2.682  1.00  0.00     0.014 A 
ATOM     20  C   UNL     1       0.924  -0.370  -2.192  1.00  0.00     0.005 A 
ATOM     21  C   UNL     1      -1.141   0.569  -1.480  1.00  0.00     0.005 A 
ATOM     22  C   UNL     1       0.208   0.261  -1.192  1.00  0.00    -0.043 A 
BRANCH  22  23
ATOM     23  C   UNL     1       0.880   0.607   0.143  1.00  0.00    -0.013 C 
ATOM     24  C   UNL     1       2.196  -0.175   0.413  1.00  0.00     0.016 C 
ATOM     25  C   UNL     1       1.222   2.105   0.123  1.00  0.00     0.016 C 
ATOM     26  C   UNL     1      -0.057   0.278   1.321  1.00  0.00     0.016 C 
ENDBRANCH  22  23
ENDBRANCH  14  17
ENDBRANCH  11  13
ENDBRANCH   8  11
ENDBRANCH   6   7
BRANCH   6  27
ATOM     27  C   UNL     1      -1.197  -4.710  -1.396  1.00  0.00     0.143 C 
ATOM     28  C   UNL     1      -0.740  -3.787  -0.226  1.00  0.00     0.041 C 
BRANCH  27  29
ATOM     29  O   UNL     1      -0.407  -5.897  -1.384  1.00  0.00    -0.391 OA
ATOM     30  H   UNL     1       0.522  -5.669  -1.545  1.00  0.00     0.211 HD
ENDBRANCH  27  29
ENDBRANCH   6  27
ENDBRANCH   3   6
ENDBRANCH   1   2
BRANCH   1  31
ATOM     31  C   UNL     1       1.053  -2.033  -6.413  1.00  0.00     0.023 C 
BRANCH  31  32
ATOM     32  C   UNL     1       2.412  -1.499  -6.836  1.00  0.00     0.023 C 
BRANCH  32  33
ATOM     33  C   UNL     1       2.819  -2.029  -8.187  1.00  0.00     0.116 C 
BRANCH  33  34
ATOM     34  N   UNL     1       1.817  -1.794  -9.231  1.00  0.00    -0.352 N 
ATOM     35  C   UNL     1       1.999  -1.798 -10.588  1.00  0.00     0.251 C 
ATOM     36  H   UNL     1       0.902  -1.611  -8.918  1.00  0.00     0.163 HD
ATOM     37  O   UNL     1       1.093  -1.525 -11.365  1.00  0.00    -0.269 OA
BRANCH  35  38
ATOM     38  C   UNL     1       3.354  -2.082 -11.067  1.00  0.00     0.039 A 
ATOM     39  C   UNL     1       4.000  -1.131 -11.852  1.00  0.00     0.014 A 
ATOM     40  C   UNL     1       4.023  -3.199 -10.566  1.00  0.00     0.014 A 
ATOM     41  C   UNL     1       5.359  -1.282 -12.096  1.00  0.00     0.010 A 
ATOM     42  C   UNL     1       5.396  -3.266 -10.687  1.00  0.00     0.010 A 
ATOM     43  C   UNL     1       6.068  -2.330 -11.485  1.00  0.00    -0.014 A 
BRANCH  43  44
ATOM     44  C   UNL     1       7.511  -2.518 -11.728  1.00  0.00     0.031 A 
ATOM     45  C   UNL     1       7.976  -3.784 -12.389  1.00  0.00     0.074 A 
ATOM     46  C   UNL     1       8.385  -1.584 -11.311  1.00  0.00     0.049 A 
ATOM     47  N   UNL     1       9.193  -4.174 -12.664  1.00  0.00    -0.248 NA
ATOM     48  C   UNL     1       6.939  -4.767 -12.749  1.00  0.00     0.031 C 
ATOM     49  C   UNL     1       8.039  -0.356 -10.590  1.00  0.00     0.029 A 
ATOM     50  N   UNL     1       9.747  -1.522 -11.438  1.00  0.00    -0.354 N 
ATOM     51  C   UNL     1       9.061  -5.446 -13.203  1.00  0.00     0.074 A 
ATOM     52  C   UNL     1       7.664  -5.803 -13.134  1.00  0.00     0.031 C 
ATOM     53  C   UNL     1       9.156   0.360 -10.381  1.00  0.00     0.029 A 
ATOM     54  C   UNL     1      10.295  -0.373 -10.923  1.00  0.00     0.049 A 
ATOM     55  H   UNL     1      10.282  -2.233 -11.858  1.00  0.00     0.167 HD
ATOM     56  C   UNL     1      10.016  -6.229 -13.753  1.00  0.00     0.037 A 
ATOM     57  C   UNL     1      11.576   0.037 -10.907  1.00  0.00     0.037 A 
ATOM     58  C   UNL     1      11.394  -5.838 -13.858  1.00  0.00     0.049 A 
ATOM     59  C   UNL     1      12.618  -0.839 -11.552  1.00  0.00     0.074 A 
ATOM     60  C   UNL     1      12.441  -6.515 -14.452  1.00  0.00     0.029 A 
ATOM     61  N   UNL     1      11.910  -4.651 -13.356  1.00  0.00    -0.354 N 
ATOM     62  N   UNL     1      12.474  -2.005 -12.136  1.00  0.00    -0.248 NA
ATOM     63  C   UNL     1      13.996  -0.336 -11.548  1.00  0.00     0.031 C 
ATOM     64  C   UNL     1      13.603  -5.757 -14.271  1.00  0.00     0.029 A 
ATOM     65  C   UNL     1      13.268  -4.583 -13.613  1.00  0.00     0.049 A 
ATOM     66  H   UNL     1      11.388  -3.960 -12.888  1.00  0.00     0.167 HD
ATOM     67  C   UNL     1      13.734  -2.361 -12.595  1.00  0.00     0.074 A 
ATOM     68  C   UNL     1      14.626  -1.276 -12.237  1.00  0.00     0.031 C 
ATOM     69  C   UNL     1      14.124  -3.482 -13.251  1.00  0.00     0.037 A 
BRANCH  56  70
ATOM     70  C   UNL     1       9.591  -7.564 -14.290  1.00  0.00     0.064 A 
ATOM     71  C   UNL     1       8.755  -7.676 -15.413  1.00  0.00     0.173 A 
ATOM     72  C   UNL     1      10.024  -8.749 -13.676  1.00  0.00     0.173 A 
ATOM     73  F   UNL     1       8.294  -6.574 -16.025  1.00  0.00    -0.203 F 
ATOM     74  C   UNL     1       8.339  -8.921 -15.878  1.00  0.00     0.198 A 
ATOM     75  C   UNL     1       9.635  -9.993 -14.166  1.00  0.00     0.198 A 
ATOM     76  F   UNL     1      10.821  -8.700 -12.599  1.00  0.00    -0.203 F 
ATOM     77  F   UNL     1       7.489  -8.998 -16.911  1.00  0.00    -0.200 F 
ATOM     78  C   UNL     1       8.786 -10.078 -15.259  1.00  0.00     0.200 A 
ATOM     79  F   UNL     1      10.076 -11.111 -13.574  1.00  0.00    -0.200 F 
ATOM     80  F   UNL     1       8.389 -11.276 -15.711  1.00  0.00    -0.200 F 
ENDBRANCH  56  70
BRANCH  57  81
ATOM     81  C   UNL     1      11.934   1.351 -10.312  1.00  0.00     0.064 A 
ATOM     82  C   UNL     1      12.372   2.411 -11.118  1.00  0.00     0.173 A 
ATOM     83  C   UNL     1      11.849   1.575  -8.930  1.00  0.00     0.173 A 
ATOM     84  F   UNL     1      12.482   2.243 -12.444  1.00  0.00    -0.203 F 
ATOM     85  C   UNL     1      12.738   3.636 -10.562  1.00  0.00     0.198 A 
ATOM     86  C   UNL     1      12.188   2.810  -8.379  1.00  0.00     0.198 A 
ATOM     87  F   UNL     1      11.425   0.598  -8.115  1.00  0.00    -0.203 F 
ATOM     88  F   UNL     1      13.201   4.615 -11.352  1.00  0.00    -0.200 F 
ATOM     89  C   UNL     1      12.642   3.836  -9.194  1.00  0.00     0.200 A 
ATOM     90  F   UNL     1      12.077   3.004  -7.058  1.00  0.00    -0.200 F 
ATOM     91  F   UNL     1      12.992   5.013  -8.660  1.00  0.00    -0.200 F 
ENDBRANCH  57  81
BRANCH  69  92
ATOM     92  C   UNL     1      15.567  -3.571 -13.653  1.00  0.00     0.064 A 
ATOM     93  C   UNL     1      16.584  -3.762 -12.707  1.00  0.00     0.173 A 
ATOM     94  C   UNL     1      15.928  -3.505 -15.007  1.00  0.00     0.173 A 
ATOM     95  F   UNL     1      16.289  -3.818 -11.400  1.00  0.00    -0.203 F 
ATOM     96  C   UNL     1      17.916  -3.851 -13.101  1.00  0.00     0.198 A 
ATOM     97  C   UNL     1      17.256  -3.630 -15.400  1.00  0.00     0.198 A 
ATOM     98  F   UNL     1      14.989  -3.335 -15.951  1.00  0.00    -0.203 F 
ATOM     99  F   UNL     1      18.878  -3.978 -12.177  1.00  0.00    -0.200 F 
ATOM    100  C   UNL     1      18.250  -3.793 -14.446  1.00  0.00     0.200 A 
ATOM    101  F   UNL     1      17.575  -3.592 -16.701  1.00  0.00    -0.200 F 
ATOM    102  F   UNL     1      19.532  -3.887 -14.823  1.00  0.00    -0.200 F 
ENDBRANCH  69  92
ENDBRANCH  43  44
ENDBRANCH  35  38
ENDBRANCH  33  34
ENDBRANCH  32  33
ENDBRANCH  31  32
ENDBRANCH   1  31
TORSDOF 18
