REMARK SMILES O=C(CNC(=O)N1CC(NCCCCNC(=O)c2ccc(-c3c4nc(c(-c5c(F)c(F)c(F)c(F)c5F)c5ccc([nH]5)c(-c5c(F)c(F)c(F)c(F)c5F)c5nc(c(-c6c(F)c(F)c(F)c(F)c6F)c6ccc3[nH]6)C=C5)C=C4)cc2)=[NH+]c2ccccc21)N[C@H](C(=O)[O-])c1ccccc1
REMARK SMILES IDX 11 1 10 2 7 3 8 4 87 5 9 6 82 7 86 8 81 9 83 10 85 11 84 14
REMARK SMILES IDX 5 15 4 16 6 18 3 19 2 20 1 21 88 22 89 24 93 25 94 26 98 27
REMARK SMILES IDX 95 28 97 29 96 30 90 31 91 32 92 33 12 34 13 35 14 36 15 37
REMARK SMILES IDX 16 38 17 40 18 41 19 42 80 43 20 44 79 45 21 46 22 47 23 48
REMARK SMILES IDX 73 49 24 50 78 51 72 52 74 53 25 54 77 55 71 56 70 57 26 59
REMARK SMILES IDX 58 60 38 61 57 62 39 63 42 64 56 65 75 66 40 67 41 68 55 70
REMARK SMILES IDX 76 71 43 72 27 73 28 74 36 75 29 76 30 77 34 78 37 79 31 80
REMARK SMILES IDX 32 81 35 82 33 83 59 84 60 85 68 86 61 87 62 88 66 89 69 90
REMARK SMILES IDX 63 91 64 92 67 93 65 94 44 95 45 96 53 97 46 98 47 99 51 100
REMARK SMILES IDX 54 101 48 102 49 103 52 104 50 105
REMARK H PARENT 10 12 81 13 4 17 88 23 15 39 74 58 42 69
REMARK Flexibility Score: inf
ROOT
ATOM      1  C   UNL     1       1.502   7.989   3.669  1.00  0.00     0.233 C 
ENDROOT
BRANCH   1   2
ATOM      2  N   UNL     1       0.747   7.044   4.455  1.00  0.00    -0.277 N 
ATOM      3  N   UNL     1       3.084   4.631   5.901  1.00  0.00    -0.278 N 
ATOM      4  C   UNL     1       2.713   6.014   5.676  1.00  0.00     0.255 C 
ATOM      5  C   UNL     1       2.208   3.928   6.762  1.00  0.00     0.093 A 
ATOM      6  C   UNL     1       1.225   6.087   5.314  1.00  0.00     0.268 C 
ATOM      7  C   UNL     1       0.841   4.268   6.707  1.00  0.00     0.148 A 
ATOM      8  C   UNL     1       2.655   2.906   7.609  1.00  0.00     0.031 A 
ATOM      9  N   UNL     1       0.349   5.276   5.848  1.00  0.00    -0.241 N 
ATOM     10  C   UNL     1      -0.071   3.507   7.440  1.00  0.00     0.054 A 
ATOM     11  C   UNL     1       1.733   2.182   8.364  1.00  0.00     0.002 A 
ATOM     12  H   UNL     1      -0.232   7.091   4.363  1.00  0.00     0.304 HD
ATOM     13  H   UNL     1      -0.613   5.364   5.659  1.00  0.00     0.312 HD
ATOM     14  C   UNL     1       0.370   2.467   8.263  1.00  0.00     0.005 A 
BRANCH   3  15
ATOM     15  C   UNL     1       4.200   4.152   5.268  1.00  0.00     0.323 C 
ATOM     16  N   UNL     1       4.205   2.895   4.755  1.00  0.00    -0.329 N 
ATOM     17  H   UNL     1       5.087   2.575   4.457  1.00  0.00     0.165 HD
ATOM     18  O   UNL     1       5.178   4.870   5.041  1.00  0.00    -0.248 OA
BRANCH  16  19
ATOM     19  C   UNL     1       3.115   1.940   4.574  1.00  0.00     0.218 C 
BRANCH  19  20
ATOM     20  C   UNL     1       2.633   1.647   3.154  1.00  0.00     0.240 C 
ATOM     21  O   UNL     1       1.851   0.715   2.961  1.00  0.00    -0.273 OA
ATOM     22  N   UNL     1       2.998   2.545   2.177  1.00  0.00    -0.342 N 
ATOM     23  H   UNL     1       3.422   3.401   2.413  1.00  0.00     0.164 HD
BRANCH  22  24
ATOM     24  C   UNL     1       2.739   2.192   0.764  1.00  0.00     0.158 C 
BRANCH  24  25
ATOM     25  C   UNL     1       3.026   3.380  -0.159  1.00  0.00    -0.020 A 
ATOM     26  C   UNL     1       3.981   3.322  -1.188  1.00  0.00     0.006 A 
ATOM     27  C   UNL     1       2.302   4.574  -0.015  1.00  0.00     0.006 A 
ATOM     28  C   UNL     1       4.216   4.410  -2.033  1.00  0.00     0.000 A 
ATOM     29  C   UNL     1       2.550   5.667  -0.856  1.00  0.00     0.000 A 
ATOM     30  C   UNL     1       3.506   5.589  -1.862  1.00  0.00     0.000 A 
ENDBRANCH  24  25
BRANCH  24  31
ATOM     31  C   UNL     1       3.519   0.896   0.311  1.00  0.00     0.068 C 
ATOM     32  O   UNL     1       2.949   0.186  -0.570  1.00  0.00    -0.548 OA
ATOM     33  O   UNL     1       4.664   0.738   0.846  1.00  0.00    -0.548 OA
ENDBRANCH  24  31
ENDBRANCH  22  24
ENDBRANCH  19  20
ENDBRANCH  16  19
ENDBRANCH   3  15
ENDBRANCH   1   2
BRANCH   1  34
ATOM     34  C   UNL     1       1.633   7.504   2.229  1.00  0.00     0.048 C 
BRANCH  34  35
ATOM     35  C   UNL     1       0.301   7.450   1.479  1.00  0.00     0.025 C 
BRANCH  35  36
ATOM     36  C   UNL     1      -0.420   8.782   1.343  1.00  0.00     0.116 C 
BRANCH  36  37
ATOM     37  N   UNL     1       0.374   9.810   0.682  1.00  0.00    -0.352 N 
ATOM     38  C   UNL     1       0.059  10.635  -0.370  1.00  0.00     0.251 C 
ATOM     39  H   UNL     1       1.280   9.932   1.047  1.00  0.00     0.163 HD
ATOM     40  O   UNL     1       0.919  11.376  -0.844  1.00  0.00    -0.269 OA
BRANCH  38  41
ATOM     41  C   UNL     1      -1.297  10.621  -0.962  1.00  0.00     0.039 A 
ATOM     42  C   UNL     1      -1.427  10.731  -2.350  1.00  0.00     0.014 A 
ATOM     43  C   UNL     1      -2.437  10.496  -0.167  1.00  0.00     0.014 A 
ATOM     44  C   UNL     1      -2.691  10.642  -2.938  1.00  0.00     0.010 A 
ATOM     45  C   UNL     1      -3.678  10.292  -0.759  1.00  0.00     0.010 A 
ATOM     46  C   UNL     1      -3.823  10.377  -2.151  1.00  0.00    -0.014 A 
BRANCH  46  47
ATOM     47  C   UNL     1      -5.165  10.195  -2.762  1.00  0.00     0.031 A 
ATOM     48  C   UNL     1      -6.297  11.117  -2.394  1.00  0.00     0.074 A 
ATOM     49  C   UNL     1      -5.381   9.164  -3.602  1.00  0.00     0.049 A 
ATOM     50  N   UNL     1      -7.548  11.094  -2.783  1.00  0.00    -0.248 NA
ATOM     51  C   UNL     1      -5.992  12.192  -1.436  1.00  0.00     0.031 C 
ATOM     52  C   UNL     1      -4.385   8.164  -3.988  1.00  0.00     0.029 A 
ATOM     53  N   UNL     1      -6.513   8.783  -4.279  1.00  0.00    -0.354 N 
ATOM     54  C   UNL     1      -8.174  12.133  -2.108  1.00  0.00     0.074 A 
ATOM     55  C   UNL     1      -7.186  12.726  -1.234  1.00  0.00     0.031 C 
ATOM     56  C   UNL     1      -4.937   7.306  -4.860  1.00  0.00     0.029 A 
ATOM     57  C   UNL     1      -6.336   7.668  -5.061  1.00  0.00     0.049 A 
ATOM     58  H   UNL     1      -7.370   9.263  -4.210  1.00  0.00     0.167 HD
ATOM     59  C   UNL     1      -9.449  12.574  -2.228  1.00  0.00     0.037 A 
ATOM     60  C   UNL     1      -7.207   7.010  -5.849  1.00  0.00     0.037 A 
ATOM     61  C   UNL     1     -10.424  11.992  -3.113  1.00  0.00     0.049 A 
ATOM     62  C   UNL     1      -8.620   7.517  -5.960  1.00  0.00     0.074 A 
ATOM     63  C   UNL     1     -11.725  12.397  -3.351  1.00  0.00     0.029 A 
ATOM     64  N   UNL     1     -10.203  10.872  -3.903  1.00  0.00    -0.354 N 
ATOM     65  N   UNL     1      -9.180   8.550  -5.379  1.00  0.00    -0.248 NA
ATOM     66  C   UNL     1      -9.519   6.769  -6.849  1.00  0.00     0.031 C 
ATOM     67  C   UNL     1     -12.310  11.491  -4.242  1.00  0.00     0.029 A 
ATOM     68  C   UNL     1     -11.353  10.559  -4.612  1.00  0.00     0.049 A 
ATOM     69  H   UNL     1      -9.356  10.374  -3.953  1.00  0.00     0.167 HD
ATOM     70  C   UNL     1     -10.484   8.596  -5.854  1.00  0.00     0.074 A 
ATOM     71  C   UNL     1     -10.624   7.498  -6.789  1.00  0.00     0.031 C 
ATOM     72  C   UNL     1     -11.476   9.467  -5.545  1.00  0.00     0.037 A 
BRANCH  59  73
ATOM     73  C   UNL     1      -9.860  13.746  -1.381  1.00  0.00     0.064 A 
ATOM     74  C   UNL     1      -9.331  15.030  -1.591  1.00  0.00     0.173 A 
ATOM     75  C   UNL     1     -10.816  13.593  -0.365  1.00  0.00     0.173 A 
ATOM     76  F   UNL     1      -8.406  15.233  -2.543  1.00  0.00    -0.203 F 
ATOM     77  C   UNL     1      -9.715  16.105  -0.795  1.00  0.00     0.198 A 
ATOM     78  C   UNL     1     -11.225  14.679   0.406  1.00  0.00     0.198 A 
ATOM     79  F   UNL     1     -11.362  12.392  -0.124  1.00  0.00    -0.203 F 
ATOM     80  F   UNL     1      -9.153  17.308  -0.978  1.00  0.00    -0.200 F 
ATOM     81  C   UNL     1     -10.667  15.931   0.197  1.00  0.00     0.200 A 
ATOM     82  F   UNL     1     -12.159  14.512   1.352  1.00  0.00    -0.200 F 
ATOM     83  F   UNL     1     -11.044  16.969   0.957  1.00  0.00    -0.200 F 
ENDBRANCH  59  73
BRANCH  60  84
ATOM     84  C   UNL     1      -6.761   5.819  -6.620  1.00  0.00     0.064 A 
ATOM     85  C   UNL     1      -6.676   5.858  -8.019  1.00  0.00     0.173 A 
ATOM     86  C   UNL     1      -6.426   4.616  -5.981  1.00  0.00     0.173 A 
ATOM     87  F   UNL     1      -7.010   6.977  -8.679  1.00  0.00    -0.203 F 
ATOM     88  C   UNL     1      -6.298   4.734  -8.751  1.00  0.00     0.198 A 
ATOM     89  C   UNL     1      -6.017   3.502  -6.712  1.00  0.00     0.198 A 
ATOM     90  F   UNL     1      -6.492   4.526  -4.645  1.00  0.00    -0.203 F 
ATOM     91  F   UNL     1      -6.285   4.784 -10.090  1.00  0.00    -0.200 F 
ATOM     92  C   UNL     1      -5.963   3.559  -8.096  1.00  0.00     0.200 A 
ATOM     93  F   UNL     1      -5.688   2.370  -6.075  1.00  0.00    -0.200 F 
ATOM     94  F   UNL     1      -5.606   2.477  -8.802  1.00  0.00    -0.200 F 
ENDBRANCH  60  84
BRANCH  72  95
ATOM     95  C   UNL     1     -12.787   9.297  -6.260  1.00  0.00     0.064 A 
ATOM     96  C   UNL     1     -13.626   8.198  -6.020  1.00  0.00     0.173 A 
ATOM     97  C   UNL     1     -13.216  10.258  -7.188  1.00  0.00     0.173 A 
ATOM     98  F   UNL     1     -13.259   7.244  -5.151  1.00  0.00    -0.203 F 
ATOM     99  C   UNL     1     -14.825   8.048  -6.713  1.00  0.00     0.198 A 
ATOM    100  C   UNL     1     -14.433  10.125  -7.850  1.00  0.00     0.198 A 
ATOM    101  F   UNL     1     -12.459  11.335  -7.448  1.00  0.00    -0.203 F 
ATOM    102  F   UNL     1     -15.579   6.958  -6.515  1.00  0.00    -0.200 F 
ATOM    103  C   UNL     1     -15.230   9.014  -7.622  1.00  0.00     0.200 A 
ATOM    104  F   UNL     1     -14.832  11.069  -8.713  1.00  0.00    -0.200 F 
ATOM    105  F   UNL     1     -16.386   8.870  -8.285  1.00  0.00    -0.200 F 
ENDBRANCH  72  95
ENDBRANCH  46  47
ENDBRANCH  38  41
ENDBRANCH  36  37
ENDBRANCH  35  36
ENDBRANCH  34  35
ENDBRANCH   1  34
TORSDOF 16
