REMARK SMILES Cc1cccc(C[NH+]2CCC(OCC(=O)NCCCCNC(=O)c3ccc(-c4c5nc(c(-c6c(F)c(F)c(F)c(F)c6F)c6ccc([nH]6)c(-c6c(F)c(F)c(F)c(F)c6F)c6nc(c(-c7c(F)c(F)c(F)c(F)c7F)c7ccc4[nH]7)C=C6)C=C5)cc3)CC2)n1
REMARK SMILES IDX 17 1 16 2 14 3 15 4 13 6 12 7 11 8 8 9 9 10 88 11 10 13
REMARK SMILES IDX 87 14 7 15 6 16 1 17 2 18 3 19 89 20 4 21 5 22 18 23 19 24
REMARK SMILES IDX 20 25 21 26 22 27 23 29 24 30 25 31 86 32 26 33 85 34 27 35
REMARK SMILES IDX 28 36 29 37 79 38 30 39 84 40 78 41 80 42 31 43 83 44 77 45
REMARK SMILES IDX 76 46 32 48 64 49 44 50 63 51 45 52 48 53 62 54 81 55 46 56
REMARK SMILES IDX 47 57 61 59 82 60 49 61 33 62 34 63 42 64 35 65 36 66 40 67
REMARK SMILES IDX 43 68 37 69 38 70 41 71 39 72 65 73 66 74 74 75 67 76 68 77
REMARK SMILES IDX 72 78 75 79 69 80 70 81 73 82 71 83 50 84 51 85 59 86 52 87
REMARK SMILES IDX 53 88 57 89 60 90 54 91 55 92 58 93 56 94
REMARK H PARENT 16 5 8 12 21 28 80 47 48 58
REMARK Flexibility Score: inf
ROOT
ATOM      1  C   UNL     1       2.800   6.866   4.397  1.00  0.00     0.116 C 
ENDROOT
BRANCH   1   2
ATOM      2  N   UNL     1       1.801   7.356   3.469  1.00  0.00    -0.354 N 
ATOM      3  C   UNL     1       0.449   7.166   3.498  1.00  0.00     0.246 C 
ATOM      4  O   UNL     1      -0.253   7.812   2.717  1.00  0.00    -0.272 OA
ATOM      5  H   UNL     1       2.142   7.896   2.719  1.00  0.00     0.163 HD
BRANCH   3   6
ATOM      6  C   UNL     1      -0.161   6.179   4.503  1.00  0.00     0.260 C 
BRANCH   6   7
ATOM      7  O   UNL     1       0.383   4.871   4.551  1.00  0.00    -0.368 OA
BRANCH   7   8
ATOM      8  C   UNL     1       0.034   3.965   3.498  1.00  0.00     0.130 C 
ATOM      9  N   UNL     1      -1.277   3.080   1.072  1.00  0.00    -0.330 N 
ATOM     10  C   UNL     1      -1.729   2.554   2.364  1.00  0.00     0.265 C 
ATOM     11  C   UNL     1       0.165   3.356   1.079  1.00  0.00     0.265 C 
ATOM     12  H   UNL     1      -1.768   3.964   0.940  1.00  0.00     0.348 HD
ATOM     13  C   UNL     1      -1.444   3.562   3.486  1.00  0.00     0.093 C 
ATOM     14  C   UNL     1       0.477   4.425   2.111  1.00  0.00     0.093 C 
BRANCH   9  15
ATOM     15  C   UNL     1      -1.664   2.229  -0.076  1.00  0.00     0.319 C 
BRANCH  15  16
ATOM     16  C   UNL     1      -1.050   0.839  -0.136  1.00  0.00     0.095 A 
ATOM     17  C   UNL     1       2.382  -0.464  -0.312  1.00  0.00     0.067 C 
ATOM     18  C   UNL     1       0.885  -0.457  -0.263  1.00  0.00     0.038 A 
ATOM     19  C   UNL     1       0.157  -1.626  -0.101  1.00  0.00     0.023 A 
ATOM     20  N   UNL     1       0.296   0.758  -0.307  1.00  0.00    -0.252 NA
ATOM     21  C   UNL     1      -1.227  -1.540   0.022  1.00  0.00     0.004 A 
ATOM     22  C   UNL     1      -1.842  -0.293   0.015  1.00  0.00     0.030 A 
ENDBRANCH  15  16
ENDBRANCH   9  15
ENDBRANCH   7   8
ENDBRANCH   6   7
ENDBRANCH   3   6
ENDBRANCH   1   2
BRANCH   1  23
ATOM     23  C   UNL     1       3.674   5.744   3.837  1.00  0.00     0.023 C 
BRANCH  23  24
ATOM     24  C   UNL     1       4.354   6.034   2.497  1.00  0.00     0.023 C 
BRANCH  24  25
ATOM     25  C   UNL     1       5.158   7.328   2.429  1.00  0.00     0.116 C 
BRANCH  25  26
ATOM     26  N   UNL     1       6.224   7.397   3.416  1.00  0.00    -0.352 N 
ATOM     27  C   UNL     1       7.516   7.842   3.268  1.00  0.00     0.251 C 
ATOM     28  H   UNL     1       5.986   7.080   4.317  1.00  0.00     0.163 HD
ATOM     29  O   UNL     1       8.316   7.738   4.193  1.00  0.00    -0.269 OA
BRANCH  27  30
ATOM     30  C   UNL     1       7.956   8.411   1.977  1.00  0.00     0.039 A 
ATOM     31  C   UNL     1       9.154   7.958   1.415  1.00  0.00     0.014 A 
ATOM     32  C   UNL     1       7.186   9.369   1.314  1.00  0.00     0.014 A 
ATOM     33  C   UNL     1       9.540   8.406   0.149  1.00  0.00     0.010 A 
ATOM     34  C   UNL     1       7.538   9.766   0.027  1.00  0.00     0.010 A 
ATOM     35  C   UNL     1       8.713   9.282  -0.571  1.00  0.00    -0.014 A 
BRANCH  35  36
ATOM     36  C   UNL     1       9.037   9.698  -1.958  1.00  0.00     0.031 A 
ATOM     37  C   UNL     1       9.316  11.141  -2.263  1.00  0.00     0.074 A 
ATOM     38  C   UNL     1       8.973   8.797  -2.957  1.00  0.00     0.049 A 
ATOM     39  N   UNL     1       9.463  11.732  -3.421  1.00  0.00    -0.248 NA
ATOM     40  C   UNL     1       9.412  12.046  -1.108  1.00  0.00     0.031 C 
ATOM     41  C   UNL     1       8.668   7.375  -2.795  1.00  0.00     0.029 A 
ATOM     42  N   UNL     1       9.129   8.951  -4.313  1.00  0.00    -0.354 N 
ATOM     43  C   UNL     1       9.642  13.078  -3.137  1.00  0.00     0.074 A 
ATOM     44  C   UNL     1       9.544  13.224  -1.700  1.00  0.00     0.031 C 
ATOM     45  C   UNL     1       8.655   6.788  -4.002  1.00  0.00     0.029 A 
ATOM     46  C   UNL     1       8.910   7.797  -5.025  1.00  0.00     0.049 A 
ATOM     47  H   UNL     1       9.374   9.806  -4.734  1.00  0.00     0.167 HD
ATOM     48  C   UNL     1       9.882  14.098  -3.996  1.00  0.00     0.037 A 
ATOM     49  C   UNL     1       8.892   7.582  -6.354  1.00  0.00     0.037 A 
ATOM     50  C   UNL     1      10.004  13.943  -5.421  1.00  0.00     0.049 A 
ATOM     51  C   UNL     1       9.165   8.728  -7.290  1.00  0.00     0.074 A 
ATOM     52  C   UNL     1      10.311  14.901  -6.371  1.00  0.00     0.029 A 
ATOM     53  N   UNL     1       9.820  12.748  -6.103  1.00  0.00    -0.354 N 
ATOM     54  N   UNL     1       9.395   9.987  -7.008  1.00  0.00    -0.248 NA
ATOM     55  C   UNL     1       9.179   8.423  -8.728  1.00  0.00     0.031 C 
ATOM     56  C   UNL     1      10.274  14.296  -7.631  1.00  0.00     0.029 A 
ATOM     57  C   UNL     1       9.989  12.950  -7.464  1.00  0.00     0.049 A 
ATOM     58  H   UNL     1       9.602  11.885  -5.682  1.00  0.00     0.167 HD
ATOM     59  C   UNL     1       9.604  10.620  -8.225  1.00  0.00     0.074 A 
ATOM     60  C   UNL     1       9.483   9.604  -9.250  1.00  0.00     0.031 C 
ATOM     61  C   UNL     1       9.874  11.925  -8.470  1.00  0.00     0.037 A 
BRANCH  48  62
ATOM     62  C   UNL     1      10.026  15.472  -3.411  1.00  0.00     0.064 A 
ATOM     63  C   UNL     1      11.139  15.829  -2.635  1.00  0.00     0.173 A 
ATOM     64  C   UNL     1       9.048  16.451  -3.644  1.00  0.00     0.173 A 
ATOM     65  F   UNL     1      12.097  14.927  -2.374  1.00  0.00    -0.203 F 
ATOM     66  C   UNL     1      11.249  17.102  -2.083  1.00  0.00     0.198 A 
ATOM     67  C   UNL     1       9.176  17.733  -3.116  1.00  0.00     0.198 A 
ATOM     68  F   UNL     1       7.967  16.165  -4.386  1.00  0.00    -0.203 F 
ATOM     69  F   UNL     1      12.293  17.402  -1.298  1.00  0.00    -0.200 F 
ATOM     70  C   UNL     1      10.271  18.054  -2.328  1.00  0.00     0.200 A 
ATOM     71  F   UNL     1       8.237  18.656  -3.364  1.00  0.00    -0.200 F 
ATOM     72  F   UNL     1      10.379  19.280  -1.796  1.00  0.00    -0.200 F 
ENDBRANCH  48  62
BRANCH  49  73
ATOM     73  C   UNL     1       8.613   6.219  -6.874  1.00  0.00     0.064 A 
ATOM     74  C   UNL     1       9.629   5.447  -7.451  1.00  0.00     0.173 A 
ATOM     75  C   UNL     1       7.332   5.654  -6.785  1.00  0.00     0.173 A 
ATOM     76  F   UNL     1      10.865   5.952  -7.575  1.00  0.00    -0.203 F 
ATOM     77  C   UNL     1       9.373   4.164  -7.930  1.00  0.00     0.198 A 
ATOM     78  C   UNL     1       7.083   4.362  -7.242  1.00  0.00     0.198 A 
ATOM     79  F   UNL     1       6.327   6.352  -6.237  1.00  0.00    -0.203 F 
ATOM     80  F   UNL     1      10.355   3.459  -8.508  1.00  0.00    -0.200 F 
ATOM     81  C   UNL     1       8.102   3.620  -7.819  1.00  0.00     0.200 A 
ATOM     82  F   UNL     1       5.857   3.835  -7.121  1.00  0.00    -0.200 F 
ATOM     83  F   UNL     1       7.859   2.382  -8.272  1.00  0.00    -0.200 F 
ENDBRANCH  49  73
BRANCH  61  84
ATOM     84  C   UNL     1      10.092  12.330  -9.898  1.00  0.00     0.064 A 
ATOM     85  C   UNL     1       9.025  12.443 -10.800  1.00  0.00     0.173 A 
ATOM     86  C   UNL     1      11.376  12.669 -10.349  1.00  0.00     0.173 A 
ATOM     87  F   UNL     1       7.781  12.114 -10.419  1.00  0.00    -0.203 F 
ATOM     88  C   UNL     1       9.238  12.871 -12.108  1.00  0.00     0.198 A 
ATOM     89  C   UNL     1      11.582  13.120 -11.649  1.00  0.00     0.198 A 
ATOM     90  F   UNL     1      12.429  12.581  -9.522  1.00  0.00    -0.203 F 
ATOM     91  F   UNL     1       8.210  12.943 -12.964  1.00  0.00    -0.200 F 
ATOM     92  C   UNL     1      10.514  13.218 -12.528  1.00  0.00     0.200 A 
ATOM     93  F   UNL     1      12.813  13.466 -12.050  1.00  0.00    -0.200 F 
ATOM     94  F   UNL     1      10.715  13.643 -13.783  1.00  0.00    -0.200 F 
ENDBRANCH  61  84
ENDBRANCH  35  36
ENDBRANCH  27  30
ENDBRANCH  25  26
ENDBRANCH  24  25
ENDBRANCH  23  24
ENDBRANCH   1  23
TORSDOF 15
