REMARK SMILES CN(c1ccc(C(=O)NCCCCNC(=O)c2ccc(-c3c4nc(c(-c5c(F)c(F)c(F)c(F)c5F)c5ccc([nH]5)c(-c5c(F)c(F)c(F)c(F)c5F)c5nc(c(-c6c(F)c(F)c(F)c(F)c6F)c6ccc3[nH]6)C=C5)C=C4)cc2)cc1)S(C)(=O)=O
REMARK SMILES IDX 11 1 10 2 9 3 7 4 8 5 6 7 3 8 4 9 81 10 5 11 80 12 2 13 1 14
REMARK SMILES IDX 82 15 83 16 84 17 85 18 12 19 13 20 14 21 15 22 16 24 17 25
REMARK SMILES IDX 18 26 79 27 19 28 78 29 20 30 21 31 22 32 72 33 23 34 77 35
REMARK SMILES IDX 71 36 73 37 24 38 76 39 70 40 69 41 25 43 57 44 37 45 56 46
REMARK SMILES IDX 38 47 41 48 55 49 74 50 39 51 40 52 54 54 75 55 42 56 26 57
REMARK SMILES IDX 27 58 35 59 28 60 29 61 33 62 36 63 30 64 31 65 34 66 32 67
REMARK SMILES IDX 58 68 59 69 67 70 60 71 61 72 65 73 68 74 62 75 63 76 66 77
REMARK SMILES IDX 64 78 43 79 44 80 52 81 45 82 46 83 50 84 53 85 47 86 48 87
REMARK SMILES IDX 51 88 49 89
REMARK H PARENT 9 6 14 23 73 42 41 53
REMARK Flexibility Score: inf
ROOT
ATOM      1  C   UNL     1      -5.494  -2.199   2.599  1.00  0.00     0.023 C 
ENDROOT
BRANCH   1   2
ATOM      2  C   UNL     1      -4.264  -2.807   3.278  1.00  0.00     0.116 C 
BRANCH   2   3
ATOM      3  N   UNL     1      -4.020  -4.138   2.766  1.00  0.00    -0.352 N 
ATOM      4  C   UNL     1      -3.172  -4.604   1.796  1.00  0.00     0.251 C 
ATOM      5  O   UNL     1      -3.182  -5.814   1.570  1.00  0.00    -0.269 OA
ATOM      6  H   UNL     1      -4.564  -4.838   3.194  1.00  0.00     0.163 HD
BRANCH   4   7
ATOM      7  C   UNL     1      -2.207  -3.733   1.063  1.00  0.00     0.039 A 
ATOM      8  C   UNL     1      -0.210  -2.232  -0.241  1.00  0.00     0.051 A 
ATOM      9  C   UNL     1      -0.034  -3.598  -0.023  1.00  0.00     0.028 A 
ATOM     10  C   UNL     1      -1.407  -1.627   0.138  1.00  0.00     0.028 A 
ATOM     11  C   UNL     1      -1.023  -4.342   0.625  1.00  0.00     0.016 A 
ATOM     12  C   UNL     1      -2.408  -2.380   0.766  1.00  0.00     0.016 A 
BRANCH   8  13
ATOM     13  N   UNL     1       0.845  -1.474  -0.838  1.00  0.00    -0.274 N 
ATOM     14  C   UNL     1       1.290  -0.230  -0.197  1.00  0.00     0.163 C 
BRANCH  13  15
ATOM     15  S   UNL     1       1.249  -1.743  -2.459  1.00  0.00     0.231 S 
ATOM     16  C   UNL     1       0.318  -0.470  -3.284  1.00  0.00     0.183 C 
ATOM     17  O   UNL     1       2.652  -1.411  -2.623  1.00  0.00    -0.207 OA
ATOM     18  O   UNL     1       0.734  -3.020  -2.899  1.00  0.00    -0.207 OA
ENDBRANCH  13  15
ENDBRANCH   8  13
ENDBRANCH   4   7
ENDBRANCH   2   3
ENDBRANCH   1   2
BRANCH   1  19
ATOM     19  C   UNL     1      -6.824  -2.740   3.127  1.00  0.00     0.023 C 
BRANCH  19  20
ATOM     20  C   UNL     1      -7.075  -2.468   4.603  1.00  0.00     0.116 C 
BRANCH  20  21
ATOM     21  N   UNL     1      -7.037  -1.053   4.937  1.00  0.00    -0.352 N 
ATOM     22  C   UNL     1      -7.780  -0.380   5.875  1.00  0.00     0.251 C 
ATOM     23  H   UNL     1      -6.396  -0.508   4.426  1.00  0.00     0.163 HD
ATOM     24  O   UNL     1      -7.729   0.842   5.953  1.00  0.00    -0.269 OA
BRANCH  22  25
ATOM     25  C   UNL     1      -8.669  -1.149   6.768  1.00  0.00     0.039 A 
ATOM     26  C   UNL     1      -9.987  -0.722   6.940  1.00  0.00     0.014 A 
ATOM     27  C   UNL     1      -8.208  -2.304   7.404  1.00  0.00     0.014 A 
ATOM     28  C   UNL     1     -10.856  -1.483   7.722  1.00  0.00     0.010 A 
ATOM     29  C   UNL     1      -9.099  -3.107   8.104  1.00  0.00     0.010 A 
ATOM     30  C   UNL     1     -10.426  -2.694   8.290  1.00  0.00    -0.014 A 
BRANCH  30  31
ATOM     31  C   UNL     1     -11.338  -3.518   9.120  1.00  0.00     0.031 A 
ATOM     32  C   UNL     1     -11.023  -3.749  10.572  1.00  0.00     0.074 A 
ATOM     33  C   UNL     1     -12.421  -4.091   8.560  1.00  0.00     0.049 A 
ATOM     34  N   UNL     1     -11.670  -4.464  11.458  1.00  0.00    -0.248 NA
ATOM     35  C   UNL     1      -9.798  -3.120  11.091  1.00  0.00     0.031 C 
ATOM     36  C   UNL     1     -12.803  -3.982   7.152  1.00  0.00     0.029 A 
ATOM     37  N   UNL     1     -13.397  -4.883   9.110  1.00  0.00    -0.354 N 
ATOM     38  C   UNL     1     -10.925  -4.378  12.627  1.00  0.00     0.074 A 
ATOM     39  C   UNL     1      -9.742  -3.605  12.321  1.00  0.00     0.031 C 
ATOM     40  C   UNL     1     -13.949  -4.654   6.955  1.00  0.00     0.029 A 
ATOM     41  C   UNL     1     -14.360  -5.272   8.212  1.00  0.00     0.049 A 
ATOM     42  H   UNL     1     -13.406  -5.147  10.058  1.00  0.00     0.167 HD
ATOM     43  C   UNL     1     -11.216  -4.872  13.854  1.00  0.00     0.037 A 
ATOM     44  C   UNL     1     -15.451  -6.043   8.386  1.00  0.00     0.037 A 
ATOM     45  C   UNL     1     -12.405  -5.624  14.156  1.00  0.00     0.049 A 
ATOM     46  C   UNL     1     -15.749  -6.586   9.758  1.00  0.00     0.074 A 
ATOM     47  C   UNL     1     -12.822  -6.128  15.375  1.00  0.00     0.029 A 
ATOM     48  N   UNL     1     -13.368  -5.985  13.223  1.00  0.00    -0.354 N 
ATOM     49  N   UNL     1     -15.077  -6.439  10.874  1.00  0.00    -0.248 NA
ATOM     50  C   UNL     1     -16.969  -7.393   9.897  1.00  0.00     0.031 C 
ATOM     51  C   UNL     1     -14.006  -6.843  15.169  1.00  0.00     0.029 A 
ATOM     52  C   UNL     1     -14.366  -6.724  13.837  1.00  0.00     0.049 A 
ATOM     53  H   UNL     1     -13.344  -5.750  12.267  1.00  0.00     0.167 HD
ATOM     54  C   UNL     1     -15.810  -7.097  11.853  1.00  0.00     0.074 A 
ATOM     55  C   UNL     1     -16.986  -7.634  11.200  1.00  0.00     0.031 C 
ATOM     56  C   UNL     1     -15.538  -7.240  13.174  1.00  0.00     0.037 A 
BRANCH  43  57
ATOM     57  C   UNL     1     -10.229  -4.614  14.957  1.00  0.00     0.064 A 
ATOM     58  C   UNL     1      -9.997  -3.321  15.456  1.00  0.00     0.173 A 
ATOM     59  C   UNL     1      -9.517  -5.674  15.538  1.00  0.00     0.173 A 
ATOM     60  F   UNL     1     -10.640  -2.268  14.928  1.00  0.00    -0.203 F 
ATOM     61  C   UNL     1      -9.063  -3.096  16.464  1.00  0.00     0.198 A 
ATOM     62  C   UNL     1      -8.612  -5.450  16.573  1.00  0.00     0.198 A 
ATOM     63  F   UNL     1      -9.701  -6.930  15.105  1.00  0.00    -0.203 F 
ATOM     64  F   UNL     1      -8.814  -1.846  16.877  1.00  0.00    -0.200 F 
ATOM     65  C   UNL     1      -8.378  -4.162  17.027  1.00  0.00     0.200 A 
ATOM     66  F   UNL     1      -7.962  -6.483  17.127  1.00  0.00    -0.200 F 
ATOM     67  F   UNL     1      -7.484  -3.945  18.002  1.00  0.00    -0.200 F 
ENDBRANCH  43  57
BRANCH  44  68
ATOM     68  C   UNL     1     -16.359  -6.318   7.241  1.00  0.00     0.064 A 
ATOM     69  C   UNL     1     -17.660  -5.794   7.210  1.00  0.00     0.173 A 
ATOM     70  C   UNL     1     -15.953  -7.117   6.162  1.00  0.00     0.173 A 
ATOM     71  F   UNL     1     -18.102  -5.038   8.226  1.00  0.00    -0.203 F 
ATOM     72  C   UNL     1     -18.528  -6.082   6.159  1.00  0.00     0.198 A 
ATOM     73  C   UNL     1     -16.811  -7.378   5.096  1.00  0.00     0.198 A 
ATOM     74  F   UNL     1     -14.717  -7.636   6.139  1.00  0.00    -0.203 F 
ATOM     75  F   UNL     1     -19.783  -5.613   6.182  1.00  0.00    -0.200 F 
ATOM     76  C   UNL     1     -18.101  -6.869   5.100  1.00  0.00     0.200 A 
ATOM     77  F   UNL     1     -16.389  -8.124   4.066  1.00  0.00    -0.200 F 
ATOM     78  F   UNL     1     -18.935  -7.144   4.088  1.00  0.00    -0.200 F 
ENDBRANCH  44  68
BRANCH  56  79
ATOM     79  C   UNL     1     -16.559  -7.954  14.016  1.00  0.00     0.064 A 
ATOM     80  C   UNL     1     -16.801  -9.330  13.886  1.00  0.00     0.173 A 
ATOM     81  C   UNL     1     -17.286  -7.250  14.989  1.00  0.00     0.173 A 
ATOM     82  F   UNL     1     -16.142 -10.048  12.965  1.00  0.00    -0.203 F 
ATOM     83  C   UNL     1     -17.761  -9.964  14.671  1.00  0.00     0.198 A 
ATOM     84  C   UNL     1     -18.216  -7.895  15.798  1.00  0.00     0.198 A 
ATOM     85  F   UNL     1     -17.086  -5.934  15.163  1.00  0.00    -0.203 F 
ATOM     86  F   UNL     1     -18.021 -11.266  14.485  1.00  0.00    -0.200 F 
ATOM     87  C   UNL     1     -18.461  -9.249  15.631  1.00  0.00     0.200 A 
ATOM     88  F   UNL     1     -18.877  -7.205  16.738  1.00  0.00    -0.200 F 
ATOM     89  F   UNL     1     -19.380  -9.863  16.389  1.00  0.00    -0.200 F 
ENDBRANCH  56  79
ENDBRANCH  30  31
ENDBRANCH  22  25
ENDBRANCH  20  21
ENDBRANCH  19  20
ENDBRANCH   1  19
TORSDOF 13
