REMARK SMILES O=C(NCCCCNC(=O)c1ccc(-c2c3nc(c(-c4c(F)c(F)c(F)c(F)c4F)c4ccc([nH]4)c(-c4c(F)c(F)c(F)c(F)c4F)c4nc(c(-c5c(F)c(F)c(F)c(F)c5F)c5ccc2[nH]5)C=C4)C=C3)cc1)C1=Cc2cc(Cl)c(Cl)c(Cl)c2O[C@@H]1C(F)(F)F
REMARK SMILES IDX 6 1 5 2 4 3 3 4 1 5 2 6 74 8 75 9 86 10 76 11 85 12 77 13
REMARK SMILES IDX 84 14 78 15 82 16 79 17 80 18 83 19 81 20 87 21 88 22 89 23
REMARK SMILES IDX 90 24 7 25 8 26 9 27 10 29 11 30 12 31 73 32 13 33 72 34
REMARK SMILES IDX 14 35 15 36 16 37 66 38 17 39 71 40 65 41 67 42 18 43 70 44
REMARK SMILES IDX 64 45 63 46 19 48 51 49 31 50 50 51 32 52 35 53 49 54 68 55
REMARK SMILES IDX 33 56 34 57 48 59 69 60 36 61 20 62 21 63 29 64 22 65 23 66
REMARK SMILES IDX 27 67 30 68 24 69 25 70 28 71 26 72 52 73 53 74 61 75 54 76
REMARK SMILES IDX 55 77 59 78 62 79 56 80 57 81 60 82 58 83 37 84 38 85 46 86
REMARK SMILES IDX 39 87 40 88 44 89 47 90 41 91 42 92 45 93 43 94
REMARK H PARENT 3 7 8 28 67 47 35 58
REMARK Flexibility Score: inf
ROOT
ATOM      1  C   UNL     1       3.902   4.408  -0.608  1.00  0.00     0.023 C 
ENDROOT
BRANCH   1   2
ATOM      2  C   UNL     1       4.230   3.089  -1.298  1.00  0.00     0.023 C 
BRANCH   2   3
ATOM      3  C   UNL     1       3.881   1.822  -0.521  1.00  0.00     0.116 C 
BRANCH   3   4
ATOM      4  N   UNL     1       2.615   1.202  -0.890  1.00  0.00    -0.352 N 
ATOM      5  O   UNL     1       1.028  -0.391  -0.985  1.00  0.00    -0.270 OA
ATOM      6  C   UNL     1       2.211  -0.110  -0.809  1.00  0.00     0.251 C 
ATOM      7  H   UNL     1       1.942   1.820  -1.256  1.00  0.00     0.163 HD
BRANCH   6   8
ATOM      8  C   UNL     1       3.149  -1.185  -0.369  1.00  0.00     0.067 C 
ATOM      9  C   UNL     1       4.393  -1.266  -0.859  1.00  0.00     0.025 C 
ATOM     10  C   UNL     1       2.893  -1.688   1.025  1.00  0.00     0.314 C 
ATOM     11  C   UNL     1       5.458  -1.035   0.116  1.00  0.00     0.020 A 
ATOM     12  O   UNL     1       3.886  -1.212   1.965  1.00  0.00    -0.474 OA
ATOM     13  C   UNL     1       6.703  -0.609  -0.355  1.00  0.00     0.034 A 
ATOM     14  C   UNL     1       5.135  -0.897   1.475  1.00  0.00     0.148 A 
ATOM     15  C   UNL     1       7.598   0.023   0.513  1.00  0.00     0.062 A 
ATOM     16  C   UNL     1       6.051  -0.297   2.354  1.00  0.00     0.103 A 
ATOM     17  Cl  UNL     1       9.040   0.670  -0.192  1.00  0.00    -0.083 Cl
ATOM     18  C   UNL     1       7.277   0.192   1.869  1.00  0.00     0.082 A 
ATOM     19  Cl  UNL     1       5.585  -0.073   4.014  1.00  0.00    -0.079 Cl
ATOM     20  Cl  UNL     1       8.352   1.065   2.916  1.00  0.00    -0.081 Cl
BRANCH  10  21
ATOM     21  C   UNL     1       2.808  -3.229   1.030  1.00  0.00     0.429 C 
ATOM     22  F   UNL     1       2.470  -3.702   2.251  1.00  0.00    -0.167 F 
ATOM     23  F   UNL     1       1.879  -3.686   0.156  1.00  0.00    -0.167 F 
ATOM     24  F   UNL     1       3.988  -3.807   0.689  1.00  0.00    -0.167 F 
ENDBRANCH  10  21
ENDBRANCH   6   8
ENDBRANCH   3   4
ENDBRANCH   2   3
ENDBRANCH   1   2
BRANCH   1  25
ATOM     25  C   UNL     1       4.494   4.620   0.785  1.00  0.00     0.116 C 
BRANCH  25  26
ATOM     26  N   UNL     1       5.945   4.476   0.868  1.00  0.00    -0.352 N 
ATOM     27  C   UNL     1       6.865   5.278   1.499  1.00  0.00     0.251 C 
ATOM     28  H   UNL     1       6.317   3.691   0.405  1.00  0.00     0.163 HD
ATOM     29  O   UNL     1       8.065   5.015   1.431  1.00  0.00    -0.269 OA
BRANCH  27  30
ATOM     30  C   UNL     1       6.423   6.506   2.196  1.00  0.00     0.039 A 
ATOM     31  C   UNL     1       7.057   7.714   1.889  1.00  0.00     0.014 A 
ATOM     32  C   UNL     1       5.336   6.487   3.072  1.00  0.00     0.014 A 
ATOM     33  C   UNL     1       6.517   8.914   2.352  1.00  0.00     0.010 A 
ATOM     34  C   UNL     1       4.750   7.688   3.466  1.00  0.00     0.010 A 
ATOM     35  C   UNL     1       5.317   8.913   3.083  1.00  0.00    -0.014 A 
BRANCH  35  36
ATOM     36  C   UNL     1       4.604  10.183   3.379  1.00  0.00     0.031 A 
ATOM     37  C   UNL     1       4.391  10.633   4.794  1.00  0.00     0.074 A 
ATOM     38  C   UNL     1       4.075  10.890   2.360  1.00  0.00     0.049 A 
ATOM     39  N   UNL     1       3.763  11.693   5.237  1.00  0.00    -0.248 NA
ATOM     40  C   UNL     1       4.927   9.765   5.852  1.00  0.00     0.031 C 
ATOM     41  C   UNL     1       4.144  10.517   0.946  1.00  0.00     0.029 A 
ATOM     42  N   UNL     1       3.367  12.066   2.356  1.00  0.00    -0.354 N 
ATOM     43  C   UNL     1       3.818  11.613   6.622  1.00  0.00     0.074 A 
ATOM     44  C   UNL     1       4.493  10.374   6.946  1.00  0.00     0.031 C 
ATOM     45  C   UNL     1       3.538  11.461   0.210  1.00  0.00     0.029 A 
ATOM     46  C   UNL     1       3.010  12.491   1.099  1.00  0.00     0.049 A 
ATOM     47  H   UNL     1       3.137  12.560   3.176  1.00  0.00     0.167 HD
ATOM     48  C   UNL     1       3.367  12.502   7.538  1.00  0.00     0.037 A 
ATOM     49  C   UNL     1       2.338  13.589   0.706  1.00  0.00     0.037 A 
ATOM     50  C   UNL     1       2.718  13.745   7.213  1.00  0.00     0.049 A 
ATOM     51  C   UNL     1       1.872  14.574   1.741  1.00  0.00     0.074 A 
ATOM     52  C   UNL     1       2.293  14.748   8.068  1.00  0.00     0.029 A 
ATOM     53  N   UNL     1       2.397  14.155   5.927  1.00  0.00    -0.354 N 
ATOM     54  N   UNL     1       2.007  14.529   3.044  1.00  0.00    -0.248 NA
ATOM     55  C   UNL     1       1.166  15.766   1.250  1.00  0.00     0.031 C 
ATOM     56  C   UNL     1       1.682  15.747   7.301  1.00  0.00     0.029 A 
ATOM     57  C   UNL     1       1.762  15.385   5.966  1.00  0.00     0.049 A 
ATOM     58  H   UNL     1       2.593  13.646   5.107  1.00  0.00     0.167 HD
ATOM     59  C   UNL     1       1.423  15.691   3.528  1.00  0.00     0.074 A 
ATOM     60  C   UNL     1       0.947  16.430   2.377  1.00  0.00     0.031 C 
ATOM     61  C   UNL     1       1.292  16.107   4.811  1.00  0.00     0.037 A 
BRANCH  48  62
ATOM     62  C   UNL     1       3.572  12.161   8.985  1.00  0.00     0.064 A 
ATOM     63  C   UNL     1       4.848  12.179   9.569  1.00  0.00     0.173 A 
ATOM     64  C   UNL     1       2.480  11.831   9.802  1.00  0.00     0.173 A 
ATOM     65  F   UNL     1       5.925  12.476   8.826  1.00  0.00    -0.203 F 
ATOM     66  C   UNL     1       5.027  11.846  10.909  1.00  0.00     0.198 A 
ATOM     67  C   UNL     1       2.661  11.526  11.149  1.00  0.00     0.198 A 
ATOM     68  F   UNL     1       1.239  11.805   9.295  1.00  0.00    -0.203 F 
ATOM     69  F   UNL     1       6.262  11.819  11.431  1.00  0.00    -0.200 F 
ATOM     70  C   UNL     1       3.934  11.526  11.698  1.00  0.00     0.200 A 
ATOM     71  F   UNL     1       1.602  11.226  11.914  1.00  0.00    -0.200 F 
ATOM     72  F   UNL     1       4.109  11.207  12.988  1.00  0.00    -0.200 F 
ENDBRANCH  48  62
BRANCH  49  73
ATOM     73  C   UNL     1       2.110  13.838  -0.740  1.00  0.00     0.064 A 
ATOM     74  C   UNL     1       2.815  14.846  -1.412  1.00  0.00     0.173 A 
ATOM     75  C   UNL     1       1.199  13.071  -1.481  1.00  0.00     0.173 A 
ATOM     76  F   UNL     1       3.682  15.617  -0.740  1.00  0.00    -0.203 F 
ATOM     77  C   UNL     1       2.607  15.088  -2.768  1.00  0.00     0.198 A 
ATOM     78  C   UNL     1       1.010  13.299  -2.842  1.00  0.00     0.198 A 
ATOM     79  F   UNL     1       0.505  12.091  -0.884  1.00  0.00    -0.203 F 
ATOM     80  F   UNL     1       3.269  16.081  -3.378  1.00  0.00    -0.200 F 
ATOM     81  C   UNL     1       1.710  14.310  -3.484  1.00  0.00     0.200 A 
ATOM     82  F   UNL     1       0.151  12.537  -3.534  1.00  0.00    -0.200 F 
ATOM     83  F   UNL     1       1.516  14.538  -4.790  1.00  0.00    -0.200 F 
ENDBRANCH  49  73
BRANCH  61  84
ATOM     84  C   UNL     1       0.622  17.430   5.035  1.00  0.00     0.064 A 
ATOM     85  C   UNL     1      -0.763  17.584   4.878  1.00  0.00     0.173 A 
ATOM     86  C   UNL     1       1.369  18.546   5.441  1.00  0.00     0.173 A 
ATOM     87  F   UNL     1      -1.516  16.550   4.474  1.00  0.00    -0.203 F 
ATOM     88  C   UNL     1      -1.373  18.816   5.097  1.00  0.00     0.198 A 
ATOM     89  C   UNL     1       0.751  19.769   5.684  1.00  0.00     0.198 A 
ATOM     90  F   UNL     1       2.696  18.447   5.608  1.00  0.00    -0.203 F 
ATOM     91  F   UNL     1      -2.692  18.953   4.899  1.00  0.00    -0.200 F 
ATOM     92  C   UNL     1      -0.618  19.905   5.506  1.00  0.00     0.200 A 
ATOM     93  F   UNL     1       1.481  20.818   6.088  1.00  0.00    -0.200 F 
ATOM     94  F   UNL     1      -1.208  21.089   5.721  1.00  0.00    -0.200 F 
ENDBRANCH  61  84
ENDBRANCH  35  36
ENDBRANCH  27  30
ENDBRANCH  25  26
ENDBRANCH   1  25
TORSDOF 12
