REMARK SMILES C[C@@H]1[C@@H](C(=O)NCCCCNC(=O)c2ccc(-c3c4nc(c(-c5c(F)c(F)c(F)c(F)c5F)c5ccc([nH]5)c(-c5c(F)c(F)c(F)c(F)c5F)c5nc(c(-c6c(F)c(F)c(F)c(F)c6F)c6ccc3[nH]6)C=C5)C=C4)cc2)CCN1C(=O)N1CC[N@H+]2CCCC[C@@H]2C1
REMARK SMILES IDX 8 1 7 2 6 3 4 4 5 5 3 7 1 8 2 9 79 10 77 11 78 12 80 13
REMARK SMILES IDX 81 14 82 15 83 16 91 17 84 18 90 19 85 20 89 21 86 22 88 24
REMARK SMILES IDX 87 25 9 26 10 27 11 28 12 29 13 31 14 32 15 33 76 34 16 35
REMARK SMILES IDX 75 36 17 37 18 38 19 39 69 40 20 41 74 42 68 43 70 44 21 45
REMARK SMILES IDX 73 46 67 47 66 48 22 50 54 51 34 52 53 53 35 54 38 55 52 56
REMARK SMILES IDX 71 57 36 58 37 59 51 61 72 62 39 63 23 64 24 65 32 66 25 67
REMARK SMILES IDX 26 68 30 69 33 70 27 71 28 72 31 73 29 74 55 75 56 76 64 77
REMARK SMILES IDX 57 78 58 79 62 80 65 81 59 82 60 83 63 84 61 85 40 86 41 87
REMARK SMILES IDX 49 88 42 89 43 90 47 91 50 92 44 93 45 94 48 95 46 96
REMARK H PARENT 6 6 85 23 11 30 70 49 38 60
REMARK Flexibility Score: inf
ROOT
ATOM      1  C   UNL     1      -2.810   4.335  -1.173  1.00  0.00     0.023 C 
ENDROOT
BRANCH   1   2
ATOM      2  C   UNL     1      -2.469   2.903  -0.781  1.00  0.00     0.116 C 
BRANCH   2   3
ATOM      3  N   UNL     1      -1.773   2.162  -1.815  1.00  0.00    -0.356 N 
ATOM      4  C   UNL     1      -0.798   1.211  -1.679  1.00  0.00     0.225 C 
ATOM      5  O   UNL     1      -0.375   0.675  -2.702  1.00  0.00    -0.275 OA
ATOM      6  H   UNL     1      -2.037   2.371  -2.740  1.00  0.00     0.163 HD
BRANCH   4   7
ATOM      7  C   UNL     1      -0.213   0.948  -0.297  1.00  0.00     0.102 C 
ATOM      8  C   UNL     1       1.926   0.257   0.752  1.00  0.00     0.032 C 
ATOM      9  C   UNL     1       0.885  -0.147  -0.304  1.00  0.00     0.096 C 
ATOM     10  N   UNL     1       0.152  -1.394   0.016  1.00  0.00    -0.321 N 
ATOM     11  C   UNL     1      -1.209   0.404   0.731  1.00  0.00     0.037 C 
ATOM     12  C   UNL     1      -1.183  -1.089   0.495  1.00  0.00     0.122 C 
BRANCH  10  13
ATOM     13  C   UNL     1       0.309  -2.652  -0.547  1.00  0.00     0.320 C 
ATOM     14  O   UNL     1      -0.634  -3.444  -0.611  1.00  0.00    -0.248 OA
BRANCH  13  15
ATOM     15  N   UNL     1       1.514  -2.967  -1.107  1.00  0.00    -0.313 N 
ATOM     16  C   UNL     1       1.577  -3.869  -2.249  1.00  0.00     0.183 C 
ATOM     17  C   UNL     1       2.784  -2.854  -0.415  1.00  0.00     0.186 C 
ATOM     18  C   UNL     1       2.724  -3.467  -3.207  1.00  0.00     0.284 C 
ATOM     19  C   UNL     1       3.818  -2.250  -1.377  1.00  0.00     0.203 C 
ATOM     20  N   UNL     1       4.019  -3.141  -2.551  1.00  0.00    -0.330 N 
ATOM     21  C   UNL     1       5.150  -2.007  -0.661  1.00  0.00     0.067 C 
ATOM     22  C   UNL     1       4.934  -2.516  -3.518  1.00  0.00     0.262 C 
ATOM     23  H   UNL     1       4.434  -4.011  -2.216  1.00  0.00     0.348 HD
ATOM     24  C   UNL     1       6.157  -1.374  -1.617  1.00  0.00     0.012 C 
ATOM     25  C   UNL     1       6.293  -2.208  -2.887  1.00  0.00     0.062 C 
ENDBRANCH  13  15
ENDBRANCH  10  13
ENDBRANCH   4   7
ENDBRANCH   2   3
ENDBRANCH   1   2
BRANCH   1  26
ATOM     26  C   UNL     1      -3.690   4.489  -2.411  1.00  0.00     0.023 C 
BRANCH  26  27
ATOM     27  C   UNL     1      -4.963   3.652  -2.420  1.00  0.00     0.116 C 
BRANCH  27  28
ATOM     28  N   UNL     1      -5.869   3.975  -1.328  1.00  0.00    -0.352 N 
ATOM     29  C   UNL     1      -7.162   4.443  -1.363  1.00  0.00     0.251 C 
ATOM     30  H   UNL     1      -5.499   3.839  -0.426  1.00  0.00     0.163 HD
ATOM     31  O   UNL     1      -7.716   4.793  -0.328  1.00  0.00    -0.269 OA
BRANCH  29  32
ATOM     32  C   UNL     1      -7.875   4.557  -2.654  1.00  0.00     0.039 A 
ATOM     33  C   UNL     1      -8.606   5.717  -2.924  1.00  0.00     0.014 A 
ATOM     34  C   UNL     1      -7.818   3.531  -3.600  1.00  0.00     0.014 A 
ATOM     35  C   UNL     1      -9.213   5.880  -4.171  1.00  0.00     0.010 A 
ATOM     36  C   UNL     1      -8.340   3.735  -4.874  1.00  0.00     0.010 A 
ATOM     37  C   UNL     1      -9.050   4.908  -5.173  1.00  0.00    -0.014 A 
BRANCH  37  38
ATOM     38  C   UNL     1      -9.624   5.089  -6.531  1.00  0.00     0.031 A 
ATOM     39  C   UNL     1     -10.651   4.120  -7.049  1.00  0.00     0.074 A 
ATOM     40  C   UNL     1      -9.176   6.082  -7.324  1.00  0.00     0.049 A 
ATOM     41  N   UNL     1     -11.215   4.058  -8.230  1.00  0.00    -0.248 NA
ATOM     42  C   UNL     1     -11.080   3.057  -6.126  1.00  0.00     0.031 C 
ATOM     43  C   UNL     1      -8.151   7.061  -6.959  1.00  0.00     0.029 A 
ATOM     44  N   UNL     1      -9.519   6.427  -8.609  1.00  0.00    -0.354 N 
ATOM     45  C   UNL     1     -12.046   2.947  -8.194  1.00  0.00     0.074 A 
ATOM     46  C   UNL     1     -11.867   2.326  -6.900  1.00  0.00     0.031 C 
ATOM     47  C   UNL     1      -7.968   7.910  -7.982  1.00  0.00     0.029 A 
ATOM     48  C   UNL     1      -8.829   7.512  -9.092  1.00  0.00     0.049 A 
ATOM     49  H   UNL     1     -10.196   5.941  -9.134  1.00  0.00     0.167 HD
ATOM     50  C   UNL     1     -12.904   2.499  -9.142  1.00  0.00     0.037 A 
ATOM     51  C   UNL     1      -8.880   8.113 -10.296  1.00  0.00     0.037 A 
ATOM     52  C   UNL     1     -13.095   3.131 -10.421  1.00  0.00     0.049 A 
ATOM     53  C   UNL     1      -9.829   7.586 -11.340  1.00  0.00     0.074 A 
ATOM     54  C   UNL     1     -13.976   2.786 -11.431  1.00  0.00     0.029 A 
ATOM     55  N   UNL     1     -12.389   4.239 -10.868  1.00  0.00    -0.354 N 
ATOM     56  N   UNL     1     -10.660   6.575 -11.271  1.00  0.00    -0.248 NA
ATOM     57  C   UNL     1      -9.853   8.293 -12.628  1.00  0.00     0.031 C 
ATOM     58  C   UNL     1     -13.764   3.650 -12.511  1.00  0.00     0.029 A 
ATOM     59  C   UNL     1     -12.798   4.576 -12.148  1.00  0.00     0.049 A 
ATOM     60  H   UNL     1     -11.699   4.715 -10.352  1.00  0.00     0.167 HD
ATOM     61  C   UNL     1     -11.331   6.547 -12.486  1.00  0.00     0.074 A 
ATOM     62  C   UNL     1     -10.818   7.651 -13.271  1.00  0.00     0.031 C 
ATOM     63  C   UNL     1     -12.289   5.687 -12.913  1.00  0.00     0.037 A 
BRANCH  50  64
ATOM     64  C   UNL     1     -13.701   1.264  -8.828  1.00  0.00     0.064 A 
ATOM     65  C   UNL     1     -14.696   1.259  -7.838  1.00  0.00     0.173 A 
ATOM     66  C   UNL     1     -13.483   0.075  -9.541  1.00  0.00     0.173 A 
ATOM     67  F   UNL     1     -14.939   2.365  -7.118  1.00  0.00    -0.203 F 
ATOM     68  C   UNL     1     -15.415   0.102  -7.547  1.00  0.00     0.198 A 
ATOM     69  C   UNL     1     -14.229  -1.070  -9.273  1.00  0.00     0.198 A 
ATOM     70  F   UNL     1     -12.550   0.024 -10.503  1.00  0.00    -0.203 F 
ATOM     71  F   UNL     1     -16.316   0.107  -6.555  1.00  0.00    -0.200 F 
ATOM     72  C   UNL     1     -15.186  -1.059  -8.270  1.00  0.00     0.200 A 
ATOM     73  F   UNL     1     -14.018  -2.187  -9.983  1.00  0.00    -0.200 F 
ATOM     74  F   UNL     1     -15.882  -2.170  -7.993  1.00  0.00    -0.200 F 
ENDBRANCH  50  64
BRANCH  51  75
ATOM     75  C   UNL     1      -8.027   9.300 -10.573  1.00  0.00     0.064 A 
ATOM     76  C   UNL     1      -8.596  10.570 -10.744  1.00  0.00     0.173 A 
ATOM     77  C   UNL     1      -6.633   9.191 -10.681  1.00  0.00     0.173 A 
ATOM     78  F   UNL     1      -9.927  10.723 -10.670  1.00  0.00    -0.203 F 
ATOM     79  C   UNL     1      -7.807  11.680 -11.037  1.00  0.00     0.198 A 
ATOM     80  C   UNL     1      -5.842  10.308 -10.943  1.00  0.00     0.198 A 
ATOM     81  F   UNL     1      -6.037   8.000 -10.521  1.00  0.00    -0.203 F 
ATOM     82  F   UNL     1      -8.382  12.872 -11.246  1.00  0.00    -0.200 F 
ATOM     83  C   UNL     1      -6.430  11.549 -11.130  1.00  0.00     0.200 A 
ATOM     84  F   UNL     1      -4.510  10.180 -11.016  1.00  0.00    -0.200 F 
ATOM     85  F   UNL     1      -5.670  12.618 -11.408  1.00  0.00    -0.200 F 
ENDBRANCH  51  75
BRANCH  63  86
ATOM     86  C   UNL     1     -12.889   5.936 -14.268  1.00  0.00     0.064 A 
ATOM     87  C   UNL     1     -12.164   5.732 -15.451  1.00  0.00     0.173 A 
ATOM     88  C   UNL     1     -14.226   6.350 -14.381  1.00  0.00     0.173 A 
ATOM     89  F   UNL     1     -10.879   5.350 -15.398  1.00  0.00    -0.203 F 
ATOM     90  C   UNL     1     -12.745   5.962 -16.695  1.00  0.00     0.198 A 
ATOM     91  C   UNL     1     -14.814   6.544 -15.628  1.00  0.00     0.198 A 
ATOM     92  F   UNL     1     -14.968   6.552 -13.282  1.00  0.00    -0.203 F 
ATOM     93  F   UNL     1     -12.017   5.814 -17.810  1.00  0.00    -0.200 F 
ATOM     94  C   UNL     1     -14.071   6.360 -16.783  1.00  0.00     0.200 A 
ATOM     95  F   UNL     1     -16.100   6.912 -15.710  1.00  0.00    -0.200 F 
ATOM     96  F   UNL     1     -14.631   6.573 -17.982  1.00  0.00    -0.200 F 
ENDBRANCH  63  86
ENDBRANCH  37  38
ENDBRANCH  29  32
ENDBRANCH  27  28
ENDBRANCH  26  27
ENDBRANCH   1  26
TORSDOF 13
