REMARK SMILES O=C(NCCCCNC(=O)[C@H]1CC[C@H]2CCCC[C@@H]2N1C(=O)c1ccn[nH]1)c1ccc(-c2c3nc(c(-c4c(F)c(F)c(F)c(F)c4F)c4ccc([nH]4)c(-c4c(F)c(F)c(F)c(F)c4F)c4nc(c(-c5c(F)c(F)c(F)c(F)c5F)c5ccc2[nH]5)C=C4)C=C3)cc1
REMARK SMILES IDX 5 1 4 2 3 3 1 4 2 5 28 7 29 8 90 9 30 10 89 11 31 12 32 13
REMARK SMILES IDX 33 14 83 15 34 16 88 17 82 18 84 19 35 20 87 21 81 22 80 23
REMARK SMILES IDX 36 25 68 26 48 27 67 28 49 29 52 30 66 31 85 32 50 33 51 34
REMARK SMILES IDX 65 36 86 37 53 38 37 39 38 40 46 41 39 42 40 43 44 44 47 45
REMARK SMILES IDX 41 46 42 47 45 48 43 49 69 50 70 51 78 52 71 53 72 54 76 55
REMARK SMILES IDX 79 56 73 57 74 58 77 59 75 60 54 61 55 62 63 63 56 64 57 65
REMARK SMILES IDX 61 66 64 67 58 68 59 69 62 70 60 71 6 72 7 73 8 74 9 75
REMARK SMILES IDX 10 77 11 78 12 79 20 80 13 81 19 82 14 83 18 84 15 85 17 86
REMARK SMILES IDX 16 87 21 88 22 89 23 90 24 91 27 92 25 93 26 94
REMARK H PARENT 3 6 84 24 52 35 8 76 27 95
REMARK Flexibility Score: inf
ROOT
ATOM      1  C   UNL     1       4.777  -1.363   2.629  1.00  0.00     0.023 C 
ENDROOT
BRANCH   1   2
ATOM      2  C   UNL     1       4.612  -0.864   1.194  1.00  0.00     0.116 C 
BRANCH   2   3
ATOM      3  N   UNL     1       3.245  -0.940   0.714  1.00  0.00    -0.352 N 
ATOM      4  O   UNL     1       1.362  -0.325  -0.338  1.00  0.00    -0.269 OA
ATOM      5  C   UNL     1       2.550  -0.100  -0.119  1.00  0.00     0.251 C 
ATOM      6  H   UNL     1       2.736  -1.718   1.036  1.00  0.00     0.163 HD
BRANCH   5   7
ATOM      7  C   UNL     1       3.186   1.091  -0.731  1.00  0.00     0.039 A 
ATOM      8  C   UNL     1       4.448   1.044  -1.332  1.00  0.00     0.014 A 
ATOM      9  C   UNL     1       2.447   2.280  -0.763  1.00  0.00     0.014 A 
ATOM     10  C   UNL     1       4.997   2.201  -1.896  1.00  0.00     0.010 A 
ATOM     11  C   UNL     1       2.986   3.431  -1.344  1.00  0.00     0.010 A 
ATOM     12  C   UNL     1       4.274   3.403  -1.897  1.00  0.00    -0.014 A 
BRANCH  12  13
ATOM     13  C   UNL     1       4.861   4.635  -2.474  1.00  0.00     0.031 A 
ATOM     14  C   UNL     1       5.471   5.673  -1.579  1.00  0.00     0.074 A 
ATOM     15  C   UNL     1       4.836   4.830  -3.805  1.00  0.00     0.049 A 
ATOM     16  N   UNL     1       6.019   6.819  -1.895  1.00  0.00    -0.248 NA
ATOM     17  C   UNL     1       5.460   5.387  -0.136  1.00  0.00     0.031 C 
ATOM     18  C   UNL     1       4.259   3.910  -4.784  1.00  0.00     0.029 A 
ATOM     19  N   UNL     1       5.311   5.872  -4.560  1.00  0.00    -0.354 N 
ATOM     20  C   UNL     1       6.403   7.399  -0.696  1.00  0.00     0.074 A 
ATOM     21  C   UNL     1       6.029   6.479   0.359  1.00  0.00     0.031 C 
ATOM     22  C   UNL     1       4.423   4.424  -6.015  1.00  0.00     0.029 A 
ATOM     23  C   UNL     1       5.109   5.710  -5.906  1.00  0.00     0.049 A 
ATOM     24  H   UNL     1       5.754   6.661  -4.172  1.00  0.00     0.167 HD
ATOM     25  C   UNL     1       7.012   8.590  -0.490  1.00  0.00     0.037 A 
ATOM     26  C   UNL     1       5.441   6.509  -6.936  1.00  0.00     0.037 A 
ATOM     27  C   UNL     1       7.410   9.504  -1.525  1.00  0.00     0.049 A 
ATOM     28  C   UNL     1       6.141   7.812  -6.684  1.00  0.00     0.074 A 
ATOM     29  C   UNL     1       8.059  10.721  -1.403  1.00  0.00     0.029 A 
ATOM     30  N   UNL     1       7.198   9.297  -2.878  1.00  0.00    -0.354 N 
ATOM     31  N   UNL     1       6.508   8.342  -5.545  1.00  0.00    -0.248 NA
ATOM     32  C   UNL     1       6.468   8.627  -7.863  1.00  0.00     0.031 C 
ATOM     33  C   UNL     1       8.238  11.253  -2.687  1.00  0.00     0.029 A 
ATOM     34  C   UNL     1       7.702  10.364  -3.603  1.00  0.00     0.049 A 
ATOM     35  H   UNL     1       6.755   8.508  -3.267  1.00  0.00     0.167 HD
ATOM     36  C   UNL     1       7.108   9.550  -5.866  1.00  0.00     0.074 A 
ATOM     37  C   UNL     1       7.061   9.676  -7.308  1.00  0.00     0.031 C 
ATOM     38  C   UNL     1       7.647  10.473  -5.035  1.00  0.00     0.037 A 
BRANCH  25  39
ATOM     39  C   UNL     1       7.284   8.976   0.927  1.00  0.00     0.064 A 
ATOM     40  C   UNL     1       8.473   8.595   1.563  1.00  0.00     0.173 A 
ATOM     41  C   UNL     1       6.365   9.755   1.644  1.00  0.00     0.173 A 
ATOM     42  F   UNL     1       9.372   7.840   0.915  1.00  0.00    -0.203 F 
ATOM     43  C   UNL     1       8.732   8.980   2.875  1.00  0.00     0.198 A 
ATOM     44  C   UNL     1       6.629  10.141   2.954  1.00  0.00     0.198 A 
ATOM     45  F   UNL     1       5.212  10.134   1.073  1.00  0.00    -0.203 F 
ATOM     46  F   UNL     1       9.870   8.598   3.472  1.00  0.00    -0.200 F 
ATOM     47  C   UNL     1       7.812   9.754   3.568  1.00  0.00     0.200 A 
ATOM     48  F   UNL     1       5.737  10.882   3.627  1.00  0.00    -0.200 F 
ATOM     49  F   UNL     1       8.062  10.120   4.833  1.00  0.00    -0.200 F 
ENDBRANCH  25  39
BRANCH  26  50
ATOM     50  C   UNL     1       5.120   6.086  -8.316  1.00  0.00     0.064 A 
ATOM     51  C   UNL     1       6.057   5.385  -9.085  1.00  0.00     0.173 A 
ATOM     52  C   UNL     1       3.871   6.366  -8.884  1.00  0.00     0.173 A 
ATOM     53  F   UNL     1       7.269   5.113  -8.580  1.00  0.00    -0.203 F 
ATOM     54  C   UNL     1       5.753   4.976 -10.381  1.00  0.00     0.198 A 
ATOM     55  C   UNL     1       3.568   5.954 -10.179  1.00  0.00     0.198 A 
ATOM     56  F   UNL     1       2.953   7.045  -8.182  1.00  0.00    -0.203 F 
ATOM     57  F   UNL     1       6.667   4.315 -11.104  1.00  0.00    -0.200 F 
ATOM     58  C   UNL     1       4.509   5.259 -10.926  1.00  0.00     0.200 A 
ATOM     59  F   UNL     1       2.369   6.233 -10.706  1.00  0.00    -0.200 F 
ATOM     60  F   UNL     1       4.219   4.868 -12.174  1.00  0.00    -0.200 F 
ENDBRANCH  26  50
BRANCH  38  61
ATOM     61  C   UNL     1       8.229  11.697  -5.665  1.00  0.00     0.064 A 
ATOM     62  C   UNL     1       7.433  12.824  -5.913  1.00  0.00     0.173 A 
ATOM     63  C   UNL     1       9.589  11.757  -5.993  1.00  0.00     0.173 A 
ATOM     64  F   UNL     1       6.123  12.802  -5.624  1.00  0.00    -0.203 F 
ATOM     65  C   UNL     1       7.983  13.973  -6.472  1.00  0.00     0.198 A 
ATOM     66  C   UNL     1      10.136  12.910  -6.550  1.00  0.00     0.198 A 
ATOM     67  F   UNL     1      10.383  10.697  -5.781  1.00  0.00    -0.203 F 
ATOM     68  F   UNL     1       7.205  15.038  -6.712  1.00  0.00    -0.200 F 
ATOM     69  C   UNL     1       9.333  14.016  -6.788  1.00  0.00     0.200 A 
ATOM     70  F   UNL     1      11.439  12.949  -6.863  1.00  0.00    -0.200 F 
ATOM     71  F   UNL     1       9.860  15.123  -7.330  1.00  0.00    -0.200 F 
ENDBRANCH  38  61
ENDBRANCH  12  13
ENDBRANCH   5   7
ENDBRANCH   2   3
ENDBRANCH   1   2
BRANCH   1  72
ATOM     72  C   UNL     1       4.288  -2.787   2.922  1.00  0.00     0.023 C 
BRANCH  72  73
ATOM     73  C   UNL     1       4.788  -3.878   1.978  1.00  0.00     0.116 C 
BRANCH  73  74
ATOM     74  N   UNL     1       6.228  -3.904   1.820  1.00  0.00    -0.354 N 
ATOM     75  C   UNL     1       7.157  -4.758   2.349  1.00  0.00     0.242 C 
ATOM     76  H   UNL     1       6.595  -3.196   1.243  1.00  0.00     0.163 HD
ATOM     77  O   UNL     1       8.315  -4.673   1.930  1.00  0.00    -0.273 OA
BRANCH  75  78
ATOM     78  C   UNL     1       6.723  -5.850   3.358  1.00  0.00     0.175 C 
ATOM     79  C   UNL     1       7.780  -6.958   3.506  1.00  0.00     0.036 C 
ATOM     80  N   UNL     1       6.253  -5.478   4.711  1.00  0.00    -0.322 N 
ATOM     81  C   UNL     1       7.279  -8.130   4.376  1.00  0.00     0.008 C 
ATOM     82  C   UNL     1       5.624  -6.575   5.471  1.00  0.00     0.089 C 
ATOM     83  C   UNL     1       5.811  -7.953   4.791  1.00  0.00     0.012 C 
ATOM     84  C   UNL     1       4.135  -6.335   5.744  1.00  0.00     0.025 C 
ATOM     85  C   UNL     1       5.311  -9.063   5.722  1.00  0.00     0.006 C 
ATOM     86  C   UNL     1       3.569  -7.445   6.634  1.00  0.00     0.002 C 
ATOM     87  C   UNL     1       3.838  -8.843   6.074  1.00  0.00     0.000 C 
BRANCH  80  88
ATOM     88  C   UNL     1       6.715  -4.286   5.293  1.00  0.00     0.272 C 
ATOM     89  O   UNL     1       7.231  -3.399   4.619  1.00  0.00    -0.267 OA
BRANCH  88  90
ATOM     90  C   UNL     1       6.489  -4.034   6.696  1.00  0.00     0.123 A 
ATOM     91  C   UNL     1       6.794  -4.719   7.858  1.00  0.00     0.055 A 
ATOM     92  N   UNL     1       5.998  -2.828   7.128  1.00  0.00    -0.273 N 
ATOM     93  C   UNL     1       6.349  -3.892   8.905  1.00  0.00     0.135 A 
ATOM     94  N   UNL     1       5.831  -2.748   8.459  1.00  0.00    -0.183 NA
ATOM     95  H   UNL     1       5.786  -2.087   6.516  1.00  0.00     0.190 HD
ENDBRANCH  88  90
ENDBRANCH  80  88
ENDBRANCH  75  78
ENDBRANCH  73  74
ENDBRANCH  72  73
ENDBRANCH   1  72
TORSDOF 13
