REMARK SMILES CC[C@H](C(=O)NCCCCNC(=O)c1ccc(-c2c3nc(c(-c4c(F)c(F)c(F)c(F)c4F)c4ccc([nH]4)c(-c4c(F)c(F)c(F)c(F)c4F)c4nc(c(-c5c(F)c(F)c(F)c(F)c5F)c5ccc2[nH]5)C=C4)C=C3)cc1)N1C(=O)/C(=C\c2cc(OC)ccc2OC)SC1=S
REMARK SMILES IDX 8 1 7 2 6 3 4 4 5 5 3 7 2 8 1 9 77 10 78 11 93 12 79 13
REMARK SMILES IDX 80 14 92 15 94 16 81 17 82 18 83 19 89 20 84 21 88 22 87 23
REMARK SMILES IDX 90 24 91 25 85 26 86 27 9 28 10 29 11 30 12 31 13 33 14 34
REMARK SMILES IDX 15 35 76 36 16 37 75 38 17 39 18 40 19 41 69 42 20 43 74 44
REMARK SMILES IDX 68 45 70 46 21 47 73 48 67 49 66 50 22 52 54 53 34 54 53 55
REMARK SMILES IDX 35 56 38 57 52 58 71 59 36 60 37 61 51 63 72 64 39 65 23 66
REMARK SMILES IDX 24 67 32 68 25 69 26 70 30 71 33 72 27 73 28 74 31 75 29 76
REMARK SMILES IDX 55 77 56 78 64 79 57 80 58 81 62 82 65 83 59 84 60 85 63 86
REMARK SMILES IDX 61 87 40 88 41 89 49 90 42 91 43 92 47 93 50 94 44 95 45 96
REMARK SMILES IDX 48 97 46 98
REMARK H PARENT 6 6 11 32 70 51 38 62
REMARK Flexibility Score: inf
ROOT
ATOM      1  C   UNL     1      -3.138   2.817  -0.701  1.00  0.00     0.023 C 
ENDROOT
BRANCH   1   2
ATOM      2  C   UNL     1      -1.850   2.920   0.100  1.00  0.00     0.116 C 
BRANCH   2   3
ATOM      3  N   UNL     1      -1.152   1.654   0.198  1.00  0.00    -0.354 N 
ATOM      4  C   UNL     1       0.196   1.426   0.326  1.00  0.00     0.243 C 
ATOM      5  O   UNL     1       0.586   0.255   0.301  1.00  0.00    -0.273 OA
ATOM      6  H   UNL     1      -1.720   0.850   0.170  1.00  0.00     0.163 HD
BRANCH   4   7
ATOM      7  C   UNL     1       1.203   2.612   0.273  1.00  0.00     0.181 C 
BRANCH   7   8
ATOM      8  C   UNL     1       1.255   2.964  -1.242  1.00  0.00     0.032 C 
ATOM      9  C   UNL     1       2.226   2.069  -2.004  1.00  0.00     0.006 C 
ENDBRANCH   7   8
BRANCH   7  10
ATOM     10  N   UNL     1       0.820   3.712   1.214  1.00  0.00    -0.280 N 
ATOM     11  C   UNL     1       0.307   3.334   2.457  1.00  0.00     0.266 C 
ATOM     12  C   UNL     1       1.263   5.017   1.202  1.00  0.00     0.149 C 
ATOM     13  O   UNL     1       0.181   2.185   2.849  1.00  0.00    -0.268 OA
ATOM     14  C   UNL     1      -0.063   4.522   3.276  1.00  0.00     0.081 C 
ATOM     15  S   UNL     1       0.419   5.944   2.443  1.00  0.00    -0.054 SA
ATOM     16  S   UNL     1       2.452   5.746   0.290  1.00  0.00    -0.052 S 
ATOM     17  C   UNL     1      -0.644   4.555   4.485  1.00  0.00     0.033 C 
BRANCH  17  18
ATOM     18  C   UNL     1      -1.051   3.400   5.300  1.00  0.00     0.021 A 
ATOM     19  C   UNL     1      -2.430   3.287   5.571  1.00  0.00     0.058 A 
ATOM     20  C   UNL     1      -0.183   2.423   5.817  1.00  0.00     0.126 A 
ATOM     21  C   UNL     1      -2.950   2.211   6.300  1.00  0.00     0.119 A 
ATOM     22  C   UNL     1      -0.719   1.319   6.493  1.00  0.00     0.051 A 
ATOM     23  C   UNL     1      -2.090   1.209   6.735  1.00  0.00     0.050 A 
BRANCH  20  24
ATOM     24  O   UNL     1       1.179   2.358   5.688  1.00  0.00    -0.496 OA
ATOM     25  C   UNL     1       1.912   3.570   5.778  1.00  0.00     0.278 C 
ENDBRANCH  20  24
BRANCH  21  26
ATOM     26  O   UNL     1      -4.304   2.236   6.500  1.00  0.00    -0.497 OA
ATOM     27  C   UNL     1      -4.803   1.363   7.510  1.00  0.00     0.278 C 
ENDBRANCH  21  26
ENDBRANCH  17  18
ENDBRANCH   7  10
ENDBRANCH   4   7
ENDBRANCH   2   3
ENDBRANCH   1   2
BRANCH   1  28
ATOM     28  C   UNL     1      -4.242   2.016  -0.016  1.00  0.00     0.023 C 
BRANCH  28  29
ATOM     29  C   UNL     1      -4.511   2.401   1.436  1.00  0.00     0.116 C 
BRANCH  29  30
ATOM     30  N   UNL     1      -4.790   3.823   1.608  1.00  0.00    -0.352 N 
ATOM     31  C   UNL     1      -5.927   4.440   2.076  1.00  0.00     0.251 C 
ATOM     32  H   UNL     1      -4.058   4.429   1.351  1.00  0.00     0.163 HD
ATOM     33  O   UNL     1      -6.040   5.654   2.050  1.00  0.00    -0.269 OA
BRANCH  31  34
ATOM     34  C   UNL     1      -7.029   3.594   2.569  1.00  0.00     0.039 A 
ATOM     35  C   UNL     1      -8.291   3.725   1.988  1.00  0.00     0.014 A 
ATOM     36  C   UNL     1      -6.776   2.611   3.527  1.00  0.00     0.014 A 
ATOM     37  C   UNL     1      -9.283   2.795   2.297  1.00  0.00     0.010 A 
ATOM     38  C   UNL     1      -7.736   1.637   3.767  1.00  0.00     0.010 A 
ATOM     39  C   UNL     1      -8.994   1.714   3.146  1.00  0.00    -0.014 A 
BRANCH  39  40
ATOM     40  C   UNL     1      -9.985   0.638   3.393  1.00  0.00     0.031 A 
ATOM     41  C   UNL     1     -10.497   0.406   4.784  1.00  0.00     0.074 A 
ATOM     42  C   UNL     1     -10.347  -0.183   2.387  1.00  0.00     0.049 A 
ATOM     43  N   UNL     1     -11.269  -0.551   5.233  1.00  0.00    -0.248 NA
ATOM     44  C   UNL     1     -10.053   1.356   5.817  1.00  0.00     0.031 C 
ATOM     45  C   UNL     1      -9.871  -0.093   1.005  1.00  0.00     0.029 A 
ATOM     46  N   UNL     1     -11.188  -1.268   2.378  1.00  0.00    -0.354 N 
ATOM     47  C   UNL     1     -11.379  -0.332   6.599  1.00  0.00     0.074 A 
ATOM     48  C   UNL     1     -10.558   0.816   6.915  1.00  0.00     0.031 C 
ATOM     49  C   UNL     1     -10.442  -1.069   0.279  1.00  0.00     0.029 A 
ATOM     50  C   UNL     1     -11.292  -1.875   1.150  1.00  0.00     0.049 A 
ATOM     51  H   UNL     1     -11.670  -1.582   3.176  1.00  0.00     0.167 HD
ATOM     52  C   UNL     1     -12.120  -1.014   7.504  1.00  0.00     0.037 A 
ATOM     53  C   UNL     1     -11.988  -2.964   0.773  1.00  0.00     0.037 A 
ATOM     54  C   UNL     1     -12.970  -2.127   7.177  1.00  0.00     0.049 A 
ATOM     55  C   UNL     1     -12.818  -3.692   1.796  1.00  0.00     0.074 A 
ATOM     56  C   UNL     1     -13.820  -2.835   8.007  1.00  0.00     0.029 A 
ATOM     57  N   UNL     1     -13.079  -2.689   5.914  1.00  0.00    -0.354 N 
ATOM     58  N   UNL     1     -12.971  -3.434   3.072  1.00  0.00    -0.248 NA
ATOM     59  C   UNL     1     -13.576  -4.859   1.324  1.00  0.00     0.031 C 
ATOM     60  C   UNL     1     -14.418  -3.850   7.253  1.00  0.00     0.029 A 
ATOM     61  C   UNL     1     -13.971  -3.749   5.945  1.00  0.00     0.049 A 
ATOM     62  H   UNL     1     -12.595  -2.381   5.114  1.00  0.00     0.167 HD
ATOM     63  C   UNL     1     -13.857  -4.389   3.550  1.00  0.00     0.074 A 
ATOM     64  C   UNL     1     -14.220  -5.224   2.425  1.00  0.00     0.031 C 
ATOM     65  C   UNL     1     -14.326  -4.560   4.810  1.00  0.00     0.037 A 
BRANCH  52  66
ATOM     66  C   UNL     1     -12.049  -0.566   8.933  1.00  0.00     0.064 A 
ATOM     67  C   UNL     1     -12.626   0.642   9.353  1.00  0.00     0.173 A 
ATOM     68  C   UNL     1     -11.419  -1.365   9.899  1.00  0.00     0.173 A 
ATOM     69  F   UNL     1     -13.225   1.449   8.464  1.00  0.00    -0.203 F 
ATOM     70  C   UNL     1     -12.550   1.048  10.683  1.00  0.00     0.198 A 
ATOM     71  C   UNL     1     -11.371  -0.970  11.233  1.00  0.00     0.198 A 
ATOM     72  F   UNL     1     -10.853  -2.529   9.549  1.00  0.00    -0.203 F 
ATOM     73  F   UNL     1     -13.064   2.229  11.051  1.00  0.00    -0.200 F 
ATOM     74  C   UNL     1     -11.929   0.239  11.622  1.00  0.00     0.200 A 
ATOM     75  F   UNL     1     -10.778  -1.756  12.142  1.00  0.00    -0.200 F 
ATOM     76  F   UNL     1     -11.861   0.628  12.902  1.00  0.00    -0.200 F 
ENDBRANCH  52  66
BRANCH  53  77
ATOM     77  C   UNL     1     -11.951  -3.420  -0.640  1.00  0.00     0.064 A 
ATOM     78  C   UNL     1     -13.073  -3.280  -1.468  1.00  0.00     0.173 A 
ATOM     79  C   UNL     1     -10.802  -4.005  -1.191  1.00  0.00     0.173 A 
ATOM     80  F   UNL     1     -14.202  -2.744  -0.979  1.00  0.00    -0.203 F 
ATOM     81  C   UNL     1     -13.056  -3.727  -2.788  1.00  0.00     0.198 A 
ATOM     82  C   UNL     1     -10.777  -4.429  -2.518  1.00  0.00     0.198 A 
ATOM     83  F   UNL     1      -9.700  -4.157  -0.442  1.00  0.00    -0.203 F 
ATOM     84  F   UNL     1     -14.156  -3.620  -3.544  1.00  0.00    -0.200 F 
ATOM     85  C   UNL     1     -11.906  -4.296  -3.313  1.00  0.00     0.200 A 
ATOM     86  F   UNL     1      -9.661  -4.968  -3.027  1.00  0.00    -0.200 F 
ATOM     87  F   UNL     1     -11.888  -4.724  -4.583  1.00  0.00    -0.200 F 
ENDBRANCH  53  77
BRANCH  65  88
ATOM     88  C   UNL     1     -15.307  -5.672   5.033  1.00  0.00     0.064 A 
ATOM     89  C   UNL     1     -14.901  -7.014   5.054  1.00  0.00     0.173 A 
ATOM     90  C   UNL     1     -16.658  -5.387   5.281  1.00  0.00     0.173 A 
ATOM     91  F   UNL     1     -13.622  -7.336   4.807  1.00  0.00    -0.203 F 
ATOM     92  C   UNL     1     -15.816  -8.033   5.300  1.00  0.00     0.198 A 
ATOM     93  C   UNL     1     -17.566  -6.406   5.552  1.00  0.00     0.198 A 
ATOM     94  F   UNL     1     -17.093  -4.118   5.277  1.00  0.00    -0.203 F 
ATOM     95  F   UNL     1     -15.415  -9.311   5.280  1.00  0.00    -0.200 F 
ATOM     96  C   UNL     1     -17.145  -7.728   5.557  1.00  0.00     0.200 A 
ATOM     97  F   UNL     1     -18.846  -6.110   5.812  1.00  0.00    -0.200 F 
ATOM     98  F   UNL     1     -18.023  -8.710   5.804  1.00  0.00    -0.200 F 
ENDBRANCH  65  88
ENDBRANCH  39  40
ENDBRANCH  31  34
ENDBRANCH  29  30
ENDBRANCH  28  29
ENDBRANCH   1  28
TORSDOF 16
