REMARK SMILES Cc1cc(C(=O)NCCCCNC(=O)c2ccc(-c3c4nc(c(-c5c(F)c(F)c(F)c(F)c5F)c5ccc([nH]5)c(-c5c(F)c(F)c(F)c(F)c5F)c5nc(c(-c6c(F)c(F)c(F)c(F)c6F)c6ccc3[nH]6)C=C5)C=C4)cc2)cc(C)c1OC[C@H]1C[N@@H+](C)CCO1
REMARK SMILES IDX 9 1 8 2 7 3 5 4 6 5 4 7 1 8 2 9 3 10 81 11 79 12 78 13 80 14
REMARK SMILES IDX 82 15 83 16 84 17 85 18 90 19 86 20 89 21 87 22 88 23 10 25
REMARK SMILES IDX 11 26 12 27 13 28 14 30 15 31 16 32 77 33 17 34 76 35 18 36
REMARK SMILES IDX 19 37 20 38 70 39 21 40 75 41 69 42 71 43 22 44 74 45 68 46
REMARK SMILES IDX 67 47 23 49 55 50 35 51 54 52 36 53 39 54 53 55 72 56 37 57
REMARK SMILES IDX 38 58 52 60 73 61 40 62 24 63 25 64 33 65 26 66 27 67 31 68
REMARK SMILES IDX 34 69 28 70 29 71 32 72 30 73 56 74 57 75 65 76 58 77 59 78
REMARK SMILES IDX 63 79 66 80 60 81 61 82 64 83 62 84 41 85 42 86 50 87 43 88
REMARK SMILES IDX 44 89 48 90 51 91 45 92 46 93 49 94 47 95
REMARK H PARENT 7 6 86 24 12 29 71 48 39 59
REMARK Flexibility Score: inf
ROOT
ATOM      1  C   UNL     1       9.840  -6.431   1.198  1.00  0.00     0.023 C 
ENDROOT
BRANCH   1   2
ATOM      2  C   UNL     1       8.543  -5.733   1.591  1.00  0.00     0.116 C 
BRANCH   2   3
ATOM      3  N   UNL     1       8.732  -4.579   2.450  1.00  0.00    -0.352 N 
ATOM      4  C   UNL     1       8.180  -3.324   2.376  1.00  0.00     0.251 C 
ATOM      5  O   UNL     1       8.511  -2.475   3.201  1.00  0.00    -0.269 OA
ATOM      6  H   UNL     1       9.352  -4.717   3.203  1.00  0.00     0.163 HD
BRANCH   4   7
ATOM      7  C   UNL     1       7.254  -2.956   1.278  1.00  0.00     0.040 A 
ATOM      8  C   UNL     1       7.226  -0.109  -1.164  1.00  0.00     0.048 C 
ATOM      9  C   UNL     1       6.738  -1.367  -0.515  1.00  0.00    -0.008 A 
ATOM     10  C   UNL     1       7.476  -1.745   0.629  1.00  0.00     0.021 A 
ATOM     11  C   UNL     1       5.699  -2.201  -0.965  1.00  0.00     0.125 A 
ATOM     12  C   UNL     1       5.482  -3.438  -0.307  1.00  0.00    -0.008 A 
ATOM     13  C   UNL     1       6.228  -3.781   0.836  1.00  0.00     0.021 A 
ATOM     14  C   UNL     1       4.567  -4.497  -0.871  1.00  0.00     0.048 C 
BRANCH  11  15
ATOM     15  O   UNL     1       4.891  -2.009  -2.050  1.00  0.00    -0.490 OA
BRANCH  15  16
ATOM     16  C   UNL     1       4.326  -0.737  -2.403  1.00  0.00     0.267 C 
BRANCH  16  17
ATOM     17  C   UNL     1       3.701   0.093  -1.264  1.00  0.00     0.210 C 
ATOM     18  C   UNL     1       4.209   1.547  -1.319  1.00  0.00     0.298 C 
ATOM     19  O   UNL     1       2.258   0.150  -1.421  1.00  0.00    -0.363 OA
ATOM     20  N   UNL     1       3.751   2.234  -0.102  1.00  0.00    -0.333 N 
ATOM     21  C   UNL     1       1.662   0.908  -0.348  1.00  0.00     0.222 C 
ATOM     22  C   UNL     1       4.390   3.530   0.062  1.00  0.00     0.332 C 
ATOM     23  C   UNL     1       2.283   2.314  -0.167  1.00  0.00     0.290 C 
ATOM     24  H   UNL     1       4.021   1.709   0.730  1.00  0.00     0.348 HD
ENDBRANCH  16  17
ENDBRANCH  15  16
ENDBRANCH  11  15
ENDBRANCH   4   7
ENDBRANCH   2   3
ENDBRANCH   1   2
BRANCH   1  25
ATOM     25  C   UNL     1      10.718  -6.923   2.343  1.00  0.00     0.023 C 
BRANCH  25  26
ATOM     26  C   UNL     1      10.003  -7.676   3.457  1.00  0.00     0.116 C 
BRANCH  26  27
ATOM     27  N   UNL     1       9.251  -8.834   2.995  1.00  0.00    -0.352 N 
ATOM     28  C   UNL     1       9.279 -10.131   3.447  1.00  0.00     0.251 C 
ATOM     29  H   UNL     1       8.632  -8.662   2.249  1.00  0.00     0.163 HD
ATOM     30  O   UNL     1       8.617 -10.998   2.883  1.00  0.00    -0.269 OA
BRANCH  28  31
ATOM     31  C   UNL     1      10.149 -10.492   4.584  1.00  0.00     0.039 A 
ATOM     32  C   UNL     1      11.004 -11.589   4.453  1.00  0.00     0.014 A 
ATOM     33  C   UNL     1      10.160  -9.723   5.750  1.00  0.00     0.014 A 
ATOM     34  C   UNL     1      11.936 -11.860   5.456  1.00  0.00     0.010 A 
ATOM     35  C   UNL     1      11.144  -9.944   6.709  1.00  0.00     0.010 A 
ATOM     36  C   UNL     1      12.047 -11.010   6.568  1.00  0.00    -0.014 A 
BRANCH  36  37
ATOM     37  C   UNL     1      13.105 -11.210   7.590  1.00  0.00     0.031 A 
ATOM     38  C   UNL     1      12.727 -11.521   9.011  1.00  0.00     0.074 A 
ATOM     39  C   UNL     1      14.399 -11.035   7.256  1.00  0.00     0.049 A 
ATOM     40  N   UNL     1      13.494 -11.640  10.065  1.00  0.00    -0.248 NA
ATOM     41  C   UNL     1      11.292 -11.689   9.292  1.00  0.00     0.031 C 
ATOM     42  C   UNL     1      14.890 -10.677   5.924  1.00  0.00     0.029 A 
ATOM     43  N   UNL     1      15.540 -11.121   8.015  1.00  0.00    -0.354 N 
ATOM     44  C   UNL     1      12.636 -11.873  11.131  1.00  0.00     0.074 A 
ATOM     45  C   UNL     1      11.288 -11.830  10.610  1.00  0.00     0.031 C 
ATOM     46  C   UNL     1      16.230 -10.596   5.954  1.00  0.00     0.029 A 
ATOM     47  C   UNL     1      16.692 -10.858   7.314  1.00  0.00     0.049 A 
ATOM     48  H   UNL     1      15.533 -11.350   8.973  1.00  0.00     0.167 HD
ATOM     49  C   UNL     1      12.947 -12.125  12.425  1.00  0.00     0.037 A 
ATOM     50  C   UNL     1      17.974 -10.824   7.724  1.00  0.00     0.037 A 
ATOM     51  C   UNL     1      14.290 -12.208  12.933  1.00  0.00     0.049 A 
ATOM     52  C   UNL     1      18.290 -11.123   9.165  1.00  0.00     0.074 A 
ATOM     53  C   UNL     1      14.711 -12.529  14.212  1.00  0.00     0.029 A 
ATOM     54  N   UNL     1      15.433 -11.971  12.183  1.00  0.00    -0.354 N 
ATOM     55  N   UNL     1      17.474 -11.416  10.148  1.00  0.00    -0.248 NA
ATOM     56  C   UNL     1      19.708 -11.093   9.553  1.00  0.00     0.031 C 
ATOM     57  C   UNL     1      16.106 -12.448  14.246  1.00  0.00     0.029 A 
ATOM     58  C   UNL     1      16.558 -12.122  12.978  1.00  0.00     0.049 A 
ATOM     59  H   UNL     1      15.443 -11.731  11.228  1.00  0.00     0.167 HD
ATOM     60  C   UNL     1      18.278 -11.637  11.258  1.00  0.00     0.074 A 
ATOM     61  C   UNL     1      19.647 -11.457  10.826  1.00  0.00     0.031 C 
ATOM     62  C   UNL     1      17.914 -11.957  12.524  1.00  0.00     0.037 A 
BRANCH  49  63
ATOM     63  C   UNL     1      11.814 -12.344  13.384  1.00  0.00     0.064 A 
ATOM     64  C   UNL     1      11.029 -13.506  13.340  1.00  0.00     0.173 A 
ATOM     65  C   UNL     1      11.542 -11.405  14.390  1.00  0.00     0.173 A 
ATOM     66  F   UNL     1      11.241 -14.428  12.389  1.00  0.00    -0.203 F 
ATOM     67  C   UNL     1       9.998 -13.708  14.253  1.00  0.00     0.198 A 
ATOM     68  C   UNL     1      10.529 -11.625  15.320  1.00  0.00     0.198 A 
ATOM     69  F   UNL     1      12.266 -10.279  14.479  1.00  0.00    -0.203 F 
ATOM     70  F   UNL     1       9.234 -14.806  14.165  1.00  0.00    -0.200 F 
ATOM     71  C   UNL     1       9.754 -12.773  15.247  1.00  0.00     0.200 A 
ATOM     72  F   UNL     1      10.303 -10.726  16.288  1.00  0.00    -0.200 F 
ATOM     73  F   UNL     1       8.770 -12.975  16.133  1.00  0.00    -0.200 F 
ENDBRANCH  49  63
BRANCH  50  74
ATOM     74  C   UNL     1      19.062 -10.520   6.758  1.00  0.00     0.064 A 
ATOM     75  C   UNL     1      19.980 -11.509   6.376  1.00  0.00     0.173 A 
ATOM     76  C   UNL     1      19.224  -9.237   6.217  1.00  0.00     0.173 A 
ATOM     77  F   UNL     1      19.881 -12.746   6.884  1.00  0.00    -0.203 F 
ATOM     78  C   UNL     1      21.034 -11.219   5.513  1.00  0.00     0.198 A 
ATOM     79  C   UNL     1      20.261  -8.955   5.330  1.00  0.00     0.198 A 
ATOM     80  F   UNL     1      18.370  -8.257   6.546  1.00  0.00    -0.203 F 
ATOM     81  F   UNL     1      21.928 -12.169   5.207  1.00  0.00    -0.200 F 
ATOM     82  C   UNL     1      21.172  -9.943   4.987  1.00  0.00     0.200 A 
ATOM     83  F   UNL     1      20.383  -7.724   4.814  1.00  0.00    -0.200 F 
ATOM     84  F   UNL     1      22.187  -9.663   4.158  1.00  0.00    -0.200 F 
ENDBRANCH  50  74
BRANCH  62  85
ATOM     85  C   UNL     1      19.013 -12.179  13.521  1.00  0.00     0.064 A 
ATOM     86  C   UNL     1      19.767 -11.114  14.034  1.00  0.00     0.173 A 
ATOM     87  C   UNL     1      19.283 -13.469  14.001  1.00  0.00     0.173 A 
ATOM     88  F   UNL     1      19.557  -9.864  13.594  1.00  0.00    -0.203 F 
ATOM     89  C   UNL     1      20.769 -11.336  14.974  1.00  0.00     0.198 A 
ATOM     90  C   UNL     1      20.265 -13.684  14.963  1.00  0.00     0.198 A 
ATOM     91  F   UNL     1      18.584 -14.520  13.547  1.00  0.00    -0.203 F 
ATOM     92  F   UNL     1      21.509 -10.310  15.418  1.00  0.00    -0.200 F 
ATOM     93  C   UNL     1      21.012 -12.619  15.444  1.00  0.00     0.200 A 
ATOM     94  F   UNL     1      20.489 -14.922  15.426  1.00  0.00    -0.200 F 
ATOM     95  F   UNL     1      21.971 -12.829  16.356  1.00  0.00    -0.200 F 
ENDBRANCH  62  85
ENDBRANCH  36  37
ENDBRANCH  28  31
ENDBRANCH  26  27
ENDBRANCH  25  26
ENDBRANCH   1  25
TORSDOF 14
