REMARK SMILES O=C(NCCCCNC(=O)[C@@H]1CCCC[C@@H]1C(=O)Nc1ccccc1C(=O)N1CCN(c2ccc(F)cc2)CC1)c1ccc(-c2c3nc(c(-c4c(F)c(F)c(F)c(F)c4F)c4ccc([nH]4)c(-c4c(F)c(F)c(F)c(F)c4F)c4nc(c(-c5c(F)c(F)c(F)c(F)c5F)c5ccc2[nH]5)C=C4)C=C3)cc1
REMARK SMILES IDX 6 1 5 2 4 3 3 4 1 5 2 6 41 8 42 9 103 10 43 11 102 12 44 13
REMARK SMILES IDX 45 14 46 15 96 16 47 17 101 18 95 19 97 20 48 21 100 22
REMARK SMILES IDX 94 23 93 24 49 26 81 27 61 28 80 29 62 30 65 31 79 32 98 33
REMARK SMILES IDX 63 34 64 35 78 37 99 38 66 39 50 40 51 41 59 42 52 43 53 44
REMARK SMILES IDX 57 45 60 46 54 47 55 48 58 49 56 50 82 51 83 52 91 53 84 54
REMARK SMILES IDX 85 55 89 56 92 57 86 58 87 59 90 60 88 61 67 62 68 63 76 64
REMARK SMILES IDX 69 65 70 66 74 67 77 68 71 69 72 70 75 71 73 72 7 73 8 74
REMARK SMILES IDX 9 75 10 77 11 78 12 79 16 80 13 81 15 82 14 83 17 84 18 85
REMARK SMILES IDX 19 86 20 88 21 89 25 90 22 91 24 92 23 93 26 94 27 95 28 96
REMARK SMILES IDX 29 97 40 98 30 99 39 100 31 101 32 102 33 103 38 104 34 105
REMARK SMILES IDX 37 106 35 107 36 108
REMARK H PARENT 3 7 97 25 65 36 8 76 19 87
REMARK Flexibility Score: inf
ROOT
ATOM      1  C   UNL     1       4.284  -2.071   3.071  1.00  0.00     0.023 C 
ENDROOT
BRANCH   1   2
ATOM      2  C   UNL     1       4.824  -0.817   2.372  1.00  0.00     0.023 C 
BRANCH   2   3
ATOM      3  C   UNL     1       4.565  -0.776   0.870  1.00  0.00     0.116 C 
BRANCH   3   4
ATOM      4  N   UNL     1       3.147  -0.852   0.561  1.00  0.00    -0.352 N 
ATOM      5  O   UNL     1       1.144  -0.094  -0.138  1.00  0.00    -0.269 OA
ATOM      6  C   UNL     1       2.362   0.021  -0.148  1.00  0.00     0.251 C 
ATOM      7  H   UNL     1       2.682  -1.646   0.911  1.00  0.00     0.163 HD
BRANCH   6   8
ATOM      8  C   UNL     1       2.997   1.113  -0.913  1.00  0.00     0.039 A 
ATOM      9  C   UNL     1       4.109   0.866  -1.723  1.00  0.00     0.014 A 
ATOM     10  C   UNL     1       2.453   2.396  -0.829  1.00  0.00     0.014 A 
ATOM     11  C   UNL     1       4.750   1.923  -2.358  1.00  0.00     0.010 A 
ATOM     12  C   UNL     1       3.054   3.443  -1.526  1.00  0.00     0.010 A 
ATOM     13  C   UNL     1       4.220   3.219  -2.277  1.00  0.00    -0.014 A 
BRANCH  13  14
ATOM     14  C   UNL     1       4.856   4.337  -3.014  1.00  0.00     0.031 A 
ATOM     15  C   UNL     1       5.459   5.493  -2.274  1.00  0.00     0.074 A 
ATOM     16  C   UNL     1       4.843   4.322  -4.359  1.00  0.00     0.049 A 
ATOM     17  N   UNL     1       5.954   6.610  -2.745  1.00  0.00    -0.248 NA
ATOM     18  C   UNL     1       5.501   5.385  -0.809  1.00  0.00     0.031 C 
ATOM     19  C   UNL     1       4.287   3.249  -5.184  1.00  0.00     0.029 A 
ATOM     20  N   UNL     1       5.293   5.245  -5.269  1.00  0.00    -0.354 N 
ATOM     21  C   UNL     1       6.343   7.348  -1.635  1.00  0.00     0.074 A 
ATOM     22  C   UNL     1       6.000   6.565  -0.467  1.00  0.00     0.031 C 
ATOM     23  C   UNL     1       4.430   3.571  -6.477  1.00  0.00     0.029 A 
ATOM     24  C   UNL     1       5.025   4.900  -6.570  1.00  0.00     0.049 A 
ATOM     25  H   UNL     1       5.761   6.072  -5.014  1.00  0.00     0.167 HD
ATOM     26  C   UNL     1       6.933   8.568  -1.601  1.00  0.00     0.037 A 
ATOM     27  C   UNL     1       5.200   5.592  -7.710  1.00  0.00     0.037 A 
ATOM     28  C   UNL     1       7.266   9.335  -2.775  1.00  0.00     0.049 A 
ATOM     29  C   UNL     1       5.808   6.964  -7.647  1.00  0.00     0.074 A 
ATOM     30  C   UNL     1       7.899  10.563  -2.852  1.00  0.00     0.029 A 
ATOM     31  N   UNL     1       6.978   8.953  -4.078  1.00  0.00    -0.354 N 
ATOM     32  N   UNL     1       6.202   7.644  -6.598  1.00  0.00    -0.248 NA
ATOM     33  C   UNL     1       5.996   7.666  -8.923  1.00  0.00     0.031 C 
ATOM     34  C   UNL     1       7.931  10.955  -4.194  1.00  0.00     0.029 A 
ATOM     35  C   UNL     1       7.390   9.936  -4.964  1.00  0.00     0.049 A 
ATOM     36  H   UNL     1       6.544   8.107  -4.336  1.00  0.00     0.167 HD
ATOM     37  C   UNL     1       6.717   8.836  -7.086  1.00  0.00     0.074 A 
ATOM     38  C   UNL     1       6.582   8.788  -8.528  1.00  0.00     0.031 C 
ATOM     39  C   UNL     1       7.261   9.870  -6.399  1.00  0.00     0.037 A 
BRANCH  26  40
ATOM     40  C   UNL     1       7.215   9.164  -0.250  1.00  0.00     0.064 A 
ATOM     41  C   UNL     1       8.168   8.616   0.623  1.00  0.00     0.173 A 
ATOM     42  C   UNL     1       6.525  10.310   0.176  1.00  0.00     0.173 A 
ATOM     43  F   UNL     1       8.854   7.518   0.271  1.00  0.00    -0.203 F 
ATOM     44  C   UNL     1       8.383   9.162   1.886  1.00  0.00     0.198 A 
ATOM     45  C   UNL     1       6.769  10.876   1.425  1.00  0.00     0.198 A 
ATOM     46  F   UNL     1       5.611  10.885  -0.620  1.00  0.00    -0.203 F 
ATOM     47  F   UNL     1       9.249   8.579   2.728  1.00  0.00    -0.200 F 
ATOM     48  C   UNL     1       7.688  10.293   2.284  1.00  0.00     0.200 A 
ATOM     49  F   UNL     1       6.108  11.979   1.800  1.00  0.00    -0.200 F 
ATOM     50  F   UNL     1       7.894  10.816   3.501  1.00  0.00    -0.200 F 
ENDBRANCH  26  40
BRANCH  27  51
ATOM     51  C   UNL     1       4.778   4.985  -8.998  1.00  0.00     0.064 A 
ATOM     52  C   UNL     1       5.723   4.555  -9.937  1.00  0.00     0.173 A 
ATOM     53  C   UNL     1       3.421   4.772  -9.289  1.00  0.00     0.173 A 
ATOM     54  F   UNL     1       7.030   4.751  -9.709  1.00  0.00    -0.203 F 
ATOM     55  C   UNL     1       5.328   3.940 -11.123  1.00  0.00     0.198 A 
ATOM     56  C   UNL     1       3.029   4.129 -10.460  1.00  0.00     0.198 A 
ATOM     57  F   UNL     1       2.478   5.156  -8.416  1.00  0.00    -0.203 F 
ATOM     58  F   UNL     1       6.250   3.563 -12.019  1.00  0.00    -0.200 F 
ATOM     59  C   UNL     1       3.983   3.718 -11.379  1.00  0.00     0.200 A 
ATOM     60  F   UNL     1       1.730   3.898 -10.693  1.00  0.00    -0.200 F 
ATOM     61  F   UNL     1       3.605   3.109 -12.511  1.00  0.00    -0.200 F 
ENDBRANCH  27  51
BRANCH  39  62
ATOM     62  C   UNL     1       7.812  11.020  -7.194  1.00  0.00     0.064 A 
ATOM     63  C   UNL     1       6.980  11.940  -7.847  1.00  0.00     0.173 A 
ATOM     64  C   UNL     1       9.198  11.243  -7.234  1.00  0.00     0.173 A 
ATOM     65  F   UNL     1       5.651  11.762  -7.853  1.00  0.00    -0.203 F 
ATOM     66  C   UNL     1       7.516  13.035  -8.520  1.00  0.00     0.198 A 
ATOM     67  C   UNL     1       9.727  12.356  -7.880  1.00  0.00     0.198 A 
ATOM     68  F   UNL     1      10.037  10.394  -6.621  1.00  0.00    -0.203 F 
ATOM     69  F   UNL     1       6.705  13.883  -9.168  1.00  0.00    -0.200 F 
ATOM     70  C   UNL     1       8.887  13.249  -8.526  1.00  0.00     0.200 A 
ATOM     71  F   UNL     1      11.051  12.568  -7.869  1.00  0.00    -0.200 F 
ATOM     72  F   UNL     1       9.398  14.315  -9.155  1.00  0.00    -0.200 F 
ENDBRANCH  39  62
ENDBRANCH  13  14
ENDBRANCH   6   8
ENDBRANCH   3   4
ENDBRANCH   2   3
ENDBRANCH   1   2
BRANCH   1  73
ATOM     73  C   UNL     1       4.871  -3.380   2.529  1.00  0.00     0.116 C 
BRANCH  73  74
ATOM     74  N   UNL     1       6.296  -3.431   2.794  1.00  0.00    -0.356 N 
ATOM     75  C   UNL     1       6.827  -3.544   4.055  1.00  0.00     0.223 C 
ATOM     76  H   UNL     1       6.915  -3.383   2.030  1.00  0.00     0.163 HD
ATOM     77  O   UNL     1       7.748  -2.791   4.361  1.00  0.00    -0.275 OA
BRANCH  75  78
ATOM     78  C   UNL     1       6.211  -4.582   4.992  1.00  0.00     0.091 C 
ATOM     79  C   UNL     1       6.357  -4.223   6.476  1.00  0.00     0.014 C 
ATOM     80  C   UNL     1       6.701  -6.039   4.726  1.00  0.00     0.091 C 
ATOM     81  C   UNL     1       5.529  -5.178   7.341  1.00  0.00     0.001 C 
ATOM     82  C   UNL     1       5.770  -6.934   5.556  1.00  0.00     0.014 C 
ATOM     83  C   UNL     1       5.839  -6.640   7.048  1.00  0.00     0.001 C 
BRANCH  80  84
ATOM     84  C   UNL     1       8.237  -6.133   4.927  1.00  0.00     0.228 C 
ATOM     85  O   UNL     1       8.962  -5.161   4.684  1.00  0.00    -0.274 OA
ATOM     86  N   UNL     1       8.944  -7.210   5.348  1.00  0.00    -0.325 N 
ATOM     87  H   UNL     1       9.914  -7.054   5.404  1.00  0.00     0.169 HD
BRANCH  86  88
ATOM     88  C   UNL     1       8.555  -8.495   5.715  1.00  0.00     0.054 A 
ATOM     89  C   UNL     1       8.876  -8.819   7.045  1.00  0.00     0.027 A 
ATOM     90  C   UNL     1       7.815  -9.384   4.924  1.00  0.00     0.063 A 
ATOM     91  C   UNL     1       8.277  -9.909   7.665  1.00  0.00     0.002 A 
ATOM     92  C   UNL     1       7.229 -10.492   5.568  1.00  0.00     0.016 A 
ATOM     93  C   UNL     1       7.424 -10.727   6.935  1.00  0.00     0.001 A 
BRANCH  90  94
ATOM     94  C   UNL     1       7.415  -9.134   3.504  1.00  0.00     0.256 C 
ATOM     95  O   UNL     1       6.293  -9.519   3.164  1.00  0.00    -0.269 OA
ATOM     96  N   UNL     1       8.214  -8.401   2.634  1.00  0.00    -0.335 N 
ATOM     97  C   UNL     1       7.573  -7.757   1.483  1.00  0.00     0.141 C 
ATOM     98  C   UNL     1       9.681  -8.473   2.536  1.00  0.00     0.141 C 
ATOM     99  C   UNL     1       8.158  -6.359   1.233  1.00  0.00     0.138 C 
ATOM    100  C   UNL     1      10.346  -7.121   2.167  1.00  0.00     0.138 C 
ATOM    101  N   UNL     1       9.617  -6.436   1.081  1.00  0.00    -0.368 N 
BRANCH 101 102
ATOM    102  C   UNL     1      10.227  -5.292   0.566  1.00  0.00     0.037 A 
ATOM    103  C   UNL     1      10.017  -4.008   1.094  1.00  0.00     0.029 A 
ATOM    104  C   UNL     1      11.049  -5.428  -0.559  1.00  0.00     0.029 A 
ATOM    105  C   UNL     1      10.575  -2.884   0.476  1.00  0.00     0.041 A 
ATOM    106  C   UNL     1      11.608  -4.310  -1.179  1.00  0.00     0.041 A 
ATOM    107  C   UNL     1      11.356  -3.046  -0.661  1.00  0.00     0.123 A 
ATOM    108  F   UNL     1      11.870  -1.970  -1.271  1.00  0.00    -0.207 F 
ENDBRANCH 101 102
ENDBRANCH  90  94
ENDBRANCH  86  88
ENDBRANCH  80  84
ENDBRANCH  75  78
ENDBRANCH  73  74
ENDBRANCH   1  73
TORSDOF 15
