REMARK SMILES CC1=C(C(=O)NCCCCNC(=O)c2ccc(-c3c4nc(c(-c5c(F)c(F)c(F)c(F)c5F)c5ccc([nH]5)c(-c5c(F)c(F)c(F)c(F)c5F)c5nc(c(-c6c(F)c(F)c(F)c(F)c6F)c6ccc3[nH]6)C=C5)C=C4)cc2)N2C(=O)[C@@H](NC(=O)c3ccn(C)n3)[C@H]2SC1
REMARK SMILES IDX 8 1 7 2 6 3 4 4 5 5 3 7 1 8 2 9 92 10 77 11 91 12 78 13
REMARK SMILES IDX 90 14 79 15 80 16 81 17 82 18 83 20 84 21 85 22 89 23 86 24
REMARK SMILES IDX 87 25 88 26 9 27 10 28 11 29 12 30 13 32 14 33 15 34 76 35
REMARK SMILES IDX 16 36 75 37 17 38 18 39 19 40 69 41 20 42 74 43 68 44 70 45
REMARK SMILES IDX 21 46 73 47 67 48 66 49 22 51 54 52 34 53 53 54 35 55 38 56
REMARK SMILES IDX 52 57 71 58 36 59 37 60 51 62 72 63 39 64 23 65 24 66 32 67
REMARK SMILES IDX 25 68 26 69 30 70 33 71 27 72 28 73 31 74 29 75 55 76 56 77
REMARK SMILES IDX 64 78 57 79 58 80 62 81 65 82 59 83 60 84 63 85 61 86 40 87
REMARK SMILES IDX 41 88 49 89 42 90 43 91 47 92 50 93 44 94 45 95 48 96 46 97
REMARK H PARENT 6 6 81 19 11 31 70 50 38 61
REMARK Flexibility Score: inf
ROOT
ATOM      1  C   UNL     1       3.101  -3.832   2.450  1.00  0.00     0.023 C 
ENDROOT
BRANCH   1   2
ATOM      2  C   UNL     1       2.706  -3.008   1.233  1.00  0.00     0.116 C 
BRANCH   2   3
ATOM      3  N   UNL     1       1.490  -3.396   0.552  1.00  0.00    -0.351 N 
ATOM      4  C   UNL     1       0.664  -2.634  -0.234  1.00  0.00     0.268 C 
ATOM      5  O   UNL     1      -0.198  -3.198  -0.908  1.00  0.00    -0.268 OA
ATOM      6  H   UNL     1       1.218  -4.335   0.669  1.00  0.00     0.163 HD
BRANCH   4   7
ATOM      7  C   UNL     1       0.765  -1.125  -0.245  1.00  0.00     0.110 C 
ATOM      8  C   UNL     1       3.186  -0.940  -0.967  1.00  0.00     0.043 C 
ATOM      9  C   UNL     1       1.890  -0.389  -0.434  1.00  0.00    -0.034 C 
ATOM     10  C   UNL     1       1.971   1.120  -0.183  1.00  0.00     0.104 C 
ATOM     11  N   UNL     1      -0.418  -0.452  -0.233  1.00  0.00    -0.290 N 
ATOM     12  S   UNL     1       0.399   1.939   0.259  1.00  0.00    -0.129 SA
ATOM     13  C   UNL     1      -1.719  -0.632   0.060  1.00  0.00     0.253 C 
ATOM     14  C   UNL     1      -0.542   0.857  -0.835  1.00  0.00     0.181 C 
ATOM     15  O   UNL     1      -2.335  -1.496   0.643  1.00  0.00    -0.272 OA
ATOM     16  C   UNL     1      -2.065   0.697  -0.674  1.00  0.00     0.206 C 
BRANCH  16  17
ATOM     17  N   UNL     1      -2.804   1.760   0.041  1.00  0.00    -0.336 N 
ATOM     18  C   UNL     1      -3.803   2.564  -0.481  1.00  0.00     0.272 C 
ATOM     19  H   UNL     1      -2.562   1.910   0.983  1.00  0.00     0.164 HD
ATOM     20  O   UNL     1      -4.188   3.534   0.170  1.00  0.00    -0.267 OA
BRANCH  18  21
ATOM     21  C   UNL     1      -4.343   2.218  -1.807  1.00  0.00     0.150 A 
ATOM     22  C   UNL     1      -4.873   0.965  -2.229  1.00  0.00     0.056 A 
ATOM     23  N   UNL     1      -4.349   3.098  -2.827  1.00  0.00    -0.168 NA
ATOM     24  C   UNL     1      -5.161   1.116  -3.564  1.00  0.00     0.109 A 
ATOM     25  N   UNL     1      -4.878   2.416  -3.858  1.00  0.00    -0.275 N 
ATOM     26  C   UNL     1      -5.071   3.060  -5.136  1.00  0.00     0.173 C 
ENDBRANCH  18  21
ENDBRANCH  16  17
ENDBRANCH   4   7
ENDBRANCH   2   3
ENDBRANCH   1   2
BRANCH   1  27
ATOM     27  C   UNL     1       3.374  -5.314   2.214  1.00  0.00     0.023 C 
BRANCH  27  28
ATOM     28  C   UNL     1       4.268  -5.664   1.027  1.00  0.00     0.116 C 
BRANCH  28  29
ATOM     29  N   UNL     1       5.623  -5.138   1.129  1.00  0.00    -0.352 N 
ATOM     30  C   UNL     1       6.827  -5.793   1.266  1.00  0.00     0.251 C 
ATOM     31  H   UNL     1       5.689  -4.156   1.093  1.00  0.00     0.163 HD
ATOM     32  O   UNL     1       7.860  -5.151   1.430  1.00  0.00    -0.269 OA
BRANCH  30  33
ATOM     33  C   UNL     1       6.876  -7.272   1.261  1.00  0.00     0.039 A 
ATOM     34  C   UNL     1       7.611  -7.929   2.251  1.00  0.00     0.014 A 
ATOM     35  C   UNL     1       6.179  -8.011   0.304  1.00  0.00     0.014 A 
ATOM     36  C   UNL     1       7.558  -9.322   2.343  1.00  0.00     0.010 A 
ATOM     37  C   UNL     1       6.043  -9.387   0.460  1.00  0.00     0.010 A 
ATOM     38  C   UNL     1       6.727 -10.060   1.483  1.00  0.00    -0.014 A 
BRANCH  38  39
ATOM     39  C   UNL     1       6.555 -11.530   1.642  1.00  0.00     0.031 A 
ATOM     40  C   UNL     1       6.934 -12.462   0.523  1.00  0.00     0.074 A 
ATOM     41  C   UNL     1       5.994 -12.022   2.765  1.00  0.00     0.049 A 
ATOM     42  N   UNL     1       6.795 -13.762   0.444  1.00  0.00    -0.248 NA
ATOM     43  C   UNL     1       7.522 -11.850  -0.678  1.00  0.00     0.031 C 
ATOM     44  C   UNL     1       5.534 -11.223   3.903  1.00  0.00     0.029 A 
ATOM     45  N   UNL     1       5.704 -13.314   3.132  1.00  0.00    -0.354 N 
ATOM     46  C   UNL     1       7.265 -14.116  -0.814  1.00  0.00     0.074 A 
ATOM     47  C   UNL     1       7.631 -12.891  -1.490  1.00  0.00     0.031 C 
ATOM     48  C   UNL     1       5.050 -12.042   4.851  1.00  0.00     0.029 A 
ATOM     49  C   UNL     1       5.118 -13.419   4.372  1.00  0.00     0.049 A 
ATOM     50  H   UNL     1       5.898 -14.092   2.561  1.00  0.00     0.167 HD
ATOM     51  C   UNL     1       7.407 -15.352  -1.348  1.00  0.00     0.037 A 
ATOM     52  C   UNL     1       4.674 -14.501   5.041  1.00  0.00     0.037 A 
ATOM     53  C   UNL     1       7.058 -16.572  -0.667  1.00  0.00     0.049 A 
ATOM     54  C   UNL     1       4.817 -15.862   4.412  1.00  0.00     0.074 A 
ATOM     55  C   UNL     1       7.216 -17.876  -1.101  1.00  0.00     0.029 A 
ATOM     56  N   UNL     1       6.473 -16.636   0.589  1.00  0.00    -0.354 N 
ATOM     57  N   UNL     1       5.336 -16.190   3.253  1.00  0.00    -0.248 NA
ATOM     58  C   UNL     1       4.316 -17.006   5.187  1.00  0.00     0.031 C 
ATOM     59  C   UNL     1       6.668 -18.727  -0.137  1.00  0.00     0.029 A 
ATOM     60  C   UNL     1       6.235 -17.958   0.931  1.00  0.00     0.049 A 
ATOM     61  H   UNL     1       6.259 -15.859   1.154  1.00  0.00     0.167 HD
ATOM     62  C   UNL     1       5.256 -17.574   3.176  1.00  0.00     0.074 A 
ATOM     63  C   UNL     1       4.654 -18.027   4.412  1.00  0.00     0.031 C 
ATOM     64  C   UNL     1       5.646 -18.397   2.171  1.00  0.00     0.037 A 
BRANCH  51  65
ATOM     65  C   UNL     1       7.965 -15.451  -2.740  1.00  0.00     0.064 A 
ATOM     66  C   UNL     1       9.299 -15.117  -3.025  1.00  0.00     0.173 A 
ATOM     67  C   UNL     1       7.171 -15.926  -3.795  1.00  0.00     0.173 A 
ATOM     68  F   UNL     1      10.100 -14.648  -2.057  1.00  0.00    -0.203 F 
ATOM     69  C   UNL     1       9.805 -15.223  -4.318  1.00  0.00     0.198 A 
ATOM     70  C   UNL     1       7.691 -16.066  -5.079  1.00  0.00     0.198 A 
ATOM     71  F   UNL     1       5.892 -16.267  -3.579  1.00  0.00    -0.203 F 
ATOM     72  F   UNL     1      11.065 -14.845  -4.575  1.00  0.00    -0.200 F 
ATOM     73  C   UNL     1       9.004 -15.706  -5.341  1.00  0.00     0.200 A 
ATOM     74  F   UNL     1       6.921 -16.549  -6.063  1.00  0.00    -0.200 F 
ATOM     75  F   UNL     1       9.496 -15.819  -6.583  1.00  0.00    -0.200 F 
ENDBRANCH  51  65
BRANCH  52  76
ATOM     76  C   UNL     1       4.063 -14.350   6.390  1.00  0.00     0.064 A 
ATOM     77  C   UNL     1       4.690 -14.874   7.530  1.00  0.00     0.173 A 
ATOM     78  C   UNL     1       2.830 -13.704   6.567  1.00  0.00     0.173 A 
ATOM     79  F   UNL     1       5.861 -15.519   7.413  1.00  0.00    -0.203 F 
ATOM     80  C   UNL     1       4.094 -14.787   8.787  1.00  0.00     0.198 A 
ATOM     81  C   UNL     1       2.252 -13.586   7.830  1.00  0.00     0.198 A 
ATOM     82  F   UNL     1       2.189 -13.180   5.513  1.00  0.00    -0.203 F 
ATOM     83  F   UNL     1       4.688 -15.351   9.848  1.00  0.00    -0.200 F 
ATOM     84  C   UNL     1       2.878 -14.138   8.937  1.00  0.00     0.200 A 
ATOM     85  F   UNL     1       1.085 -12.943   7.972  1.00  0.00    -0.200 F 
ATOM     86  F   UNL     1       2.305 -14.054  10.145  1.00  0.00    -0.200 F 
ENDBRANCH  52  76
BRANCH  64  87
ATOM     87  C   UNL     1       5.480 -19.876   2.380  1.00  0.00     0.064 A 
ATOM     88  C   UNL     1       4.216 -20.483   2.408  1.00  0.00     0.173 A 
ATOM     89  C   UNL     1       6.608 -20.703   2.505  1.00  0.00     0.173 A 
ATOM     90  F   UNL     1       3.106 -19.738   2.307  1.00  0.00    -0.203 F 
ATOM     91  C   UNL     1       4.087 -21.859   2.582  1.00  0.00     0.198 A 
ATOM     92  C   UNL     1       6.476 -22.082   2.640  1.00  0.00     0.198 A 
ATOM     93  F   UNL     1       7.841 -20.175   2.476  1.00  0.00    -0.203 F 
ATOM     94  F   UNL     1       2.868 -22.410   2.659  1.00  0.00    -0.200 F 
ATOM     95  C   UNL     1       5.216 -22.658   2.688  1.00  0.00     0.200 A 
ATOM     96  F   UNL     1       7.569 -22.853   2.723  1.00  0.00    -0.200 F 
ATOM     97  F   UNL     1       5.089 -23.983   2.842  1.00  0.00    -0.200 F 
ENDBRANCH  64  87
ENDBRANCH  38  39
ENDBRANCH  30  33
ENDBRANCH  28  29
ENDBRANCH  27  28
ENDBRANCH   1  27
TORSDOF 13
