REMARK SMILES O=C(NCCCCNC(=O)[C@@H](c1ccccc1)[C@H](C(=O)c1ccccc1)c1ccccc1)c1ccc(-c2c3nc(c(-c4c(F)c(F)c(F)c(F)c4F)c4ccc([nH]4)c(-c4c(F)c(F)c(F)c(F)c4F)c4nc(c(-c5c(F)c(F)c(F)c(F)c5F)c5ccc2[nH]5)C=C4)C=C3)cc1
REMARK SMILES IDX 6 1 5 2 4 3 3 4 1 5 2 6 33 8 34 9 95 10 35 11 94 12 36 13
REMARK SMILES IDX 37 14 38 15 88 16 39 17 93 18 87 19 89 20 40 21 92 22 86 23
REMARK SMILES IDX 85 24 41 26 73 27 53 28 72 29 54 30 57 31 71 32 90 33 55 34
REMARK SMILES IDX 56 35 70 37 91 38 58 39 42 40 43 41 51 42 44 43 45 44 49 45
REMARK SMILES IDX 52 46 46 47 47 48 50 49 48 50 74 51 75 52 83 53 76 54 77 55
REMARK SMILES IDX 81 56 84 57 78 58 79 59 82 60 80 61 59 62 60 63 68 64 61 65
REMARK SMILES IDX 62 66 66 67 69 68 63 69 64 70 67 71 65 72 7 73 8 74 9 75
REMARK SMILES IDX 10 77 11 78 12 79 13 80 17 81 14 82 16 83 15 84 18 85 27 86
REMARK SMILES IDX 28 87 32 88 29 89 31 90 30 91 19 92 20 93 21 94 22 95 26 96
REMARK SMILES IDX 23 97 25 98 24 99
REMARK H PARENT 3 7 89 25 57 36 8 76
REMARK Flexibility Score: inf
ROOT
ATOM      1  C   UNL     1      10.107   5.033   3.022  1.00  0.00     0.023 C 
ENDROOT
BRANCH   1   2
ATOM      2  C   UNL     1      11.223   4.289   2.298  1.00  0.00     0.023 C 
BRANCH   2   3
ATOM      3  C   UNL     1      11.091   4.233   0.783  1.00  0.00     0.116 C 
BRANCH   3   4
ATOM      4  N   UNL     1      11.018   5.525   0.116  1.00  0.00    -0.352 N 
ATOM      5  O   UNL     1      11.379   6.930  -1.644  1.00  0.00    -0.269 OA
ATOM      6  C   UNL     1      11.437   5.803  -1.169  1.00  0.00     0.251 C 
ATOM      7  H   UNL     1      10.633   6.271   0.630  1.00  0.00     0.163 HD
BRANCH   6   8
ATOM      8  C   UNL     1      12.007   4.688  -1.951  1.00  0.00     0.039 A 
ATOM      9  C   UNL     1      11.260   3.522  -2.123  1.00  0.00     0.014 A 
ATOM     10  C   UNL     1      13.336   4.758  -2.374  1.00  0.00     0.014 A 
ATOM     11  C   UNL     1      11.891   2.372  -2.575  1.00  0.00     0.010 A 
ATOM     12  C   UNL     1      13.944   3.623  -2.913  1.00  0.00     0.010 A 
ATOM     13  C   UNL     1      13.236   2.412  -2.985  1.00  0.00    -0.014 A 
BRANCH  13  14
ATOM     14  C   UNL     1      13.847   1.188  -3.557  1.00  0.00     0.031 A 
ATOM     15  C   UNL     1      14.985   0.481  -2.878  1.00  0.00     0.074 A 
ATOM     16  C   UNL     1      13.328   0.704  -4.702  1.00  0.00     0.049 A 
ATOM     17  N   UNL     1      15.627  -0.595  -3.259  1.00  0.00    -0.248 NA
ATOM     18  C   UNL     1      15.474   1.052  -1.613  1.00  0.00     0.031 C 
ATOM     19  C   UNL     1      12.230   1.322  -5.451  1.00  0.00     0.029 A 
ATOM     20  N   UNL     1      13.634  -0.417  -5.426  1.00  0.00    -0.354 N 
ATOM     21  C   UNL     1      16.611  -0.813  -2.304  1.00  0.00     0.074 A 
ATOM     22  C   UNL     1      16.487   0.244  -1.323  1.00  0.00     0.031 C 
ATOM     23  C   UNL     1      11.923   0.549  -6.500  1.00  0.00     0.029 A 
ATOM     24  C   UNL     1      12.847  -0.578  -6.540  1.00  0.00     0.049 A 
ATOM     25  H   UNL     1      14.348  -1.046  -5.173  1.00  0.00     0.167 HD
ATOM     26  C   UNL     1      17.530  -1.807  -2.259  1.00  0.00     0.037 A 
ATOM     27  C   UNL     1      12.882  -1.513  -7.504  1.00  0.00     0.037 A 
ATOM     28  C   UNL     1      17.621  -2.875  -3.224  1.00  0.00     0.049 A 
ATOM     29  C   UNL     1      13.911  -2.600  -7.422  1.00  0.00     0.074 A 
ATOM     30  C   UNL     1      18.479  -3.962  -3.230  1.00  0.00     0.029 A 
ATOM     31  N   UNL     1      16.825  -2.989  -4.354  1.00  0.00    -0.354 N 
ATOM     32  N   UNL     1      14.818  -2.807  -6.499  1.00  0.00    -0.248 NA
ATOM     33  C   UNL     1      13.931  -3.574  -8.520  1.00  0.00     0.031 C 
ATOM     34  C   UNL     1      18.230  -4.711  -4.385  1.00  0.00     0.029 A 
ATOM     35  C   UNL     1      17.190  -4.113  -5.079  1.00  0.00     0.049 A 
ATOM     36  H   UNL     1      16.108  -2.363  -4.605  1.00  0.00     0.167 HD
ATOM     37  C   UNL     1      15.519  -3.932  -6.904  1.00  0.00     0.074 A 
ATOM     38  C   UNL     1      14.910  -4.382  -8.140  1.00  0.00     0.031 C 
ATOM     39  C   UNL     1      16.579  -4.532  -6.312  1.00  0.00     0.037 A 
BRANCH  26  40
ATOM     40  C   UNL     1      18.533  -1.798  -1.143  1.00  0.00     0.064 A 
ATOM     41  C   UNL     1      18.193  -2.191   0.158  1.00  0.00     0.173 A 
ATOM     42  C   UNL     1      19.877  -1.487  -1.405  1.00  0.00     0.173 A 
ATOM     43  F   UNL     1      16.921  -2.492   0.462  1.00  0.00    -0.203 F 
ATOM     44  C   UNL     1      19.160  -2.270   1.158  1.00  0.00     0.198 A 
ATOM     45  C   UNL     1      20.845  -1.585  -0.408  1.00  0.00     0.198 A 
ATOM     46  F   UNL     1      20.256  -1.112  -2.636  1.00  0.00    -0.203 F 
ATOM     47  F   UNL     1      18.810  -2.634   2.400  1.00  0.00    -0.200 F 
ATOM     48  C   UNL     1      20.486  -1.977   0.872  1.00  0.00     0.200 A 
ATOM     49  F   UNL     1      22.126  -1.313  -0.691  1.00  0.00    -0.200 F 
ATOM     50  F   UNL     1      21.418  -2.072   1.831  1.00  0.00    -0.200 F 
ENDBRANCH  26  40
BRANCH  27  51
ATOM     51  C   UNL     1      11.926  -1.434  -8.636  1.00  0.00     0.064 A 
ATOM     52  C   UNL     1      10.898  -2.374  -8.782  1.00  0.00     0.173 A 
ATOM     53  C   UNL     1      12.007  -0.399  -9.581  1.00  0.00     0.173 A 
ATOM     54  F   UNL     1      10.792  -3.390  -7.913  1.00  0.00    -0.203 F 
ATOM     55  C   UNL     1       9.993  -2.288  -9.837  1.00  0.00     0.198 A 
ATOM     56  C   UNL     1      11.083  -0.297 -10.616  1.00  0.00     0.198 A 
ATOM     57  F   UNL     1      12.970   0.529  -9.479  1.00  0.00    -0.203 F 
ATOM     58  F   UNL     1       9.039  -3.219  -9.975  1.00  0.00    -0.200 F 
ATOM     59  C   UNL     1      10.081  -1.245 -10.748  1.00  0.00     0.200 A 
ATOM     60  F   UNL     1      11.160   0.723 -11.482  1.00  0.00    -0.200 F 
ATOM     61  F   UNL     1       9.201  -1.157 -11.754  1.00  0.00    -0.200 F 
ENDBRANCH  27  51
BRANCH  39  62
ATOM     62  C   UNL     1      17.141  -5.737  -7.003  1.00  0.00     0.064 A 
ATOM     63  C   UNL     1      17.904  -5.613  -8.173  1.00  0.00     0.173 A 
ATOM     64  C   UNL     1      16.922  -7.022  -6.488  1.00  0.00     0.173 A 
ATOM     65  F   UNL     1      18.121  -4.404  -8.713  1.00  0.00    -0.203 F 
ATOM     66  C   UNL     1      18.407  -6.739  -8.819  1.00  0.00     0.198 A 
ATOM     67  C   UNL     1      17.448  -8.143  -7.123  1.00  0.00     0.198 A 
ATOM     68  F   UNL     1      16.200  -7.189  -5.370  1.00  0.00    -0.203 F 
ATOM     69  F   UNL     1      19.093  -6.602  -9.962  1.00  0.00    -0.200 F 
ATOM     70  C   UNL     1      18.183  -8.002  -8.290  1.00  0.00     0.200 A 
ATOM     71  F   UNL     1      17.237  -9.363  -6.609  1.00  0.00    -0.200 F 
ATOM     72  F   UNL     1      18.667  -9.084  -8.914  1.00  0.00    -0.200 F 
ENDBRANCH  39  62
ENDBRANCH  13  14
ENDBRANCH   6   8
ENDBRANCH   3   4
ENDBRANCH   2   3
ENDBRANCH   1   2
BRANCH   1  73
ATOM     73  C   UNL     1       8.702   4.540   2.693  1.00  0.00     0.116 C 
BRANCH  73  74
ATOM     74  N   UNL     1       8.043   3.871   3.783  1.00  0.00    -0.356 N 
ATOM     75  C   UNL     1       7.096   4.284   4.658  1.00  0.00     0.228 C 
ATOM     76  H   UNL     1       8.335   2.940   3.918  1.00  0.00     0.163 HD
ATOM     77  O   UNL     1       6.607   3.387   5.360  1.00  0.00    -0.274 OA
BRANCH  75  78
ATOM     78  C   UNL     1       6.613   5.733   4.834  1.00  0.00     0.124 C 
BRANCH  78  79
ATOM     79  C   UNL     1       7.594   6.638   5.582  1.00  0.00    -0.035 A 
ATOM     80  C   UNL     1       7.466   6.776   6.980  1.00  0.00     0.004 A 
ATOM     81  C   UNL     1       8.617   7.358   4.964  1.00  0.00     0.004 A 
ATOM     82  C   UNL     1       8.309   7.616   7.712  1.00  0.00     0.000 A 
ATOM     83  C   UNL     1       9.468   8.195   5.692  1.00  0.00     0.000 A 
ATOM     84  C   UNL     1       9.311   8.328   7.066  1.00  0.00     0.000 A 
ENDBRANCH  78  79
BRANCH  78  85
ATOM     85  C   UNL     1       5.629   6.312   3.759  1.00  0.00     0.108 C 
BRANCH  85  86
ATOM     86  C   UNL     1       4.745   7.375   4.432  1.00  0.00    -0.036 A 
ATOM     87  C   UNL     1       5.063   8.742   4.375  1.00  0.00     0.004 A 
ATOM     88  C   UNL     1       3.655   6.973   5.224  1.00  0.00     0.004 A 
ATOM     89  C   UNL     1       4.311   9.679   5.083  1.00  0.00     0.000 A 
ATOM     90  C   UNL     1       2.917   7.912   5.946  1.00  0.00     0.000 A 
ATOM     91  C   UNL     1       3.244   9.264   5.874  1.00  0.00     0.000 A 
ENDBRANCH  85  86
BRANCH  85  92
ATOM     92  C   UNL     1       6.215   6.835   2.439  1.00  0.00     0.171 C 
ATOM     93  O   UNL     1       7.254   7.483   2.338  1.00  0.00    -0.293 OA
BRANCH  92  94
ATOM     94  C   UNL     1       5.490   6.598   1.166  1.00  0.00     0.018 A 
ATOM     95  C   UNL     1       6.231   6.155   0.059  1.00  0.00     0.012 A 
ATOM     96  C   UNL     1       4.148   6.948   1.013  1.00  0.00     0.012 A 
ATOM     97  C   UNL     1       5.629   6.055  -1.194  1.00  0.00     0.001 A 
ATOM     98  C   UNL     1       3.554   6.863  -0.250  1.00  0.00     0.001 A 
ATOM     99  C   UNL     1       4.293   6.418  -1.349  1.00  0.00     0.000 A 
ENDBRANCH  92  94
ENDBRANCH  85  92
ENDBRANCH  78  85
ENDBRANCH  75  78
ENDBRANCH  73  74
ENDBRANCH   1  73
TORSDOF 16
