REMARK SMILES Cc1cc(N2CCC[C@H](C(=O)NCCCCNC(=O)c3ccc(-c4c5nc(c(-c6c(F)c(F)c(F)c(F)c6F)c6ccc([nH]6)c(-c6c(F)c(F)c(F)c(F)c6F)c6nc(c(-c7c(F)c(F)c(F)c(F)c7F)c7ccc4[nH]7)C=C6)C=C5)cc3)C2)nc(C(C)C)n1
REMARK SMILES IDX 14 1 13 2 12 3 10 4 11 5 9 7 5 8 6 9 83 10 7 11 8 12 4 13
REMARK SMILES IDX 1 14 2 15 3 16 89 17 85 18 84 19 86 20 87 21 88 22 15 23
REMARK SMILES IDX 16 24 17 25 18 26 19 28 20 29 21 30 82 31 22 32 81 33 23 34
REMARK SMILES IDX 24 35 25 36 75 37 26 38 80 39 74 40 76 41 27 42 79 43 73 44
REMARK SMILES IDX 72 45 28 47 60 48 40 49 59 50 41 51 44 52 58 53 77 54 42 55
REMARK SMILES IDX 43 56 57 58 78 59 45 60 29 61 30 62 38 63 31 64 32 65 36 66
REMARK SMILES IDX 39 67 33 68 34 69 37 70 35 71 61 72 62 73 70 74 63 75 64 76
REMARK SMILES IDX 68 77 71 78 65 79 66 80 69 81 67 82 46 83 47 84 55 85 48 86
REMARK SMILES IDX 49 87 53 88 56 89 50 90 51 91 54 92 52 93
REMARK H PARENT 12 6 17 27 76 46 44 57
REMARK Flexibility Score: inf
ROOT
ATOM      1  C   UNL     1       5.703  -1.151   0.440  1.00  0.00     0.023 C 
ENDROOT
BRANCH   1   2
ATOM      2  C   UNL     1       4.474  -1.018  -0.454  1.00  0.00     0.116 C 
BRANCH   2   3
ATOM      3  N   UNL     1       4.675  -1.570  -1.774  1.00  0.00    -0.356 N 
ATOM      4  C   UNL     1       4.050  -2.592  -2.409  1.00  0.00     0.224 C 
ATOM      5  O   UNL     1       4.300  -2.719  -3.615  1.00  0.00    -0.275 OA
ATOM      6  H   UNL     1       5.383  -1.132  -2.299  1.00  0.00     0.163 HD
BRANCH   4   7
ATOM      7  C   UNL     1       3.077  -3.570  -1.743  1.00  0.00     0.098 C 
ATOM      8  N   UNL     1       1.580  -2.504  -0.112  1.00  0.00    -0.356 N 
ATOM      9  C   UNL     1       1.841  -3.433   0.969  1.00  0.00     0.118 C 
ATOM     10  C   UNL     1       1.701  -2.971  -1.483  1.00  0.00     0.131 C 
ATOM     11  C   UNL     1       3.256  -4.003   0.825  1.00  0.00     0.022 C 
ATOM     12  C   UNL     1       3.640  -4.421  -0.597  1.00  0.00     0.017 C 
BRANCH   8  13
ATOM     13  C   UNL     1       0.782  -1.397   0.080  1.00  0.00     0.132 A 
ATOM     14  C   UNL     1      -2.800  -0.308   0.131  1.00  0.00     0.067 C 
ATOM     15  C   UNL     1      -1.302  -0.311   0.162  1.00  0.00     0.043 A 
ATOM     16  C   UNL     1      -0.592  -1.495   0.132  1.00  0.00     0.070 A 
ATOM     17  N   UNL     1      -0.699   0.894   0.160  1.00  0.00    -0.238 NA
ATOM     18  C   UNL     1       0.644   0.898   0.122  1.00  0.00     0.133 A 
ATOM     19  N   UNL     1       1.404  -0.207   0.079  1.00  0.00    -0.216 NA
BRANCH  18  20
ATOM     20  C   UNL     1       1.362   2.226   0.040  1.00  0.00     0.051 C 
ATOM     21  C   UNL     1       1.041   2.934  -1.276  1.00  0.00     0.016 C 
ATOM     22  C   UNL     1       1.037   3.112   1.240  1.00  0.00     0.016 C 
ENDBRANCH  18  20
ENDBRANCH   8  13
ENDBRANCH   4   7
ENDBRANCH   2   3
ENDBRANCH   1   2
BRANCH   1  23
ATOM     23  C   UNL     1       6.544   0.117   0.545  1.00  0.00     0.023 C 
BRANCH  23  24
ATOM     24  C   UNL     1       5.810   1.340   1.089  1.00  0.00     0.116 C 
BRANCH  24  25
ATOM     25  N   UNL     1       5.251   1.174   2.423  1.00  0.00    -0.352 N 
ATOM     26  C   UNL     1       5.069   2.154   3.378  1.00  0.00     0.251 C 
ATOM     27  H   UNL     1       4.974   0.262   2.672  1.00  0.00     0.163 HD
ATOM     28  O   UNL     1       4.644   1.899   4.492  1.00  0.00    -0.269 OA
BRANCH  26  29
ATOM     29  C   UNL     1       5.448   3.536   3.018  1.00  0.00     0.039 A 
ATOM     30  C   UNL     1       6.444   4.183   3.752  1.00  0.00     0.014 A 
ATOM     31  C   UNL     1       4.902   4.124   1.875  1.00  0.00     0.014 A 
ATOM     32  C   UNL     1       6.963   5.391   3.281  1.00  0.00     0.010 A 
ATOM     33  C   UNL     1       5.465   5.290   1.374  1.00  0.00     0.010 A 
ATOM     34  C   UNL     1       6.509   5.926   2.065  1.00  0.00    -0.014 A 
BRANCH  34  35
ATOM     35  C   UNL     1       7.100   7.152   1.475  1.00  0.00     0.031 A 
ATOM     36  C   UNL     1       6.244   8.372   1.303  1.00  0.00     0.074 A 
ATOM     37  C   UNL     1       8.357   7.128   0.990  1.00  0.00     0.049 A 
ATOM     38  N   UNL     1       6.499   9.481   0.656  1.00  0.00    -0.248 NA
ATOM     39  C   UNL     1       4.904   8.321   1.908  1.00  0.00     0.031 C 
ATOM     40  C   UNL     1       9.270   5.986   1.054  1.00  0.00     0.029 A 
ATOM     41  N   UNL     1       9.074   8.088   0.320  1.00  0.00    -0.354 N 
ATOM     42  C   UNL     1       5.341  10.241   0.747  1.00  0.00     0.074 A 
ATOM     43  C   UNL     1       4.370   9.453   1.475  1.00  0.00     0.031 C 
ATOM     44  C   UNL     1      10.429   6.315   0.459  1.00  0.00     0.029 A 
ATOM     45  C   UNL     1      10.326   7.675  -0.063  1.00  0.00     0.049 A 
ATOM     46  H   UNL     1       8.723   8.989   0.133  1.00  0.00     0.167 HD
ATOM     47  C   UNL     1       5.116  11.490   0.279  1.00  0.00     0.037 A 
ATOM     48  C   UNL     1      11.278   8.319  -0.766  1.00  0.00     0.037 A 
ATOM     49  C   UNL     1       6.099  12.286  -0.405  1.00  0.00     0.049 A 
ATOM     50  C   UNL     1      11.014   9.721  -1.246  1.00  0.00     0.074 A 
ATOM     51  C   UNL     1       5.989  13.584  -0.868  1.00  0.00     0.029 A 
ATOM     52  N   UNL     1       7.381  11.855  -0.714  1.00  0.00    -0.354 N 
ATOM     53  N   UNL     1       9.934  10.450  -1.112  1.00  0.00    -0.248 NA
ATOM     54  C   UNL     1      12.103  10.391  -1.972  1.00  0.00     0.031 C 
ATOM     55  C   UNL     1       7.198  13.932  -1.481  1.00  0.00     0.029 A 
ATOM     56  C   UNL     1       8.072  12.863  -1.365  1.00  0.00     0.049 A 
ATOM     57  H   UNL     1       7.745  10.965  -0.503  1.00  0.00     0.167 HD
ATOM     58  C   UNL     1      10.224  11.674  -1.699  1.00  0.00     0.074 A 
ATOM     59  C   UNL     1      11.582  11.590  -2.193  1.00  0.00     0.031 C 
ATOM     60  C   UNL     1       9.436  12.770  -1.816  1.00  0.00     0.037 A 
BRANCH  47  61
ATOM     61  C   UNL     1       3.752  12.074   0.499  1.00  0.00     0.064 A 
ATOM     62  C   UNL     1       3.318  12.462   1.776  1.00  0.00     0.173 A 
ATOM     63  C   UNL     1       2.878  12.268  -0.580  1.00  0.00     0.173 A 
ATOM     64  F   UNL     1       4.112  12.283   2.842  1.00  0.00    -0.203 F 
ATOM     65  C   UNL     1       2.046  12.993   1.968  1.00  0.00     0.198 A 
ATOM     66  C   UNL     1       1.617  12.827  -0.388  1.00  0.00     0.198 A 
ATOM     67  F   UNL     1       3.247  11.918  -1.822  1.00  0.00    -0.203 F 
ATOM     68  F   UNL     1       1.634  13.308   3.204  1.00  0.00    -0.200 F 
ATOM     69  C   UNL     1       1.200  13.181   0.886  1.00  0.00     0.200 A 
ATOM     70  F   UNL     1       0.804  13.019  -1.436  1.00  0.00    -0.200 F 
ATOM     71  F   UNL     1      -0.023  13.697   1.072  1.00  0.00    -0.200 F 
ENDBRANCH  47  61
BRANCH  48  72
ATOM     72  C   UNL     1      12.582   7.658  -1.030  1.00  0.00     0.064 A 
ATOM     73  C   UNL     1      13.744   8.082  -0.371  1.00  0.00     0.173 A 
ATOM     74  C   UNL     1      12.697   6.599  -1.941  1.00  0.00     0.173 A 
ATOM     75  F   UNL     1      13.686   9.106   0.494  1.00  0.00    -0.203 F 
ATOM     76  C   UNL     1      14.976   7.484  -0.626  1.00  0.00     0.198 A 
ATOM     77  C   UNL     1      13.926   5.986  -2.178  1.00  0.00     0.198 A 
ATOM     78  F   UNL     1      11.614   6.153  -2.594  1.00  0.00    -0.203 F 
ATOM     79  F   UNL     1      16.078   7.937  -0.013  1.00  0.00    -0.200 F 
ATOM     80  C   UNL     1      15.066   6.433  -1.526  1.00  0.00     0.200 A 
ATOM     81  F   UNL     1      14.007   4.963  -3.040  1.00  0.00    -0.200 F 
ATOM     82  F   UNL     1      16.250   5.857  -1.770  1.00  0.00    -0.200 F 
ENDBRANCH  48  72
BRANCH  60  83
ATOM     83  C   UNL     1      10.035  13.991  -2.445  1.00  0.00     0.064 A 
ATOM     84  C   UNL     1      10.220  14.091  -3.830  1.00  0.00     0.173 A 
ATOM     85  C   UNL     1      10.355  15.104  -1.652  1.00  0.00     0.173 A 
ATOM     86  F   UNL     1       9.940  13.047  -4.625  1.00  0.00    -0.203 F 
ATOM     87  C   UNL     1      10.714  15.261  -4.400  1.00  0.00     0.198 A 
ATOM     88  C   UNL     1      10.828  16.279  -2.228  1.00  0.00     0.198 A 
ATOM     89  F   UNL     1      10.190  15.056  -0.322  1.00  0.00    -0.203 F 
ATOM     90  F   UNL     1      10.908  15.328  -5.725  1.00  0.00    -0.200 F 
ATOM     91  C   UNL     1      11.008  16.356  -3.601  1.00  0.00     0.200 A 
ATOM     92  F   UNL     1      11.101  17.339  -1.456  1.00  0.00    -0.200 F 
ATOM     93  F   UNL     1      11.469  17.486  -4.154  1.00  0.00    -0.200 F 
ENDBRANCH  60  83
ENDBRANCH  34  35
ENDBRANCH  26  29
ENDBRANCH  24  25
ENDBRANCH  23  24
ENDBRANCH   1  23
TORSDOF 13
