REMARK SMILES C[N@H+]1Cc2ccccc2C[C@@H]1C(=O)NCCC(=O)NCC(=O)NCCCCNC(=O)c1ccc(-c2c3nc(c(-c4c(F)c(F)c(F)c(F)c4F)c4ccc([nH]4)c(-c4c(F)c(F)c(F)c(F)c4F)c4nc(c(-c5c(F)c(F)c(F)c(F)c5F)c5ccc2[nH]5)C=C4)C=C3)cc1
REMARK SMILES IDX 24 1 23 2 21 3 22 4 20 6 19 7 17 8 18 9 16 11 15 12 14 13
REMARK SMILES IDX 12 14 13 15 11 17 1 18 2 19 3 20 4 22 10 23 5 24 9 25 6 26
REMARK SMILES IDX 8 27 7 28 25 29 26 30 27 31 28 32 29 33 30 35 31 36 32 37
REMARK SMILES IDX 93 38 33 39 92 40 34 41 35 42 36 43 86 44 37 45 91 46 85 47
REMARK SMILES IDX 87 48 38 49 90 50 84 51 83 52 39 54 71 55 51 56 70 57 52 58
REMARK SMILES IDX 55 59 69 60 88 61 53 62 54 63 68 65 89 66 56 67 40 68 41 69
REMARK SMILES IDX 49 70 42 71 43 72 47 73 50 74 44 75 45 76 48 77 46 78 72 79
REMARK SMILES IDX 73 80 81 81 74 82 75 83 79 84 82 85 76 86 77 87 80 88 78 89
REMARK SMILES IDX 57 90 58 91 66 92 59 93 60 94 64 95 67 96 61 97 62 98 65 99
REMARK SMILES IDX 63 100
REMARK H PARENT 23 5 19 10 14 16 2 21 28 34 87 53 55 64
REMARK Flexibility Score: inf
ROOT
ATOM      1  C   UNL     1      -4.847   4.285   2.436  1.00  0.00     0.116 C 
ENDROOT
BRANCH   1   2
ATOM      2  N   UNL     1      -5.914   3.676   1.662  1.00  0.00    -0.355 N 
ATOM      3  C   UNL     1      -6.347   3.838   0.380  1.00  0.00     0.239 C 
ATOM      4  O   UNL     1      -7.280   3.108   0.026  1.00  0.00    -0.273 OA
ATOM      5  H   UNL     1      -6.432   3.009   2.168  1.00  0.00     0.163 HD
BRANCH   3   6
ATOM      6  C   UNL     1      -5.638   4.726  -0.662  1.00  0.00     0.216 C 
BRANCH   6   7
ATOM      7  N   UNL     1      -4.942   5.904  -0.177  1.00  0.00    -0.347 N 
ATOM      8  C   UNL     1      -3.615   6.201  -0.174  1.00  0.00     0.222 C 
ATOM      9  O   UNL     1      -3.249   7.218   0.417  1.00  0.00    -0.275 OA
ATOM     10  H   UNL     1      -5.523   6.598   0.211  1.00  0.00     0.164 HD
BRANCH   8  11
ATOM     11  C   UNL     1      -2.606   5.279  -0.823  1.00  0.00     0.121 C 
BRANCH  11  12
ATOM     12  C   UNL     1      -2.031   4.259   0.162  1.00  0.00     0.126 C 
BRANCH  12  13
ATOM     13  N   UNL     1      -2.812   3.028   0.219  1.00  0.00    -0.350 N 
ATOM     14  C   UNL     1      -2.727   1.982  -0.653  1.00  0.00     0.278 C 
ATOM     15  O   UNL     1      -3.729   1.762  -1.343  1.00  0.00    -0.268 OA
ATOM     16  H   UNL     1      -3.461   2.944   0.955  1.00  0.00     0.163 HD
BRANCH  14  17
ATOM     17  C   UNL     1      -1.537   0.993  -0.631  1.00  0.00     0.278 C 
ATOM     18  C   UNL     1      -3.160  -0.775  -0.000  1.00  0.00     0.333 C 
ATOM     19  N   UNL     1      -1.828  -0.202   0.228  1.00  0.00    -0.323 N 
ATOM     20  C   UNL     1      -0.818  -1.247  -0.054  1.00  0.00     0.299 C 
ATOM     21  H   UNL     1      -1.796   0.114   1.197  1.00  0.00     0.348 HD
ATOM     22  C   UNL     1       0.612  -0.757   0.002  1.00  0.00     0.010 A 
ATOM     23  C   UNL     1      -0.216   1.615  -0.158  1.00  0.00     0.111 C 
ATOM     24  C   UNL     1       1.666  -1.679   0.059  1.00  0.00     0.010 A 
ATOM     25  C   UNL     1       0.906   0.613  -0.073  1.00  0.00    -0.033 A 
ATOM     26  C   UNL     1       2.990  -1.241   0.079  1.00  0.00     0.001 A 
ATOM     27  C   UNL     1       2.237   1.048  -0.026  1.00  0.00     0.004 A 
ATOM     28  C   UNL     1       3.275   0.122   0.046  1.00  0.00     0.000 A 
ENDBRANCH  14  17
ENDBRANCH  12  13
ENDBRANCH  11  12
ENDBRANCH   8  11
ENDBRANCH   6   7
ENDBRANCH   3   6
ENDBRANCH   1   2
BRANCH   1  29
ATOM     29  C   UNL     1      -5.339   4.932   3.723  1.00  0.00     0.023 C 
BRANCH  29  30
ATOM     30  C   UNL     1      -5.700   3.943   4.827  1.00  0.00     0.023 C 
BRANCH  30  31
ATOM     31  C   UNL     1      -4.595   2.965   5.220  1.00  0.00     0.116 C 
BRANCH  31  32
ATOM     32  N   UNL     1      -3.367   3.614   5.664  1.00  0.00    -0.352 N 
ATOM     33  C   UNL     1      -2.638   3.384   6.808  1.00  0.00     0.251 C 
ATOM     34  H   UNL     1      -3.012   4.309   5.065  1.00  0.00     0.163 HD
ATOM     35  O   UNL     1      -1.663   4.076   7.086  1.00  0.00    -0.269 OA
BRANCH  33  36
ATOM     36  C   UNL     1      -3.079   2.320   7.729  1.00  0.00     0.039 A 
ATOM     37  C   UNL     1      -3.344   2.644   9.061  1.00  0.00     0.014 A 
ATOM     38  C   UNL     1      -3.325   1.033   7.244  1.00  0.00     0.014 A 
ATOM     39  C   UNL     1      -3.962   1.702   9.885  1.00  0.00     0.010 A 
ATOM     40  C   UNL     1      -4.009   0.125   8.043  1.00  0.00     0.010 A 
ATOM     41  C   UNL     1      -4.351   0.458   9.364  1.00  0.00    -0.014 A 
BRANCH  41  42
ATOM     42  C   UNL     1      -5.144  -0.509  10.163  1.00  0.00     0.031 A 
ATOM     43  C   UNL     1      -4.575  -1.861  10.482  1.00  0.00     0.074 A 
ATOM     44  C   UNL     1      -6.413  -0.213  10.505  1.00  0.00     0.049 A 
ATOM     45  N   UNL     1      -5.154  -2.897  11.032  1.00  0.00    -0.248 NA
ATOM     46  C   UNL     1      -3.174  -2.087  10.095  1.00  0.00     0.031 C 
ATOM     47  C   UNL     1      -7.098   1.048  10.217  1.00  0.00     0.029 A 
ATOM     48  N   UNL     1      -7.360  -0.964  11.157  1.00  0.00    -0.354 N 
ATOM     49  C   UNL     1      -4.202  -3.906  11.025  1.00  0.00     0.074 A 
ATOM     50  C   UNL     1      -3.022  -3.372  10.380  1.00  0.00     0.031 C 
ATOM     51  C   UNL     1      -8.345   0.994  10.710  1.00  0.00     0.029 A 
ATOM     52  C   UNL     1      -8.563  -0.319  11.311  1.00  0.00     0.049 A 
ATOM     53  H   UNL     1      -7.193  -1.877  11.483  1.00  0.00     0.167 HD
ATOM     54  C   UNL     1      -4.298  -5.160  11.527  1.00  0.00     0.037 A 
ATOM     55  C   UNL     1      -9.713  -0.743  11.866  1.00  0.00     0.037 A 
ATOM     56  C   UNL     1      -5.458  -5.675  12.205  1.00  0.00     0.049 A 
ATOM     57  C   UNL     1      -9.793  -2.136  12.424  1.00  0.00     0.074 A 
ATOM     58  C   UNL     1      -5.626  -6.905  12.816  1.00  0.00     0.029 A 
ATOM     59  N   UNL     1      -6.650  -4.983  12.362  1.00  0.00    -0.354 N 
ATOM     60  N   UNL     1      -8.871  -3.066  12.461  1.00  0.00    -0.248 NA
ATOM     61  C   UNL     1     -11.076  -2.539  13.017  1.00  0.00     0.031 C 
ATOM     62  C   UNL     1      -6.933  -6.970  13.314  1.00  0.00     0.029 A 
ATOM     63  C   UNL     1      -7.565  -5.767  13.047  1.00  0.00     0.049 A 
ATOM     64  H   UNL     1      -6.820  -4.070  12.036  1.00  0.00     0.167 HD
ATOM     65  C   UNL     1      -9.449  -4.152  13.103  1.00  0.00     0.074 A 
ATOM     66  C   UNL     1     -10.803  -3.764  13.444  1.00  0.00     0.031 C 
ATOM     67  C   UNL     1      -8.905  -5.361  13.387  1.00  0.00     0.037 A 
BRANCH  54  68
ATOM     68  C   UNL     1      -3.109  -6.058  11.353  1.00  0.00     0.064 A 
ATOM     69  C   UNL     1      -1.914  -5.843  12.055  1.00  0.00     0.173 A 
ATOM     70  C   UNL     1      -3.164  -7.145  10.468  1.00  0.00     0.173 A 
ATOM     71  F   UNL     1      -1.806  -4.807  12.901  1.00  0.00    -0.203 F 
ATOM     72  C   UNL     1      -0.804  -6.657  11.847  1.00  0.00     0.198 A 
ATOM     73  C   UNL     1      -2.062  -7.976  10.285  1.00  0.00     0.198 A 
ATOM     74  F   UNL     1      -4.285  -7.398   9.775  1.00  0.00    -0.203 F 
ATOM     75  F   UNL     1       0.346  -6.394  12.482  1.00  0.00    -0.200 F 
ATOM     76  C   UNL     1      -0.880  -7.725  10.966  1.00  0.00     0.200 A 
ATOM     77  F   UNL     1      -2.140  -9.014   9.440  1.00  0.00    -0.200 F 
ATOM     78  F   UNL     1       0.190  -8.505  10.763  1.00  0.00    -0.200 F 
ENDBRANCH  54  68
BRANCH  55  79
ATOM     79  C   UNL     1     -10.872   0.181  11.956  1.00  0.00     0.064 A 
ATOM     80  C   UNL     1     -11.239   0.740  13.188  1.00  0.00     0.173 A 
ATOM     81  C   UNL     1     -11.620   0.537  10.826  1.00  0.00     0.173 A 
ATOM     82  F   UNL     1     -10.564   0.410  14.299  1.00  0.00    -0.203 F 
ATOM     83  C   UNL     1     -12.316   1.617  13.287  1.00  0.00     0.198 A 
ATOM     84  C   UNL     1     -12.685   1.430  10.923  1.00  0.00     0.198 A 
ATOM     85  F   UNL     1     -11.305   0.030   9.625  1.00  0.00    -0.203 F 
ATOM     86  F   UNL     1     -12.664   2.115  14.482  1.00  0.00    -0.200 F 
ATOM     87  C   UNL     1     -13.035   1.966  12.154  1.00  0.00     0.200 A 
ATOM     88  F   UNL     1     -13.370   1.775   9.824  1.00  0.00    -0.200 F 
ATOM     89  F   UNL     1     -14.066   2.816  12.248  1.00  0.00    -0.200 F 
ENDBRANCH  55  79
BRANCH  67  90
ATOM     90  C   UNL     1      -9.760  -6.338  14.137  1.00  0.00     0.064 A 
ATOM     91  C   UNL     1     -10.810  -7.026  13.513  1.00  0.00     0.173 A 
ATOM     92  C   UNL     1      -9.495  -6.620  15.485  1.00  0.00     0.173 A 
ATOM     93  F   UNL     1     -11.112  -6.776  12.229  1.00  0.00    -0.203 F 
ATOM     94  C   UNL     1     -11.577  -7.949  14.218  1.00  0.00     0.198 A 
ATOM     95  C   UNL     1     -10.248  -7.562  16.180  1.00  0.00     0.198 A 
ATOM     96  F   UNL     1      -8.498  -5.990  16.125  1.00  0.00    -0.203 F 
ATOM     97  F   UNL     1     -12.600  -8.568  13.613  1.00  0.00    -0.200 F 
ATOM     98  C   UNL     1     -11.291  -8.222  15.548  1.00  0.00     0.200 A 
ATOM     99  F   UNL     1      -9.965  -7.831  17.462  1.00  0.00    -0.200 F 
ATOM    100  F   UNL     1     -12.026  -9.117  16.223  1.00  0.00    -0.200 F 
ENDBRANCH  67  90
ENDBRANCH  41  42
ENDBRANCH  33  36
ENDBRANCH  31  32
ENDBRANCH  30  31
ENDBRANCH  29  30
ENDBRANCH   1  29
TORSDOF 16
