REMARK SMILES CC1=C(C(=O)NCCCCNC(=O)c2ccc(-c3c4nc(c(-c5c(F)c(F)c(F)c(F)c5F)c5ccc([nH]5)c(-c5c(F)c(F)c(F)c(F)c5F)c5nc(c(-c6c(F)c(F)c(F)c(F)c6F)c6ccc3[nH]6)C=C5)C=C4)cc2)N2C(=O)[C@H](NC(=O)c3cc(C(F)(F)F)nn3C)[C@@H]2SC1
REMARK SMILES IDX 8 1 7 2 6 3 4 4 5 5 3 7 1 8 2 9 96 10 77 11 95 12 78 13
REMARK SMILES IDX 94 14 79 15 80 16 81 17 82 18 83 20 84 21 85 22 92 23 86 24
REMARK SMILES IDX 91 25 93 26 87 27 88 28 89 29 90 30 9 31 10 32 11 33 12 34
REMARK SMILES IDX 13 36 14 37 15 38 76 39 16 40 75 41 17 42 18 43 19 44 69 45
REMARK SMILES IDX 20 46 74 47 68 48 70 49 21 50 73 51 67 52 66 53 22 55 54 56
REMARK SMILES IDX 34 57 53 58 35 59 38 60 52 61 71 62 36 63 37 64 51 66 72 67
REMARK SMILES IDX 39 68 23 69 24 70 32 71 25 72 26 73 30 74 33 75 27 76 28 77
REMARK SMILES IDX 31 78 29 79 55 80 56 81 64 82 57 83 58 84 62 85 65 86 59 87
REMARK SMILES IDX 60 88 63 89 61 90 40 91 41 92 49 93 42 94 43 95 47 96 50 97
REMARK SMILES IDX 44 98 45 99 48 100 46 101
REMARK H PARENT 6 6 81 19 11 35 70 54 38 65
REMARK Flexibility Score: inf
ROOT
ATOM      1  C   UNL     1       3.571  -1.465  -0.982  1.00  0.00     0.023 C 
ENDROOT
BRANCH   1   2
ATOM      2  C   UNL     1       2.239  -1.002  -0.398  1.00  0.00     0.116 C 
BRANCH   2   3
ATOM      3  N   UNL     1       1.337  -2.041   0.064  1.00  0.00    -0.351 N 
ATOM      4  C   UNL     1       0.239  -1.955   0.891  1.00  0.00     0.268 C 
ATOM      5  O   UNL     1      -0.562  -2.886   0.876  1.00  0.00    -0.268 OA
ATOM      6  H   UNL     1       1.541  -2.947  -0.264  1.00  0.00     0.163 HD
BRANCH   4   7
ATOM      7  C   UNL     1       0.073  -0.781   1.840  1.00  0.00     0.110 C 
ATOM      8  C   UNL     1      -0.151   0.912  -0.031  1.00  0.00     0.043 C 
ATOM      9  C   UNL     1       0.015   0.505   1.410  1.00  0.00    -0.034 C 
ATOM     10  C   UNL     1      -0.023   1.692   2.347  1.00  0.00     0.104 C 
ATOM     11  N   UNL     1      -0.184  -1.061   3.160  1.00  0.00    -0.290 N 
ATOM     12  S   UNL     1      -1.092   1.400   3.767  1.00  0.00    -0.129 SA
ATOM     13  C   UNL     1      -0.699  -2.099   3.861  1.00  0.00     0.253 C 
ATOM     14  C   UNL     1      -0.206  -0.104   4.250  1.00  0.00     0.181 C 
ATOM     15  O   UNL     1      -0.930  -3.262   3.622  1.00  0.00    -0.272 OA
ATOM     16  C   UNL     1      -1.026  -1.153   5.063  1.00  0.00     0.206 C 
BRANCH  16  17
ATOM     17  N   UNL     1      -2.472  -0.846   5.269  1.00  0.00    -0.336 N 
ATOM     18  C   UNL     1      -3.162  -0.586   6.426  1.00  0.00     0.270 C 
ATOM     19  H   UNL     1      -3.015  -0.828   4.447  1.00  0.00     0.164 HD
ATOM     20  O   UNL     1      -4.369  -0.367   6.349  1.00  0.00    -0.268 OA
BRANCH  18  21
ATOM     21  C   UNL     1      -2.454  -0.620   7.679  1.00  0.00     0.126 A 
ATOM     22  C   UNL     1      -1.249  -0.048   8.049  1.00  0.00     0.069 A 
ATOM     23  N   UNL     1      -2.914  -1.230   8.820  1.00  0.00    -0.262 N 
ATOM     24  C   UNL     1      -0.993  -0.482   9.375  1.00  0.00     0.167 A 
ATOM     25  N   UNL     1      -2.027  -1.207   9.838  1.00  0.00    -0.168 NA
ATOM     26  C   UNL     1      -4.154  -1.946   9.023  1.00  0.00     0.174 C 
BRANCH  24  27
ATOM     27  C   UNL     1       0.253  -0.224  10.180  1.00  0.00     0.435 C 
ATOM     28  F   UNL     1       0.016   0.476  11.319  1.00  0.00    -0.164 F 
ATOM     29  F   UNL     1       0.886  -1.374  10.537  1.00  0.00    -0.164 F 
ATOM     30  F   UNL     1       1.163   0.499   9.465  1.00  0.00    -0.164 F 
ENDBRANCH  24  27
ENDBRANCH  18  21
ENDBRANCH  16  17
ENDBRANCH   4   7
ENDBRANCH   2   3
ENDBRANCH   1   2
BRANCH   1  31
ATOM     31  C   UNL     1       3.525  -2.457  -2.148  1.00  0.00     0.023 C 
BRANCH  31  32
ATOM     32  C   UNL     1       2.486  -2.220  -3.243  1.00  0.00     0.116 C 
BRANCH  32  33
ATOM     33  N   UNL     1       2.643  -0.968  -3.971  1.00  0.00    -0.352 N 
ATOM     34  C   UNL     1       3.005  -0.712  -5.274  1.00  0.00     0.251 C 
ATOM     35  H   UNL     1       2.458  -0.163  -3.436  1.00  0.00     0.163 HD
ATOM     36  O   UNL     1       3.111   0.452  -5.654  1.00  0.00    -0.269 OA
BRANCH  34  37
ATOM     37  C   UNL     1       3.335  -1.812  -6.209  1.00  0.00     0.039 A 
ATOM     38  C   UNL     1       4.507  -1.712  -6.967  1.00  0.00     0.014 A 
ATOM     39  C   UNL     1       2.525  -2.941  -6.334  1.00  0.00     0.014 A 
ATOM     40  C   UNL     1       4.937  -2.798  -7.734  1.00  0.00     0.010 A 
ATOM     41  C   UNL     1       2.992  -4.053  -7.035  1.00  0.00     0.010 A 
ATOM     42  C   UNL     1       4.222  -4.006  -7.709  1.00  0.00    -0.014 A 
BRANCH  42  43
ATOM     43  C   UNL     1       4.787  -5.253  -8.292  1.00  0.00     0.031 A 
ATOM     44  C   UNL     1       4.087  -5.970  -9.410  1.00  0.00     0.074 A 
ATOM     45  C   UNL     1       5.886  -5.798  -7.730  1.00  0.00     0.049 A 
ATOM     46  N   UNL     1       4.366  -7.129  -9.952  1.00  0.00    -0.248 NA
ATOM     47  C   UNL     1       2.901  -5.311  -9.977  1.00  0.00     0.031 C 
ATOM     48  C   UNL     1       6.630  -5.230  -6.604  1.00  0.00     0.029 A 
ATOM     49  N   UNL     1       6.556  -6.963  -8.013  1.00  0.00    -0.354 N 
ATOM     50  C   UNL     1       3.385  -7.346 -10.909  1.00  0.00     0.074 A 
ATOM     51  C   UNL     1       2.479  -6.218 -10.847  1.00  0.00     0.031 C 
ATOM     52  C   UNL     1       7.659  -6.037  -6.302  1.00  0.00     0.029 A 
ATOM     53  C   UNL     1       7.622  -7.202  -7.179  1.00  0.00     0.049 A 
ATOM     54  H   UNL     1       6.298  -7.570  -8.744  1.00  0.00     0.167 HD
ATOM     55  C   UNL     1       3.262  -8.383 -11.773  1.00  0.00     0.037 A 
ATOM     56  C   UNL     1       8.465  -8.250  -7.111  1.00  0.00     0.037 A 
ATOM     57  C   UNL     1       4.177  -9.493 -11.850  1.00  0.00     0.049 A 
ATOM     58  C   UNL     1       8.293  -9.396  -8.069  1.00  0.00     0.074 A 
ATOM     59  C   UNL     1       4.180 -10.547 -12.747  1.00  0.00     0.029 A 
ATOM     60  N   UNL     1       5.248  -9.696 -10.992  1.00  0.00    -0.354 N 
ATOM     61  N   UNL     1       7.404  -9.554  -9.018  1.00  0.00    -0.248 NA
ATOM     62  C   UNL     1       9.241 -10.513  -7.941  1.00  0.00     0.031 C 
ATOM     63  C   UNL     1       5.225 -11.413 -12.403  1.00  0.00     0.029 A 
ATOM     64  C   UNL     1       5.900 -10.875 -11.319  1.00  0.00     0.049 A 
ATOM     65  H   UNL     1       5.507  -9.092 -10.259  1.00  0.00     0.167 HD
ATOM     66  C   UNL     1       7.691 -10.775  -9.610  1.00  0.00     0.074 A 
ATOM     67  C   UNL     1       8.851 -11.309  -8.927  1.00  0.00     0.031 C 
ATOM     68  C   UNL     1       7.048 -11.400 -10.626  1.00  0.00     0.037 A 
BRANCH  55  69
ATOM     69  C   UNL     1       2.094  -8.367 -12.715  1.00  0.00     0.064 A 
ATOM     70  C   UNL     1       2.027  -7.464 -13.786  1.00  0.00     0.173 A 
ATOM     71  C   UNL     1       1.051  -9.296 -12.573  1.00  0.00     0.173 A 
ATOM     72  F   UNL     1       2.994  -6.551 -13.960  1.00  0.00    -0.203 F 
ATOM     73  C   UNL     1       0.946  -7.473 -14.665  1.00  0.00     0.198 A 
ATOM     74  C   UNL     1      -0.014  -9.320 -13.469  1.00  0.00     0.198 A 
ATOM     75  F   UNL     1       1.070 -10.186 -11.570  1.00  0.00    -0.203 F 
ATOM     76  F   UNL     1       0.883  -6.572 -15.655  1.00  0.00    -0.200 F 
ATOM     77  C   UNL     1      -0.069  -8.405 -14.510  1.00  0.00     0.200 A 
ATOM     78  F   UNL     1      -0.988 -10.229 -13.326  1.00  0.00    -0.200 F 
ATOM     79  F   UNL     1      -1.104  -8.417 -15.361  1.00  0.00    -0.200 F 
ENDBRANCH  55  69
BRANCH  56  80
ATOM     80  C   UNL     1       9.553  -8.263  -6.099  1.00  0.00     0.064 A 
ATOM     81  C   UNL     1      10.893  -8.123  -6.486  1.00  0.00     0.173 A 
ATOM     82  C   UNL     1       9.279  -8.415  -4.732  1.00  0.00     0.173 A 
ATOM     83  F   UNL     1      11.204  -7.998  -7.784  1.00  0.00    -0.203 F 
ATOM     84  C   UNL     1      11.919  -8.151  -5.545  1.00  0.00     0.198 A 
ATOM     85  C   UNL     1      10.305  -8.415  -3.789  1.00  0.00     0.198 A 
ATOM     86  F   UNL     1       8.013  -8.548  -4.311  1.00  0.00    -0.203 F 
ATOM     87  F   UNL     1      13.194  -8.056  -5.945  1.00  0.00    -0.200 F 
ATOM     88  C   UNL     1      11.624  -8.290  -4.197  1.00  0.00     0.200 A 
ATOM     89  F   UNL     1      10.015  -8.536  -2.487  1.00  0.00    -0.200 F 
ATOM     90  F   UNL     1      12.612  -8.311  -3.291  1.00  0.00    -0.200 F 
ENDBRANCH  56  80
BRANCH  68  91
ATOM     91  C   UNL     1       7.590 -12.727 -11.067  1.00  0.00     0.064 A 
ATOM     92  C   UNL     1       7.425 -13.880 -10.285  1.00  0.00     0.173 A 
ATOM     93  C   UNL     1       8.252 -12.856 -12.297  1.00  0.00     0.173 A 
ATOM     94  F   UNL     1       6.816 -13.805  -9.092  1.00  0.00    -0.203 F 
ATOM     95  C   UNL     1       7.920 -15.110 -10.711  1.00  0.00     0.198 A 
ATOM     96  C   UNL     1       8.722 -14.092 -12.732  1.00  0.00     0.198 A 
ATOM     97  F   UNL     1       8.433 -11.783 -13.083  1.00  0.00    -0.203 F 
ATOM     98  F   UNL     1       7.790 -16.190  -9.928  1.00  0.00    -0.200 F 
ATOM     99  C   UNL     1       8.561 -15.216 -11.936  1.00  0.00     0.200 A 
ATOM    100  F   UNL     1       9.332 -14.195 -13.921  1.00  0.00    -0.200 F 
ATOM    101  F   UNL     1       9.032 -16.402 -12.347  1.00  0.00    -0.200 F 
ENDBRANCH  68  91
ENDBRANCH  42  43
ENDBRANCH  34  37
ENDBRANCH  32  33
ENDBRANCH  31  32
ENDBRANCH   1  31
TORSDOF 14
