REMARK SMILES Cc1nn(Cc2ccc(Cl)cc2Cl)c(C)c1NC(=O)c1c(C(=O)NCCCCNC(=O)c2ccc(-c3c4nc(c(-c5c(F)c(F)c(F)c(F)c5F)c5ccc([nH]5)c(-c5c(F)c(F)c(F)c(F)c5F)c5nc(c(-c6c(F)c(F)c(F)c(F)c6F)c6ccc3[nH]6)C=C5)C=C4)cc2)cnn1C
REMARK SMILES IDX 25 1 24 2 22 3 23 4 21 6 20 7 97 8 95 9 96 10 98 11 18 12
REMARK SMILES IDX 17 13 19 15 16 16 1 17 2 18 3 19 4 20 14 21 15 22 5 23 6 24
REMARK SMILES IDX 7 25 12 26 8 27 11 28 13 29 9 30 10 31 26 32 27 33 28 34
REMARK SMILES IDX 29 35 30 36 31 38 32 39 33 40 94 41 34 42 93 43 35 44 36 45
REMARK SMILES IDX 37 46 87 47 38 48 92 49 86 50 88 51 39 52 91 53 85 54 84 55
REMARK SMILES IDX 40 57 72 58 52 59 71 60 53 61 56 62 70 63 89 64 54 65 55 66
REMARK SMILES IDX 69 68 90 69 57 70 41 71 42 72 50 73 43 74 44 75 48 76 51 77
REMARK SMILES IDX 45 78 46 79 49 80 47 81 73 82 74 83 82 84 75 85 76 86 80 87
REMARK SMILES IDX 83 88 77 89 78 90 81 91 79 92 58 93 59 94 67 95 60 96 61 97
REMARK SMILES IDX 65 98 68 99 62 100 63 101 66 102 64 103
REMARK H PARENT 24 5 17 14 29 37 88 56 56 67
REMARK Flexibility Score: inf
ROOT
ATOM      1  C   UNL     1      -2.081   6.623  -0.909  1.00  0.00     0.116 C 
ENDROOT
BRANCH   1   2
ATOM      2  N   UNL     1      -1.840   5.495  -0.020  1.00  0.00    -0.352 N 
ATOM      3  C   UNL     1      -0.774   5.166   0.799  1.00  0.00     0.255 C 
ATOM      4  O   UNL     1      -0.944   4.226   1.576  1.00  0.00    -0.269 OA
ATOM      5  H   UNL     1      -2.576   4.842   0.002  1.00  0.00     0.163 HD
BRANCH   3   6
ATOM      6  C   UNL     1       0.501   5.864   0.722  1.00  0.00     0.090 A 
ATOM      7  C   UNL     1       1.765   5.315   0.983  1.00  0.00     0.138 A 
ATOM      8  N   UNL     1       2.664   6.329   0.738  1.00  0.00    -0.262 N 
ATOM      9  C   UNL     1       0.781   7.224   0.459  1.00  0.00     0.149 A 
ATOM     10  N   UNL     1       2.083   7.496   0.406  1.00  0.00    -0.180 NA
ATOM     11  C   UNL     1       4.104   6.230   0.627  1.00  0.00     0.174 C 
BRANCH   7  12
ATOM     12  C   UNL     1       2.182   4.018   1.466  1.00  0.00     0.274 C 
ATOM     13  N   UNL     1       1.812   2.838   0.867  1.00  0.00    -0.317 N 
ATOM     14  H   UNL     1       2.043   2.036   1.390  1.00  0.00     0.170 HD
ATOM     15  O   UNL     1       2.907   3.923   2.461  1.00  0.00    -0.267 OA
BRANCH  13  16
ATOM     16  C   UNL     1       1.180   2.562  -0.326  1.00  0.00     0.085 A 
ATOM     17  C   UNL     1       0.625   0.033   0.051  1.00  0.00     0.071 C 
ATOM     18  C   UNL     1       0.566   1.324  -0.677  1.00  0.00     0.083 A 
ATOM     19  N   UNL     1      -0.144   1.429  -1.808  1.00  0.00    -0.175 NA
ATOM     20  N   UNL     1       0.085   2.696  -2.202  1.00  0.00    -0.263 N 
ATOM     21  C   UNL     1       1.080   3.310  -1.478  1.00  0.00     0.060 A 
ATOM     22  C   UNL     1       1.801   4.493  -1.993  1.00  0.00     0.069 C 
BRANCH  20  23
ATOM     23  C   UNL     1      -0.889   3.382  -3.046  1.00  0.00     0.181 C 
BRANCH  23  24
ATOM     24  C   UNL     1      -0.551   3.366  -4.510  1.00  0.00    -0.008 A 
ATOM     25  C   UNL     1      -0.786   2.175  -5.219  1.00  0.00     0.009 A 
ATOM     26  C   UNL     1      -0.031   4.469  -5.213  1.00  0.00     0.047 A 
ATOM     27  C   UNL     1      -0.475   2.078  -6.575  1.00  0.00     0.021 A 
ATOM     28  C   UNL     1       0.305   4.361  -6.563  1.00  0.00     0.041 A 
ATOM     29  Cl  UNL     1       0.198   6.030  -4.509  1.00  0.00    -0.084 Cl
ATOM     30  C   UNL     1       0.087   3.166  -7.235  1.00  0.00     0.042 A 
ATOM     31  Cl  UNL     1       0.511   3.037  -8.896  1.00  0.00    -0.084 Cl
ENDBRANCH  23  24
ENDBRANCH  20  23
ENDBRANCH  13  16
ENDBRANCH   7  12
ENDBRANCH   3   6
ENDBRANCH   1   2
BRANCH   1  32
ATOM     32  C   UNL     1      -2.766   6.324  -2.252  1.00  0.00     0.023 C 
BRANCH  32  33
ATOM     33  C   UNL     1      -3.934   5.335  -2.302  1.00  0.00     0.023 C 
BRANCH  33  34
ATOM     34  C   UNL     1      -5.268   5.974  -1.960  1.00  0.00     0.116 C 
BRANCH  34  35
ATOM     35  N   UNL     1      -5.626   7.039  -2.906  1.00  0.00    -0.352 N 
ATOM     36  C   UNL     1      -6.566   8.040  -2.775  1.00  0.00     0.251 C 
ATOM     37  H   UNL     1      -5.125   7.038  -3.754  1.00  0.00     0.163 HD
ATOM     38  O   UNL     1      -6.981   8.664  -3.748  1.00  0.00    -0.269 OA
BRANCH  36  39
ATOM     39  C   UNL     1      -7.059   8.348  -1.429  1.00  0.00     0.039 A 
ATOM     40  C   UNL     1      -8.422   8.495  -1.160  1.00  0.00     0.014 A 
ATOM     41  C   UNL     1      -6.112   8.369  -0.413  1.00  0.00     0.014 A 
ATOM     42  C   UNL     1      -8.832   8.560   0.168  1.00  0.00     0.010 A 
ATOM     43  C   UNL     1      -6.531   8.223   0.878  1.00  0.00     0.010 A 
ATOM     44  C   UNL     1      -7.877   8.391   1.182  1.00  0.00    -0.014 A 
BRANCH  44  45
ATOM     45  C   UNL     1      -8.265   8.267   2.581  1.00  0.00     0.031 A 
ATOM     46  C   UNL     1      -9.237   7.172   2.856  1.00  0.00     0.074 A 
ATOM     47  C   UNL     1      -7.594   8.915   3.559  1.00  0.00     0.049 A 
ATOM     48  N   UNL     1     -10.451   7.280   3.282  1.00  0.00    -0.248 NA
ATOM     49  C   UNL     1      -8.863   5.797   2.480  1.00  0.00     0.031 C 
ATOM     50  C   UNL     1      -6.396   9.758   3.435  1.00  0.00     0.029 A 
ATOM     51  N   UNL     1      -7.770   8.861   4.905  1.00  0.00    -0.354 N 
ATOM     52  C   UNL     1     -10.924   5.978   3.432  1.00  0.00     0.074 A 
ATOM     53  C   UNL     1      -9.991   5.131   2.738  1.00  0.00     0.031 C 
ATOM     54  C   UNL     1      -5.821   9.919   4.646  1.00  0.00     0.029 A 
ATOM     55  C   UNL     1      -6.705   9.359   5.648  1.00  0.00     0.049 A 
ATOM     56  H   UNL     1      -8.585   8.498   5.321  1.00  0.00     0.167 HD
ATOM     57  C   UNL     1     -11.890   5.690   4.349  1.00  0.00     0.037 A 
ATOM     58  C   UNL     1      -6.553   9.289   6.993  1.00  0.00     0.037 A 
ATOM     59  C   UNL     1     -12.556   6.895   4.780  1.00  0.00     0.049 A 
ATOM     60  C   UNL     1      -7.891   9.000   7.566  1.00  0.00     0.074 A 
ATOM     61  C   UNL     1     -13.294   7.880   4.155  1.00  0.00     0.029 A 
ATOM     62  N   UNL     1     -12.178   7.424   5.989  1.00  0.00    -0.354 N 
ATOM     63  N   UNL     1      -8.891   9.836   7.529  1.00  0.00    -0.248 NA
ATOM     64  C   UNL     1      -8.249   7.604   7.759  1.00  0.00     0.031 C 
ATOM     65  C   UNL     1     -12.912   9.094   4.802  1.00  0.00     0.029 A 
ATOM     66  C   UNL     1     -12.026   8.775   5.832  1.00  0.00     0.049 A 
ATOM     67  H   UNL     1     -12.041   6.920   6.824  1.00  0.00     0.167 HD
ATOM     68  C   UNL     1      -9.998   9.048   7.253  1.00  0.00     0.074 A 
ATOM     69  C   UNL     1      -9.557   7.676   7.498  1.00  0.00     0.031 C 
ATOM     70  C   UNL     1     -11.065   9.559   6.571  1.00  0.00     0.037 A 
BRANCH  57  71
ATOM     71  C   UNL     1     -11.952   4.418   5.171  1.00  0.00     0.064 A 
ATOM     72  C   UNL     1     -13.037   4.239   6.057  1.00  0.00     0.173 A 
ATOM     73  C   UNL     1     -10.862   3.543   5.373  1.00  0.00     0.173 A 
ATOM     74  F   UNL     1     -14.130   5.011   5.964  1.00  0.00    -0.203 F 
ATOM     75  C   UNL     1     -12.982   3.339   7.125  1.00  0.00     0.198 A 
ATOM     76  C   UNL     1     -10.834   2.609   6.408  1.00  0.00     0.198 A 
ATOM     77  F   UNL     1      -9.734   3.622   4.660  1.00  0.00    -0.203 F 
ATOM     78  F   UNL     1     -13.976   3.313   8.024  1.00  0.00    -0.200 F 
ATOM     79  C   UNL     1     -11.875   2.534   7.307  1.00  0.00     0.200 A 
ATOM     80  F   UNL     1      -9.744   1.846   6.574  1.00  0.00    -0.200 F 
ATOM     81  F   UNL     1     -11.787   1.724   8.370  1.00  0.00    -0.200 F 
ENDBRANCH  57  71
BRANCH  58  82
ATOM     82  C   UNL     1      -5.306   9.149   7.779  1.00  0.00     0.064 A 
ATOM     83  C   UNL     1      -5.284   9.428   9.155  1.00  0.00     0.173 A 
ATOM     84  C   UNL     1      -4.188   8.467   7.260  1.00  0.00     0.173 A 
ATOM     85  F   UNL     1      -6.329  10.036   9.735  1.00  0.00    -0.203 F 
ATOM     86  C   UNL     1      -4.221   9.021   9.970  1.00  0.00     0.198 A 
ATOM     87  C   UNL     1      -3.126   8.066   8.073  1.00  0.00     0.198 A 
ATOM     88  F   UNL     1      -4.151   8.091   5.973  1.00  0.00    -0.203 F 
ATOM     89  F   UNL     1      -4.266   9.248  11.290  1.00  0.00    -0.200 F 
ATOM     90  C   UNL     1      -3.149   8.331   9.430  1.00  0.00     0.200 A 
ATOM     91  F   UNL     1      -2.112   7.365   7.545  1.00  0.00    -0.200 F 
ATOM     92  F   UNL     1      -2.163   7.883  10.220  1.00  0.00    -0.200 F 
ENDBRANCH  58  82
BRANCH  70  93
ATOM     93  C   UNL     1     -11.132  11.051   6.393  1.00  0.00     0.064 A 
ATOM     94  C   UNL     1     -10.204  11.807   5.655  1.00  0.00     0.173 A 
ATOM     95  C   UNL     1     -12.266  11.718   6.873  1.00  0.00     0.173 A 
ATOM     96  F   UNL     1      -9.143  11.229   5.080  1.00  0.00    -0.203 F 
ATOM     97  C   UNL     1     -10.387  13.174   5.446  1.00  0.00     0.198 A 
ATOM     98  C   UNL     1     -12.466  13.073   6.631  1.00  0.00     0.198 A 
ATOM     99  F   UNL     1     -13.213  11.037   7.539  1.00  0.00    -0.203 F 
ATOM    100  F   UNL     1      -9.481  13.875   4.747  1.00  0.00    -0.200 F 
ATOM    101  C   UNL     1     -11.522  13.803   5.927  1.00  0.00     0.200 A 
ATOM    102  F   UNL     1     -13.590  13.666   7.057  1.00  0.00    -0.200 F 
ATOM    103  F   UNL     1     -11.721  15.108   5.691  1.00  0.00    -0.200 F 
ENDBRANCH  70  93
ENDBRANCH  44  45
ENDBRANCH  36  39
ENDBRANCH  34  35
ENDBRANCH  33  34
ENDBRANCH  32  33
ENDBRANCH   1  32
TORSDOF 15
