REMARK SMILES Nc1ccc(F)cc1SCCOc1ccc(C(=O)NCCCCNC(=O)c2ccc(-c3c4nc(c(-c5c(F)c(F)c(F)c(F)c5F)c5ccc([nH]5)c(-c5c(F)c(F)c(F)c(F)c5F)c5nc(c(-c6c(F)c(F)c(F)c(F)c6F)c6ccc3[nH]6)C=C5)C=C4)cc2)cc1
REMARK SMILES IDX 17 1 18 2 19 3 16 5 13 6 14 7 91 8 15 9 90 10 12 11 11 12
REMARK SMILES IDX 10 13 9 14 8 15 2 16 3 17 4 18 7 19 5 20 6 21 1 22 20 25
REMARK SMILES IDX 21 26 22 27 23 28 24 29 25 30 26 32 27 33 28 34 89 35 29 36
REMARK SMILES IDX 88 37 30 38 31 39 32 40 82 41 33 42 87 43 81 44 83 45 34 46
REMARK SMILES IDX 86 47 80 48 79 49 35 51 67 52 47 53 66 54 48 55 51 56 65 57
REMARK SMILES IDX 84 58 49 59 50 60 64 62 85 63 52 64 36 65 37 66 45 67 38 68
REMARK SMILES IDX 39 69 43 70 46 71 40 72 41 73 44 74 42 75 68 76 69 77 77 78
REMARK SMILES IDX 70 79 71 80 75 81 78 82 72 83 73 84 76 85 74 86 53 87 54 88
REMARK SMILES IDX 62 89 55 90 56 91 60 92 63 93 57 94 58 95 61 96 59 97
REMARK H PARENT 19 4 1 23 1 24 24 31 83 50 51 61
REMARK Flexibility Score: inf
ROOT
ATOM      1  C   UNL     1      -3.419  -3.462  -1.132  1.00  0.00     0.251 C 
ATOM      2  O   UNL     1      -3.822  -3.321  -2.286  1.00  0.00    -0.269 OA
ATOM      3  N   UNL     1      -3.523  -4.698  -0.547  1.00  0.00    -0.352 N 
ATOM      4  H   UNL     1      -3.711  -5.436  -1.171  1.00  0.00     0.163 HD
ENDROOT
BRANCH   1   5
ATOM      5  C   UNL     1      -2.850  -2.297  -0.414  1.00  0.00     0.040 A 
ATOM      6  C   UNL     1      -1.599   0.014   0.572  1.00  0.00     0.119 A 
ATOM      7  C   UNL     1      -2.752   0.122  -0.204  1.00  0.00     0.047 A 
ATOM      8  C   UNL     1      -1.141  -1.249   0.944  1.00  0.00     0.047 A 
ATOM      9  C   UNL     1      -3.373  -1.031  -0.699  1.00  0.00     0.017 A 
ATOM     10  C   UNL     1      -1.725  -2.396   0.406  1.00  0.00     0.017 A 
BRANCH   6  11
ATOM     11  O   UNL     1      -0.792   1.046   0.964  1.00  0.00    -0.493 OA
BRANCH  11  12
ATOM     12  C   UNL     1      -0.762   2.210   0.133  1.00  0.00     0.241 C 
BRANCH  12  13
ATOM     13  C   UNL     1       0.293   2.178  -0.983  1.00  0.00     0.116 C 
BRANCH  13  14
ATOM     14  S   UNL     1      -0.069   1.101  -2.418  1.00  0.00    -0.120 SA
BRANCH  14  15
ATOM     15  C   UNL     1       0.483  -0.573  -2.031  1.00  0.00     0.033 A 
ATOM     16  C   UNL     1       1.465  -0.992  -1.104  1.00  0.00     0.045 A 
ATOM     17  C   UNL     1       1.764  -2.366  -0.988  1.00  0.00     0.029 A 
ATOM     18  C   UNL     1       1.132  -3.317  -1.783  1.00  0.00     0.041 A 
ATOM     19  C   UNL     1      -0.136  -1.554  -2.834  1.00  0.00     0.056 A 
ATOM     20  C   UNL     1       0.185  -2.901  -2.701  1.00  0.00     0.124 A 
ATOM     21  F   UNL     1      -0.438  -3.812  -3.458  1.00  0.00    -0.207 F 
BRANCH  16  22
ATOM     22  N   UNL     1       2.047  -0.146  -0.156  1.00  0.00    -0.398 N 
ATOM     23  H   UNL     1       2.727  -0.496   0.464  1.00  0.00     0.156 HD
ATOM     24  H   UNL     1       1.778   0.800  -0.108  1.00  0.00     0.156 HD
ENDBRANCH  16  22
ENDBRANCH  14  15
ENDBRANCH  13  14
ENDBRANCH  12  13
ENDBRANCH  11  12
ENDBRANCH   6  11
ENDBRANCH   1   5
BRANCH   3  25
ATOM     25  C   UNL     1      -3.399  -5.090   0.842  1.00  0.00     0.116 C 
BRANCH  25  26
ATOM     26  C   UNL     1      -4.672  -4.811   1.633  1.00  0.00     0.023 C 
BRANCH  26  27
ATOM     27  C   UNL     1      -5.854  -5.705   1.266  1.00  0.00     0.023 C 
BRANCH  27  28
ATOM     28  C   UNL     1      -5.554  -7.199   1.231  1.00  0.00     0.116 C 
BRANCH  28  29
ATOM     29  N   UNL     1      -4.887  -7.705   2.424  1.00  0.00    -0.352 N 
ATOM     30  C   UNL     1      -4.977  -8.966   2.975  1.00  0.00     0.251 C 
ATOM     31  H   UNL     1      -4.300  -7.070   2.894  1.00  0.00     0.163 HD
ATOM     32  O   UNL     1      -4.378  -9.259   3.997  1.00  0.00    -0.269 OA
BRANCH  30  33
ATOM     33  C   UNL     1      -5.880  -9.934   2.324  1.00  0.00     0.039 A 
ATOM     34  C   UNL     1      -5.738 -10.209   0.963  1.00  0.00     0.014 A 
ATOM     35  C   UNL     1      -6.964 -10.427   3.051  1.00  0.00     0.014 A 
ATOM     36  C   UNL     1      -6.785 -10.820   0.287  1.00  0.00     0.010 A 
ATOM     37  C   UNL     1      -7.978 -11.111   2.381  1.00  0.00     0.010 A 
ATOM     38  C   UNL     1      -7.927 -11.251   0.985  1.00  0.00    -0.014 A 
BRANCH  38  39
ATOM     39  C   UNL     1      -9.079 -11.798   0.227  1.00  0.00     0.031 A 
ATOM     40  C   UNL     1     -10.389 -11.056   0.187  1.00  0.00     0.074 A 
ATOM     41  C   UNL     1      -8.922 -12.934  -0.476  1.00  0.00     0.049 A 
ATOM     42  N   UNL     1     -11.509 -11.391  -0.404  1.00  0.00    -0.248 NA
ATOM     43  C   UNL     1     -10.455  -9.773   0.905  1.00  0.00     0.031 C 
ATOM     44  C   UNL     1      -7.692 -13.724  -0.531  1.00  0.00     0.029 A 
ATOM     45  N   UNL     1      -9.789 -13.606  -1.297  1.00  0.00    -0.354 N 
ATOM     46  C   UNL     1     -12.415 -10.382  -0.104  1.00  0.00     0.074 A 
ATOM     47  C   UNL     1     -11.723  -9.426   0.733  1.00  0.00     0.031 C 
ATOM     48  C   UNL     1      -7.866 -14.746  -1.381  1.00  0.00     0.029 A 
ATOM     49  C   UNL     1      -9.238 -14.719  -1.879  1.00  0.00     0.049 A 
ATOM     50  H   UNL     1     -10.718 -13.318  -1.454  1.00  0.00     0.167 HD
ATOM     51  C   UNL     1     -13.705 -10.264  -0.499  1.00  0.00     0.037 A 
ATOM     52  C   UNL     1      -9.781 -15.628  -2.708  1.00  0.00     0.037 A 
ATOM     53  C   UNL     1     -14.376 -11.195  -1.369  1.00  0.00     0.049 A 
ATOM     54  C   UNL     1     -11.218 -15.481  -3.116  1.00  0.00     0.074 A 
ATOM     55  C   UNL     1     -15.672 -11.144  -1.850  1.00  0.00     0.029 A 
ATOM     56  N   UNL     1     -13.797 -12.339  -1.896  1.00  0.00    -0.354 N 
ATOM     57  N   UNL     1     -12.070 -14.534  -2.807  1.00  0.00    -0.248 NA
ATOM     58  C   UNL     1     -11.774 -16.536  -3.974  1.00  0.00     0.031 C 
ATOM     59  C   UNL     1     -15.889 -12.275  -2.643  1.00  0.00     0.029 A 
ATOM     60  C   UNL     1     -14.717 -13.012  -2.684  1.00  0.00     0.049 A 
ATOM     61  H   UNL     1     -12.871 -12.630  -1.735  1.00  0.00     0.167 HD
ATOM     62  C   UNL     1     -13.262 -14.879  -3.427  1.00  0.00     0.074 A 
ATOM     63  C   UNL     1     -13.015 -16.108  -4.154  1.00  0.00     0.031 C 
ATOM     64  C   UNL     1     -14.456 -14.240  -3.388  1.00  0.00     0.037 A 
BRANCH  51  65
ATOM     65  C   UNL     1     -14.493  -9.093   0.008  1.00  0.00     0.064 A 
ATOM     66  C   UNL     1     -14.309  -7.803  -0.508  1.00  0.00     0.173 A 
ATOM     67  C   UNL     1     -15.501  -9.281   0.967  1.00  0.00     0.173 A 
ATOM     68  F   UNL     1     -13.350  -7.570  -1.417  1.00  0.00    -0.203 F 
ATOM     69  C   UNL     1     -15.101  -6.741  -0.078  1.00  0.00     0.198 A 
ATOM     70  C   UNL     1     -16.305  -8.222   1.379  1.00  0.00     0.198 A 
ATOM     71  F   UNL     1     -15.719 -10.498   1.488  1.00  0.00    -0.203 F 
ATOM     72  F   UNL     1     -14.894  -5.511  -0.568  1.00  0.00    -0.200 F 
ATOM     73  C   UNL     1     -16.104  -6.953   0.857  1.00  0.00     0.200 A 
ATOM     74  F   UNL     1     -17.279  -8.430   2.275  1.00  0.00    -0.200 F 
ATOM     75  F   UNL     1     -16.875  -5.933   1.257  1.00  0.00    -0.200 F 
ENDBRANCH  51  65
BRANCH  52  76
ATOM     76  C   UNL     1      -8.953 -16.760  -3.191  1.00  0.00     0.064 A 
ATOM     77  C   UNL     1      -8.526 -16.823  -4.523  1.00  0.00     0.173 A 
ATOM     78  C   UNL     1      -8.537 -17.777  -2.319  1.00  0.00     0.173 A 
ATOM     79  F   UNL     1      -8.916 -15.882  -5.396  1.00  0.00    -0.203 F 
ATOM     80  C   UNL     1      -7.713 -17.863  -4.966  1.00  0.00     0.198 A 
ATOM     81  C   UNL     1      -7.703 -18.802  -2.757  1.00  0.00     0.198 A 
ATOM     82  F   UNL     1      -8.917 -17.756  -1.033  1.00  0.00    -0.203 F 
ATOM     83  F   UNL     1      -7.337 -17.915  -6.251  1.00  0.00    -0.200 F 
ATOM     84  C   UNL     1      -7.294 -18.846  -4.081  1.00  0.00     0.200 A 
ATOM     85  F   UNL     1      -7.287 -19.740  -1.895  1.00  0.00    -0.200 F 
ATOM     86  F   UNL     1      -6.498 -19.837  -4.505  1.00  0.00    -0.200 F 
ENDBRANCH  52  76
BRANCH  64  87
ATOM     87  C   UNL     1     -15.589 -14.864  -4.143  1.00  0.00     0.064 A 
ATOM     88  C   UNL     1     -16.250 -15.998  -3.652  1.00  0.00     0.173 A 
ATOM     89  C   UNL     1     -16.050 -14.295  -5.339  1.00  0.00     0.173 A 
ATOM     90  F   UNL     1     -15.834 -16.584  -2.519  1.00  0.00    -0.203 F 
ATOM     91  C   UNL     1     -17.326 -16.551  -4.340  1.00  0.00     0.198 A 
ATOM     92  C   UNL     1     -17.140 -14.837  -6.013  1.00  0.00     0.198 A 
ATOM     93  F   UNL     1     -15.452 -13.206  -5.845  1.00  0.00    -0.203 F 
ATOM     94  F   UNL     1     -17.923 -17.655  -3.871  1.00  0.00    -0.200 F 
ATOM     95  C   UNL     1     -17.774 -15.966  -5.516  1.00  0.00     0.200 A 
ATOM     96  F   UNL     1     -17.579 -14.267  -7.144  1.00  0.00    -0.200 F 
ATOM     97  F   UNL     1     -18.815 -16.496  -6.173  1.00  0.00    -0.200 F 
ENDBRANCH  64  87
ENDBRANCH  38  39
ENDBRANCH  30  33
ENDBRANCH  28  29
ENDBRANCH  27  28
ENDBRANCH  26  27
ENDBRANCH  25  26
ENDBRANCH   3  25
TORSDOF 17
