REMARK SMILES O=C(NCCCCNC(=O)[C@H]1[C@@H]2C[C@H]3C[C@@H](C2)C[C@]1(n1ncc(N2CCN(c4ccc(F)cc4)CC2)c(Cl)c1=O)C3)c1ccc(-c2c3nc(c(-c4c(F)c(F)c(F)c(F)c4F)c4ccc([nH]4)c(-c4c(F)c(F)c(F)c(F)c4F)c4nc(c(-c5c(F)c(F)c(F)c(F)c5F)c5ccc2[nH]5)C=C4)C=C3)cc1
REMARK SMILES IDX 6 1 5 2 4 3 3 4 1 5 2 6 42 8 43 9 104 10 44 11 103 12 45 13
REMARK SMILES IDX 46 14 47 15 97 16 48 17 102 18 96 19 98 20 49 21 101 22
REMARK SMILES IDX 95 23 94 24 50 26 82 27 62 28 81 29 63 30 66 31 80 32 99 33
REMARK SMILES IDX 64 34 65 35 79 37 100 38 67 39 51 40 52 41 60 42 53 43 54 44
REMARK SMILES IDX 58 45 61 46 55 47 56 48 59 49 57 50 83 51 84 52 92 53 85 54
REMARK SMILES IDX 86 55 90 56 93 57 87 58 88 59 91 60 89 61 68 62 69 63 77 64
REMARK SMILES IDX 70 65 71 66 75 67 78 68 72 69 73 70 76 71 74 72 7 73 8 74
REMARK SMILES IDX 9 75 10 77 11 78 12 79 19 80 17 81 13 82 41 83 18 84 16 85
REMARK SMILES IDX 14 86 15 87 20 88 21 89 39 90 22 91 37 92 40 93 23 94 38 95
REMARK SMILES IDX 24 96 25 97 36 98 26 99 35 100 27 101 28 102 29 103 34 104
REMARK SMILES IDX 30 105 33 106 31 107 32 108
REMARK H PARENT 3 7 98 25 66 36 8 76
REMARK Flexibility Score: inf
ROOT
ATOM      1  C   UNL     1      10.962   5.610   1.349  1.00  0.00     0.023 C 
ENDROOT
BRANCH   1   2
ATOM      2  C   UNL     1      11.861   6.518   2.198  1.00  0.00     0.023 C 
BRANCH   2   3
ATOM      3  C   UNL     1      11.839   6.328   3.715  1.00  0.00     0.116 C 
BRANCH   3   4
ATOM      4  N   UNL     1      12.282   5.021   4.167  1.00  0.00    -0.352 N 
ATOM      5  O   UNL     1      13.578   3.439   5.092  1.00  0.00    -0.269 OA
ATOM      6  C   UNL     1      13.386   4.636   4.888  1.00  0.00     0.251 C 
ATOM      7  H   UNL     1      11.685   4.280   3.912  1.00  0.00     0.163 HD
BRANCH   6   8
ATOM      8  C   UNL     1      14.370   5.617   5.408  1.00  0.00     0.039 A 
ATOM      9  C   UNL     1      15.731   5.302   5.315  1.00  0.00     0.014 A 
ATOM     10  C   UNL     1      13.983   6.792   6.057  1.00  0.00     0.014 A 
ATOM     11  C   UNL     1      16.697   6.177   5.826  1.00  0.00     0.010 A 
ATOM     12  C   UNL     1      14.949   7.700   6.500  1.00  0.00     0.010 A 
ATOM     13  C   UNL     1      16.317   7.396   6.407  1.00  0.00    -0.014 A 
BRANCH  13  14
ATOM     14  C   UNL     1      17.331   8.327   6.979  1.00  0.00     0.031 A 
ATOM     15  C   UNL     1      17.342   8.610   8.460  1.00  0.00     0.074 A 
ATOM     16  C   UNL     1      18.232   8.932   6.180  1.00  0.00     0.049 A 
ATOM     17  N   UNL     1      18.097   9.435   9.142  1.00  0.00    -0.248 NA
ATOM     18  C   UNL     1      16.364   7.880   9.281  1.00  0.00     0.031 C 
ATOM     19  C   UNL     1      18.331   8.755   4.731  1.00  0.00     0.029 A 
ATOM     20  N   UNL     1      19.239   9.822   6.473  1.00  0.00    -0.354 N 
ATOM     21  C   UNL     1      17.678   9.328  10.463  1.00  0.00     0.074 A 
ATOM     22  C   UNL     1      16.567   8.404  10.481  1.00  0.00     0.031 C 
ATOM     23  C   UNL     1      19.359   9.485   4.267  1.00  0.00     0.029 A 
ATOM     24  C   UNL     1      19.965  10.219   5.376  1.00  0.00     0.049 A 
ATOM     25  H   UNL     1      19.424  10.144   7.385  1.00  0.00     0.167 HD
ATOM     26  C   UNL     1      18.193   9.921  11.566  1.00  0.00     0.037 A 
ATOM     27  C   UNL     1      20.998  11.080   5.272  1.00  0.00     0.037 A 
ATOM     28  C   UNL     1      19.321  10.815  11.558  1.00  0.00     0.049 A 
ATOM     29  C   UNL     1      21.519  11.763   6.510  1.00  0.00     0.074 A 
ATOM     30  C   UNL     1      19.931  11.439  12.632  1.00  0.00     0.029 A 
ATOM     31  N   UNL     1      20.012  11.207  10.422  1.00  0.00    -0.354 N 
ATOM     32  N   UNL     1      21.134  11.628   7.755  1.00  0.00    -0.248 NA
ATOM     33  C   UNL     1      22.621  12.721   6.327  1.00  0.00     0.031 C 
ATOM     34  C   UNL     1      20.963  12.243  12.143  1.00  0.00     0.029 A 
ATOM     35  C   UNL     1      21.031  12.079  10.769  1.00  0.00     0.049 A 
ATOM     36  H   UNL     1      19.809  10.909   9.505  1.00  0.00     0.167 HD
ATOM     37  C   UNL     1      21.961  12.455   8.504  1.00  0.00     0.074 A 
ATOM     38  C   UNL     1      22.881  13.078   7.577  1.00  0.00     0.031 C 
ATOM     39  C   UNL     1      21.954  12.680   9.841  1.00  0.00     0.037 A 
BRANCH  26  40
ATOM     40  C   UNL     1      17.562   9.609  12.892  1.00  0.00     0.064 A 
ATOM     41  C   UNL     1      17.721   8.354  13.498  1.00  0.00     0.173 A 
ATOM     42  C   UNL     1      16.868  10.599  13.604  1.00  0.00     0.173 A 
ATOM     43  F   UNL     1      18.367   7.370  12.855  1.00  0.00    -0.203 F 
ATOM     44  C   UNL     1      17.198   8.098  14.763  1.00  0.00     0.198 A 
ATOM     45  C   UNL     1      16.374  10.349  14.882  1.00  0.00     0.198 A 
ATOM     46  F   UNL     1      16.695  11.819  13.073  1.00  0.00    -0.203 F 
ATOM     47  F   UNL     1      17.336   6.882  15.309  1.00  0.00    -0.200 F 
ATOM     48  C   UNL     1      16.537   9.099  15.459  1.00  0.00     0.200 A 
ATOM     49  F   UNL     1      15.749  11.322  15.559  1.00  0.00    -0.200 F 
ATOM     50  F   UNL     1      16.055   8.858  16.686  1.00  0.00    -0.200 F 
ENDBRANCH  26  40
BRANCH  27  51
ATOM     51  C   UNL     1      21.629  11.332   3.948  1.00  0.00     0.064 A 
ATOM     52  C   UNL     1      22.940  10.908   3.685  1.00  0.00     0.173 A 
ATOM     53  C   UNL     1      20.946  12.005   2.924  1.00  0.00     0.173 A 
ATOM     54  F   UNL     1      23.645  10.283   4.640  1.00  0.00    -0.203 F 
ATOM     55  C   UNL     1      23.548  11.162   2.457  1.00  0.00     0.198 A 
ATOM     56  C   UNL     1      21.544  12.230   1.686  1.00  0.00     0.198 A 
ATOM     57  F   UNL     1      19.691  12.433   3.123  1.00  0.00    -0.203 F 
ATOM     58  F   UNL     1      24.818  10.787   2.251  1.00  0.00    -0.200 F 
ATOM     59  C   UNL     1      22.847  11.816   1.456  1.00  0.00     0.200 A 
ATOM     60  F   UNL     1      20.858  12.851   0.716  1.00  0.00    -0.200 F 
ATOM     61  F   UNL     1      23.430  12.054   0.273  1.00  0.00    -0.200 F 
ENDBRANCH  27  51
BRANCH  39  62
ATOM     62  C   UNL     1      22.986  13.615  10.401  1.00  0.00     0.064 A 
ATOM     63  C   UNL     1      22.913  15.000  10.193  1.00  0.00     0.173 A 
ATOM     64  C   UNL     1      24.011  13.129  11.228  1.00  0.00     0.173 A 
ATOM     65  F   UNL     1      21.959  15.514   9.402  1.00  0.00    -0.203 F 
ATOM     66  C   UNL     1      23.835  15.862  10.781  1.00  0.00     0.198 A 
ATOM     67  C   UNL     1      24.912  13.996  11.840  1.00  0.00     0.198 A 
ATOM     68  F   UNL     1      24.120  11.813  11.469  1.00  0.00    -0.203 F 
ATOM     69  F   UNL     1      23.765  17.178  10.541  1.00  0.00    -0.200 F 
ATOM     70  C   UNL     1      24.826  15.361  11.612  1.00  0.00     0.200 A 
ATOM     71  F   UNL     1      25.857  13.512  12.658  1.00  0.00    -0.200 F 
ATOM     72  F   UNL     1      25.698  16.195  12.194  1.00  0.00    -0.200 F 
ENDBRANCH  39  62
ENDBRANCH  13  14
ENDBRANCH   6   8
ENDBRANCH   3   4
ENDBRANCH   2   3
ENDBRANCH   1   2
BRANCH   1  73
ATOM     73  C   UNL     1       9.468   5.579   1.681  1.00  0.00     0.116 C 
BRANCH  73  74
ATOM     74  N   UNL     1       8.711   6.802   1.418  1.00  0.00    -0.356 N 
ATOM     75  C   UNL     1       7.463   7.151   1.943  1.00  0.00     0.225 C 
ATOM     76  H   UNL     1       9.125   7.450   0.804  1.00  0.00     0.163 HD
ATOM     77  O   UNL     1       6.903   8.156   1.520  1.00  0.00    -0.275 OA
BRANCH  75  78
ATOM     78  C   UNL     1       7.000   6.346   3.159  1.00  0.00     0.109 C 
ATOM     79  C   UNL     1       7.931   6.872   4.316  1.00  0.00     0.004 C 
ATOM     80  C   UNL     1       5.537   6.203   3.724  1.00  0.00     0.079 C 
ATOM     81  C   UNL     1       7.387   8.154   4.972  1.00  0.00     0.008 C 
ATOM     82  C   UNL     1       8.067   5.776   5.371  1.00  0.00     0.008 C 
ATOM     83  C   UNL     1       5.717   5.088   4.855  1.00  0.00     0.035 C 
ATOM     84  C   UNL     1       5.068   7.487   4.464  1.00  0.00     0.035 C 
ATOM     85  C   UNL     1       6.020   7.886   5.594  1.00  0.00    -0.008 C 
ATOM     86  C   UNL     1       6.688   5.494   5.964  1.00  0.00    -0.008 C 
ATOM     87  C   UNL     1       6.138   6.757   6.629  1.00  0.00     0.007 C 
BRANCH  80  88
ATOM     88  N   UNL     1       4.412   5.729   2.815  1.00  0.00    -0.222 N 
ATOM     89  N   UNL     1       3.924   4.462   3.101  1.00  0.00    -0.175 NA
ATOM     90  C   UNL     1       3.685   6.602   1.992  1.00  0.00     0.288 A 
ATOM     91  C   UNL     1       2.672   4.228   2.892  1.00  0.00     0.161 A 
ATOM     92  C   UNL     1       2.232   6.249   1.788  1.00  0.00     0.132 A 
ATOM     93  O   UNL     1       4.122   7.664   1.561  1.00  0.00    -0.266 OA
ATOM     94  C   UNL     1       1.670   5.162   2.338  1.00  0.00     0.082 A 
ATOM     95  Cl  UNL     1       1.248   7.447   1.002  1.00  0.00    -0.076 Cl
BRANCH  94  96
ATOM     96  N   UNL     1       0.321   4.794   2.400  1.00  0.00    -0.365 N 
ATOM     97  C   UNL     1      -0.362   4.471   3.682  1.00  0.00     0.138 C 
ATOM     98  C   UNL     1      -0.434   4.351   1.206  1.00  0.00     0.138 C 
ATOM     99  C   UNL     1      -1.828   4.989   3.702  1.00  0.00     0.138 C 
ATOM    100  C   UNL     1      -1.890   4.864   1.229  1.00  0.00     0.138 C 
ATOM    101  N   UNL     1      -2.534   4.509   2.506  1.00  0.00    -0.368 N 
BRANCH 101 102
ATOM    102  C   UNL     1      -3.868   4.162   2.517  1.00  0.00     0.037 A 
ATOM    103  C   UNL     1      -4.294   3.041   1.784  1.00  0.00     0.029 A 
ATOM    104  C   UNL     1      -4.835   4.869   3.245  1.00  0.00     0.029 A 
ATOM    105  C   UNL     1      -5.630   2.632   1.778  1.00  0.00     0.041 A 
ATOM    106  C   UNL     1      -6.180   4.477   3.229  1.00  0.00     0.041 A 
ATOM    107  C   UNL     1      -6.563   3.359   2.499  1.00  0.00     0.123 A 
ATOM    108  F   UNL     1      -7.846   2.977   2.492  1.00  0.00    -0.207 F 
ENDBRANCH 101 102
ENDBRANCH  94  96
ENDBRANCH  80  88
ENDBRANCH  75  78
ENDBRANCH  73  74
ENDBRANCH   1  73
TORSDOF 14
