REMARK SMILES CC(C)c1ccc2c(c1)c(SC(C)(C)C)c(CC(C)(C)C(=O)NCCCCNC(=O)c1ccc(-c3c4nc(c(-c5c(F)c(F)c(F)c(F)c5F)c5ccc([nH]5)c(-c5c(F)c(F)c(F)c(F)c5F)c5nc(c(-c6c(F)c(F)c(F)c(F)c6F)c6ccc3[nH]6)C=C5)C=C4)cc1)n2Cc1ccc(Cl)cc1
REMARK SMILES IDX 24 1 23 2 21 3 22 4 18 6 19 7 20 8 17 9 16 10 4 11 5 12 9 13
REMARK SMILES IDX 6 14 8 15 7 16 10 17 94 18 2 19 1 20 3 21 11 22 12 23 13 24
REMARK SMILES IDX 14 25 15 26 95 27 96 28 97 29 102 30 98 31 101 32 99 33
REMARK SMILES IDX 100 34 25 35 26 36 27 37 28 38 29 39 30 41 31 42 32 43 93 44
REMARK SMILES IDX 33 45 92 46 34 47 35 48 36 49 86 50 37 51 91 52 85 53 87 54
REMARK SMILES IDX 38 55 90 56 84 57 83 58 39 60 71 61 51 62 70 63 52 64 55 65
REMARK SMILES IDX 69 66 88 67 53 68 54 69 68 71 89 72 56 73 40 74 41 75 49 76
REMARK SMILES IDX 42 77 43 78 47 79 50 80 44 81 45 82 48 83 46 84 72 85 73 86
REMARK SMILES IDX 81 87 74 88 75 89 79 90 82 91 76 92 77 93 80 94 78 95 57 96
REMARK SMILES IDX 58 97 66 98 59 99 60 100 64 101 67 102 61 103 62 104 65 105
REMARK SMILES IDX 63 106
REMARK H PARENT 23 5 28 40 87 59 55 70
REMARK Flexibility Score: inf
ROOT
ATOM      1  C   UNL     1      -7.059   5.485   3.881  1.00  0.00     0.116 C 
ENDROOT
BRANCH   1   2
ATOM      2  N   UNL     1      -6.978   4.062   3.580  1.00  0.00    -0.356 N 
ATOM      3  C   UNL     1      -6.655   3.483   2.380  1.00  0.00     0.226 C 
ATOM      4  O   UNL     1      -6.185   2.333   2.422  1.00  0.00    -0.275 OA
ATOM      5  H   UNL     1      -7.178   3.447   4.322  1.00  0.00     0.163 HD
BRANCH   3   6
ATOM      6  C   UNL     1      -6.661   4.357   1.131  1.00  0.00     0.049 C 
ATOM      7  C   UNL     1      -5.326   5.096   1.427  1.00  0.00     0.022 C 
ATOM      8  C   UNL     1      -8.046   5.085   1.097  1.00  0.00     0.022 C 
BRANCH   6   9
ATOM      9  C   UNL     1      -6.634   3.716  -0.287  1.00  0.00     0.071 C 
BRANCH   9  10
ATOM     10  C   UNL     1      -5.393   3.060  -0.705  1.00  0.00     0.034 A 
ATOM     11  C   UNL     1      -1.102   1.319  -0.863  1.00  0.00    -0.045 A 
ATOM     12  C   UNL     1      -1.834   0.142  -0.692  1.00  0.00     0.006 A 
ATOM     13  C   UNL     1      -1.809   2.525  -1.070  1.00  0.00     0.015 A 
ATOM     14  C   UNL     1      -3.232   0.148  -0.639  1.00  0.00     0.027 A 
ATOM     15  C   UNL     1      -3.229   2.573  -1.020  1.00  0.00     0.014 A 
ATOM     16  C   UNL     1      -3.910   1.373  -0.761  1.00  0.00     0.050 A 
ATOM     17  C   UNL     1      -4.208   3.633  -1.143  1.00  0.00     0.037 A 
ATOM     18  N   UNL     1      -5.260   1.674  -0.667  1.00  0.00    -0.339 N 
BRANCH  11  19
ATOM     19  C   UNL     1       0.421   1.347  -0.818  1.00  0.00     0.013 C 
ATOM     20  C   UNL     1       1.069   0.185  -0.049  1.00  0.00     0.012 C 
ATOM     21  C   UNL     1       1.004   1.418  -2.230  1.00  0.00     0.012 C 
ENDBRANCH  11  19
BRANCH  17  22
ATOM     22  S   UNL     1      -3.724   5.315  -1.513  1.00  0.00    -0.118 SA
BRANCH  22  23
ATOM     23  C   UNL     1      -5.034   6.628  -1.844  1.00  0.00     0.012 C 
ATOM     24  C   UNL     1      -5.805   6.302  -3.127  1.00  0.00     0.023 C 
ATOM     25  C   UNL     1      -6.050   7.129  -0.788  1.00  0.00     0.023 C 
ATOM     26  C   UNL     1      -4.180   7.910  -2.058  1.00  0.00     0.023 C 
ENDBRANCH  22  23
ENDBRANCH  17  22
BRANCH  18  27
ATOM     27  C   UNL     1      -6.351   0.661  -0.740  1.00  0.00     0.158 C 
BRANCH  27  28
ATOM     28  C   UNL     1      -7.238   0.465   0.482  1.00  0.00    -0.028 A 
ATOM     29  C   UNL     1      -8.487   1.111   0.590  1.00  0.00     0.007 A 
ATOM     30  C   UNL     1      -6.838  -0.350   1.554  1.00  0.00     0.007 A 
ATOM     31  C   UNL     1      -9.197   1.130   1.795  1.00  0.00     0.021 A 
ATOM     32  C   UNL     1      -7.584  -0.387   2.745  1.00  0.00     0.021 A 
ATOM     33  C   UNL     1      -8.725   0.401   2.879  1.00  0.00     0.041 A 
ATOM     34  Cl  UNL     1      -9.530   0.514   4.397  1.00  0.00    -0.084 Cl
ENDBRANCH  27  28
ENDBRANCH  18  27
ENDBRANCH   9  10
ENDBRANCH   6   9
ENDBRANCH   3   6
ENDBRANCH   1   2
BRANCH   1  35
ATOM     35  C   UNL     1      -8.264   5.841   4.710  1.00  0.00     0.023 C 
BRANCH  35  36
ATOM     36  C   UNL     1      -8.128   5.332   6.135  1.00  0.00     0.023 C 
BRANCH  36  37
ATOM     37  C   UNL     1      -6.769   5.655   6.778  1.00  0.00     0.116 C 
BRANCH  37  38
ATOM     38  N   UNL     1      -6.413   7.062   6.713  1.00  0.00    -0.352 N 
ATOM     39  C   UNL     1      -6.715   8.145   7.486  1.00  0.00     0.251 C 
ATOM     40  H   UNL     1      -5.830   7.281   5.951  1.00  0.00     0.163 HD
ATOM     41  O   UNL     1      -6.157   9.210   7.198  1.00  0.00    -0.269 OA
BRANCH  39  42
ATOM     42  C   UNL     1      -7.711   8.132   8.586  1.00  0.00     0.039 A 
ATOM     43  C   UNL     1      -8.438   7.013   8.984  1.00  0.00     0.014 A 
ATOM     44  C   UNL     1      -7.980   9.365   9.206  1.00  0.00     0.014 A 
ATOM     45  C   UNL     1      -9.499   7.137   9.856  1.00  0.00     0.010 A 
ATOM     46  C   UNL     1      -9.011   9.489  10.128  1.00  0.00     0.010 A 
ATOM     47  C   UNL     1      -9.801   8.381  10.404  1.00  0.00    -0.014 A 
BRANCH  47  48
ATOM     48  C   UNL     1     -10.901   8.406  11.353  1.00  0.00     0.031 A 
ATOM     49  C   UNL     1     -10.704   7.497  12.512  1.00  0.00     0.074 A 
ATOM     50  C   UNL     1     -11.988   9.186  11.207  1.00  0.00     0.049 A 
ATOM     51  N   UNL     1     -11.395   6.449  12.816  1.00  0.00    -0.248 NA
ATOM     52  C   UNL     1      -9.508   7.690  13.348  1.00  0.00     0.031 C 
ATOM     53  C   UNL     1     -12.174  10.289  10.262  1.00  0.00     0.029 A 
ATOM     54  N   UNL     1     -13.136   9.211  11.944  1.00  0.00    -0.354 N 
ATOM     55  C   UNL     1     -10.840   5.956  13.995  1.00  0.00     0.074 A 
ATOM     56  C   UNL     1      -9.605   6.665  14.198  1.00  0.00     0.031 C 
ATOM     57  C   UNL     1     -13.244  11.023  10.642  1.00  0.00     0.029 A 
ATOM     58  C   UNL     1     -13.904  10.349  11.747  1.00  0.00     0.049 A 
ATOM     59  H   UNL     1     -13.396   8.487  12.559  1.00  0.00     0.167 HD
ATOM     60  C   UNL     1     -11.583   5.194  14.842  1.00  0.00     0.037 A 
ATOM     61  C   UNL     1     -14.976  10.728  12.481  1.00  0.00     0.037 A 
ATOM     62  C   UNL     1     -12.753   4.674  14.190  1.00  0.00     0.049 A 
ATOM     63  C   UNL     1     -15.534   9.516  13.124  1.00  0.00     0.074 A 
ATOM     64  C   UNL     1     -13.062   3.612  13.370  1.00  0.00     0.029 A 
ATOM     65  N   UNL     1     -13.776   5.575  14.095  1.00  0.00    -0.354 N 
ATOM     66  N   UNL     1     -16.105   8.547  12.464  1.00  0.00    -0.248 NA
ATOM     67  C   UNL     1     -15.194   9.216  14.511  1.00  0.00     0.031 C 
ATOM     68  C   UNL     1     -14.254   3.977  12.672  1.00  0.00     0.029 A 
ATOM     69  C   UNL     1     -14.658   5.236  13.106  1.00  0.00     0.049 A 
ATOM     70  H   UNL     1     -13.867   6.370  14.668  1.00  0.00     0.167 HD
ATOM     71  C   UNL     1     -15.807   7.420  13.200  1.00  0.00     0.074 A 
ATOM     72  C   UNL     1     -15.426   7.901  14.519  1.00  0.00     0.031 C 
ATOM     73  C   UNL     1     -15.566   6.229  12.583  1.00  0.00     0.037 A 
BRANCH  60  74
ATOM     74  C   UNL     1     -11.531   5.323  16.348  1.00  0.00     0.064 A 
ATOM     75  C   UNL     1     -12.226   4.396  17.151  1.00  0.00     0.173 A 
ATOM     76  C   UNL     1     -11.099   6.494  17.008  1.00  0.00     0.173 A 
ATOM     77  F   UNL     1     -12.723   3.269  16.619  1.00  0.00    -0.203 F 
ATOM     78  C   UNL     1     -12.496   4.646  18.501  1.00  0.00     0.198 A 
ATOM     79  C   UNL     1     -11.326   6.716  18.365  1.00  0.00     0.198 A 
ATOM     80  F   UNL     1     -10.549   7.519  16.345  1.00  0.00    -0.203 F 
ATOM     81  F   UNL     1     -13.251   3.786  19.201  1.00  0.00    -0.200 F 
ATOM     82  C   UNL     1     -12.045   5.804  19.107  1.00  0.00     0.200 A 
ATOM     83  F   UNL     1     -10.909   7.862  18.923  1.00  0.00    -0.200 F 
ATOM     84  F   UNL     1     -12.343   6.068  20.386  1.00  0.00    -0.200 F 
ENDBRANCH  60  74
BRANCH  61  85
ATOM     85  C   UNL     1     -15.373  12.088  12.914  1.00  0.00     0.064 A 
ATOM     86  C   UNL     1     -16.640  12.311  13.479  1.00  0.00     0.173 A 
ATOM     87  C   UNL     1     -14.417  13.106  13.091  1.00  0.00     0.173 A 
ATOM     88  F   UNL     1     -17.599  11.379  13.373  1.00  0.00    -0.203 F 
ATOM     89  C   UNL     1     -16.912  13.449  14.242  1.00  0.00     0.198 A 
ATOM     90  C   UNL     1     -14.694  14.247  13.846  1.00  0.00     0.198 A 
ATOM     91  F   UNL     1     -13.167  12.967  12.628  1.00  0.00    -0.203 F 
ATOM     92  F   UNL     1     -18.102  13.580  14.844  1.00  0.00    -0.200 F 
ATOM     93  C   UNL     1     -15.931  14.406  14.442  1.00  0.00     0.200 A 
ATOM     94  F   UNL     1     -13.728  15.153  14.057  1.00  0.00    -0.200 F 
ATOM     95  F   UNL     1     -16.163  15.454  15.244  1.00  0.00    -0.200 F 
ENDBRANCH  61  85
BRANCH  73  96
ATOM     96  C   UNL     1     -16.143   6.032  11.219  1.00  0.00     0.064 A 
ATOM     97  C   UNL     1     -15.748   6.746  10.076  1.00  0.00     0.173 A 
ATOM     98  C   UNL     1     -17.108   5.029  11.058  1.00  0.00     0.173 A 
ATOM     99  F   UNL     1     -14.778   7.668  10.140  1.00  0.00    -0.203 F 
ATOM    100  C   UNL     1     -16.327   6.489   8.834  1.00  0.00     0.198 A 
ATOM    101  C   UNL     1     -17.658   4.750   9.812  1.00  0.00     0.198 A 
ATOM    102  F   UNL     1     -17.495   4.294  12.112  1.00  0.00    -0.203 F 
ATOM    103  F   UNL     1     -15.952   7.195   7.757  1.00  0.00    -0.200 F 
ATOM    104  C   UNL     1     -17.276   5.487   8.703  1.00  0.00     0.200 A 
ATOM    105  F   UNL     1     -18.545   3.754   9.685  1.00  0.00    -0.200 F 
ATOM    106  F   UNL     1     -17.809   5.217   7.503  1.00  0.00    -0.200 F 
ENDBRANCH  73  96
ENDBRANCH  47  48
ENDBRANCH  39  42
ENDBRANCH  37  38
ENDBRANCH  36  37
ENDBRANCH  35  36
ENDBRANCH   1  35
TORSDOF 18
