REMARK SMILES Cc1ccc(S(=O)(=O)Nc2cc3c(cc2C(=O)NCCCCNC(=O)c2ccc(-c4c5nc(c(-c6c(F)c(F)c(F)c(F)c6F)c6ccc([nH]6)c(-c6c(F)c(F)c(F)c(F)c6F)c6nc(c(-c7c(F)c(F)c(F)c(F)c7F)c7ccc4[nH]7)C=C6)C=C5)cc2)OCCO3)s1
REMARK SMILES IDX 20 1 19 2 18 3 16 4 17 5 15 7 10 8 11 9 12 10 14 11 13 12
REMARK SMILES IDX 92 13 89 14 91 15 90 16 9 17 6 19 7 20 8 21 5 22 1 23 2 24
REMARK SMILES IDX 3 25 93 26 4 27 21 28 22 29 23 30 24 31 25 33 26 34 27 35
REMARK SMILES IDX 88 36 28 37 87 38 29 39 30 40 31 41 81 42 32 43 86 44 80 45
REMARK SMILES IDX 82 46 33 47 85 48 79 49 78 50 34 52 66 53 46 54 65 55 47 56
REMARK SMILES IDX 50 57 64 58 83 59 48 60 49 61 63 63 84 64 51 65 35 66 36 67
REMARK SMILES IDX 44 68 37 69 38 70 42 71 45 72 39 73 40 74 43 75 41 76 67 77
REMARK SMILES IDX 68 78 76 79 69 80 70 81 74 82 77 83 71 84 72 85 75 86 73 87
REMARK SMILES IDX 52 88 53 89 61 90 54 91 55 92 59 93 62 94 56 95 57 96 60 97
REMARK SMILES IDX 58 98
REMARK H PARENT 18 6 9 18 23 32 82 51 50 62
REMARK Flexibility Score: inf
ROOT
ATOM      1  C   UNL     1       0.971  -3.031   2.070  1.00  0.00     0.023 C 
ENDROOT
BRANCH   1   2
ATOM      2  C   UNL     1      -0.490  -3.332   2.373  1.00  0.00     0.116 C 
BRANCH   2   3
ATOM      3  N   UNL     1      -1.297  -2.187   2.759  1.00  0.00    -0.352 N 
ATOM      4  C   UNL     1      -2.591  -1.841   2.432  1.00  0.00     0.253 C 
ATOM      5  O   UNL     1      -3.113  -0.905   3.031  1.00  0.00    -0.269 OA
ATOM      6  H   UNL     1      -0.842  -1.549   3.355  1.00  0.00     0.163 HD
BRANCH   4   7
ATOM      7  C   UNL     1      -3.328  -2.554   1.357  1.00  0.00     0.067 A 
ATOM      8  C   UNL     1      -4.032  -1.842   0.363  1.00  0.00     0.066 A 
ATOM      9  C   UNL     1      -4.606  -2.534  -0.712  1.00  0.00     0.078 A 
ATOM     10  C   UNL     1      -4.472  -3.920  -0.800  1.00  0.00     0.163 A 
ATOM     11  C   UNL     1      -3.316  -3.953   1.320  1.00  0.00     0.066 A 
ATOM     12  C   UNL     1      -3.819  -4.624   0.213  1.00  0.00     0.162 A 
ATOM     13  O   UNL     1      -4.987  -4.528  -1.916  1.00  0.00    -0.486 OA
ATOM     14  O   UNL     1      -3.600  -5.976   0.173  1.00  0.00    -0.486 OA
ATOM     15  C   UNL     1      -5.003  -5.958  -1.796  1.00  0.00     0.271 C 
ATOM     16  C   UNL     1      -3.716  -6.467  -1.168  1.00  0.00     0.271 C 
BRANCH   8  17
ATOM     17  N   UNL     1      -4.178  -0.419   0.447  1.00  0.00    -0.278 N 
ATOM     18  H   UNL     1      -4.789  -0.017   1.107  1.00  0.00     0.180 HD
BRANCH  17  19
ATOM     19  S   UNL     1      -3.288   0.557  -0.601  1.00  0.00     0.271 S 
ATOM     20  O   UNL     1      -3.301   1.895  -0.066  1.00  0.00    -0.200 OA
ATOM     21  O   UNL     1      -3.781   0.294  -1.943  1.00  0.00    -0.200 OA
BRANCH  19  22
ATOM     22  C   UNL     1      -1.602  -0.012  -0.643  1.00  0.00     0.140 A 
ATOM     23  C   UNL     1       2.257   0.164   0.054  1.00  0.00     0.056 C 
ATOM     24  C   UNL     1       0.845  -0.121  -0.333  1.00  0.00     0.003 A 
ATOM     25  C   UNL     1       0.376  -1.145  -1.129  1.00  0.00     0.016 A 
ATOM     26  S   UNL     1      -0.429   0.882   0.218  1.00  0.00    -0.127 S 
ATOM     27  C   UNL     1      -1.034  -1.092  -1.292  1.00  0.00     0.034 A 
ENDBRANCH  19  22
ENDBRANCH  17  19
ENDBRANCH   8  17
ENDBRANCH   4   7
ENDBRANCH   2   3
ENDBRANCH   1   2
BRANCH   1  28
ATOM     28  C   UNL     1       1.744  -2.227   3.105  1.00  0.00     0.023 C 
BRANCH  28  29
ATOM     29  C   UNL     1       1.662  -2.744   4.533  1.00  0.00     0.116 C 
BRANCH  29  30
ATOM     30  N   UNL     1       2.038  -4.142   4.667  1.00  0.00    -0.352 N 
ATOM     31  C   UNL     1       2.853  -4.748   5.591  1.00  0.00     0.251 C 
ATOM     32  H   UNL     1       1.650  -4.745   3.994  1.00  0.00     0.163 HD
ATOM     33  O   UNL     1       3.105  -5.945   5.486  1.00  0.00    -0.269 OA
BRANCH  31  34
ATOM     34  C   UNL     1       3.459  -3.962   6.688  1.00  0.00     0.039 A 
ATOM     35  C   UNL     1       4.795  -4.204   7.021  1.00  0.00     0.014 A 
ATOM     36  C   UNL     1       2.727  -3.003   7.391  1.00  0.00     0.014 A 
ATOM     37  C   UNL     1       5.410  -3.446   8.019  1.00  0.00     0.010 A 
ATOM     38  C   UNL     1       3.362  -2.190   8.323  1.00  0.00     0.010 A 
ATOM     39  C   UNL     1       4.705  -2.416   8.660  1.00  0.00    -0.014 A 
BRANCH  39  40
ATOM     40  C   UNL     1       5.341  -1.597   9.720  1.00  0.00     0.031 A 
ATOM     41  C   UNL     1       4.822  -1.667  11.130  1.00  0.00     0.074 A 
ATOM     42  C   UNL     1       6.339  -0.751   9.406  1.00  0.00     0.049 A 
ATOM     43  N   UNL     1       5.207  -1.001  12.190  1.00  0.00    -0.248 NA
ATOM     44  C   UNL     1       3.694  -2.580  11.373  1.00  0.00     0.031 C 
ATOM     45  C   UNL     1       6.881  -0.541   8.063  1.00  0.00     0.029 A 
ATOM     46  N   UNL     1       7.071   0.098  10.197  1.00  0.00    -0.354 N 
ATOM     47  C   UNL     1       4.351  -1.392  13.211  1.00  0.00     0.074 A 
ATOM     48  C   UNL     1       3.394  -2.311  12.635  1.00  0.00     0.031 C 
ATOM     49  C   UNL     1       7.875   0.359   8.127  1.00  0.00     0.029 A 
ATOM     50  C   UNL     1       8.027   0.803   9.509  1.00  0.00     0.049 A 
ATOM     51  H   UNL     1       6.923   0.194  11.166  1.00  0.00     0.167 HD
ATOM     52  C   UNL     1       4.376  -1.037  14.517  1.00  0.00     0.037 A 
ATOM     53  C   UNL     1       8.931   1.697   9.951  1.00  0.00     0.037 A 
ATOM     54  C   UNL     1       5.359  -0.162  15.096  1.00  0.00     0.049 A 
ATOM     55  C   UNL     1       8.991   2.015  11.419  1.00  0.00     0.074 A 
ATOM     56  C   UNL     1       5.518   0.206  16.420  1.00  0.00     0.029 A 
ATOM     57  N   UNL     1       6.360   0.476  14.379  1.00  0.00    -0.354 N 
ATOM     58  N   UNL     1       8.226   1.581  12.391  1.00  0.00    -0.248 NA
ATOM     59  C   UNL     1      10.053   2.932  11.855  1.00  0.00     0.031 C 
ATOM     60  C   UNL     1       6.603   1.088  16.501  1.00  0.00     0.029 A 
ATOM     61  C   UNL     1       7.141   1.238  15.232  1.00  0.00     0.049 A 
ATOM     62  H   UNL     1       6.496   0.399  13.407  1.00  0.00     0.167 HD
ATOM     63  C   UNL     1       8.730   2.146  13.555  1.00  0.00     0.074 A 
ATOM     64  C   UNL     1       9.874   2.945  13.168  1.00  0.00     0.031 C 
ATOM     65  C   UNL     1       8.285   2.014  14.829  1.00  0.00     0.037 A 
BRANCH  52  66
ATOM     66  C   UNL     1       3.309  -1.609  15.405  1.00  0.00     0.064 A 
ATOM     67  C   UNL     1       3.287  -2.970  15.745  1.00  0.00     0.173 A 
ATOM     68  C   UNL     1       2.298  -0.787  15.923  1.00  0.00     0.173 A 
ATOM     69  F   UNL     1       4.223  -3.802  15.262  1.00  0.00    -0.203 F 
ATOM     70  C   UNL     1       2.271  -3.494  16.539  1.00  0.00     0.198 A 
ATOM     71  C   UNL     1       1.300  -1.309  16.742  1.00  0.00     0.198 A 
ATOM     72  F   UNL     1       2.274   0.522  15.632  1.00  0.00    -0.203 F 
ATOM     73  F   UNL     1       2.237  -4.809  16.800  1.00  0.00    -0.200 F 
ATOM     74  C   UNL     1       1.281  -2.663  17.041  1.00  0.00     0.200 A 
ATOM     75  F   UNL     1       0.349  -0.503  17.235  1.00  0.00    -0.200 F 
ATOM     76  F   UNL     1       0.302  -3.169  17.804  1.00  0.00    -0.200 F 
ENDBRANCH  52  66
BRANCH  53  77
ATOM     77  C   UNL     1       9.894   2.303   8.997  1.00  0.00     0.064 A 
ATOM     78  C   UNL     1      11.241   1.915   8.996  1.00  0.00     0.173 A 
ATOM     79  C   UNL     1       9.490   3.267   8.063  1.00  0.00     0.173 A 
ATOM     80  F   UNL     1      11.676   1.008   9.883  1.00  0.00    -0.203 F 
ATOM     81  C   UNL     1      12.152   2.480   8.107  1.00  0.00     0.198 A 
ATOM     82  C   UNL     1      10.398   3.815   7.159  1.00  0.00     0.198 A 
ATOM     83  F   UNL     1       8.210   3.665   8.020  1.00  0.00    -0.203 F 
ATOM     84  F   UNL     1      13.441   2.117   8.151  1.00  0.00    -0.200 F 
ATOM     85  C   UNL     1      11.729   3.426   7.186  1.00  0.00     0.200 A 
ATOM     86  F   UNL     1       9.983   4.719   6.261  1.00  0.00    -0.200 F 
ATOM     87  F   UNL     1      12.604   3.965   6.326  1.00  0.00    -0.200 F 
ENDBRANCH  53  77
BRANCH  65  88
ATOM     88  C   UNL     1       9.062   2.717  15.900  1.00  0.00     0.064 A 
ATOM     89  C   UNL     1       9.001   4.108  16.062  1.00  0.00     0.173 A 
ATOM     90  C   UNL     1       9.854   1.983  16.797  1.00  0.00     0.173 A 
ATOM     91  F   UNL     1       8.269   4.854  15.220  1.00  0.00    -0.203 F 
ATOM     92  C   UNL     1       9.725   4.743  17.067  1.00  0.00     0.198 A 
ATOM     93  C   UNL     1      10.556   2.618  17.816  1.00  0.00     0.198 A 
ATOM     94  F   UNL     1       9.940   0.649  16.686  1.00  0.00    -0.203 F 
ATOM     95  F   UNL     1       9.688   6.078  17.175  1.00  0.00    -0.200 F 
ATOM     96  C   UNL     1      10.497   3.998  17.946  1.00  0.00     0.200 A 
ATOM     97  F   UNL     1      11.293   1.896  18.671  1.00  0.00    -0.200 F 
ATOM     98  F   UNL     1      11.191   4.610  18.915  1.00  0.00    -0.200 F 
ENDBRANCH  65  88
ENDBRANCH  39  40
ENDBRANCH  31  34
ENDBRANCH  29  30
ENDBRANCH  28  29
ENDBRANCH   1  28
TORSDOF 14
