REMARK SMILES Cc1ccc(F)c(C(=O)N[C@@H]2C=C[C@@H](C(=O)NCCCCNC(=O)c3ccc(-c4c5nc(c(-c6c(F)c(F)c(F)c(F)c6F)c6ccc([nH]6)c(-c6c(F)c(F)c(F)c(F)c6F)c6nc(c(-c7c(F)c(F)c(F)c(F)c7F)c7ccc4[nH]7)C=C6)C=C5)cc3)C2)c1
REMARK SMILES IDX 19 1 18 2 17 3 15 4 16 5 14 7 11 8 12 9 88 10 13 11 10 12
REMARK SMILES IDX 8 13 9 14 7 16 1 17 2 18 3 19 89 20 4 21 5 22 6 23 20 24
REMARK SMILES IDX 21 25 22 26 23 27 24 29 25 30 26 31 87 32 27 33 86 34 28 35
REMARK SMILES IDX 29 36 30 37 80 38 31 39 85 40 79 41 81 42 32 43 84 44 78 45
REMARK SMILES IDX 77 46 33 48 65 49 45 50 64 51 46 52 49 53 63 54 82 55 47 56
REMARK SMILES IDX 48 57 62 59 83 60 50 61 34 62 35 63 43 64 36 65 37 66 41 67
REMARK SMILES IDX 44 68 38 69 39 70 42 71 40 72 66 73 67 74 75 75 68 76 69 77
REMARK SMILES IDX 73 78 76 79 70 80 71 81 74 82 72 83 51 84 52 85 60 86 53 87
REMARK SMILES IDX 54 88 58 89 61 90 55 91 56 92 59 93 57 94
REMARK H PARENT 17 6 10 15 22 28 81 47 49 58
REMARK Flexibility Score: inf
ROOT
ATOM      1  C   UNL     1      -0.873  -5.322   2.827  1.00  0.00     0.023 C 
ENDROOT
BRANCH   1   2
ATOM      2  C   UNL     1       0.116  -4.282   3.360  1.00  0.00     0.116 C 
BRANCH   2   3
ATOM      3  N   UNL     1       1.383  -4.850   3.775  1.00  0.00    -0.356 N 
ATOM      4  C   UNL     1       2.645  -4.738   3.278  1.00  0.00     0.227 C 
ATOM      5  O   UNL     1       3.546  -5.225   3.971  1.00  0.00    -0.274 OA
ATOM      6  H   UNL     1       1.319  -5.428   4.569  1.00  0.00     0.163 HD
BRANCH   4   7
ATOM      7  C   UNL     1       2.986  -4.137   1.904  1.00  0.00     0.103 C 
ATOM      8  C   UNL     1       1.364  -4.006   0.058  1.00  0.00     0.106 C 
ATOM      9  C   UNL     1       1.751  -2.651   0.566  1.00  0.00    -0.006 C 
ATOM     10  C   UNL     1       2.372  -4.929   0.752  1.00  0.00     0.047 C 
ATOM     11  C   UNL     1       2.583  -2.729   1.614  1.00  0.00    -0.016 C 
BRANCH   8  12
ATOM     12  N   UNL     1       1.376  -4.034  -1.388  1.00  0.00    -0.346 N 
ATOM     13  C   UNL     1       1.136  -5.064  -2.275  1.00  0.00     0.254 C 
ATOM     14  O   UNL     1       0.994  -4.787  -3.464  1.00  0.00    -0.269 OA
ATOM     15  H   UNL     1       1.591  -3.171  -1.811  1.00  0.00     0.164 HD
BRANCH  13  16
ATOM     16  C   UNL     1       1.121  -6.484  -1.842  1.00  0.00     0.075 A 
ATOM     17  C   UNL     1       0.351  -8.538   1.262  1.00  0.00     0.044 C 
ATOM     18  C   UNL     1       0.764  -8.189  -0.139  1.00  0.00    -0.050 A 
ATOM     19  C   UNL     1       1.492  -9.102  -0.903  1.00  0.00     0.006 A 
ATOM     20  C   UNL     1       0.491  -6.917  -0.670  1.00  0.00     0.020 A 
ATOM     21  C   UNL     1       1.996  -8.726  -2.147  1.00  0.00     0.040 A 
ATOM     22  C   UNL     1       1.837  -7.415  -2.595  1.00  0.00     0.135 A 
ATOM     23  F   UNL     1       2.436  -7.071  -3.743  1.00  0.00    -0.206 F 
ENDBRANCH  13  16
ENDBRANCH   8  12
ENDBRANCH   4   7
ENDBRANCH   2   3
ENDBRANCH   1   2
BRANCH   1  24
ATOM     24  C   UNL     1      -1.304  -6.424   3.805  1.00  0.00     0.023 C 
BRANCH  24  25
ATOM     25  C   UNL     1      -2.087  -5.899   4.993  1.00  0.00     0.116 C 
BRANCH  25  26
ATOM     26  N   UNL     1      -3.337  -5.254   4.589  1.00  0.00    -0.352 N 
ATOM     27  C   UNL     1      -4.302  -4.679   5.392  1.00  0.00     0.251 C 
ATOM     28  H   UNL     1      -3.512  -5.226   3.620  1.00  0.00     0.163 HD
ATOM     29  O   UNL     1      -5.432  -4.470   4.980  1.00  0.00    -0.269 OA
BRANCH  27  30
ATOM     30  C   UNL     1      -3.923  -4.304   6.761  1.00  0.00     0.039 A 
ATOM     31  C   UNL     1      -4.772  -4.511   7.856  1.00  0.00     0.014 A 
ATOM     32  C   UNL     1      -2.667  -3.735   6.921  1.00  0.00     0.014 A 
ATOM     33  C   UNL     1      -4.316  -4.191   9.135  1.00  0.00     0.010 A 
ATOM     34  C   UNL     1      -2.152  -3.606   8.174  1.00  0.00     0.010 A 
ATOM     35  C   UNL     1      -2.999  -3.752   9.275  1.00  0.00    -0.014 A 
BRANCH  35  36
ATOM     36  C   UNL     1      -2.392  -3.284  10.505  1.00  0.00     0.031 A 
ATOM     37  C   UNL     1      -2.046  -4.212  11.584  1.00  0.00     0.074 A 
ATOM     38  C   UNL     1      -1.978  -1.998  10.470  1.00  0.00     0.049 A 
ATOM     39  N   UNL     1      -1.931  -3.858  12.815  1.00  0.00    -0.248 NA
ATOM     40  C   UNL     1      -1.794  -5.633  11.363  1.00  0.00     0.031 C 
ATOM     41  C   UNL     1      -1.043  -1.291  11.326  1.00  0.00     0.029 A 
ATOM     42  N   UNL     1      -2.439  -1.010   9.583  1.00  0.00    -0.354 N 
ATOM     43  C   UNL     1      -1.277  -4.880  13.466  1.00  0.00     0.074 A 
ATOM     44  C   UNL     1      -1.329  -6.006  12.563  1.00  0.00     0.031 C 
ATOM     45  C   UNL     1      -1.214   0.034  11.143  1.00  0.00     0.029 A 
ATOM     46  C   UNL     1      -2.368   0.207  10.270  1.00  0.00     0.049 A 
ATOM     47  H   UNL     1      -2.752  -1.147   8.659  1.00  0.00     0.167 HD
ATOM     48  C   UNL     1      -0.592  -4.593  14.611  1.00  0.00     0.037 A 
ATOM     49  C   UNL     1      -3.537   0.831  10.604  1.00  0.00     0.037 A 
ATOM     50  C   UNL     1      -0.678  -3.164  14.905  1.00  0.00     0.049 A 
ATOM     51  C   UNL     1      -3.719   0.859  12.097  1.00  0.00     0.074 A 
ATOM     52  C   UNL     1       0.183  -2.118  14.612  1.00  0.00     0.029 A 
ATOM     53  N   UNL     1      -1.912  -2.587  15.195  1.00  0.00    -0.354 N 
ATOM     54  N   UNL     1      -3.245  -0.050  12.906  1.00  0.00    -0.248 NA
ATOM     55  C   UNL     1      -4.377   1.956  12.793  1.00  0.00     0.031 C 
ATOM     56  C   UNL     1      -0.554  -0.910  14.674  1.00  0.00     0.029 A 
ATOM     57  C   UNL     1      -1.861  -1.217  15.014  1.00  0.00     0.049 A 
ATOM     58  H   UNL     1      -2.709  -3.085  15.488  1.00  0.00     0.167 HD
ATOM     59  C   UNL     1      -3.469   0.343  14.198  1.00  0.00     0.074 A 
ATOM     60  C   UNL     1      -4.192   1.597  14.074  1.00  0.00     0.031 C 
ATOM     61  C   UNL     1      -3.014  -0.369  15.272  1.00  0.00     0.037 A 
BRANCH  48  62
ATOM     62  C   UNL     1       0.414  -5.522  15.250  1.00  0.00     0.064 A 
ATOM     63  C   UNL     1       1.579  -5.021  15.874  1.00  0.00     0.173 A 
ATOM     64  C   UNL     1       0.286  -6.924  15.272  1.00  0.00     0.173 A 
ATOM     65  F   UNL     1       1.806  -3.707  15.987  1.00  0.00    -0.203 F 
ATOM     66  C   UNL     1       2.568  -5.853  16.403  1.00  0.00     0.198 A 
ATOM     67  C   UNL     1       1.296  -7.759  15.770  1.00  0.00     0.198 A 
ATOM     68  F   UNL     1      -0.835  -7.521  14.844  1.00  0.00    -0.203 F 
ATOM     69  F   UNL     1       3.654  -5.312  16.975  1.00  0.00    -0.200 F 
ATOM     70  C   UNL     1       2.439  -7.223  16.331  1.00  0.00     0.200 A 
ATOM     71  F   UNL     1       1.152  -9.090  15.703  1.00  0.00    -0.200 F 
ATOM     72  F   UNL     1       3.401  -8.021  16.814  1.00  0.00    -0.200 F 
ENDBRANCH  48  62
BRANCH  49  73
ATOM     73  C   UNL     1      -4.609   0.594   9.583  1.00  0.00     0.064 A 
ATOM     74  C   UNL     1      -4.375   1.090   8.282  1.00  0.00     0.173 A 
ATOM     75  C   UNL     1      -5.544  -0.444   9.713  1.00  0.00     0.173 A 
ATOM     76  F   UNL     1      -3.494   2.087   8.097  1.00  0.00    -0.203 F 
ATOM     77  C   UNL     1      -4.917   0.470   7.158  1.00  0.00     0.198 A 
ATOM     78  C   UNL     1      -6.105  -1.048   8.581  1.00  0.00     0.198 A 
ATOM     79  F   UNL     1      -5.828  -0.954  10.919  1.00  0.00    -0.203 F 
ATOM     80  F   UNL     1      -4.551   0.873   5.931  1.00  0.00    -0.200 F 
ATOM     81  C   UNL     1      -5.755  -0.621   7.307  1.00  0.00     0.200 A 
ATOM     82  F   UNL     1      -6.924  -2.101   8.722  1.00  0.00    -0.200 F 
ATOM     83  F   UNL     1      -6.194  -1.280   6.226  1.00  0.00    -0.200 F 
ENDBRANCH  49  73
BRANCH  61  84
ATOM     84  C   UNL     1      -3.513  -0.228  16.689  1.00  0.00     0.064 A 
ATOM     85  C   UNL     1      -4.768   0.308  17.021  1.00  0.00     0.173 A 
ATOM     86  C   UNL     1      -2.790  -0.791  17.771  1.00  0.00     0.173 A 
ATOM     87  F   UNL     1      -5.617   0.743  16.082  1.00  0.00    -0.203 F 
ATOM     88  C   UNL     1      -5.227   0.357  18.338  1.00  0.00     0.198 A 
ATOM     89  C   UNL     1      -3.286  -0.809  19.072  1.00  0.00     0.198 A 
ATOM     90  F   UNL     1      -1.595  -1.374  17.601  1.00  0.00    -0.203 F 
ATOM     91  F   UNL     1      -6.405   0.936  18.605  1.00  0.00    -0.200 F 
ATOM     92  C   UNL     1      -4.494  -0.213  19.361  1.00  0.00     0.200 A 
ATOM     93  F   UNL     1      -2.594  -1.430  20.038  1.00  0.00    -0.200 F 
ATOM     94  F   UNL     1      -4.963  -0.210  20.614  1.00  0.00    -0.200 F 
ENDBRANCH  61  84
ENDBRANCH  35  36
ENDBRANCH  27  30
ENDBRANCH  25  26
ENDBRANCH  24  25
ENDBRANCH   1  24
TORSDOF 13
