REMARK SMILES C[C@@H](C(=O)NCCCCNC(=O)c1ccc(-c2c3nc(c(-c4c(F)c(F)c(F)c(F)c4F)c4ccc([nH]4)c(-c4c(F)c(F)c(F)c(F)c4F)c4nc(c(-c5c(F)c(F)c(F)c(F)c5F)c5ccc2[nH]5)C=C4)C=C3)cc1)c1ccc(C[C@@H]2CCC[C@@H]2O)cc1Br
REMARK SMILES IDX 6 1 5 2 3 3 4 4 2 6 1 7 76 8 77 9 88 10 78 11 87 12 89 13
REMARK SMILES IDX 79 14 80 15 81 16 82 17 85 18 83 19 84 20 86 21 7 23 8 24
REMARK SMILES IDX 9 25 10 26 11 27 12 29 13 30 14 31 75 32 15 33 74 34 16 35
REMARK SMILES IDX 17 36 18 37 68 38 19 39 73 40 67 41 69 42 20 43 72 44 66 45
REMARK SMILES IDX 65 46 21 48 53 49 33 50 52 51 34 52 37 53 51 54 70 55 35 56
REMARK SMILES IDX 36 57 50 59 71 60 38 61 22 62 23 63 31 64 24 65 25 66 29 67
REMARK SMILES IDX 32 68 26 69 27 70 30 71 28 72 54 73 55 74 63 75 56 76 57 77
REMARK SMILES IDX 61 78 64 79 58 80 59 81 62 82 60 83 39 84 40 85 48 86 41 87
REMARK SMILES IDX 42 88 46 89 49 90 43 91 44 92 47 93 45 94
REMARK H PARENT 5 5 86 22 10 28 69 47 37 58
REMARK Flexibility Score: inf
ROOT
ATOM      1  C   UNL     1     -10.402   3.877  10.071  1.00  0.00     0.116 C 
ENDROOT
BRANCH   1   2
ATOM      2  N   UNL     1      -9.102   3.443   9.607  1.00  0.00    -0.356 N 
ATOM      3  C   UNL     1      -8.764   2.681   8.527  1.00  0.00     0.227 C 
ATOM      4  O   UNL     1      -7.569   2.394   8.418  1.00  0.00    -0.274 OA
ATOM      5  H   UNL     1      -8.343   3.745  10.157  1.00  0.00     0.163 HD
BRANCH   3   6
ATOM      6  C   UNL     1      -9.840   2.253   7.508  1.00  0.00     0.106 C 
ATOM      7  C   UNL     1     -10.826   1.230   8.081  1.00  0.00     0.023 C 
BRANCH   6   8
ATOM      8  C   UNL     1      -9.221   1.694   6.227  1.00  0.00    -0.022 A 
ATOM      9  C   UNL     1      -8.515   0.475   6.296  1.00  0.00     0.006 A 
ATOM     10  C   UNL     1      -9.303   2.330   4.978  1.00  0.00     0.022 A 
ATOM     11  C   UNL     1      -7.899  -0.077   5.175  1.00  0.00     0.004 A 
ATOM     12  C   UNL     1      -8.671   1.777   3.856  1.00  0.00     0.019 A 
ATOM     13  Br  UNL     1     -10.241   3.961   4.702  1.00  0.00    -0.051 Br
ATOM     14  C   UNL     1      -7.940   0.585   3.949  1.00  0.00    -0.047 A 
BRANCH  14  15
ATOM     15  C   UNL     1      -7.185   0.056   2.756  1.00  0.00     0.041 C 
BRANCH  15  16
ATOM     16  C   UNL     1      -5.664   0.322   2.692  1.00  0.00     0.022 C 
ATOM     17  C   UNL     1      -4.838  -0.358   3.791  1.00  0.00     0.007 C 
ATOM     18  C   UNL     1      -5.201   1.780   2.780  1.00  0.00     0.117 C 
ATOM     19  C   UNL     1      -4.536   0.710   4.845  1.00  0.00     0.003 C 
ATOM     20  C   UNL     1      -5.002   2.042   4.267  1.00  0.00     0.032 C 
BRANCH  18  21
ATOM     21  O   UNL     1      -6.101   2.687   2.176  1.00  0.00    -0.393 OA
ATOM     22  H   UNL     1      -6.965   2.623   2.612  1.00  0.00     0.210 HD
ENDBRANCH  18  21
ENDBRANCH  15  16
ENDBRANCH  14  15
ENDBRANCH   6   8
ENDBRANCH   3   6
ENDBRANCH   1   2
BRANCH   1  23
ATOM     23  C   UNL     1     -10.894   3.005  11.227  1.00  0.00     0.023 C 
BRANCH  23  24
ATOM     24  C   UNL     1     -10.058   3.098  12.508  1.00  0.00     0.023 C 
BRANCH  24  25
ATOM     25  C   UNL     1      -9.896   4.501  13.080  1.00  0.00     0.116 C 
BRANCH  25  26
ATOM     26  N   UNL     1     -11.165   5.152  13.352  1.00  0.00    -0.352 N 
ATOM     27  C   UNL     1     -11.517   5.971  14.393  1.00  0.00     0.251 C 
ATOM     28  H   UNL     1     -11.876   4.980  12.694  1.00  0.00     0.163 HD
ATOM     29  O   UNL     1     -12.687   6.332  14.515  1.00  0.00    -0.269 OA
BRANCH  27  30
ATOM     30  C   UNL     1     -10.510   6.403  15.386  1.00  0.00     0.039 A 
ATOM     31  C   UNL     1     -10.876   6.438  16.735  1.00  0.00     0.014 A 
ATOM     32  C   UNL     1      -9.229   6.809  15.000  1.00  0.00     0.014 A 
ATOM     33  C   UNL     1      -9.952   6.847  17.697  1.00  0.00     0.010 A 
ATOM     34  C   UNL     1      -8.285   7.147  15.967  1.00  0.00     0.010 A 
ATOM     35  C   UNL     1      -8.643   7.191  17.322  1.00  0.00    -0.014 A 
BRANCH  35  36
ATOM     36  C   UNL     1      -7.658   7.646  18.334  1.00  0.00     0.031 A 
ATOM     37  C   UNL     1      -7.150   9.061  18.306  1.00  0.00     0.074 A 
ATOM     38  C   UNL     1      -7.196   6.779  19.255  1.00  0.00     0.049 A 
ATOM     39  N   UNL     1      -6.284   9.647  19.094  1.00  0.00    -0.248 NA
ATOM     40  C   UNL     1      -7.662   9.927  17.232  1.00  0.00     0.031 C 
ATOM     41  C   UNL     1      -7.572   5.368  19.352  1.00  0.00     0.029 A 
ATOM     42  N   UNL     1      -6.308   6.959  20.285  1.00  0.00    -0.354 N 
ATOM     43  C   UNL     1      -6.134  10.936  18.599  1.00  0.00     0.074 A 
ATOM     44  C   UNL     1      -6.956  11.033  17.413  1.00  0.00     0.031 C 
ATOM     45  C   UNL     1      -6.944   4.819  20.405  1.00  0.00     0.029 A 
ATOM     46  C   UNL     1      -6.104   5.830  21.039  1.00  0.00     0.049 A 
ATOM     47  H   UNL     1      -5.860   7.817  20.467  1.00  0.00     0.167 HD
ATOM     48  C   UNL     1      -5.398  11.956  19.103  1.00  0.00     0.037 A 
ATOM     49  C   UNL     1      -5.333   5.639  22.126  1.00  0.00     0.037 A 
ATOM     50  C   UNL     1      -4.614  11.868  20.306  1.00  0.00     0.049 A 
ATOM     51  C   UNL     1      -4.551   6.797  22.685  1.00  0.00     0.074 A 
ATOM     52  C   UNL     1      -3.886  12.862  20.938  1.00  0.00     0.029 A 
ATOM     53  N   UNL     1      -4.458  10.716  21.062  1.00  0.00    -0.354 N 
ATOM     54  N   UNL     1      -4.479   8.033  22.255  1.00  0.00    -0.248 NA
ATOM     55  C   UNL     1      -3.756   6.535  23.893  1.00  0.00     0.031 C 
ATOM     56  C   UNL     1      -3.259  12.301  22.056  1.00  0.00     0.029 A 
ATOM     57  C   UNL     1      -3.635  10.970  22.147  1.00  0.00     0.049 A 
ATOM     58  H   UNL     1      -4.871   9.846  20.858  1.00  0.00     0.167 HD
ATOM     59  C   UNL     1      -3.663   8.704  23.156  1.00  0.00     0.074 A 
ATOM     60  C   UNL     1      -3.274   7.739  24.164  1.00  0.00     0.031 C 
ATOM     61  C   UNL     1      -3.274  10.002  23.151  1.00  0.00     0.037 A 
BRANCH  48  62
ATOM     62  C   UNL     1      -5.414  13.257  18.355  1.00  0.00     0.064 A 
ATOM     63  C   UNL     1      -6.557  14.070  18.314  1.00  0.00     0.173 A 
ATOM     64  C   UNL     1      -4.264  13.709  17.689  1.00  0.00     0.173 A 
ATOM     65  F   UNL     1      -7.686  13.678  18.923  1.00  0.00    -0.203 F 
ATOM     66  C   UNL     1      -6.558  15.271  17.609  1.00  0.00     0.198 A 
ATOM     67  C   UNL     1      -4.260  14.925  17.011  1.00  0.00     0.198 A 
ATOM     68  F   UNL     1      -3.143  12.973  17.700  1.00  0.00    -0.203 F 
ATOM     69  F   UNL     1      -7.678  16.004  17.540  1.00  0.00    -0.200 F 
ATOM     70  C   UNL     1      -5.409  15.700  16.963  1.00  0.00     0.200 A 
ATOM     71  F   UNL     1      -3.145  15.345  16.397  1.00  0.00    -0.200 F 
ATOM     72  F   UNL     1      -5.410  16.858  16.288  1.00  0.00    -0.200 F 
ENDBRANCH  48  62
BRANCH  49  73
ATOM     73  C   UNL     1      -5.305   4.312  22.793  1.00  0.00     0.064 A 
ATOM     74  C   UNL     1      -5.903   4.128  24.048  1.00  0.00     0.173 A 
ATOM     75  C   UNL     1      -4.680   3.207  22.199  1.00  0.00     0.173 A 
ATOM     76  F   UNL     1      -6.496   5.162  24.664  1.00  0.00    -0.203 F 
ATOM     77  C   UNL     1      -5.855   2.896  24.695  1.00  0.00     0.198 A 
ATOM     78  C   UNL     1      -4.656   1.967  22.836  1.00  0.00     0.198 A 
ATOM     79  F   UNL     1      -4.100   3.329  20.997  1.00  0.00    -0.203 F 
ATOM     80  F   UNL     1      -6.394   2.761  25.915  1.00  0.00    -0.200 F 
ATOM     81  C   UNL     1      -5.236   1.815  24.086  1.00  0.00     0.200 A 
ATOM     82  F   UNL     1      -4.068   0.921  22.239  1.00  0.00    -0.200 F 
ATOM     83  F   UNL     1      -5.191   0.629  24.708  1.00  0.00    -0.200 F 
ENDBRANCH  49  73
BRANCH  61  84
ATOM     84  C   UNL     1      -2.424  10.468  24.297  1.00  0.00     0.064 A 
ATOM     85  C   UNL     1      -1.083  10.078  24.429  1.00  0.00     0.173 A 
ATOM     86  C   UNL     1      -2.954  11.339  25.261  1.00  0.00     0.173 A 
ATOM     87  F   UNL     1      -0.535   9.236  23.541  1.00  0.00    -0.203 F 
ATOM     88  C   UNL     1      -0.314  10.519  25.502  1.00  0.00     0.198 A 
ATOM     89  C   UNL     1      -2.173  11.801  26.316  1.00  0.00     0.198 A 
ATOM     90  F   UNL     1      -4.229  11.747  25.176  1.00  0.00    -0.203 F 
ATOM     91  F   UNL     1       0.950  10.092  25.637  1.00  0.00    -0.200 F 
ATOM     92  C   UNL     1      -0.857  11.384  26.441  1.00  0.00     0.200 A 
ATOM     93  F   UNL     1      -2.696  12.647  27.215  1.00  0.00    -0.200 F 
ATOM     94  F   UNL     1      -0.113  11.809  27.471  1.00  0.00    -0.200 F 
ENDBRANCH  61  84
ENDBRANCH  35  36
ENDBRANCH  27  30
ENDBRANCH  25  26
ENDBRANCH  24  25
ENDBRANCH  23  24
ENDBRANCH   1  23
TORSDOF 15
