REMARK SMILES C[C@@H](C(=O)NCc1ccco1)[N@H+]1CCCC[C@@H]1C(=O)NCCCCNC(=O)c1ccc(-c2c3nc(c(-c4c(F)c(F)c(F)c(F)c4F)c4ccc([nH]4)c(-c4c(F)c(F)c(F)c(F)c4F)c4nc(c(-c5c(F)c(F)c(F)c(F)c5F)c5ccc2[nH]5)C=C4)C=C3)cc1
REMARK SMILES IDX 21 1 20 2 18 3 19 4 17 6 12 7 13 8 14 10 16 11 15 12 2 13
REMARK SMILES IDX 1 14 3 15 4 16 5 17 6 19 7 20 8 21 11 22 9 23 10 24 22 25
REMARK SMILES IDX 23 26 24 27 25 28 26 29 27 31 28 32 29 33 90 34 30 35 89 36
REMARK SMILES IDX 31 37 32 38 33 39 83 40 34 41 88 42 82 43 84 44 35 45 87 46
REMARK SMILES IDX 81 47 80 48 36 50 68 51 48 52 67 53 49 54 52 55 66 56 85 57
REMARK SMILES IDX 50 58 51 59 65 61 86 62 53 63 37 64 38 65 46 66 39 67 40 68
REMARK SMILES IDX 44 69 47 70 41 71 42 72 45 73 43 74 69 75 70 76 78 77 71 78
REMARK SMILES IDX 72 79 76 80 79 81 73 82 74 83 77 84 75 85 54 86 55 87 63 88
REMARK SMILES IDX 56 89 57 90 61 91 64 92 58 93 59 94 62 95 60 96
REMARK H PARENT 20 5 12 9 5 18 25 30 84 49 52 60
REMARK Flexibility Score: inf
ROOT
ATOM      1  C   UNL     1      -2.212  -1.101   0.842  1.00  0.00     0.116 C 
ENDROOT
BRANCH   1   2
ATOM      2  N   UNL     1      -1.513  -2.016  -0.037  1.00  0.00    -0.351 N 
ATOM      3  C   UNL     1      -1.222  -1.896  -1.365  1.00  0.00     0.278 C 
ATOM      4  O   UNL     1      -0.616  -2.833  -1.892  1.00  0.00    -0.268 OA
ATOM      5  H   UNL     1      -1.200  -2.848   0.387  1.00  0.00     0.163 HD
BRANCH   3   6
ATOM      6  C   UNL     1      -1.623  -0.642  -2.165  1.00  0.00     0.274 C 
ATOM      7  N   UNL     1      -0.980   0.600  -1.626  1.00  0.00    -0.315 N 
ATOM      8  C   UNL     1      -1.461   1.794  -2.338  1.00  0.00     0.263 C 
ATOM      9  H   UNL     1      -1.278   0.615  -0.650  1.00  0.00     0.349 HD
ATOM     10  C   UNL     1      -2.983   1.915  -2.272  1.00  0.00     0.062 C 
ATOM     11  C   UNL     1      -3.164  -0.570  -2.266  1.00  0.00     0.076 C 
ATOM     12  C   UNL     1      -3.647   0.714  -2.923  1.00  0.00     0.012 C 
BRANCH   7  13
ATOM     13  C   UNL     1       0.531   0.608  -1.552  1.00  0.00     0.271 C 
ATOM     14  C   UNL     1       0.969   0.003  -0.213  1.00  0.00     0.086 C 
BRANCH  13  15
ATOM     15  C   UNL     1       1.263   0.019  -2.796  1.00  0.00     0.278 C 
ATOM     16  O   UNL     1       0.695  -0.241  -3.860  1.00  0.00    -0.268 OA
ATOM     17  N   UNL     1       2.614  -0.147  -2.807  1.00  0.00    -0.344 N 
ATOM     18  H   UNL     1       2.944  -0.766  -3.498  1.00  0.00     0.164 HD
BRANCH  17  19
ATOM     19  C   UNL     1       3.646   0.430  -1.978  1.00  0.00     0.191 C 
BRANCH  19  20
ATOM     20  C   UNL     1       4.394  -0.604  -1.214  1.00  0.00     0.122 A 
ATOM     21  C   UNL     1       5.476  -0.520  -0.359  1.00  0.00     0.047 A 
ATOM     22  O   UNL     1       4.018  -1.911  -1.347  1.00  0.00    -0.467 OA
ATOM     23  C   UNL     1       5.777  -1.844   0.046  1.00  0.00     0.042 A 
ATOM     24  C   UNL     1       4.860  -2.652  -0.582  1.00  0.00     0.195 A 
ENDBRANCH  19  20
ENDBRANCH  17  19
ENDBRANCH  13  15
ENDBRANCH   7  13
ENDBRANCH   3   6
ENDBRANCH   1   2
BRANCH   1  25
ATOM     25  C   UNL     1      -3.511  -1.729   1.341  1.00  0.00     0.023 C 
BRANCH  25  26
ATOM     26  C   UNL     1      -3.299  -2.912   2.289  1.00  0.00     0.023 C 
BRANCH  26  27
ATOM     27  C   UNL     1      -2.460  -2.596   3.523  1.00  0.00     0.116 C 
BRANCH  27  28
ATOM     28  N   UNL     1      -3.013  -1.503   4.307  1.00  0.00    -0.352 N 
ATOM     29  C   UNL     1      -3.215  -1.420   5.659  1.00  0.00     0.251 C 
ATOM     30  H   UNL     1      -3.280  -0.708   3.792  1.00  0.00     0.163 HD
ATOM     31  O   UNL     1      -3.857  -0.483   6.129  1.00  0.00    -0.269 OA
BRANCH  29  32
ATOM     32  C   UNL     1      -2.686  -2.470   6.552  1.00  0.00     0.039 A 
ATOM     33  C   UNL     1      -3.502  -2.944   7.580  1.00  0.00     0.014 A 
ATOM     34  C   UNL     1      -1.397  -2.986   6.382  1.00  0.00     0.014 A 
ATOM     35  C   UNL     1      -3.044  -3.971   8.405  1.00  0.00     0.010 A 
ATOM     36  C   UNL     1      -0.975  -4.067   7.151  1.00  0.00     0.010 A 
ATOM     37  C   UNL     1      -1.791  -4.566   8.175  1.00  0.00    -0.014 A 
BRANCH  37  38
ATOM     38  C   UNL     1      -1.355  -5.725   8.994  1.00  0.00     0.031 A 
ATOM     39  C   UNL     1      -0.155  -5.629   9.892  1.00  0.00     0.074 A 
ATOM     40  C   UNL     1      -2.043  -6.880   8.908  1.00  0.00     0.049 A 
ATOM     41  N   UNL     1       0.326  -6.517  10.725  1.00  0.00    -0.248 NA
ATOM     42  C   UNL     1       0.625  -4.384   9.830  1.00  0.00     0.031 C 
ATOM     43  C   UNL     1      -3.177  -7.121   8.014  1.00  0.00     0.029 A 
ATOM     44  N   UNL     1      -1.897  -8.064   9.585  1.00  0.00    -0.354 N 
ATOM     45  C   UNL     1       1.460  -5.941  11.281  1.00  0.00     0.074 A 
ATOM     46  C   UNL     1       1.634  -4.653  10.646  1.00  0.00     0.031 C 
ATOM     47  C   UNL     1      -3.652  -8.357   8.230  1.00  0.00     0.029 A 
ATOM     48  C   UNL     1      -2.839  -9.006   9.253  1.00  0.00     0.049 A 
ATOM     49  H   UNL     1      -1.185  -8.223  10.246  1.00  0.00     0.167 HD
ATOM     50  C   UNL     1       2.268  -6.431  12.253  1.00  0.00     0.037 A 
ATOM     51  C   UNL     1      -3.032 -10.251   9.727  1.00  0.00     0.037 A 
ATOM     52  C   UNL     1       2.084  -7.711  12.888  1.00  0.00     0.049 A 
ATOM     53  C   UNL     1      -2.137 -10.761  10.822  1.00  0.00     0.074 A 
ATOM     54  C   UNL     1       2.807  -8.274  13.925  1.00  0.00     0.029 A 
ATOM     55  N   UNL     1       1.109  -8.635  12.536  1.00  0.00    -0.354 N 
ATOM     56  N   UNL     1      -1.126 -10.169  11.411  1.00  0.00    -0.248 NA
ATOM     57  C   UNL     1      -2.425 -12.108  11.333  1.00  0.00     0.031 C 
ATOM     58  C   UNL     1       2.309  -9.560  14.161  1.00  0.00     0.029 A 
ATOM     59  C   UNL     1       1.230  -9.774  13.319  1.00  0.00     0.049 A 
ATOM     60  H   UNL     1       0.431  -8.502  11.835  1.00  0.00     0.167 HD
ATOM     61  C   UNL     1      -0.673 -11.057  12.377  1.00  0.00     0.074 A 
ATOM     62  C   UNL     1      -1.539 -12.217  12.312  1.00  0.00     0.031 C 
ATOM     63  C   UNL     1       0.366 -10.926  13.239  1.00  0.00     0.037 A 
BRANCH  50  64
ATOM     64  C   UNL     1       3.429  -5.580  12.687  1.00  0.00     0.064 A 
ATOM     65  C   UNL     1       3.244  -4.372  13.377  1.00  0.00     0.173 A 
ATOM     66  C   UNL     1       4.747  -5.995  12.440  1.00  0.00     0.173 A 
ATOM     67  F   UNL     1       2.006  -3.922  13.630  1.00  0.00    -0.203 F 
ATOM     68  C   UNL     1       4.331  -3.596  13.773  1.00  0.00     0.198 A 
ATOM     69  C   UNL     1       5.832  -5.234  12.869  1.00  0.00     0.198 A 
ATOM     70  F   UNL     1       4.985  -7.144  11.789  1.00  0.00    -0.203 F 
ATOM     71  F   UNL     1       4.126  -2.419  14.381  1.00  0.00    -0.200 F 
ATOM     72  C   UNL     1       5.623  -4.032  13.526  1.00  0.00     0.200 A 
ATOM     73  F   UNL     1       7.081  -5.664  12.642  1.00  0.00    -0.200 F 
ATOM     74  F   UNL     1       6.668  -3.288  13.915  1.00  0.00    -0.200 F 
ENDBRANCH  50  64
BRANCH  51  75
ATOM     75  C   UNL     1      -4.145 -11.081   9.195  1.00  0.00     0.064 A 
ATOM     76  C   UNL     1      -5.255 -11.400   9.989  1.00  0.00     0.173 A 
ATOM     77  C   UNL     1      -4.123 -11.569   7.880  1.00  0.00     0.173 A 
ATOM     78  F   UNL     1      -5.315 -10.972  11.259  1.00  0.00    -0.203 F 
ATOM     79  C   UNL     1      -6.289 -12.194   9.497  1.00  0.00     0.198 A 
ATOM     80  C   UNL     1      -5.172 -12.335   7.378  1.00  0.00     0.198 A 
ATOM     81  F   UNL     1      -3.088 -11.284   7.075  1.00  0.00    -0.203 F 
ATOM     82  F   UNL     1      -7.314 -12.525  10.294  1.00  0.00    -0.200 F 
ATOM     83  C   UNL     1      -6.250 -12.656   8.190  1.00  0.00     0.200 A 
ATOM     84  F   UNL     1      -5.139 -12.763   6.109  1.00  0.00    -0.200 F 
ATOM     85  F   UNL     1      -7.247 -13.414   7.715  1.00  0.00    -0.200 F 
ENDBRANCH  51  75
BRANCH  63  86
ATOM     86  C   UNL     1       0.599 -12.056  14.203  1.00  0.00     0.064 A 
ATOM     87  C   UNL     1       1.040 -13.318  13.774  1.00  0.00     0.173 A 
ATOM     88  C   UNL     1       0.373 -11.874  15.576  1.00  0.00     0.173 A 
ATOM     89  F   UNL     1       1.259 -13.549  12.470  1.00  0.00    -0.203 F 
ATOM     90  C   UNL     1       1.196 -14.367  14.676  1.00  0.00     0.198 A 
ATOM     91  C   UNL     1       0.569 -12.915  16.480  1.00  0.00     0.198 A 
ATOM     92  F   UNL     1      -0.038 -10.686  16.044  1.00  0.00    -0.203 F 
ATOM     93  F   UNL     1       1.544 -15.583  14.232  1.00  0.00    -0.200 F 
ATOM     94  C   UNL     1       0.965 -14.164  16.028  1.00  0.00     0.200 A 
ATOM     95  F   UNL     1       0.362 -12.711  17.788  1.00  0.00    -0.200 F 
ATOM     96  F   UNL     1       1.112 -15.176  16.893  1.00  0.00    -0.200 F 
ENDBRANCH  63  86
ENDBRANCH  37  38
ENDBRANCH  29  32
ENDBRANCH  27  28
ENDBRANCH  26  27
ENDBRANCH  25  26
ENDBRANCH   1  25
TORSDOF 15
