REMARK SMILES CC(=O)Oc1ccc(Br)cc1C(=O)NCC(=O)NCCCCNC(=O)c1ccc(-c2c3nc(c(-c4c(F)c(F)c(F)c(F)c4F)c4ccc([nH]4)c(-c4c(F)c(F)c(F)c(F)c4F)c4nc(c(-c5c(F)c(F)c(F)c(F)c5F)c5ccc2[nH]5)C=C4)C=C3)cc1
REMARK SMILES IDX 19 1 18 2 16 3 17 4 15 6 14 7 12 8 13 9 11 11 5 12 6 13 7 14
REMARK SMILES IDX 10 15 8 16 9 17 4 18 2 19 1 20 3 21 20 22 21 23 22 24 23 25
REMARK SMILES IDX 24 26 25 28 26 29 27 30 88 31 28 32 87 33 29 34 30 35 31 36
REMARK SMILES IDX 81 37 32 38 86 39 80 40 82 41 33 42 85 43 79 44 78 45 34 47
REMARK SMILES IDX 66 48 46 49 65 50 47 51 50 52 64 53 83 54 48 55 49 56 63 58
REMARK SMILES IDX 84 59 51 60 35 61 36 62 44 63 37 64 38 65 42 66 45 67 39 68
REMARK SMILES IDX 40 69 43 70 41 71 67 72 68 73 76 74 69 75 70 76 74 77 77 78
REMARK SMILES IDX 71 79 72 80 75 81 73 82 52 83 53 84 61 85 54 86 55 87 59 88
REMARK SMILES IDX 62 89 56 90 57 91 60 92 58 93
REMARK H PARENT 18 5 14 10 23 27 82 46 50 57
REMARK Flexibility Score: inf
ROOT
ATOM      1  C   UNL     1       2.761  -1.089   3.635  1.00  0.00     0.116 C 
ENDROOT
BRANCH   1   2
ATOM      2  N   UNL     1       3.377  -0.400   2.526  1.00  0.00    -0.355 N 
ATOM      3  C   UNL     1       3.621  -0.804   1.255  1.00  0.00     0.239 C 
ATOM      4  O   UNL     1       4.080   0.049   0.486  1.00  0.00    -0.273 OA
ATOM      5  H   UNL     1       3.670   0.519   2.727  1.00  0.00     0.163 HD
BRANCH   3   6
ATOM      6  C   UNL     1       3.186  -2.167   0.693  1.00  0.00     0.216 C 
BRANCH   6   7
ATOM      7  N   UNL     1       3.200  -3.372   1.496  1.00  0.00    -0.343 N 
ATOM      8  C   UNL     1       2.294  -4.206   2.083  1.00  0.00     0.255 C 
ATOM      9  O   UNL     1       2.777  -5.295   2.418  1.00  0.00    -0.269 OA
ATOM     10  H   UNL     1       4.122  -3.673   1.666  1.00  0.00     0.164 HD
BRANCH   8  11
ATOM     11  C   UNL     1       0.866  -3.942   2.463  1.00  0.00     0.083 A 
ATOM     12  C   UNL     1      -0.066  -3.022   1.961  1.00  0.00     0.143 A 
ATOM     13  C   UNL     1      -1.384  -2.978   2.467  1.00  0.00     0.049 A 
ATOM     14  C   UNL     1      -1.779  -3.798   3.520  1.00  0.00     0.019 A 
ATOM     15  C   UNL     1       0.427  -4.766   3.533  1.00  0.00     0.033 A 
ATOM     16  C   UNL     1      -0.865  -4.689   4.054  1.00  0.00     0.019 A 
ATOM     17  Br  UNL     1      -1.369  -5.809   5.490  1.00  0.00    -0.051 Br
BRANCH  12  18
ATOM     18  O   UNL     1       0.203  -2.173   0.881  1.00  0.00    -0.426 OA
BRANCH  18  19
ATOM     19  C   UNL     1       0.028  -0.807   1.128  1.00  0.00     0.308 C 
ATOM     20  C   UNL     1       0.203  -0.041  -0.151  1.00  0.00     0.139 C 
ATOM     21  O   UNL     1      -0.177  -0.290   2.218  1.00  0.00    -0.252 OA
ENDBRANCH  18  19
ENDBRANCH  12  18
ENDBRANCH   8  11
ENDBRANCH   6   7
ENDBRANCH   3   6
ENDBRANCH   1   2
BRANCH   1  22
ATOM     22  C   UNL     1       3.793  -1.650   4.606  1.00  0.00     0.023 C 
BRANCH  22  23
ATOM     23  C   UNL     1       4.560  -0.575   5.380  1.00  0.00     0.023 C 
BRANCH  23  24
ATOM     24  C   UNL     1       3.693   0.344   6.235  1.00  0.00     0.116 C 
BRANCH  24  25
ATOM     25  N   UNL     1       2.982  -0.362   7.288  1.00  0.00    -0.352 N 
ATOM     26  C   UNL     1       2.786   0.019   8.596  1.00  0.00     0.251 C 
ATOM     27  H   UNL     1       2.589  -1.228   7.031  1.00  0.00     0.163 HD
ATOM     28  O   UNL     1       2.282  -0.746   9.401  1.00  0.00    -0.269 OA
BRANCH  26  29
ATOM     29  C   UNL     1       3.225   1.365   9.025  1.00  0.00     0.039 A 
ATOM     30  C   UNL     1       3.982   1.487  10.193  1.00  0.00     0.014 A 
ATOM     31  C   UNL     1       2.904   2.496   8.270  1.00  0.00     0.014 A 
ATOM     32  C   UNL     1       4.465   2.740  10.574  1.00  0.00     0.010 A 
ATOM     33  C   UNL     1       3.446   3.731   8.611  1.00  0.00     0.010 A 
ATOM     34  C   UNL     1       4.225   3.867   9.771  1.00  0.00    -0.014 A 
BRANCH  34  35
ATOM     35  C   UNL     1       4.756   5.203  10.141  1.00  0.00     0.031 A 
ATOM     36  C   UNL     1       3.806   6.320  10.473  1.00  0.00     0.074 A 
ATOM     37  C   UNL     1       6.083   5.428  10.120  1.00  0.00     0.049 A 
ATOM     38  N   UNL     1       4.063   7.574  10.748  1.00  0.00    -0.248 NA
ATOM     39  C   UNL     1       2.372   5.991  10.464  1.00  0.00     0.031 C 
ATOM     40  C   UNL     1       7.104   4.439   9.769  1.00  0.00     0.029 A 
ATOM     41  N   UNL     1       6.802   6.566  10.389  1.00  0.00    -0.354 N 
ATOM     42  C   UNL     1       2.828   8.182  10.926  1.00  0.00     0.074 A 
ATOM     43  C   UNL     1       1.820   7.176  10.672  1.00  0.00     0.031 C 
ATOM     44  C   UNL     1       8.317   5.007   9.865  1.00  0.00     0.029 A 
ATOM     45  C   UNL     1       8.159   6.407  10.249  1.00  0.00     0.049 A 
ATOM     46  H   UNL     1       6.384   7.416  10.656  1.00  0.00     0.167 HD
ATOM     47  C   UNL     1       2.558   9.458  11.294  1.00  0.00     0.037 A 
ATOM     48  C   UNL     1       9.161   7.292  10.410  1.00  0.00     0.037 A 
ATOM     49  C   UNL     1       3.563  10.448  11.575  1.00  0.00     0.049 A 
ATOM     50  C   UNL     1       8.834   8.702  10.827  1.00  0.00     0.074 A 
ATOM     51  C   UNL     1       3.395  11.752  12.005  1.00  0.00     0.029 A 
ATOM     52  N   UNL     1       4.930  10.239  11.454  1.00  0.00    -0.354 N 
ATOM     53  N   UNL     1       7.665   9.249  11.054  1.00  0.00    -0.248 NA
ATOM     54  C   UNL     1       9.970   9.614  11.020  1.00  0.00     0.031 C 
ATOM     55  C   UNL     1       4.658  12.346  12.104  1.00  0.00     0.029 A 
ATOM     56  C   UNL     1       5.616  11.396  11.787  1.00  0.00     0.049 A 
ATOM     57  H   UNL     1       5.350   9.395  11.172  1.00  0.00     0.167 HD
ATOM     58  C   UNL     1       7.925  10.554  11.451  1.00  0.00     0.074 A 
ATOM     59  C   UNL     1       9.364  10.714  11.444  1.00  0.00     0.031 C 
ATOM     60  C   UNL     1       7.050  11.532  11.792  1.00  0.00     0.037 A 
BRANCH  47  61
ATOM     61  C   UNL     1       1.114   9.852  11.418  1.00  0.00     0.064 A 
ATOM     62  C   UNL     1       0.298   9.346  12.441  1.00  0.00     0.173 A 
ATOM     63  C   UNL     1       0.545  10.767  10.519  1.00  0.00     0.173 A 
ATOM     64  F   UNL     1       0.789   8.458  13.319  1.00  0.00    -0.203 F 
ATOM     65  C   UNL     1      -1.041   9.715  12.540  1.00  0.00     0.198 A 
ATOM     66  C   UNL     1      -0.785  11.159  10.641  1.00  0.00     0.198 A 
ATOM     67  F   UNL     1       1.281  11.286   9.524  1.00  0.00    -0.203 F 
ATOM     68  F   UNL     1      -1.814   9.176  13.493  1.00  0.00    -0.200 F 
ATOM     69  C   UNL     1      -1.579  10.626  11.645  1.00  0.00     0.200 A 
ATOM     70  F   UNL     1      -1.301  12.050   9.783  1.00  0.00    -0.200 F 
ATOM     71  F   UNL     1      -2.867  10.986  11.745  1.00  0.00    -0.200 F 
ENDBRANCH  47  61
BRANCH  48  72
ATOM     72  C   UNL     1      10.570   6.866  10.211  1.00  0.00     0.064 A 
ATOM     73  C   UNL     1      11.453   6.769  11.297  1.00  0.00     0.173 A 
ATOM     74  C   UNL     1      11.068   6.558   8.937  1.00  0.00     0.173 A 
ATOM     75  F   UNL     1      11.028   7.073  12.532  1.00  0.00    -0.203 F 
ATOM     76  C   UNL     1      12.784   6.404  11.113  1.00  0.00     0.198 A 
ATOM     77  C   UNL     1      12.393   6.165   8.758  1.00  0.00     0.198 A 
ATOM     78  F   UNL     1      10.265   6.630   7.866  1.00  0.00    -0.203 F 
ATOM     79  F   UNL     1      13.618   6.368  12.161  1.00  0.00    -0.200 F 
ATOM     80  C   UNL     1      13.252   6.097   9.844  1.00  0.00     0.200 A 
ATOM     81  F   UNL     1      12.838   5.856   7.532  1.00  0.00    -0.200 F 
ATOM     82  F   UNL     1      14.533   5.745   9.667  1.00  0.00    -0.200 F 
ENDBRANCH  48  72
BRANCH  60  83
ATOM     83  C   UNL     1       7.625  12.846  12.237  1.00  0.00     0.064 A 
ATOM     84  C   UNL     1       8.246  13.725  11.338  1.00  0.00     0.173 A 
ATOM     85  C   UNL     1       7.519  13.244  13.579  1.00  0.00     0.173 A 
ATOM     86  F   UNL     1       8.385  13.384  10.048  1.00  0.00    -0.203 F 
ATOM     87  C   UNL     1       8.766  14.941  11.772  1.00  0.00     0.198 A 
ATOM     88  C   UNL     1       8.012  14.475  14.002  1.00  0.00     0.198 A 
ATOM     89  F   UNL     1       6.926  12.444  14.477  1.00  0.00    -0.203 F 
ATOM     90  F   UNL     1       9.402  15.743  10.906  1.00  0.00    -0.200 F 
ATOM     91  C   UNL     1       8.643  15.318  13.101  1.00  0.00     0.200 A 
ATOM     92  F   UNL     1       7.878  14.843  15.284  1.00  0.00    -0.200 F 
ATOM     93  F   UNL     1       9.139  16.492  13.515  1.00  0.00    -0.200 F 
ENDBRANCH  60  83
ENDBRANCH  34  35
ENDBRANCH  26  29
ENDBRANCH  24  25
ENDBRANCH  23  24
ENDBRANCH  22  23
ENDBRANCH   1  22
TORSDOF 15
