REMARK SMILES Cc1cc(C)n(CC(=O)N[C@H]2C=C[C@@H](C(=O)NCCCCNC(=O)c3ccc(-c4c5nc(c(-c6c(F)c(F)c(F)c(F)c6F)c6ccc([nH]6)c(-c6c(F)c(F)c(F)c(F)c6F)c6nc(c(-c7c(F)c(F)c(F)c(F)c7F)c7ccc4[nH]7)C=C6)C=C5)cc3)C2)n1
REMARK SMILES IDX 19 1 18 2 17 3 15 4 16 5 14 7 11 8 12 9 88 10 13 11 10 12
REMARK SMILES IDX 8 13 9 14 7 16 6 17 1 18 2 19 3 20 89 21 4 22 5 23 20 24
REMARK SMILES IDX 21 25 22 26 23 27 24 29 25 30 26 31 87 32 27 33 86 34 28 35
REMARK SMILES IDX 29 36 30 37 80 38 31 39 85 40 79 41 81 42 32 43 84 44 78 45
REMARK SMILES IDX 77 46 33 48 65 49 45 50 64 51 46 52 49 53 63 54 82 55 47 56
REMARK SMILES IDX 48 57 62 59 83 60 50 61 34 62 35 63 43 64 36 65 37 66 41 67
REMARK SMILES IDX 44 68 38 69 39 70 42 71 40 72 66 73 67 74 75 75 68 76 69 77
REMARK SMILES IDX 73 78 76 79 70 80 71 81 74 82 72 83 51 84 52 85 60 86 53 87
REMARK SMILES IDX 54 88 58 89 61 90 55 91 56 92 59 93 57 94
REMARK H PARENT 17 6 10 15 22 28 81 47 49 58
REMARK Flexibility Score: inf
ROOT
ATOM      1  C   UNL     1      -1.612  -3.167   4.682  1.00  0.00     0.023 C 
ENDROOT
BRANCH   1   2
ATOM      2  C   UNL     1      -2.816  -2.233   4.448  1.00  0.00     0.116 C 
BRANCH   2   3
ATOM      3  N   UNL     1      -2.421  -0.847   4.255  1.00  0.00    -0.356 N 
ATOM      4  C   UNL     1      -2.643   0.053   3.253  1.00  0.00     0.227 C 
ATOM      5  O   UNL     1      -2.176   1.186   3.430  1.00  0.00    -0.274 OA
ATOM      6  H   UNL     1      -1.886  -0.484   4.998  1.00  0.00     0.163 HD
BRANCH   4   7
ATOM      7  C   UNL     1      -3.378  -0.254   1.927  1.00  0.00     0.103 C 
ATOM      8  C   UNL     1      -3.543  -2.264   0.480  1.00  0.00     0.106 C 
ATOM      9  C   UNL     1      -4.816  -1.970   1.216  1.00  0.00    -0.006 C 
ATOM     10  C   UNL     1      -2.593  -1.199   1.020  1.00  0.00     0.047 C 
ATOM     11  C   UNL     1      -4.722  -0.894   2.009  1.00  0.00    -0.016 C 
BRANCH   8  12
ATOM     12  N   UNL     1      -3.266  -3.694   0.605  1.00  0.00    -0.348 N 
ATOM     13  C   UNL     1      -2.185  -4.480   0.874  1.00  0.00     0.242 C 
ATOM     14  O   UNL     1      -2.280  -5.676   0.577  1.00  0.00    -0.273 OA
ATOM     15  H   UNL     1      -4.076  -4.233   0.456  1.00  0.00     0.164 HD
BRANCH  13  16
ATOM     16  C   UNL     1      -1.000  -4.004   1.656  1.00  0.00     0.244 C 
BRANCH  16  17
ATOM     17  N   UNL     1       0.054  -3.353   0.916  1.00  0.00    -0.260 N 
ATOM     18  C   UNL     1       1.363  -0.229  -0.015  1.00  0.00     0.069 C 
ATOM     19  C   UNL     1       1.113  -1.675   0.189  1.00  0.00     0.060 A 
ATOM     20  C   UNL     1       1.603  -2.801  -0.510  1.00  0.00     0.048 A 
ATOM     21  N   UNL     1       0.304  -2.058   1.174  1.00  0.00    -0.178 NA
ATOM     22  C   UNL     1       0.977  -3.893   0.067  1.00  0.00     0.036 A 
ATOM     23  C   UNL     1       1.137  -5.352  -0.113  1.00  0.00     0.066 C 
ENDBRANCH  16  17
ENDBRANCH  13  16
ENDBRANCH   8  12
ENDBRANCH   4   7
ENDBRANCH   2   3
ENDBRANCH   1   2
BRANCH   1  24
ATOM     24  C   UNL     1      -1.028  -3.369   6.076  1.00  0.00     0.023 C 
BRANCH  24  25
ATOM     25  C   UNL     1      -1.971  -4.014   7.067  1.00  0.00     0.116 C 
BRANCH  25  26
ATOM     26  N   UNL     1      -2.382  -5.388   6.737  1.00  0.00    -0.352 N 
ATOM     27  C   UNL     1      -3.267  -6.176   7.464  1.00  0.00     0.251 C 
ATOM     28  H   UNL     1      -1.994  -5.786   5.924  1.00  0.00     0.163 HD
ATOM     29  O   UNL     1      -3.320  -7.396   7.347  1.00  0.00    -0.269 OA
BRANCH  27  30
ATOM     30  C   UNL     1      -4.183  -5.468   8.369  1.00  0.00     0.039 A 
ATOM     31  C   UNL     1      -4.301  -5.758   9.732  1.00  0.00     0.014 A 
ATOM     32  C   UNL     1      -4.758  -4.336   7.811  1.00  0.00     0.014 A 
ATOM     33  C   UNL     1      -4.925  -4.820  10.554  1.00  0.00     0.010 A 
ATOM     34  C   UNL     1      -5.095  -3.321   8.650  1.00  0.00     0.010 A 
ATOM     35  C   UNL     1      -5.290  -3.586  10.000  1.00  0.00    -0.014 A 
BRANCH  35  36
ATOM     36  C   UNL     1      -5.795  -2.469  10.784  1.00  0.00     0.031 A 
ATOM     37  C   UNL     1      -4.881  -1.991  11.855  1.00  0.00     0.074 A 
ATOM     38  C   UNL     1      -6.851  -1.751  10.334  1.00  0.00     0.049 A 
ATOM     39  N   UNL     1      -5.083  -2.019  13.130  1.00  0.00    -0.248 NA
ATOM     40  C   UNL     1      -3.521  -1.562  11.483  1.00  0.00     0.031 C 
ATOM     41  C   UNL     1      -7.623  -1.942   9.095  1.00  0.00     0.029 A 
ATOM     42  N   UNL     1      -7.375  -0.598  10.823  1.00  0.00    -0.354 N 
ATOM     43  C   UNL     1      -3.976  -1.401  13.708  1.00  0.00     0.074 A 
ATOM     44  C   UNL     1      -2.970  -1.356  12.682  1.00  0.00     0.031 C 
ATOM     45  C   UNL     1      -8.322  -0.824   8.811  1.00  0.00     0.029 A 
ATOM     46  C   UNL     1      -8.200   0.085   9.931  1.00  0.00     0.049 A 
ATOM     47  H   UNL     1      -7.189  -0.272  11.733  1.00  0.00     0.167 HD
ATOM     48  C   UNL     1      -4.099  -0.725  14.887  1.00  0.00     0.037 A 
ATOM     49  C   UNL     1      -8.704   1.333  10.105  1.00  0.00     0.037 A 
ATOM     50  C   UNL     1      -5.336  -1.083  15.545  1.00  0.00     0.049 A 
ATOM     51  C   UNL     1      -8.636   1.616  11.564  1.00  0.00     0.074 A 
ATOM     52  C   UNL     1      -5.891  -2.271  15.983  1.00  0.00     0.029 A 
ATOM     53  N   UNL     1      -6.385  -0.197  15.465  1.00  0.00    -0.354 N 
ATOM     54  N   UNL     1      -9.332   0.962  12.456  1.00  0.00    -0.248 NA
ATOM     55  C   UNL     1      -7.428   2.257  12.062  1.00  0.00     0.031 C 
ATOM     56  C   UNL     1      -7.274  -2.177  15.639  1.00  0.00     0.029 A 
ATOM     57  C   UNL     1      -7.501  -0.907  15.107  1.00  0.00     0.049 A 
ATOM     58  H   UNL     1      -6.341   0.772  15.634  1.00  0.00     0.167 HD
ATOM     59  C   UNL     1      -8.446   0.738  13.500  1.00  0.00     0.074 A 
ATOM     60  C   UNL     1      -7.307   1.615  13.227  1.00  0.00     0.031 C 
ATOM     61  C   UNL     1      -8.571  -0.357  14.309  1.00  0.00     0.037 A 
BRANCH  48  62
ATOM     62  C   UNL     1      -3.348   0.543  15.247  1.00  0.00     0.064 A 
ATOM     63  C   UNL     1      -3.584   1.125  16.513  1.00  0.00     0.173 A 
ATOM     64  C   UNL     1      -2.672   1.373  14.326  1.00  0.00     0.173 A 
ATOM     65  F   UNL     1      -4.203   0.431  17.480  1.00  0.00    -0.203 F 
ATOM     66  C   UNL     1      -3.289   2.464  16.782  1.00  0.00     0.198 A 
ATOM     67  C   UNL     1      -2.333   2.694  14.617  1.00  0.00     0.198 A 
ATOM     68  F   UNL     1      -2.401   0.993  13.074  1.00  0.00    -0.203 F 
ATOM     69  F   UNL     1      -3.673   3.007  17.945  1.00  0.00    -0.200 F 
ATOM     70  C   UNL     1      -2.679   3.253  15.827  1.00  0.00     0.200 A 
ATOM     71  F   UNL     1      -1.746   3.444  13.673  1.00  0.00    -0.200 F 
ATOM     72  F   UNL     1      -2.465   4.555  16.052  1.00  0.00    -0.200 F 
ENDBRANCH  48  62
BRANCH  49  73
ATOM     73  C   UNL     1      -8.888   2.395   9.082  1.00  0.00     0.064 A 
ATOM     74  C   UNL     1      -9.614   3.561   9.378  1.00  0.00     0.173 A 
ATOM     75  C   UNL     1      -8.127   2.421   7.896  1.00  0.00     0.173 A 
ATOM     76  F   UNL     1     -10.336   3.637  10.505  1.00  0.00    -0.203 F 
ATOM     77  C   UNL     1      -9.550   4.696   8.560  1.00  0.00     0.198 A 
ATOM     78  C   UNL     1      -8.070   3.551   7.077  1.00  0.00     0.198 A 
ATOM     79  F   UNL     1      -7.346   1.387   7.552  1.00  0.00    -0.203 F 
ATOM     80  F   UNL     1     -10.203   5.812   8.912  1.00  0.00    -0.200 F 
ATOM     81  C   UNL     1      -8.767   4.694   7.417  1.00  0.00     0.200 A 
ATOM     82  F   UNL     1      -7.285   3.544   5.990  1.00  0.00    -0.200 F 
ATOM     83  F   UNL     1      -8.653   5.800   6.670  1.00  0.00    -0.200 F 
ENDBRANCH  49  73
BRANCH  61  84
ATOM     84  C   UNL     1      -9.824  -1.184  14.200  1.00  0.00     0.064 A 
ATOM     85  C   UNL     1     -10.212  -1.890  13.047  1.00  0.00     0.173 A 
ATOM     86  C   UNL     1     -10.574  -1.400  15.363  1.00  0.00     0.173 A 
ATOM     87  F   UNL     1      -9.495  -1.823  11.922  1.00  0.00    -0.203 F 
ATOM     88  C   UNL     1     -11.320  -2.738  13.051  1.00  0.00     0.198 A 
ATOM     89  C   UNL     1     -11.658  -2.274  15.375  1.00  0.00     0.198 A 
ATOM     90  F   UNL     1     -10.220  -0.799  16.510  1.00  0.00    -0.203 F 
ATOM     91  F   UNL     1     -11.668  -3.394  11.934  1.00  0.00    -0.200 F 
ATOM     92  C   UNL     1     -12.037  -2.935  14.218  1.00  0.00     0.200 A 
ATOM     93  F   UNL     1     -12.316  -2.500  16.520  1.00  0.00    -0.200 F 
ATOM     94  F   UNL     1     -13.075  -3.782  14.236  1.00  0.00    -0.200 F 
ENDBRANCH  61  84
ENDBRANCH  35  36
ENDBRANCH  27  30
ENDBRANCH  25  26
ENDBRANCH  24  25
ENDBRANCH   1  24
TORSDOF 14
