REMARK SMILES COc1ccc(CC(=O)NCCCCNC(=O)c2ccc(-c3c4nc(c(-c5c(F)c(F)c(F)c(F)c5F)c5ccc([nH]5)c(-c5c(F)c(F)c(F)c(F)c5F)c5nc(c(-c6c(F)c(F)c(F)c(F)c6F)c6ccc3[nH]6)C=C5)C=C4)cc2)cc1S(=O)(=O)Nc1ccccc1Br
REMARK SMILES IDX 11 1 10 2 8 3 9 4 7 6 6 7 3 8 4 9 82 10 5 11 81 12 2 13 1 14
REMARK SMILES IDX 83 15 84 16 85 17 86 18 87 20 88 21 92 22 89 23 91 24 93 25
REMARK SMILES IDX 90 26 12 27 13 28 14 29 15 30 16 31 17 33 18 34 19 35 80 36
REMARK SMILES IDX 20 37 79 38 21 39 22 40 23 41 73 42 24 43 78 44 72 45 74 46
REMARK SMILES IDX 25 47 77 48 71 49 70 50 26 52 58 53 38 54 57 55 39 56 42 57
REMARK SMILES IDX 56 58 75 59 40 60 41 61 55 63 76 64 43 65 27 66 28 67 36 68
REMARK SMILES IDX 29 69 30 70 34 71 37 72 31 73 32 74 35 75 33 76 59 77 60 78
REMARK SMILES IDX 68 79 61 80 62 81 66 82 69 83 63 84 64 85 67 86 65 87 44 88
REMARK SMILES IDX 45 89 53 90 46 91 47 92 51 93 54 94 48 95 49 96 52 97 50 98
REMARK H PARENT 10 5 86 19 15 32 74 51 42 62
REMARK Flexibility Score: inf
ROOT
ATOM      1  C   UNL     1       3.763  -3.559   5.259  1.00  0.00     0.116 C 
ENDROOT
BRANCH   1   2
ATOM      2  N   UNL     1       2.788  -4.532   5.710  1.00  0.00    -0.356 N 
ATOM      3  C   UNL     1       1.946  -5.298   4.957  1.00  0.00     0.224 C 
ATOM      4  O   UNL     1       1.090  -5.974   5.530  1.00  0.00    -0.275 OA
ATOM      5  H   UNL     1       2.726  -4.657   6.685  1.00  0.00     0.163 HD
BRANCH   3   6
ATOM      6  C   UNL     1       2.111  -5.338   3.450  1.00  0.00     0.135 C 
BRANCH   6   7
ATOM      7  C   UNL     1       1.543  -4.146   2.716  1.00  0.00    -0.037 A 
ATOM      8  C   UNL     1       0.509  -2.088   1.102  1.00  0.00     0.139 A 
ATOM      9  C   UNL     1      -0.341  -2.889   1.880  1.00  0.00     0.048 A 
ATOM     10  C   UNL     1       1.883  -2.196   1.252  1.00  0.00     0.129 A 
ATOM     11  C   UNL     1       0.171  -3.905   2.689  1.00  0.00     0.008 A 
ATOM     12  C   UNL     1       2.386  -3.272   2.013  1.00  0.00     0.030 A 
BRANCH   8  13
ATOM     13  O   UNL     1      -0.117  -1.249   0.234  1.00  0.00    -0.495 OA
ATOM     14  C   UNL     1      -0.071  -1.762  -1.099  1.00  0.00     0.278 C 
ENDBRANCH   8  13
BRANCH  10  15
ATOM     15  S   UNL     1       3.127  -1.118   0.595  1.00  0.00     0.265 S 
ATOM     16  O   UNL     1       4.156  -1.020   1.615  1.00  0.00    -0.201 OA
ATOM     17  O   UNL     1       3.474  -1.677  -0.699  1.00  0.00    -0.201 OA
BRANCH  15  18
ATOM     18  N   UNL     1       2.677   0.466   0.249  1.00  0.00    -0.278 N 
ATOM     19  H   UNL     1       3.340   1.032  -0.209  1.00  0.00     0.180 HD
BRANCH  18  20
ATOM     20  C   UNL     1       1.417   1.059   0.564  1.00  0.00     0.063 A 
ATOM     21  C   UNL     1       0.679   1.538  -0.533  1.00  0.00     0.028 A 
ATOM     22  C   UNL     1       0.887   1.210   1.851  1.00  0.00     0.042 A 
ATOM     23  C   UNL     1      -0.606   2.054  -0.365  1.00  0.00     0.002 A 
ATOM     24  C   UNL     1      -0.409   1.718   2.015  1.00  0.00     0.018 A 
ATOM     25  Br  UNL     1       1.864   0.818   3.424  1.00  0.00    -0.049 Br
ATOM     26  C   UNL     1      -1.160   2.120   0.909  1.00  0.00     0.001 A 
ENDBRANCH  18  20
ENDBRANCH  15  18
ENDBRANCH  10  15
ENDBRANCH   6   7
ENDBRANCH   3   6
ENDBRANCH   1   2
BRANCH   1  27
ATOM     27  C   UNL     1       3.195  -2.143   5.314  1.00  0.00     0.023 C 
BRANCH  27  28
ATOM     28  C   UNL     1       2.982  -1.598   6.728  1.00  0.00     0.023 C 
BRANCH  28  29
ATOM     29  C   UNL     1       4.222  -1.597   7.612  1.00  0.00     0.116 C 
BRANCH  29  30
ATOM     30  N   UNL     1       5.333  -0.845   7.050  1.00  0.00    -0.352 N 
ATOM     31  C   UNL     1       6.270  -0.084   7.704  1.00  0.00     0.251 C 
ATOM     32  H   UNL     1       5.425  -0.888   6.070  1.00  0.00     0.163 HD
ATOM     33  O   UNL     1       7.095   0.572   7.075  1.00  0.00    -0.269 OA
BRANCH  31  34
ATOM     34  C   UNL     1       6.253  -0.021   9.179  1.00  0.00     0.039 A 
ATOM     35  C   UNL     1       6.306   1.231   9.796  1.00  0.00     0.014 A 
ATOM     36  C   UNL     1       6.155  -1.184   9.948  1.00  0.00     0.014 A 
ATOM     37  C   UNL     1       6.193   1.322  11.184  1.00  0.00     0.010 A 
ATOM     38  C   UNL     1       5.972  -1.087  11.324  1.00  0.00     0.010 A 
ATOM     39  C   UNL     1       5.987   0.167  11.955  1.00  0.00    -0.014 A 
BRANCH  39  40
ATOM     40  C   UNL     1       5.780   0.250  13.422  1.00  0.00     0.031 A 
ATOM     41  C   UNL     1       6.777  -0.367  14.361  1.00  0.00     0.074 A 
ATOM     42  C   UNL     1       4.661   0.824  13.905  1.00  0.00     0.049 A 
ATOM     43  N   UNL     1       6.739  -0.459  15.667  1.00  0.00    -0.248 NA
ATOM     44  C   UNL     1       7.963  -0.988  13.750  1.00  0.00     0.031 C 
ATOM     45  C   UNL     1       3.596   1.414  13.093  1.00  0.00     0.029 A 
ATOM     46  N   UNL     1       4.228   0.994  15.196  1.00  0.00    -0.354 N 
ATOM     47  C   UNL     1       7.882  -1.158  16.029  1.00  0.00     0.074 A 
ATOM     48  C   UNL     1       8.567  -1.513  14.805  1.00  0.00     0.031 C 
ATOM     49  C   UNL     1       2.643   1.901  13.904  1.00  0.00     0.029 A 
ATOM     50  C   UNL     1       3.011   1.624  15.289  1.00  0.00     0.049 A 
ATOM     51  H   UNL     1       4.740   0.694  15.980  1.00  0.00     0.167 HD
ATOM     52  C   UNL     1       8.332  -1.455  17.272  1.00  0.00     0.037 A 
ATOM     53  C   UNL     1       2.272   1.937  16.371  1.00  0.00     0.037 A 
ATOM     54  C   UNL     1       7.660  -1.078  18.487  1.00  0.00     0.049 A 
ATOM     55  C   UNL     1       2.794   1.592  17.740  1.00  0.00     0.074 A 
ATOM     56  C   UNL     1       8.065  -1.279  19.795  1.00  0.00     0.029 A 
ATOM     57  N   UNL     1       6.439  -0.422  18.543  1.00  0.00    -0.354 N 
ATOM     58  N   UNL     1       3.911   0.993  18.074  1.00  0.00    -0.248 NA
ATOM     59  C   UNL     1       1.953   1.974  18.884  1.00  0.00     0.031 C 
ATOM     60  C   UNL     1       7.067  -0.786  20.643  1.00  0.00     0.029 A 
ATOM     61  C   UNL     1       6.065  -0.231  19.864  1.00  0.00     0.049 A 
ATOM     62  H   UNL     1       5.915  -0.136  17.760  1.00  0.00     0.167 HD
ATOM     63  C   UNL     1       3.922   0.952  19.462  1.00  0.00     0.074 A 
ATOM     64  C   UNL     1       2.707   1.601  19.908  1.00  0.00     0.031 C 
ATOM     65  C   UNL     1       4.855   0.425  20.291  1.00  0.00     0.037 A 
BRANCH  52  66
ATOM     66  C   UNL     1       9.617  -2.225  17.378  1.00  0.00     0.064 A 
ATOM     67  C   UNL     1      10.850  -1.647  17.041  1.00  0.00     0.173 A 
ATOM     68  C   UNL     1       9.620  -3.544  17.856  1.00  0.00     0.173 A 
ATOM     69  F   UNL     1      10.901  -0.392  16.568  1.00  0.00    -0.203 F 
ATOM     70  C   UNL     1      12.035  -2.370  17.149  1.00  0.00     0.198 A 
ATOM     71  C   UNL     1      10.810  -4.254  17.992  1.00  0.00     0.198 A 
ATOM     72  F   UNL     1       8.470  -4.143  18.198  1.00  0.00    -0.203 F 
ATOM     73  F   UNL     1      13.195  -1.813  16.773  1.00  0.00    -0.200 F 
ATOM     74  C   UNL     1      12.015  -3.670  17.631  1.00  0.00     0.200 A 
ATOM     75  F   UNL     1      10.791  -5.505  18.471  1.00  0.00    -0.200 F 
ATOM     76  F   UNL     1      13.157  -4.363  17.741  1.00  0.00    -0.200 F 
ENDBRANCH  52  66
BRANCH  53  77
ATOM     77  C   UNL     1       0.972   2.637  16.206  1.00  0.00     0.064 A 
ATOM     78  C   UNL     1       0.817   3.970  16.613  1.00  0.00     0.173 A 
ATOM     79  C   UNL     1      -0.140   1.992  15.647  1.00  0.00     0.173 A 
ATOM     80  F   UNL     1       1.846   4.622  17.173  1.00  0.00    -0.203 F 
ATOM     81  C   UNL     1      -0.407   4.623  16.487  1.00  0.00     0.198 A 
ATOM     82  C   UNL     1      -1.356   2.656  15.495  1.00  0.00     0.198 A 
ATOM     83  F   UNL     1      -0.043   0.719  15.237  1.00  0.00    -0.203 F 
ATOM     84  F   UNL     1      -0.540   5.882  16.927  1.00  0.00    -0.200 F 
ATOM     85  C   UNL     1      -1.491   3.968  15.923  1.00  0.00     0.200 A 
ATOM     86  F   UNL     1      -2.397   2.024  14.937  1.00  0.00    -0.200 F 
ATOM     87  F   UNL     1      -2.667   4.598  15.799  1.00  0.00    -0.200 F 
ENDBRANCH  53  77
BRANCH  65  88
ATOM     88  C   UNL     1       4.618   0.560  21.767  1.00  0.00     0.064 A 
ATOM     89  C   UNL     1       3.629  -0.185  22.426  1.00  0.00     0.173 A 
ATOM     90  C   UNL     1       5.419   1.417  22.538  1.00  0.00     0.173 A 
ATOM     91  F   UNL     1       2.827  -1.006  21.731  1.00  0.00    -0.203 F 
ATOM     92  C   UNL     1       3.433  -0.057  23.799  1.00  0.00     0.198 A 
ATOM     93  C   UNL     1       5.240   1.519  23.915  1.00  0.00     0.198 A 
ATOM     94  F   UNL     1       6.383   2.146  21.958  1.00  0.00    -0.203 F 
ATOM     95  F   UNL     1       2.450  -0.741  24.399  1.00  0.00    -0.200 F 
ATOM     96  C   UNL     1       4.242   0.789  24.543  1.00  0.00     0.200 A 
ATOM     97  F   UNL     1       6.032   2.326  24.634  1.00  0.00    -0.200 F 
ATOM     98  F   UNL     1       4.057   0.905  25.864  1.00  0.00    -0.200 F 
ENDBRANCH  65  88
ENDBRANCH  39  40
ENDBRANCH  31  34
ENDBRANCH  29  30
ENDBRANCH  28  29
ENDBRANCH  27  28
ENDBRANCH   1  27
TORSDOF 16
