REMARK SMILES C#CCN(CC(=O)NCCCCNC(=O)c1ccc(-c2c3nc(c(-c4c(F)c(F)c(F)c(F)c4F)c4ccc([nH]4)c(-c4c(F)c(F)c(F)c(F)c4F)c4nc(c(-c5c(F)c(F)c(F)c(F)c5F)c5ccc2[nH]5)C=C4)C=C3)cc1)C(=O)NCCc1ccco1
REMARK SMILES IDX 9 1 8 2 6 3 7 4 5 6 4 7 3 8 2 9 1 10 79 11 80 12 81 13 82 15
REMARK SMILES IDX 83 16 84 17 85 18 88 19 86 20 87 21 10 22 11 23 12 24 13 25
REMARK SMILES IDX 14 26 15 28 16 29 17 30 78 31 18 32 77 33 19 34 20 35 21 36
REMARK SMILES IDX 71 37 22 38 76 39 70 40 72 41 23 42 75 43 69 44 68 45 24 47
REMARK SMILES IDX 56 48 36 49 55 50 37 51 40 52 54 53 73 54 38 55 39 56 53 58
REMARK SMILES IDX 74 59 41 60 25 61 26 62 34 63 27 64 28 65 32 66 35 67 29 68
REMARK SMILES IDX 30 69 33 70 31 71 57 72 58 73 66 74 59 75 60 76 64 77 67 78
REMARK SMILES IDX 61 79 62 80 65 81 63 82 42 83 43 84 51 85 44 86 45 87 49 88
REMARK SMILES IDX 52 89 46 90 47 91 50 92 48 93
REMARK H PARENT 8 5 81 14 13 27 72 46 40 57
REMARK Flexibility Score: inf
ROOT
ATOM      1  C   UNL     1      -5.189  -0.366   0.112  1.00  0.00     0.116 C 
ENDROOT
BRANCH   1   2
ATOM      2  N   UNL     1      -5.495   1.046   0.081  1.00  0.00    -0.355 N 
ATOM      3  C   UNL     1      -4.715   2.091  -0.320  1.00  0.00     0.239 C 
ATOM      4  O   UNL     1      -5.287   3.161  -0.555  1.00  0.00    -0.273 OA
ATOM      5  H   UNL     1      -6.396   1.289   0.395  1.00  0.00     0.163 HD
BRANCH   3   6
ATOM      6  C   UNL     1      -3.215   1.924  -0.620  1.00  0.00     0.222 C 
BRANCH   6   7
ATOM      7  N   UNL     1      -2.448   1.250   0.422  1.00  0.00    -0.304 N 
BRANCH   7   8
ATOM      8  C   UNL     1      -1.883  -0.049   0.065  1.00  0.00     0.211 C 
BRANCH   8   9
ATOM      9  C   UNL     1      -0.363  -0.049   0.065  1.00  0.00    -0.085 C 
ATOM     10  C   UNL     1       0.941  -0.049   0.065  1.00  0.00     0.006 C 
ENDBRANCH   8   9
ENDBRANCH   7   8
BRANCH   7  11
ATOM     11  C   UNL     1      -2.210   1.690   1.695  1.00  0.00     0.318 C 
ATOM     12  O   UNL     1      -1.677   0.956   2.535  1.00  0.00    -0.249 OA
ATOM     13  N   UNL     1      -2.544   2.907   2.149  1.00  0.00    -0.337 N 
ATOM     14  H   UNL     1      -2.318   2.994   3.103  1.00  0.00     0.165 HD
BRANCH  13  15
ATOM     15  C   UNL     1      -3.142   4.139   1.649  1.00  0.00     0.125 C 
BRANCH  15  16
ATOM     16  C   UNL     1      -4.546   4.365   2.217  1.00  0.00     0.096 C 
BRANCH  16  17
ATOM     17  C   UNL     1      -4.506   5.111   3.503  1.00  0.00     0.105 A 
ATOM     18  C   UNL     1      -4.647   6.447   3.816  1.00  0.00     0.045 A 
ATOM     19  O   UNL     1      -4.284   4.385   4.635  1.00  0.00    -0.469 OA
ATOM     20  C   UNL     1      -4.501   6.543   5.220  1.00  0.00     0.042 A 
ATOM     21  C   UNL     1      -4.285   5.263   5.671  1.00  0.00     0.195 A 
ENDBRANCH  16  17
ENDBRANCH  15  16
ENDBRANCH  13  15
ENDBRANCH   7  11
ENDBRANCH   6   7
ENDBRANCH   3   6
ENDBRANCH   1   2
BRANCH   1  22
ATOM     22  C   UNL     1      -4.889  -0.892   1.514  1.00  0.00     0.023 C 
BRANCH  22  23
ATOM     23  C   UNL     1      -6.087  -0.975   2.456  1.00  0.00     0.023 C 
BRANCH  23  24
ATOM     24  C   UNL     1      -7.301  -1.713   1.908  1.00  0.00     0.116 C 
BRANCH  24  25
ATOM     25  N   UNL     1      -7.004  -3.051   1.420  1.00  0.00    -0.352 N 
ATOM     26  C   UNL     1      -7.808  -4.165   1.436  1.00  0.00     0.251 C 
ATOM     27  H   UNL     1      -6.110  -3.174   1.027  1.00  0.00     0.163 HD
ATOM     28  O   UNL     1      -7.381  -5.247   1.044  1.00  0.00    -0.269 OA
BRANCH  26  29
ATOM     29  C   UNL     1      -9.178  -4.061   1.976  1.00  0.00     0.039 A 
ATOM     30  C   UNL     1      -9.594  -4.993   2.931  1.00  0.00     0.014 A 
ATOM     31  C   UNL     1     -10.031  -3.028   1.578  1.00  0.00     0.014 A 
ATOM     32  C   UNL     1     -10.839  -4.845   3.542  1.00  0.00     0.010 A 
ATOM     33  C   UNL     1     -11.241  -2.841   2.238  1.00  0.00     0.010 A 
ATOM     34  C   UNL     1     -11.655  -3.745   3.228  1.00  0.00    -0.014 A 
BRANCH  34  35
ATOM     35  C   UNL     1     -12.941  -3.518   3.931  1.00  0.00     0.031 A 
ATOM     36  C   UNL     1     -14.235  -3.581   3.171  1.00  0.00     0.074 A 
ATOM     37  C   UNL     1     -12.937  -3.185   5.236  1.00  0.00     0.049 A 
ATOM     38  N   UNL     1     -15.453  -3.337   3.586  1.00  0.00    -0.248 NA
ATOM     39  C   UNL     1     -14.147  -3.936   1.746  1.00  0.00     0.031 C 
ATOM     40  C   UNL     1     -11.741  -3.040   6.068  1.00  0.00     0.029 A 
ATOM     41  N   UNL     1     -13.972  -2.893   6.088  1.00  0.00    -0.354 N 
ATOM     42  C   UNL     1     -16.269  -3.494   2.475  1.00  0.00     0.074 A 
ATOM     43  C   UNL     1     -15.406  -3.804   1.355  1.00  0.00     0.031 C 
ATOM     44  C   UNL     1     -12.111  -2.706   7.315  1.00  0.00     0.029 A 
ATOM     45  C   UNL     1     -13.565  -2.580   7.362  1.00  0.00     0.049 A 
ATOM     46  H   UNL     1     -14.917  -2.908   5.813  1.00  0.00     0.167 HD
ATOM     47  C   UNL     1     -17.618  -3.410   2.401  1.00  0.00     0.037 A 
ATOM     48  C   UNL     1     -14.284  -2.226   8.444  1.00  0.00     0.037 A 
ATOM     49  C   UNL     1     -18.475  -3.132   3.523  1.00  0.00     0.049 A 
ATOM     50  C   UNL     1     -15.783  -2.149   8.335  1.00  0.00     0.074 A 
ATOM     51  C   UNL     1     -19.858  -3.090   3.564  1.00  0.00     0.029 A 
ATOM     52  N   UNL     1     -18.028  -2.850   4.805  1.00  0.00    -0.354 N 
ATOM     53  N   UNL     1     -16.550  -2.369   7.295  1.00  0.00    -0.248 NA
ATOM     54  C   UNL     1     -16.517  -1.783   9.555  1.00  0.00     0.031 C 
ATOM     55  C   UNL     1     -20.247  -2.744   4.862  1.00  0.00     0.029 A 
ATOM     56  C   UNL     1     -19.108  -2.615   5.641  1.00  0.00     0.049 A 
ATOM     57  H   UNL     1     -17.083  -2.821   5.081  1.00  0.00     0.167 HD
ATOM     58  C   UNL     1     -17.853  -2.196   7.739  1.00  0.00     0.074 A 
ATOM     59  C   UNL     1     -17.775  -1.866   9.147  1.00  0.00     0.031 C 
ATOM     60  C   UNL     1     -19.012  -2.299   7.043  1.00  0.00     0.037 A 
BRANCH  47  61
ATOM     61  C   UNL     1     -18.254  -3.629   1.060  1.00  0.00     0.064 A 
ATOM     62  C   UNL     1     -18.291  -4.898   0.463  1.00  0.00     0.173 A 
ATOM     63  C   UNL     1     -18.870  -2.567   0.381  1.00  0.00     0.173 A 
ATOM     64  F   UNL     1     -17.705  -5.944   1.066  1.00  0.00    -0.203 F 
ATOM     65  C   UNL     1     -18.897  -5.091  -0.775  1.00  0.00     0.198 A 
ATOM     66  C   UNL     1     -19.500  -2.769  -0.844  1.00  0.00     0.198 A 
ATOM     67  F   UNL     1     -18.867  -1.333   0.909  1.00  0.00    -0.203 F 
ATOM     68  F   UNL     1     -18.879  -6.303  -1.347  1.00  0.00    -0.200 F 
ATOM     69  C   UNL     1     -19.507  -4.028  -1.424  1.00  0.00     0.200 A 
ATOM     70  F   UNL     1     -20.100  -1.743  -1.465  1.00  0.00    -0.200 F 
ATOM     71  F   UNL     1     -20.098  -4.217  -2.612  1.00  0.00    -0.200 F 
ENDBRANCH  47  61
BRANCH  48  72
ATOM     72  C   UNL     1     -13.600  -1.942   9.731  1.00  0.00     0.064 A 
ATOM     73  C   UNL     1     -13.725  -2.816  10.819  1.00  0.00     0.173 A 
ATOM     74  C   UNL     1     -12.816  -0.791   9.905  1.00  0.00     0.173 A 
ATOM     75  F   UNL     1     -14.482  -3.918  10.708  1.00  0.00    -0.203 F 
ATOM     76  C   UNL     1     -13.112  -2.540  12.040  1.00  0.00     0.198 A 
ATOM     77  C   UNL     1     -12.181  -0.530  11.117  1.00  0.00     0.198 A 
ATOM     78  F   UNL     1     -12.661   0.075   8.893  1.00  0.00    -0.203 F 
ATOM     79  F   UNL     1     -13.288  -3.369  13.078  1.00  0.00    -0.200 F 
ATOM     80  C   UNL     1     -12.336  -1.400  12.186  1.00  0.00     0.200 A 
ATOM     81  F   UNL     1     -11.423   0.566  11.251  1.00  0.00    -0.200 F 
ATOM     82  F   UNL     1     -11.746  -1.135  13.359  1.00  0.00    -0.200 F 
ENDBRANCH  48  72
BRANCH  60  83
ATOM     83  C   UNL     1     -20.289  -2.088   7.800  1.00  0.00     0.064 A 
ATOM     84  C   UNL     1     -20.689  -0.814   8.227  1.00  0.00     0.173 A 
ATOM     85  C   UNL     1     -21.143  -3.170   8.065  1.00  0.00     0.173 A 
ATOM     86  F   UNL     1     -19.901   0.249   8.011  1.00  0.00    -0.203 F 
ATOM     87  C   UNL     1     -21.887  -0.634   8.914  1.00  0.00     0.198 A 
ATOM     88  C   UNL     1     -22.352  -2.982   8.726  1.00  0.00     0.198 A 
ATOM     89  F   UNL     1     -20.808  -4.408   7.671  1.00  0.00    -0.203 F 
ATOM     90  F   UNL     1     -22.229   0.585   9.353  1.00  0.00    -0.200 F 
ATOM     91  C   UNL     1     -22.721  -1.716   9.156  1.00  0.00     0.200 A 
ATOM     92  F   UNL     1     -23.162  -4.027   8.948  1.00  0.00    -0.200 F 
ATOM     93  F   UNL     1     -23.876  -1.540   9.811  1.00  0.00    -0.200 F 
ENDBRANCH  60  83
ENDBRANCH  34  35
ENDBRANCH  26  29
ENDBRANCH  24  25
ENDBRANCH  23  24
ENDBRANCH  22  23
ENDBRANCH   1  22
TORSDOF 18
