REMARK SMILES CC[C@@H]1CC[C@@](Cc2ccc(O)cc2)(C(=O)NCCCCNC(=O)c2ccc(-c3c4nc(c(-c5c(F)c(F)c(F)c(F)c5F)c5ccc([nH]5)c(-c5c(F)c(F)c(F)c(F)c5F)c5nc(c(-c6c(F)c(F)c(F)c(F)c6F)c6ccc3[nH]6)C=C5)C=C4)cc2)C1
REMARK SMILES IDX 19 1 18 2 17 3 15 4 16 5 6 7 3 8 4 9 88 10 5 11 2 12 1 13
REMARK SMILES IDX 7 14 8 15 9 16 14 17 10 18 13 19 11 20 12 21 20 23 21 24
REMARK SMILES IDX 22 25 23 26 24 28 25 29 26 30 87 31 27 32 86 33 28 34 29 35
REMARK SMILES IDX 30 36 80 37 31 38 85 39 79 40 81 41 32 42 84 43 78 44 77 45
REMARK SMILES IDX 33 47 65 48 45 49 64 50 46 51 49 52 63 53 82 54 47 55 48 56
REMARK SMILES IDX 62 58 83 59 50 60 34 61 35 62 43 63 36 64 37 65 41 66 44 67
REMARK SMILES IDX 38 68 39 69 42 70 40 71 66 72 67 73 75 74 68 75 69 76 73 77
REMARK SMILES IDX 76 78 70 79 71 80 74 81 72 82 51 83 52 84 60 85 53 86 54 87
REMARK SMILES IDX 58 88 61 89 55 90 56 91 59 92 57 93
REMARK H PARENT 17 6 12 22 22 27 81 46 49 57
REMARK Flexibility Score: inf
ROOT
ATOM      1  C   UNL     1       3.169   7.495   2.237  1.00  0.00     0.023 C 
ENDROOT
BRANCH   1   2
ATOM      2  C   UNL     1       2.696   6.904   0.917  1.00  0.00     0.116 C 
BRANCH   2   3
ATOM      3  N   UNL     1       3.299   5.628   0.586  1.00  0.00    -0.356 N 
ATOM      4  C   UNL     1       2.775   4.523  -0.019  1.00  0.00     0.226 C 
ATOM      5  O   UNL     1       3.601   3.691  -0.410  1.00  0.00    -0.274 OA
ATOM      6  H   UNL     1       4.246   5.544   0.841  1.00  0.00     0.163 HD
BRANCH   4   7
ATOM      7  C   UNL     1       1.253   4.310  -0.237  1.00  0.00     0.053 C 
ATOM      8  C   UNL     1       0.896   2.198   0.947  1.00  0.00    -0.010 C 
ATOM      9  C   UNL     1       0.043   3.236   1.663  1.00  0.00     0.005 C 
ATOM     10  C   UNL     1       0.984   2.784  -0.459  1.00  0.00     0.020 C 
ATOM     11  C   UNL     1       0.432   4.585   1.049  1.00  0.00     0.017 C 
BRANCH   8  12
ATOM     12  C   UNL     1       0.286   0.798   1.038  1.00  0.00     0.000 C 
ATOM     13  C   UNL     1       0.958  -0.219   0.130  1.00  0.00     0.004 C 
ENDBRANCH   8  12
BRANCH   7  14
ATOM     14  C   UNL     1       0.764   5.016  -1.539  1.00  0.00     0.052 C 
BRANCH  14  15
ATOM     15  C   UNL     1       0.865   6.517  -1.657  1.00  0.00    -0.047 A 
ATOM     16  C   UNL     1       1.966   7.115  -2.296  1.00  0.00     0.007 A 
ATOM     17  C   UNL     1      -0.133   7.343  -1.121  1.00  0.00     0.007 A 
ATOM     18  C   UNL     1       2.113   8.508  -2.313  1.00  0.00     0.046 A 
ATOM     19  C   UNL     1       0.012   8.731  -1.142  1.00  0.00     0.046 A 
ATOM     20  C   UNL     1       1.146   9.301  -1.707  1.00  0.00     0.115 A 
BRANCH  20  21
ATOM     21  O   UNL     1       1.270  10.654  -1.624  1.00  0.00    -0.508 OA
ATOM     22  H   UNL     1       2.019  11.079  -1.992  1.00  0.00     0.293 HD
ENDBRANCH  20  21
ENDBRANCH  14  15
ENDBRANCH   7  14
ENDBRANCH   4   7
ENDBRANCH   2   3
ENDBRANCH   1   2
BRANCH   1  23
ATOM     23  C   UNL     1       4.602   8.028   2.232  1.00  0.00     0.023 C 
BRANCH  23  24
ATOM     24  C   UNL     1       4.991   8.929   1.060  1.00  0.00     0.116 C 
BRANCH  24  25
ATOM     25  N   UNL     1       4.090  10.049   0.826  1.00  0.00    -0.352 N 
ATOM     26  C   UNL     1       4.402  11.334   0.450  1.00  0.00     0.251 C 
ATOM     27  H   UNL     1       3.132   9.861   0.954  1.00  0.00     0.163 HD
ATOM     28  O   UNL     1       3.522  12.159   0.231  1.00  0.00    -0.269 OA
BRANCH  26  29
ATOM     29  C   UNL     1       5.820  11.720   0.318  1.00  0.00     0.039 A 
ATOM     30  C   UNL     1       6.311  12.776   1.090  1.00  0.00     0.014 A 
ATOM     31  C   UNL     1       6.667  11.001  -0.528  1.00  0.00     0.014 A 
ATOM     32  C   UNL     1       7.680  13.056   1.078  1.00  0.00     0.010 A 
ATOM     33  C   UNL     1       8.037  11.243  -0.493  1.00  0.00     0.010 A 
ATOM     34  C   UNL     1       8.557  12.261   0.321  1.00  0.00    -0.014 A 
BRANCH  34  35
ATOM     35  C   UNL     1      10.028  12.449   0.398  1.00  0.00     0.031 A 
ATOM     36  C   UNL     1      10.798  12.902  -0.809  1.00  0.00     0.074 A 
ATOM     37  C   UNL     1      10.678  12.124   1.532  1.00  0.00     0.049 A 
ATOM     38  N   UNL     1      12.090  13.038  -0.963  1.00  0.00    -0.248 NA
ATOM     39  C   UNL     1      10.011  13.217  -2.011  1.00  0.00     0.031 C 
ATOM     40  C   UNL     1      10.048  11.623   2.754  1.00  0.00     0.029 A 
ATOM     41  N   UNL     1      12.017  12.151   1.836  1.00  0.00    -0.354 N 
ATOM     42  C   UNL     1      12.273  13.440  -2.279  1.00  0.00     0.074 A 
ATOM     43  C   UNL     1      10.963  13.481  -2.894  1.00  0.00     0.031 C 
ATOM     44  C   UNL     1      10.995  11.404   3.680  1.00  0.00     0.029 A 
ATOM     45  C   UNL     1      12.301  11.716   3.108  1.00  0.00     0.049 A 
ATOM     46  H   UNL     1      12.707  12.454   1.203  1.00  0.00     0.167 HD
ATOM     47  C   UNL     1      13.427  13.766  -2.910  1.00  0.00     0.037 A 
ATOM     48  C   UNL     1      13.483  11.578   3.738  1.00  0.00     0.037 A 
ATOM     49  C   UNL     1      14.725  13.745  -2.288  1.00  0.00     0.049 A 
ATOM     50  C   UNL     1      14.749  11.949   3.015  1.00  0.00     0.074 A 
ATOM     51  C   UNL     1      15.945  14.117  -2.825  1.00  0.00     0.029 A 
ATOM     52  N   UNL     1      14.971  13.326  -0.989  1.00  0.00    -0.354 N 
ATOM     53  N   UNL     1      14.903  12.398   1.793  1.00  0.00    -0.248 NA
ATOM     54  C   UNL     1      16.006  11.800   3.762  1.00  0.00     0.031 C 
ATOM     55  C   UNL     1      16.935  13.884  -1.864  1.00  0.00     0.029 A 
ATOM     56  C   UNL     1      16.326  13.411  -0.713  1.00  0.00     0.049 A 
ATOM     57  H   UNL     1      14.284  13.014  -0.356  1.00  0.00     0.167 HD
ATOM     58  C   UNL     1      16.265  12.611   1.633  1.00  0.00     0.074 A 
ATOM     59  C   UNL     1      16.894  12.254   2.889  1.00  0.00     0.031 C 
ATOM     60  C   UNL     1      16.935  13.061   0.544  1.00  0.00     0.037 A 
BRANCH  47  61
ATOM     61  C   UNL     1      13.335  14.179  -4.350  1.00  0.00     0.064 A 
ATOM     62  C   UNL     1      12.767  15.405  -4.727  1.00  0.00     0.173 A 
ATOM     63  C   UNL     1      13.852  13.356  -5.362  1.00  0.00     0.173 A 
ATOM     64  F   UNL     1      12.248  16.222  -3.798  1.00  0.00    -0.203 F 
ATOM     65  C   UNL     1      12.694  15.780  -6.066  1.00  0.00     0.198 A 
ATOM     66  C   UNL     1      13.802  13.747  -6.697  1.00  0.00     0.198 A 
ATOM     67  F   UNL     1      14.410  12.175  -5.055  1.00  0.00    -0.203 F 
ATOM     68  F   UNL     1      12.103  16.934  -6.405  1.00  0.00    -0.200 F 
ATOM     69  C   UNL     1      13.217  14.954  -7.049  1.00  0.00     0.200 A 
ATOM     70  F   UNL     1      14.319  12.953  -7.646  1.00  0.00    -0.200 F 
ATOM     71  F   UNL     1      13.151  15.318  -8.337  1.00  0.00    -0.200 F 
ENDBRANCH  47  61
BRANCH  48  72
ATOM     72  C   UNL     1      13.524  11.092   5.141  1.00  0.00     0.064 A 
ATOM     73  C   UNL     1      13.866  11.957   6.190  1.00  0.00     0.173 A 
ATOM     74  C   UNL     1      13.226   9.760   5.463  1.00  0.00     0.173 A 
ATOM     75  F   UNL     1      14.178  13.234   5.929  1.00  0.00    -0.203 F 
ATOM     76  C   UNL     1      13.927  11.503   7.506  1.00  0.00     0.198 A 
ATOM     77  C   UNL     1      13.262   9.314   6.783  1.00  0.00     0.198 A 
ATOM     78  F   UNL     1      12.888   8.894   4.496  1.00  0.00    -0.203 F 
ATOM     79  F   UNL     1      14.298  12.341   8.484  1.00  0.00    -0.200 F 
ATOM     80  C   UNL     1      13.620  10.184   7.802  1.00  0.00     0.200 A 
ATOM     81  F   UNL     1      12.952   8.042   7.067  1.00  0.00    -0.200 F 
ATOM     82  F   UNL     1      13.676   9.749   9.068  1.00  0.00    -0.200 F 
ENDBRANCH  48  72
BRANCH  60  83
ATOM     83  C   UNL     1      18.421  13.227   0.672  1.00  0.00     0.064 A 
ATOM     84  C   UNL     1      19.283  12.122   0.711  1.00  0.00     0.173 A 
ATOM     85  C   UNL     1      18.989  14.509   0.716  1.00  0.00     0.173 A 
ATOM     86  F   UNL     1      18.786  10.876   0.688  1.00  0.00    -0.203 F 
ATOM     87  C   UNL     1      20.661  12.295   0.812  1.00  0.00     0.198 A 
ATOM     88  C   UNL     1      20.369  14.678   0.789  1.00  0.00     0.198 A 
ATOM     89  F   UNL     1      18.207  15.598   0.677  1.00  0.00    -0.203 F 
ATOM     90  F   UNL     1      21.464  11.225   0.892  1.00  0.00    -0.200 F 
ATOM     91  C   UNL     1      21.203  13.571   0.843  1.00  0.00     0.200 A 
ATOM     92  F   UNL     1      20.892  15.912   0.808  1.00  0.00    -0.200 F 
ATOM     93  F   UNL     1      22.530  13.735   0.933  1.00  0.00    -0.200 F 
ENDBRANCH  60  83
ENDBRANCH  34  35
ENDBRANCH  26  29
ENDBRANCH  24  25
ENDBRANCH  23  24
ENDBRANCH   1  23
TORSDOF 15
