REMARK SMILES C[NH2+][C@H]1CC[C@@H](Nc2ccc(C(=O)NCCCCNC(=O)c3ccc(-c4c5nc(c(-c6c(F)c(F)c(F)c(F)c6F)c6ccc([nH]6)c(-c6c(F)c(F)c(F)c(F)c6F)c6nc(c(-c7c(F)c(F)c(F)c(F)c7F)c7ccc4[nH]7)C=C6)C=C5)cc3)c(F)c2F)CC1
REMARK SMILES IDX 16 1 15 2 14 3 12 4 13 5 11 7 8 8 9 9 87 10 10 11 85 12
REMARK SMILES IDX 88 13 86 14 7 15 6 17 3 18 90 19 4 20 89 21 5 22 2 23 1 24
REMARK SMILES IDX 17 27 18 28 19 29 20 30 21 32 22 33 23 34 84 35 24 36 83 37
REMARK SMILES IDX 25 38 26 39 27 40 77 41 28 42 82 43 76 44 78 45 29 46 81 47
REMARK SMILES IDX 75 48 74 49 30 51 62 52 42 53 61 54 43 55 46 56 60 57 79 58
REMARK SMILES IDX 44 59 45 60 59 62 80 63 47 64 31 65 32 66 40 67 33 68 34 69
REMARK SMILES IDX 38 70 41 71 35 72 36 73 39 74 37 75 63 76 64 77 72 78 65 79
REMARK SMILES IDX 66 80 70 81 73 82 67 83 68 84 71 85 69 86 48 87 49 88 57 89
REMARK SMILES IDX 50 90 51 91 55 92 58 93 52 94 53 95 56 96 54 97
REMARK H PARENT 14 6 7 16 2 25 2 26 19 31 78 50 46 61
REMARK Flexibility Score: inf
ROOT
ATOM      1  C   UNL     1      -6.886   3.405   9.042  1.00  0.00     0.023 C 
ENDROOT
BRANCH   1   2
ATOM      2  C   UNL     1      -5.912   2.232   9.041  1.00  0.00     0.116 C 
BRANCH   2   3
ATOM      3  N   UNL     1      -6.540   0.951   9.321  1.00  0.00    -0.352 N 
ATOM      4  C   UNL     1      -6.325  -0.278   8.745  1.00  0.00     0.254 C 
ATOM      5  O   UNL     1      -6.983  -1.244   9.124  1.00  0.00    -0.269 OA
ATOM      6  H   UNL     1      -7.221   0.967  10.031  1.00  0.00     0.163 HD
BRANCH   4   7
ATOM      7  C   UNL     1      -5.386  -0.450   7.620  1.00  0.00     0.078 A 
ATOM      8  C   UNL     1      -3.741  -0.700   5.337  1.00  0.00     0.074 A 
ATOM      9  C   UNL     1      -5.005  -1.295   5.374  1.00  0.00     0.030 A 
ATOM     10  C   UNL     1      -3.296  -0.050   6.501  1.00  0.00     0.182 A 
ATOM     11  C   UNL     1      -5.822  -1.177   6.505  1.00  0.00     0.019 A 
ATOM     12  C   UNL     1      -4.095   0.060   7.634  1.00  0.00     0.173 A 
ATOM     13  F   UNL     1      -2.080   0.523   6.505  1.00  0.00    -0.201 F 
ATOM     14  F   UNL     1      -3.607   0.686   8.716  1.00  0.00    -0.203 F 
BRANCH   8  15
ATOM     15  N   UNL     1      -2.938  -0.691   4.210  1.00  0.00    -0.380 N 
ATOM     16  H   UNL     1      -1.964  -0.651   4.349  1.00  0.00     0.160 HD
BRANCH  15  17
ATOM     17  C   UNL     1      -3.417  -0.736   2.834  1.00  0.00     0.079 C 
ATOM     18  C   UNL     1      -0.919  -0.711   1.184  1.00  0.00     0.182 C 
ATOM     19  C   UNL     1      -1.378  -1.966   1.946  1.00  0.00     0.067 C 
ATOM     20  C   UNL     1      -1.442   0.568   1.857  1.00  0.00     0.067 C 
ATOM     21  C   UNL     1      -2.893  -1.996   2.143  1.00  0.00     0.031 C 
ATOM     22  C   UNL     1      -2.954   0.525   2.091  1.00  0.00     0.031 C 
BRANCH  18  23
ATOM     23  N   UNL     1       0.549  -0.706   1.138  1.00  0.00    -0.346 N 
ATOM     24  C   UNL     1       1.076   0.101   0.044  1.00  0.00     0.331 C 
ATOM     25  H   UNL     1       0.902  -0.331   2.018  1.00  0.00     0.346 HD
ATOM     26  H   UNL     1       0.856  -1.667   0.986  1.00  0.00     0.346 HD
ENDBRANCH  18  23
ENDBRANCH  15  17
ENDBRANCH   8  15
ENDBRANCH   4   7
ENDBRANCH   2   3
ENDBRANCH   1   2
BRANCH   1  27
ATOM     27  C   UNL     1      -7.646   3.651  10.343  1.00  0.00     0.023 C 
BRANCH  27  28
ATOM     28  C   UNL     1      -6.804   3.712  11.613  1.00  0.00     0.116 C 
BRANCH  28  29
ATOM     29  N   UNL     1      -5.775   4.739  11.585  1.00  0.00    -0.352 N 
ATOM     30  C   UNL     1      -5.520   5.766  12.465  1.00  0.00     0.251 C 
ATOM     31  H   UNL     1      -5.164   4.693  10.814  1.00  0.00     0.163 HD
ATOM     32  O   UNL     1      -4.648   6.587  12.214  1.00  0.00    -0.269 OA
BRANCH  30  33
ATOM     33  C   UNL     1      -6.330   5.912  13.696  1.00  0.00     0.039 A 
ATOM     34  C   UNL     1      -6.822   7.179  14.027  1.00  0.00     0.014 A 
ATOM     35  C   UNL     1      -6.619   4.816  14.511  1.00  0.00     0.014 A 
ATOM     36  C   UNL     1      -7.681   7.327  15.117  1.00  0.00     0.010 A 
ATOM     37  C   UNL     1      -7.537   4.950  15.551  1.00  0.00     0.010 A 
ATOM     38  C   UNL     1      -8.088   6.204  15.857  1.00  0.00    -0.014 A 
BRANCH  38  39
ATOM     39  C   UNL     1      -9.105   6.315  16.934  1.00  0.00     0.031 A 
ATOM     40  C   UNL     1      -8.745   5.984  18.354  1.00  0.00     0.074 A 
ATOM     41  C   UNL     1     -10.374   6.644  16.620  1.00  0.00     0.049 A 
ATOM     42  N   UNL     1      -9.515   5.928  19.411  1.00  0.00    -0.248 NA
ATOM     43  C   UNL     1      -7.338   5.644  18.619  1.00  0.00     0.031 C 
ATOM     44  C   UNL     1     -10.861   6.944  15.273  1.00  0.00     0.029 A 
ATOM     45  N   UNL     1     -11.490   6.771  17.411  1.00  0.00    -0.354 N 
ATOM     46  C   UNL     1      -8.693   5.531  20.457  1.00  0.00     0.074 A 
ATOM     47  C   UNL     1      -7.375   5.315  19.902  1.00  0.00     0.031 C 
ATOM     48  C   UNL     1     -12.168   7.247  15.334  1.00  0.00     0.029 A 
ATOM     49  C   UNL     1     -12.622   7.124  16.716  1.00  0.00     0.049 A 
ATOM     50  H   UNL     1     -11.480   6.624  18.384  1.00  0.00     0.167 HD
ATOM     51  C   UNL     1      -9.006   5.384  21.766  1.00  0.00     0.037 A 
ATOM     52  C   UNL     1     -13.884   7.320  17.142  1.00  0.00     0.037 A 
ATOM     53  C   UNL     1     -10.308   5.637  22.323  1.00  0.00     0.049 A 
ATOM     54  C   UNL     1     -14.203   7.156  18.603  1.00  0.00     0.074 A 
ATOM     55  C   UNL     1     -10.704   5.573  23.647  1.00  0.00     0.029 A 
ATOM     56  N   UNL     1     -11.423   6.010  21.588  1.00  0.00    -0.354 N 
ATOM     57  N   UNL     1     -13.405   6.828  19.589  1.00  0.00    -0.248 NA
ATOM     58  C   UNL     1     -15.597   7.389  19.011  1.00  0.00     0.031 C 
ATOM     59  C   UNL     1     -12.068   5.872  23.710  1.00  0.00     0.029 A 
ATOM     60  C   UNL     1     -12.512   6.164  22.431  1.00  0.00     0.049 A 
ATOM     61  H   UNL     1     -11.439   6.144  20.613  1.00  0.00     0.167 HD
ATOM     62  C   UNL     1     -14.190   6.836  20.734  1.00  0.00     0.074 A 
ATOM     63  C   UNL     1     -15.526   7.214  20.324  1.00  0.00     0.031 C 
ATOM     64  C   UNL     1     -13.833   6.551  22.009  1.00  0.00     0.037 A 
BRANCH  51  65
ATOM     65  C   UNL     1      -7.917   4.949  22.701  1.00  0.00     0.064 A 
ATOM     66  C   UNL     1      -7.953   3.680  23.297  1.00  0.00     0.173 A 
ATOM     67  C   UNL     1      -6.877   5.817  23.065  1.00  0.00     0.173 A 
ATOM     68  F   UNL     1      -8.931   2.814  22.988  1.00  0.00    -0.203 F 
ATOM     69  C   UNL     1      -6.994   3.301  24.233  1.00  0.00     0.198 A 
ATOM     70  C   UNL     1      -5.905   5.426  23.981  1.00  0.00     0.198 A 
ATOM     71  F   UNL     1      -6.794   7.038  22.515  1.00  0.00    -0.203 F 
ATOM     72  F   UNL     1      -7.065   2.095  24.813  1.00  0.00    -0.200 F 
ATOM     73  C   UNL     1      -5.970   4.172  24.571  1.00  0.00     0.200 A 
ATOM     74  F   UNL     1      -4.903   6.261  24.290  1.00  0.00    -0.200 F 
ATOM     75  F   UNL     1      -5.043   3.804  25.466  1.00  0.00    -0.200 F 
ENDBRANCH  51  65
BRANCH  52  76
ATOM     76  C   UNL     1     -14.934   7.730  16.173  1.00  0.00     0.064 A 
ATOM     77  C   UNL     1     -15.423   6.843  15.203  1.00  0.00     0.173 A 
ATOM     78  C   UNL     1     -15.454   9.031  16.190  1.00  0.00     0.173 A 
ATOM     79  F   UNL     1     -14.955   5.588  15.143  1.00  0.00    -0.203 F 
ATOM     80  C   UNL     1     -16.381   7.250  14.276  1.00  0.00     0.198 A 
ATOM     81  C   UNL     1     -16.430   9.429  15.278  1.00  0.00     0.198 A 
ATOM     82  F   UNL     1     -15.032   9.908  17.113  1.00  0.00    -0.203 F 
ATOM     83  F   UNL     1     -16.811   6.392  13.340  1.00  0.00    -0.200 F 
ATOM     84  C   UNL     1     -16.887   8.540  14.317  1.00  0.00     0.200 A 
ATOM     85  F   UNL     1     -16.933  10.669  15.337  1.00  0.00    -0.200 F 
ATOM     86  F   UNL     1     -17.817   8.926  13.434  1.00  0.00    -0.200 F 
ENDBRANCH  52  76
BRANCH  64  87
ATOM     87  C   UNL     1     -14.890   6.655  23.068  1.00  0.00     0.064 A 
ATOM     88  C   UNL     1     -14.848   7.691  24.014  1.00  0.00     0.173 A 
ATOM     89  C   UNL     1     -15.891   5.683  23.199  1.00  0.00     0.173 A 
ATOM     90  F   UNL     1     -13.903   8.641  23.935  1.00  0.00    -0.203 F 
ATOM     91  C   UNL     1     -15.759   7.738  25.064  1.00  0.00     0.198 A 
ATOM     92  C   UNL     1     -16.817   5.747  24.236  1.00  0.00     0.198 A 
ATOM     93  F   UNL     1     -15.979   4.681  22.311  1.00  0.00    -0.203 F 
ATOM     94  F   UNL     1     -15.679   8.716  25.977  1.00  0.00    -0.200 F 
ATOM     95  C   UNL     1     -16.744   6.768  25.173  1.00  0.00     0.200 A 
ATOM     96  F   UNL     1     -17.782   4.821  24.329  1.00  0.00    -0.200 F 
ATOM     97  F   UNL     1     -17.625   6.816  26.182  1.00  0.00    -0.200 F 
ENDBRANCH  64  87
ENDBRANCH  38  39
ENDBRANCH  30  33
ENDBRANCH  28  29
ENDBRANCH  27  28
ENDBRANCH   1  27
TORSDOF 14
