REMARK SMILES Cc1ccc([N+](=O)[O-])c(O[C@@H]2CCC[C@]([NH3+])(C(=O)NCCCCNC(=O)c3ccc(-c4c5nc(c(-c6c(F)c(F)c(F)c(F)c6F)c6ccc([nH]6)c(-c6c(F)c(F)c(F)c(F)c6F)c6nc(c(-c7c(F)c(F)c(F)c(F)c7F)c7ccc4[nH]7)C=C6)C=C5)cc3)C2)c1
REMARK SMILES IDX 21 1 20 2 19 3 17 4 18 5 15 7 11 8 12 9 90 10 13 11 14 12
REMARK SMILES IDX 10 13 9 14 1 15 2 16 3 17 91 18 4 19 5 20 6 21 7 22 8 23
REMARK SMILES IDX 16 24 22 28 23 29 24 30 25 31 26 33 27 34 28 35 89 36 29 37
REMARK SMILES IDX 88 38 30 39 31 40 32 41 82 42 33 43 87 44 81 45 83 46 34 47
REMARK SMILES IDX 86 48 80 49 79 50 35 52 67 53 47 54 66 55 48 56 51 57 65 58
REMARK SMILES IDX 84 59 49 60 50 61 64 63 85 64 52 65 36 66 37 67 45 68 38 69
REMARK SMILES IDX 39 70 43 71 46 72 40 73 41 74 44 75 42 76 68 77 69 78 77 79
REMARK SMILES IDX 70 80 71 81 75 82 78 83 72 84 73 85 76 86 74 87 53 88 54 89
REMARK SMILES IDX 62 90 55 91 56 92 60 93 63 94 57 95 58 96 61 97 59 98
REMARK H PARENT 19 6 16 25 16 26 16 27 24 32 83 51 51 62
REMARK Flexibility Score: inf
ROOT
ATOM      1  C   UNL     1       3.886   2.891   1.534  1.00  0.00     0.023 C 
ENDROOT
BRANCH   1   2
ATOM      2  C   UNL     1       2.473   3.085   2.079  1.00  0.00     0.116 C 
BRANCH   2   3
ATOM      3  N   UNL     1       2.208   4.394   2.642  1.00  0.00    -0.351 N 
ATOM      4  C   UNL     1       1.253   5.325   2.350  1.00  0.00     0.281 C 
ATOM      5  O   UNL     1       1.195   6.303   3.108  1.00  0.00    -0.268 OA
ATOM      6  H   UNL     1       2.826   4.659   3.361  1.00  0.00     0.163 HD
BRANCH   4   7
ATOM      7  C   UNL     1       0.306   5.230   1.101  1.00  0.00     0.177 C 
ATOM      8  C   UNL     1      -1.259   3.643  -0.223  1.00  0.00     0.180 C 
ATOM      9  C   UNL     1      -0.456   3.918  -1.503  1.00  0.00     0.046 C 
ATOM     10  C   UNL     1      -0.605   3.989   1.127  1.00  0.00     0.124 C 
ATOM     11  C   UNL     1       0.311   5.230  -1.456  1.00  0.00     0.011 C 
ATOM     12  C   UNL     1       1.148   5.337  -0.184  1.00  0.00     0.079 C 
BRANCH   8  13
ATOM     13  O   UNL     1      -1.875   2.343  -0.210  1.00  0.00    -0.483 OA
BRANCH  13  14
ATOM     14  C   UNL     1      -1.218   1.149  -0.156  1.00  0.00     0.197 A 
ATOM     15  C   UNL     1       2.322  -0.319  -0.239  1.00  0.00     0.044 C 
ATOM     16  C   UNL     1       0.823  -0.225  -0.196  1.00  0.00    -0.047 A 
ATOM     17  C   UNL     1       0.057  -1.384  -0.128  1.00  0.00     0.011 A 
ATOM     18  C   UNL     1       0.178   1.023  -0.197  1.00  0.00     0.057 A 
ATOM     19  C   UNL     1      -1.332  -1.295  -0.068  1.00  0.00     0.090 A 
ATOM     20  C   UNL     1      -1.972  -0.038  -0.081  1.00  0.00     0.310 A 
BRANCH  20  21
ATOM     21  N   UNL     1      -3.447  -0.034  -0.005  1.00  0.00     0.066 N 
ATOM     22  O   UNL     1      -4.017  -1.137  -0.051  1.00  0.00    -0.258 OA
ATOM     23  O   UNL     1      -4.053   1.038   0.117  1.00  0.00    -0.258 OA
ENDBRANCH  20  21
ENDBRANCH  13  14
ENDBRANCH   8  13
BRANCH   7  24
ATOM     24  N   UNL     1      -0.590   6.426   1.122  1.00  0.00    -0.345 N 
ATOM     25  H   UNL     1      -1.220   6.393   0.321  1.00  0.00     0.345 HD
ATOM     26  H   UNL     1      -0.026   7.275   1.077  1.00  0.00     0.345 HD
ATOM     27  H   UNL     1      -1.136   6.427   1.984  1.00  0.00     0.345 HD
ENDBRANCH   7  24
ENDBRANCH   4   7
ENDBRANCH   2   3
ENDBRANCH   1   2
BRANCH   1  28
ATOM     28  C   UNL     1       5.019   3.049   2.538  1.00  0.00     0.023 C 
BRANCH  28  29
ATOM     29  C   UNL     1       5.012   2.053   3.688  1.00  0.00     0.116 C 
BRANCH  29  30
ATOM     30  N   UNL     1       5.550   0.738   3.374  1.00  0.00    -0.352 N 
ATOM     31  C   UNL     1       5.692  -0.383   4.183  1.00  0.00     0.251 C 
ATOM     32  H   UNL     1       5.861   0.625   2.447  1.00  0.00     0.163 HD
ATOM     33  O   UNL     1       6.242  -1.376   3.741  1.00  0.00    -0.269 OA
BRANCH  31  34
ATOM     34  C   UNL     1       5.043  -0.431   5.525  1.00  0.00     0.039 A 
ATOM     35  C   UNL     1       4.434  -1.633   5.916  1.00  0.00     0.014 A 
ATOM     36  C   UNL     1       4.852   0.713   6.290  1.00  0.00     0.014 A 
ATOM     37  C   UNL     1       3.428  -1.610   6.880  1.00  0.00     0.010 A 
ATOM     38  C   UNL     1       3.780   0.766   7.154  1.00  0.00     0.010 A 
ATOM     39  C   UNL     1       3.017  -0.380   7.382  1.00  0.00    -0.014 A 
BRANCH  39  40
ATOM     40  C   UNL     1       1.735  -0.150   8.031  1.00  0.00     0.031 A 
ATOM     41  C   UNL     1       1.673   0.176   9.469  1.00  0.00     0.074 A 
ATOM     42  C   UNL     1       0.636  -0.055   7.247  1.00  0.00     0.049 A 
ATOM     43  N   UNL     1       0.579   0.219  10.148  1.00  0.00    -0.248 NA
ATOM     44  C   UNL     1       2.860   0.410  10.289  1.00  0.00     0.031 C 
ATOM     45  C   UNL     1      -0.653   0.546   7.580  1.00  0.00     0.029 A 
ATOM     46  N   UNL     1       0.414  -0.683   6.006  1.00  0.00    -0.354 N 
ATOM     47  C   UNL     1       0.869   0.754  11.380  1.00  0.00     0.074 A 
ATOM     48  C   UNL     1       2.305   0.728  11.464  1.00  0.00     0.031 C 
ATOM     49  C   UNL     1      -1.592   0.042   6.762  1.00  0.00     0.029 A 
ATOM     50  C   UNL     1      -0.960  -1.023   6.004  1.00  0.00     0.049 A 
ATOM     51  H   UNL     1       1.073  -0.849   5.293  1.00  0.00     0.167 HD
ATOM     52  C   UNL     1      -0.155   1.270  12.115  1.00  0.00     0.037 A 
ATOM     53  C   UNL     1      -1.369  -2.325   6.021  1.00  0.00     0.037 A 
ATOM     54  C   UNL     1      -1.442   0.825  11.579  1.00  0.00     0.049 A 
ATOM     55  C   UNL     1      -2.231  -2.683   7.210  1.00  0.00     0.074 A 
ATOM     56  C   UNL     1      -2.441   1.444  10.849  1.00  0.00     0.029 A 
ATOM     57  N   UNL     1      -1.714  -0.541  11.545  1.00  0.00    -0.354 N 
ATOM     58  N   UNL     1      -2.250  -2.009   8.327  1.00  0.00    -0.248 NA
ATOM     59  C   UNL     1      -3.109  -3.848   7.242  1.00  0.00     0.031 C 
ATOM     60  C   UNL     1      -3.261   0.424  10.291  1.00  0.00     0.029 A 
ATOM     61  C   UNL     1      -2.790  -0.805  10.722  1.00  0.00     0.049 A 
ATOM     62  H   UNL     1      -1.208  -1.225  12.040  1.00  0.00     0.167 HD
ATOM     63  C   UNL     1      -3.081  -2.632   9.220  1.00  0.00     0.074 A 
ATOM     64  C   UNL     1      -3.614  -3.764   8.485  1.00  0.00     0.031 C 
ATOM     65  C   UNL     1      -3.239  -2.174  10.498  1.00  0.00     0.037 A 
BRANCH  52  66
ATOM     66  C   UNL     1      -0.028   2.321  13.205  1.00  0.00     0.064 A 
ATOM     67  C   UNL     1      -1.186   2.802  13.861  1.00  0.00     0.173 A 
ATOM     68  C   UNL     1       1.160   2.995  13.561  1.00  0.00     0.173 A 
ATOM     69  F   UNL     1      -2.392   2.266  13.623  1.00  0.00    -0.203 F 
ATOM     70  C   UNL     1      -1.154   3.869  14.768  1.00  0.00     0.198 A 
ATOM     71  C   UNL     1       1.197   4.029  14.504  1.00  0.00     0.198 A 
ATOM     72  F   UNL     1       2.334   2.737  12.980  1.00  0.00    -0.203 F 
ATOM     73  F   UNL     1      -2.295   4.318  15.309  1.00  0.00    -0.200 F 
ATOM     74  C   UNL     1       0.039   4.477  15.096  1.00  0.00     0.200 A 
ATOM     75  F   UNL     1       2.371   4.606  14.804  1.00  0.00    -0.200 F 
ATOM     76  F   UNL     1       0.073   5.499  15.961  1.00  0.00    -0.200 F 
ENDBRANCH  52  66
BRANCH  53  77
ATOM     77  C   UNL     1      -0.406  -3.251   5.367  1.00  0.00     0.064 A 
ATOM     78  C   UNL     1      -0.150  -3.093   3.990  1.00  0.00     0.173 A 
ATOM     79  C   UNL     1       0.516  -3.994   6.115  1.00  0.00     0.173 A 
ATOM     80  F   UNL     1      -1.001  -2.389   3.227  1.00  0.00    -0.203 F 
ATOM     81  C   UNL     1       1.034  -3.551   3.417  1.00  0.00     0.198 A 
ATOM     82  C   UNL     1       1.695  -4.464   5.532  1.00  0.00     0.198 A 
ATOM     83  F   UNL     1       0.342  -4.162   7.433  1.00  0.00    -0.203 F 
ATOM     84  F   UNL     1       1.303  -3.287   2.131  1.00  0.00    -0.200 F 
ATOM     85  C   UNL     1       1.969  -4.211   4.196  1.00  0.00     0.200 A 
ATOM     86  F   UNL     1       2.617  -5.073   6.291  1.00  0.00    -0.200 F 
ATOM     87  F   UNL     1       3.152  -4.561   3.672  1.00  0.00    -0.200 F 
ENDBRANCH  53  77
BRANCH  65  88
ATOM     88  C   UNL     1      -3.884  -2.934  11.637  1.00  0.00     0.064 A 
ATOM     89  C   UNL     1      -3.953  -4.336  11.712  1.00  0.00     0.173 A 
ATOM     90  C   UNL     1      -4.331  -2.247  12.793  1.00  0.00     0.173 A 
ATOM     91  F   UNL     1      -3.442  -5.114  10.749  1.00  0.00    -0.203 F 
ATOM     92  C   UNL     1      -4.494  -4.996  12.820  1.00  0.00     0.198 A 
ATOM     93  C   UNL     1      -4.811  -2.910  13.922  1.00  0.00     0.198 A 
ATOM     94  F   UNL     1      -4.285  -0.909  12.875  1.00  0.00    -0.203 F 
ATOM     95  F   UNL     1      -4.577  -6.334  12.818  1.00  0.00    -0.200 F 
ATOM     96  C   UNL     1      -4.911  -4.285  13.929  1.00  0.00     0.200 A 
ATOM     97  F   UNL     1      -5.153  -2.209  15.012  1.00  0.00    -0.200 F 
ATOM     98  F   UNL     1      -5.381  -4.925  15.008  1.00  0.00    -0.200 F 
ENDBRANCH  65  88
ENDBRANCH  39  40
ENDBRANCH  31  34
ENDBRANCH  29  30
ENDBRANCH  28  29
ENDBRANCH   1  28
TORSDOF 15
