REMARK SMILES C[NH2+][C@@]1(C(=O)NCCCCNC(=O)c2ccc(-c3c4nc(c(-c5c(F)c(F)c(F)c(F)c5F)c5ccc([nH]5)c(-c5c(F)c(F)c(F)c(F)c5F)c5nc(c(-c6c(F)c(F)c(F)c(F)c6F)c6ccc3[nH]6)C=C5)C=C4)cc2)CC[C@H](n2ccc(C)n2)C1
REMARK SMILES IDX 9 1 8 2 7 3 6 4 4 5 5 6 3 8 77 9 86 10 78 11 79 12 2 13 1 14
REMARK SMILES IDX 80 17 81 18 85 19 82 20 83 21 84 22 10 23 11 24 12 25 13 27
REMARK SMILES IDX 14 28 15 29 76 30 16 31 75 32 17 33 18 34 19 35 69 36 20 37
REMARK SMILES IDX 74 38 68 39 70 40 21 41 73 42 67 43 66 44 22 46 54 47 34 48
REMARK SMILES IDX 53 49 35 50 38 51 52 52 71 53 36 54 37 55 51 57 72 58 39 59
REMARK SMILES IDX 23 60 24 61 32 62 25 63 26 64 30 65 33 66 27 67 28 68 31 69
REMARK SMILES IDX 29 70 55 71 56 72 64 73 57 74 58 75 62 76 65 77 59 78 60 79
REMARK SMILES IDX 63 80 61 81 40 82 41 83 49 84 42 85 43 86 47 87 50 88 44 89
REMARK SMILES IDX 45 90 48 91 46 92
REMARK H PARENT 6 7 2 15 2 16 11 26 70 45 38 56
REMARK Flexibility Score: inf
ROOT
ATOM      1  C   UNL     1      -5.217   0.398   1.811  1.00  0.00     0.023 C 
ENDROOT
BRANCH   1   2
ATOM      2  C   UNL     1      -4.390   0.567   0.547  1.00  0.00     0.023 C 
BRANCH   2   3
ATOM      3  C   UNL     1      -3.618   1.870   0.445  1.00  0.00     0.116 C 
BRANCH   3   4
ATOM      4  N   UNL     1      -2.269   1.701   0.924  1.00  0.00    -0.351 N 
ATOM      5  C   UNL     1      -1.109   1.274   0.376  1.00  0.00     0.281 C 
ATOM      6  O   UNL     1      -0.192   1.227   1.210  1.00  0.00    -0.268 OA
ATOM      7  H   UNL     1      -2.169   1.955   1.870  1.00  0.00     0.163 HD
BRANCH   5   8
ATOM      8  C   UNL     1      -0.857   0.867  -1.144  1.00  0.00     0.177 C 
ATOM      9  C   UNL     1      -1.581   1.731  -2.190  1.00  0.00     0.081 C 
ATOM     10  C   UNL     1      -1.261  -0.575  -1.495  1.00  0.00     0.106 C 
ATOM     11  C   UNL     1      -2.756   0.920  -2.740  1.00  0.00     0.034 C 
ATOM     12  C   UNL     1      -2.465  -0.556  -2.458  1.00  0.00     0.114 C 
BRANCH   8  13
ATOM     13  N   UNL     1       0.606   1.078  -1.429  1.00  0.00    -0.336 N 
ATOM     14  C   UNL     1       1.532   0.143  -0.784  1.00  0.00     0.331 C 
ATOM     15  H   UNL     1       0.741   1.004  -2.437  1.00  0.00     0.346 HD
ATOM     16  H   UNL     1       0.830   1.995  -1.042  1.00  0.00     0.346 HD
ENDBRANCH   8  13
BRANCH  12  17
ATOM     17  N   UNL     1      -3.612  -1.339  -2.012  1.00  0.00    -0.269 N 
ATOM     18  C   UNL     1      -4.906  -1.265  -2.453  1.00  0.00     0.109 A 
ATOM     19  N   UNL     1      -3.455  -2.264  -1.047  1.00  0.00    -0.178 NA
ATOM     20  C   UNL     1      -5.641  -2.083  -1.622  1.00  0.00     0.045 A 
ATOM     21  C   UNL     1      -4.694  -2.661  -0.748  1.00  0.00     0.059 A 
ATOM     22  C   UNL     1      -4.922  -3.554   0.413  1.00  0.00     0.069 C 
ENDBRANCH  12  17
ENDBRANCH   5   8
ENDBRANCH   3   4
ENDBRANCH   2   3
ENDBRANCH   1   2
BRANCH   1  23
ATOM     23  C   UNL     1      -6.397   1.348   1.915  1.00  0.00     0.116 C 
BRANCH  23  24
ATOM     24  N   UNL     1      -7.367   1.223   0.832  1.00  0.00    -0.352 N 
ATOM     25  C   UNL     1      -8.745   1.260   0.896  1.00  0.00     0.251 C 
ATOM     26  H   UNL     1      -6.987   1.095  -0.067  1.00  0.00     0.163 HD
ATOM     27  O   UNL     1      -9.426   1.078  -0.099  1.00  0.00    -0.269 OA
BRANCH  25  28
ATOM     28  C   UNL     1      -9.382   1.461   2.216  1.00  0.00     0.039 A 
ATOM     29  C   UNL     1     -10.386   0.582   2.627  1.00  0.00     0.014 A 
ATOM     30  C   UNL     1      -8.894   2.435   3.086  1.00  0.00     0.014 A 
ATOM     31  C   UNL     1     -10.820   0.612   3.954  1.00  0.00     0.010 A 
ATOM     32  C   UNL     1      -9.230   2.374   4.430  1.00  0.00     0.010 A 
ATOM     33  C   UNL     1     -10.200   1.464   4.881  1.00  0.00    -0.014 A 
BRANCH  33  34
ATOM     34  C   UNL     1     -10.544   1.445   6.326  1.00  0.00     0.031 A 
ATOM     35  C   UNL     1     -11.002   2.714   6.995  1.00  0.00     0.074 A 
ATOM     36  C   UNL     1     -10.342   0.331   7.058  1.00  0.00     0.049 A 
ATOM     37  N   UNL     1     -11.196   2.962   8.265  1.00  0.00    -0.248 NA
ATOM     38  C   UNL     1     -11.213   3.880   6.121  1.00  0.00     0.031 C 
ATOM     39  C   UNL     1      -9.823  -0.941   6.549  1.00  0.00     0.029 A 
ATOM     40  N   UNL     1     -10.539   0.094   8.396  1.00  0.00    -0.354 N 
ATOM     41  C   UNL     1     -11.495   4.316   8.341  1.00  0.00     0.074 A 
ATOM     42  C   UNL     1     -11.394   4.850   7.002  1.00  0.00     0.031 C 
ATOM     43  C   UNL     1      -9.780  -1.833   7.552  1.00  0.00     0.029 A 
ATOM     44  C   UNL     1     -10.228  -1.188   8.782  1.00  0.00     0.049 A 
ATOM     45  H   UNL     1     -10.870   0.778   9.021  1.00  0.00     0.167 HD
ATOM     46  C   UNL     1     -11.858   5.042   9.424  1.00  0.00     0.037 A 
ATOM     47  C   UNL     1     -10.300  -1.774   9.992  1.00  0.00     0.037 A 
ATOM     48  C   UNL     1     -12.041   4.487  10.736  1.00  0.00     0.049 A 
ATOM     49  C   UNL     1     -10.786  -0.967  11.166  1.00  0.00     0.074 A 
ATOM     50  C   UNL     1     -12.501   5.110  11.882  1.00  0.00     0.029 A 
ATOM     51  N   UNL     1     -11.790   3.164  11.070  1.00  0.00    -0.354 N 
ATOM     52  N   UNL     1     -11.131   0.297  11.214  1.00  0.00    -0.248 NA
ATOM     53  C   UNL     1     -10.899  -1.669  12.451  1.00  0.00     0.031 C 
ATOM     54  C   UNL     1     -12.506   4.169  12.917  1.00  0.00     0.029 A 
ATOM     55  C   UNL     1     -12.083   2.952  12.407  1.00  0.00     0.049 A 
ATOM     56  H   UNL     1     -11.454   2.478  10.450  1.00  0.00     0.167 HD
ATOM     57  C   UNL     1     -11.527   0.535  12.523  1.00  0.00     0.074 A 
ATOM     58  C   UNL     1     -11.393  -0.720  13.234  1.00  0.00     0.031 C 
ATOM     59  C   UNL     1     -11.958   1.689  13.087  1.00  0.00     0.037 A 
BRANCH  46  60
ATOM     60  C   UNL     1     -12.105   6.509   9.222  1.00  0.00     0.064 A 
ATOM     61  C   UNL     1     -13.203   6.976   8.482  1.00  0.00     0.173 A 
ATOM     62  C   UNL     1     -11.241   7.461   9.783  1.00  0.00     0.173 A 
ATOM     63  F   UNL     1     -14.051   6.107   7.911  1.00  0.00    -0.203 F 
ATOM     64  C   UNL     1     -13.402   8.338   8.276  1.00  0.00     0.198 A 
ATOM     65  C   UNL     1     -11.463   8.824   9.604  1.00  0.00     0.198 A 
ATOM     66  F   UNL     1     -10.179   7.070  10.504  1.00  0.00    -0.203 F 
ATOM     67  F   UNL     1     -14.419   8.756   7.510  1.00  0.00    -0.200 F 
ATOM     68  C   UNL     1     -12.536   9.261   8.842  1.00  0.00     0.200 A 
ATOM     69  F   UNL     1     -10.632   9.716  10.161  1.00  0.00    -0.200 F 
ATOM     70  F   UNL     1     -12.730  10.572   8.644  1.00  0.00    -0.200 F 
ENDBRANCH  46  60
BRANCH  47  71
ATOM     71  C   UNL     1      -9.953  -3.211  10.146  1.00  0.00     0.064 A 
ATOM     72  C   UNL     1     -10.953  -4.165  10.382  1.00  0.00     0.173 A 
ATOM     73  C   UNL     1      -8.628  -3.661  10.063  1.00  0.00     0.173 A 
ATOM     74  F   UNL     1     -12.233  -3.780  10.489  1.00  0.00    -0.203 F 
ATOM     75  C   UNL     1     -10.639  -5.512  10.549  1.00  0.00     0.198 A 
ATOM     76  C   UNL     1      -8.318  -5.012  10.205  1.00  0.00     0.198 A 
ATOM     77  F   UNL     1      -7.636  -2.789   9.832  1.00  0.00    -0.203 F 
ATOM     78  F   UNL     1     -11.610  -6.396  10.816  1.00  0.00    -0.200 F 
ATOM     79  C   UNL     1      -9.322  -5.936  10.456  1.00  0.00     0.200 A 
ATOM     80  F   UNL     1      -7.045  -5.420  10.101  1.00  0.00    -0.200 F 
ATOM     81  F   UNL     1      -9.020  -7.232  10.613  1.00  0.00    -0.200 F 
ENDBRANCH  47  71
BRANCH  59  82
ATOM     82  C   UNL     1     -12.353   1.641  14.532  1.00  0.00     0.064 A 
ATOM     83  C   UNL     1     -11.395   1.554  15.551  1.00  0.00     0.173 A 
ATOM     84  C   UNL     1     -13.703   1.736  14.900  1.00  0.00     0.173 A 
ATOM     85  F   UNL     1     -10.093   1.447  15.246  1.00  0.00    -0.203 F 
ATOM     86  C   UNL     1     -11.776   1.545  16.890  1.00  0.00     0.198 A 
ATOM     87  C   UNL     1     -14.079   1.754  16.240  1.00  0.00     0.198 A 
ATOM     88  F   UNL     1     -14.656   1.829  13.960  1.00  0.00    -0.203 F 
ATOM     89  F   UNL     1     -10.847   1.422  17.848  1.00  0.00    -0.200 F 
ATOM     90  C   UNL     1     -13.116   1.653  17.233  1.00  0.00     0.200 A 
ATOM     91  F   UNL     1     -15.372   1.870  16.570  1.00  0.00    -0.200 F 
ATOM     92  F   UNL     1     -13.480   1.653  18.523  1.00  0.00    -0.200 F 
ENDBRANCH  59  82
ENDBRANCH  33  34
ENDBRANCH  25  28
ENDBRANCH  23  24
ENDBRANCH   1  23
TORSDOF 13
