REMARK SMILES O=C(NCCCCNC(=O)c1ccc([C@H]2CCCN(C(=O)c3ccc4[nH]ccc4c3)C2)cc1)c1ccc(-c2c3nc(c(-c4c(F)c(F)c(F)c(F)c4F)c4ccc([nH]4)c(-c4c(F)c(F)c(F)c(F)c4F)c4nc(c(-c5c(F)c(F)c(F)c(F)c5F)c5ccc2[nH]5)C=C4)C=C3)cc1
REMARK SMILES IDX 6 1 5 2 4 3 3 4 1 5 2 6 34 8 35 9 96 10 36 11 95 12 37 13
REMARK SMILES IDX 38 14 39 15 89 16 40 17 94 18 88 19 90 20 41 21 93 22 87 23
REMARK SMILES IDX 86 24 42 26 74 27 54 28 73 29 55 30 58 31 72 32 91 33 56 34
REMARK SMILES IDX 57 35 71 37 92 38 59 39 43 40 44 41 52 42 45 43 46 44 50 45
REMARK SMILES IDX 53 46 47 47 48 48 51 49 49 50 75 51 76 52 84 53 77 54 78 55
REMARK SMILES IDX 82 56 85 57 79 58 80 59 83 60 81 61 60 62 61 63 69 64 62 65
REMARK SMILES IDX 63 66 67 67 70 68 64 69 65 70 68 71 66 72 7 73 8 74 9 75
REMARK SMILES IDX 10 77 11 78 12 79 33 80 13 81 32 82 14 83 15 84 16 85 31 86
REMARK SMILES IDX 17 87 19 88 18 89 20 90 21 91 22 92 23 93 30 94 24 95 29 96
REMARK SMILES IDX 25 97 28 98 26 99 27 100
REMARK H PARENT 3 7 90 25 58 36 8 76 26 101
REMARK Flexibility Score: inf
ROOT
ATOM      1  C   UNL     1       7.721 -13.328  -5.546  1.00  0.00     0.023 C 
ENDROOT
BRANCH   1   2
ATOM      2  C   UNL     1       8.391 -13.439  -6.912  1.00  0.00     0.023 C 
BRANCH   2   3
ATOM      3  C   UNL     1       9.828 -12.943  -6.975  1.00  0.00     0.116 C 
BRANCH   3   4
ATOM      4  N   UNL     1      10.739 -13.724  -6.153  1.00  0.00    -0.352 N 
ATOM      5  O   UNL     1      12.462 -15.113  -5.716  1.00  0.00    -0.269 OA
ATOM      6  C   UNL     1      11.886 -14.396  -6.516  1.00  0.00     0.251 C 
ATOM      7  H   UNL     1      10.502 -13.780  -5.199  1.00  0.00     0.163 HD
BRANCH   6   8
ATOM      8  C   UNL     1      12.397 -14.267  -7.900  1.00  0.00     0.039 A 
ATOM      9  C   UNL     1      12.467 -13.018  -8.520  1.00  0.00     0.014 A 
ATOM     10  C   UNL     1      12.803 -15.415  -8.587  1.00  0.00     0.014 A 
ATOM     11  C   UNL     1      12.783 -12.935  -9.870  1.00  0.00     0.010 A 
ATOM     12  C   UNL     1      13.218 -15.316  -9.918  1.00  0.00     0.010 A 
ATOM     13  C   UNL     1      13.180 -14.080 -10.581  1.00  0.00    -0.014 A 
BRANCH  13  14
ATOM     14  C   UNL     1      13.621 -13.938 -11.992  1.00  0.00     0.031 A 
ATOM     15  C   UNL     1      12.873 -14.595 -13.117  1.00  0.00     0.074 A 
ATOM     16  C   UNL     1      14.702 -13.178 -12.251  1.00  0.00     0.049 A 
ATOM     17  N   UNL     1      13.120 -14.560 -14.403  1.00  0.00    -0.248 NA
ATOM     18  C   UNL     1      11.700 -15.405 -12.756  1.00  0.00     0.031 C 
ATOM     19  C   UNL     1      15.514 -12.499 -11.237  1.00  0.00     0.029 A 
ATOM     20  N   UNL     1      15.297 -12.832 -13.437  1.00  0.00    -0.354 N 
ATOM     21  C   UNL     1      12.149 -15.350 -15.002  1.00  0.00     0.074 A 
ATOM     22  C   UNL     1      11.322 -15.878 -13.936  1.00  0.00     0.031 C 
ATOM     23  C   UNL     1      16.469 -11.784 -11.844  1.00  0.00     0.029 A 
ATOM     24  C   UNL     1      16.384 -12.008 -13.282  1.00  0.00     0.049 A 
ATOM     25  H   UNL     1      14.976 -13.145 -14.313  1.00  0.00     0.167 HD
ATOM     26  C   UNL     1      11.962 -15.603 -16.321  1.00  0.00     0.037 A 
ATOM     27  C   UNL     1      17.236 -11.505 -14.194  1.00  0.00     0.037 A 
ATOM     28  C   UNL     1      12.786 -15.065 -17.375  1.00  0.00     0.049 A 
ATOM     29  C   UNL     1      17.026 -11.834 -15.643  1.00  0.00     0.074 A 
ATOM     30  C   UNL     1      12.655 -15.230 -18.743  1.00  0.00     0.029 A 
ATOM     31  N   UNL     1      13.901 -14.262 -17.177  1.00  0.00    -0.354 N 
ATOM     32  N   UNL     1      16.080 -12.550 -16.200  1.00  0.00    -0.248 NA
ATOM     33  C   UNL     1      18.004 -11.286 -16.591  1.00  0.00     0.031 C 
ATOM     34  C   UNL     1      13.722 -14.578 -19.369  1.00  0.00     0.029 A 
ATOM     35  C   UNL     1      14.485 -13.952 -18.397  1.00  0.00     0.049 A 
ATOM     36  H   UNL     1      14.229 -13.958 -16.301  1.00  0.00     0.167 HD
ATOM     37  C   UNL     1      16.337 -12.526 -17.563  1.00  0.00     0.074 A 
ATOM     38  C   UNL     1      17.515 -11.703 -17.750  1.00  0.00     0.031 C 
ATOM     39  C   UNL     1      15.660 -13.134 -18.567  1.00  0.00     0.037 A 
BRANCH  26  40
ATOM     40  C   UNL     1      10.835 -16.521 -16.705  1.00  0.00     0.064 A 
ATOM     41  C   UNL     1       9.491 -16.138 -16.581  1.00  0.00     0.173 A 
ATOM     42  C   UNL     1      11.105 -17.785 -17.253  1.00  0.00     0.173 A 
ATOM     43  F   UNL     1       9.175 -14.944 -16.056  1.00  0.00    -0.203 F 
ATOM     44  C   UNL     1       8.461 -16.994 -16.965  1.00  0.00     0.198 A 
ATOM     45  C   UNL     1      10.075 -18.627 -17.665  1.00  0.00     0.198 A 
ATOM     46  F   UNL     1      12.372 -18.201 -17.404  1.00  0.00    -0.203 F 
ATOM     47  F   UNL     1       7.185 -16.624 -16.794  1.00  0.00    -0.200 F 
ATOM     48  C   UNL     1       8.754 -18.234 -17.513  1.00  0.00     0.200 A 
ATOM     49  F   UNL     1      10.360 -19.818 -18.208  1.00  0.00    -0.200 F 
ATOM     50  F   UNL     1       7.762 -19.053 -17.890  1.00  0.00    -0.200 F 
ENDBRANCH  26  40
BRANCH  27  51
ATOM     51  C   UNL     1      18.366 -10.649 -13.751  1.00  0.00     0.064 A 
ATOM     52  C   UNL     1      18.410  -9.286 -14.073  1.00  0.00     0.173 A 
ATOM     53  C   UNL     1      19.418 -11.173 -12.984  1.00  0.00     0.173 A 
ATOM     54  F   UNL     1      17.437  -8.743 -14.819  1.00  0.00    -0.203 F 
ATOM     55  C   UNL     1      19.470  -8.483 -13.657  1.00  0.00     0.198 A 
ATOM     56  C   UNL     1      20.459 -10.363 -12.540  1.00  0.00     0.198 A 
ATOM     57  F   UNL     1      19.419 -12.470 -12.643  1.00  0.00    -0.203 F 
ATOM     58  F   UNL     1      19.510  -7.193 -14.015  1.00  0.00    -0.200 F 
ATOM     59  C   UNL     1      20.489  -9.021 -12.885  1.00  0.00     0.200 A 
ATOM     60  F   UNL     1      21.431 -10.882 -11.778  1.00  0.00    -0.200 F 
ATOM     61  F   UNL     1      21.503  -8.245 -12.477  1.00  0.00    -0.200 F 
ENDBRANCH  27  51
BRANCH  39  62
ATOM     62  C   UNL     1      16.163 -12.906 -19.964  1.00  0.00     0.064 A 
ATOM     63  C   UNL     1      17.366 -13.470 -20.415  1.00  0.00     0.173 A 
ATOM     64  C   UNL     1      15.422 -12.130 -20.868  1.00  0.00     0.173 A 
ATOM     65  F   UNL     1      18.120 -14.205 -19.584  1.00  0.00    -0.203 F 
ATOM     66  C   UNL     1      17.822 -13.242 -21.710  1.00  0.00     0.198 A 
ATOM     67  C   UNL     1      15.865 -11.931 -22.172  1.00  0.00     0.198 A 
ATOM     68  F   UNL     1      14.263 -11.571 -20.489  1.00  0.00    -0.203 F 
ATOM     69  F   UNL     1      19.001 -13.745 -22.102  1.00  0.00    -0.200 F 
ATOM     70  C   UNL     1      17.068 -12.479 -22.590  1.00  0.00     0.200 A 
ATOM     71  F   UNL     1      15.128 -11.205 -23.025  1.00  0.00    -0.200 F 
ATOM     72  F   UNL     1      17.506 -12.264 -23.837  1.00  0.00    -0.200 F 
ENDBRANCH  39  62
ENDBRANCH  13  14
ENDBRANCH   6   8
ENDBRANCH   3   4
ENDBRANCH   2   3
ENDBRANCH   1   2
BRANCH   1  73
ATOM     73  C   UNL     1       7.835 -11.973  -4.852  1.00  0.00     0.116 C 
BRANCH  73  74
ATOM     74  N   UNL     1       7.391 -10.857  -5.668  1.00  0.00    -0.352 N 
ATOM     75  C   UNL     1       6.590  -9.790  -5.345  1.00  0.00     0.251 C 
ATOM     76  H   UNL     1       7.715 -10.867  -6.597  1.00  0.00     0.163 HD
ATOM     77  O   UNL     1       6.306  -8.969  -6.214  1.00  0.00    -0.269 OA
BRANCH  75  78
ATOM     78  C   UNL     1       5.967  -9.692  -4.007  1.00  0.00     0.039 A 
ATOM     79  C   UNL     1       4.592  -9.492  -3.996  1.00  0.00     0.014 A 
ATOM     80  C   UNL     1       6.659  -9.876  -2.800  1.00  0.00     0.014 A 
ATOM     81  C   UNL     1       3.902  -9.632  -2.804  1.00  0.00     0.005 A 
ATOM     82  C   UNL     1       5.954 -10.056  -1.596  1.00  0.00     0.005 A 
ATOM     83  C   UNL     1       4.560 -10.007  -1.610  1.00  0.00    -0.043 A 
BRANCH  83  84
ATOM     84  C   UNL     1       3.642 -10.583  -0.559  1.00  0.00     0.039 C 
ATOM     85  C   UNL     1       3.421 -12.073  -0.909  1.00  0.00     0.012 C 
ATOM     86  C   UNL     1       3.818 -10.508   0.967  1.00  0.00     0.128 C 
ATOM     87  C   UNL     1       2.074 -12.496  -0.343  1.00  0.00     0.022 C 
ATOM     88  N   UNL     1       2.503 -10.906   1.538  1.00  0.00    -0.338 N 
ATOM     89  C   UNL     1       2.018 -12.248   1.165  1.00  0.00     0.120 C 
BRANCH  88  90
ATOM     90  C   UNL     1       1.726  -9.907   2.128  1.00  0.00     0.253 C 
ATOM     91  O   UNL     1       2.184  -8.838   2.524  1.00  0.00    -0.269 OA
BRANCH  90  92
ATOM     92  C   UNL     1       0.253 -10.047   2.118  1.00  0.00     0.040 A 
ATOM     93  C   UNL     1      -0.445  -9.249   1.205  1.00  0.00     0.016 A 
ATOM     94  C   UNL     1      -0.421 -10.914   2.988  1.00  0.00     0.024 A 
ATOM     95  C   UNL     1      -1.834  -9.333   1.091  1.00  0.00     0.027 A 
ATOM     96  C   UNL     1      -1.825 -11.016   2.881  1.00  0.00     0.000 A 
ATOM     97  C   UNL     1      -2.492 -10.236   1.933  1.00  0.00     0.045 A 
ATOM     98  C   UNL     1      -2.818 -11.777   3.561  1.00  0.00     0.028 A 
ATOM     99  N   UNL     1      -3.833 -10.535   2.028  1.00  0.00    -0.361 N 
ATOM    100  C   UNL     1      -4.041 -11.459   3.016  1.00  0.00     0.083 A 
ATOM    101  H   UNL     1      -4.539 -10.141   1.467  1.00  0.00     0.166 HD
ENDBRANCH  90  92
ENDBRANCH  88  90
ENDBRANCH  83  84
ENDBRANCH  75  78
ENDBRANCH  73  74
ENDBRANCH   1  73
TORSDOF 14
