REMARK SMILES Cc1c(Cl)cccc1NC(=O)NCc1cn([C@@H]2C[NH2+][C@H](C(=O)NCCCCNC(=O)c3ccc(-c4c5nc(c(-c6c(F)c(F)c(F)c(F)c6F)c6ccc([nH]6)c(-c6c(F)c(F)c(F)c(F)c6F)c6nc(c(-c7c(F)c(F)c(F)c(F)c7F)c7ccc4[nH]7)C=C6)C=C5)cc3)C2)nn1
REMARK SMILES IDX 24 1 23 2 21 3 22 4 20 6 17 7 18 8 94 9 19 10 16 13 14 14
REMARK SMILES IDX 15 15 96 16 95 17 13 18 12 19 9 20 10 21 11 23 8 25 1 26
REMARK SMILES IDX 2 27 3 28 4 29 5 30 7 31 6 32 25 33 26 34 27 35 28 36 29 37
REMARK SMILES IDX 30 39 31 40 32 41 93 42 33 43 92 44 34 45 35 46 36 47 86 48
REMARK SMILES IDX 37 49 91 50 85 51 87 52 38 53 90 54 84 55 83 56 39 58 71 59
REMARK SMILES IDX 51 60 70 61 52 62 55 63 69 64 88 65 53 66 54 67 68 69 89 70
REMARK SMILES IDX 56 71 40 72 41 73 49 74 42 75 43 76 47 77 50 78 44 79 45 80
REMARK SMILES IDX 48 81 46 82 72 83 73 84 81 85 74 86 75 87 79 88 82 89 76 90
REMARK SMILES IDX 77 91 80 92 78 93 57 94 58 95 66 96 59 97 60 98 64 99 67 100
REMARK SMILES IDX 61 101 62 102 65 103 63 104
REMARK H PARENT 23 5 19 11 19 12 9 22 12 24 28 38 87 57 55 68
REMARK Flexibility Score: inf
ROOT
ATOM      1  C   UNL     1      -1.774  -6.272   1.603  1.00  0.00     0.116 C 
ENDROOT
BRANCH   1   2
ATOM      2  N   UNL     1      -3.055  -6.866   1.276  1.00  0.00    -0.351 N 
ATOM      3  C   UNL     1      -4.278  -6.831   1.865  1.00  0.00     0.278 C 
ATOM      4  O   UNL     1      -5.162  -7.480   1.285  1.00  0.00    -0.268 OA
ATOM      5  H   UNL     1      -3.035  -7.409   0.455  1.00  0.00     0.163 HD
BRANCH   3   6
ATOM      6  C   UNL     1      -4.676  -6.012   3.114  1.00  0.00     0.274 C 
ATOM      7  C   UNL     1      -5.105  -3.652   3.528  1.00  0.00     0.170 C 
ATOM      8  C   UNL     1      -3.635  -3.983   3.750  1.00  0.00     0.288 C 
ATOM      9  C   UNL     1      -5.597  -4.854   2.724  1.00  0.00     0.109 C 
ATOM     10  N   UNL     1      -3.568  -5.447   3.914  1.00  0.00    -0.334 N 
ATOM     11  H   UNL     1      -3.680  -5.697   4.897  1.00  0.00     0.347 HD
ATOM     12  H   UNL     1      -2.667  -5.811   3.605  1.00  0.00     0.347 HD
BRANCH   7  13
ATOM     13  N   UNL     1      -5.295  -2.378   2.872  1.00  0.00    -0.243 N 
ATOM     14  C   UNL     1      -5.096  -0.716   1.504  1.00  0.00     0.102 A 
ATOM     15  C   UNL     1      -5.055  -2.092   1.568  1.00  0.00     0.137 A 
ATOM     16  N   UNL     1      -5.433  -0.221   2.729  1.00  0.00    -0.134 NA
ATOM     17  N   UNL     1      -5.568  -1.255   3.562  1.00  0.00    -0.067 NA
BRANCH  14  18
ATOM     18  C   UNL     1      -4.518   0.024   0.371  1.00  0.00     0.178 C 
BRANCH  18  19
ATOM     19  N   UNL     1      -4.509   1.446   0.363  1.00  0.00    -0.332 N 
ATOM     20  N   UNL     1      -2.303   2.042  -0.417  1.00  0.00    -0.308 N 
ATOM     21  C   UNL     1      -3.596   2.308  -0.115  1.00  0.00     0.319 C 
ATOM     22  H   UNL     1      -1.834   2.866  -0.684  1.00  0.00     0.171 HD
ATOM     23  O   UNL     1      -3.947   3.490  -0.207  1.00  0.00    -0.248 OA
ATOM     24  H   UNL     1      -5.299   1.867   0.773  1.00  0.00     0.165 HD
BRANCH  20  25
ATOM     25  C   UNL     1      -1.424   0.933  -0.463  1.00  0.00     0.047 A 
ATOM     26  C   UNL     1       0.577   2.423   0.156  1.00  0.00     0.048 C 
ATOM     27  C   UNL     1      -0.070   1.080  -0.076  1.00  0.00    -0.009 A 
ATOM     28  C   UNL     1       0.728  -0.083   0.062  1.00  0.00     0.046 A 
ATOM     29  Cl  UNL     1       2.389  -0.008   0.546  1.00  0.00    -0.084 Cl
ATOM     30  C   UNL     1       0.208  -1.353  -0.180  1.00  0.00     0.021 A 
ATOM     31  C   UNL     1      -1.834  -0.322  -0.913  1.00  0.00     0.026 A 
ATOM     32  C   UNL     1      -1.074  -1.470  -0.685  1.00  0.00     0.004 A 
ENDBRANCH  20  25
ENDBRANCH  18  19
ENDBRANCH  14  18
ENDBRANCH   7  13
ENDBRANCH   3   6
ENDBRANCH   1   2
BRANCH   1  33
ATOM     33  C   UNL     1      -0.751  -7.293   2.108  1.00  0.00     0.023 C 
BRANCH  33  34
ATOM     34  C   UNL     1      -0.161  -8.248   1.057  1.00  0.00     0.023 C 
BRANCH  34  35
ATOM     35  C   UNL     1       0.587  -7.583  -0.094  1.00  0.00     0.116 C 
BRANCH  35  36
ATOM     36  N   UNL     1       1.718  -6.752   0.334  1.00  0.00    -0.352 N 
ATOM     37  C   UNL     1       2.466  -5.879  -0.432  1.00  0.00     0.251 C 
ATOM     38  H   UNL     1       1.975  -6.825   1.281  1.00  0.00     0.163 HD
ATOM     39  O   UNL     1       3.601  -5.531  -0.086  1.00  0.00    -0.269 OA
BRANCH  37  40
ATOM     40  C   UNL     1       1.879  -5.339  -1.664  1.00  0.00     0.039 A 
ATOM     41  C   UNL     1       2.595  -5.214  -2.859  1.00  0.00     0.014 A 
ATOM     42  C   UNL     1       0.534  -4.998  -1.603  1.00  0.00     0.014 A 
ATOM     43  C   UNL     1       1.913  -4.829  -4.012  1.00  0.00     0.010 A 
ATOM     44  C   UNL     1      -0.168  -4.815  -2.759  1.00  0.00     0.010 A 
ATOM     45  C   UNL     1       0.525  -4.649  -3.953  1.00  0.00    -0.014 A 
BRANCH  45  46
ATOM     46  C   UNL     1      -0.273  -4.354  -5.134  1.00  0.00     0.031 A 
ATOM     47  C   UNL     1      -0.240  -5.376  -6.209  1.00  0.00     0.074 A 
ATOM     48  C   UNL     1      -1.201  -3.374  -5.119  1.00  0.00     0.049 A 
ATOM     49  N   UNL     1       0.171  -5.213  -7.421  1.00  0.00    -0.248 NA
ATOM     50  C   UNL     1      -0.607  -6.763  -5.887  1.00  0.00     0.031 C 
ATOM     51  C   UNL     1      -1.556  -2.486  -4.011  1.00  0.00     0.029 A 
ATOM     52  N   UNL     1      -2.135  -3.058  -6.050  1.00  0.00    -0.354 N 
ATOM     53  C   UNL     1      -0.058  -6.419  -8.075  1.00  0.00     0.074 A 
ATOM     54  C   UNL     1      -0.366  -7.379  -7.047  1.00  0.00     0.031 C 
ATOM     55  C   UNL     1      -2.773  -1.946  -4.227  1.00  0.00     0.029 A 
ATOM     56  C   UNL     1      -3.196  -2.302  -5.564  1.00  0.00     0.049 A 
ATOM     57  H   UNL     1      -2.067  -3.340  -6.991  1.00  0.00     0.167 HD
ATOM     58  C   UNL     1      -0.202  -6.462  -9.430  1.00  0.00     0.037 A 
ATOM     59  C   UNL     1      -4.356  -2.034  -6.213  1.00  0.00     0.037 A 
ATOM     60  C   UNL     1       0.249  -5.231 -10.036  1.00  0.00     0.049 A 
ATOM     61  C   UNL     1      -4.087  -2.242  -7.662  1.00  0.00     0.074 A 
ATOM     62  C   UNL     1       1.443  -4.532 -10.023  1.00  0.00     0.029 A 
ATOM     63  N   UNL     1      -0.699  -4.326 -10.453  1.00  0.00    -0.354 N 
ATOM     64  N   UNL     1      -3.280  -1.485  -8.357  1.00  0.00    -0.248 NA
ATOM     65  C   UNL     1      -4.306  -3.578  -8.201  1.00  0.00     0.031 C 
ATOM     66  C   UNL     1       1.061  -3.163  -9.906  1.00  0.00     0.029 A 
ATOM     67  C   UNL     1      -0.332  -3.103  -9.950  1.00  0.00     0.049 A 
ATOM     68  H   UNL     1      -1.491  -4.518 -11.006  1.00  0.00     0.167 HD
ATOM     69  C   UNL     1      -2.561  -2.369  -9.149  1.00  0.00     0.074 A 
ATOM     70  C   UNL     1      -3.289  -3.635  -9.065  1.00  0.00     0.031 C 
ATOM     71  C   UNL     1      -1.281  -2.094  -9.543  1.00  0.00     0.037 A 
BRANCH  58  72
ATOM     72  C   UNL     1      -1.071  -7.440 -10.182  1.00  0.00     0.064 A 
ATOM     73  C   UNL     1      -1.024  -7.447 -11.592  1.00  0.00     0.173 A 
ATOM     74  C   UNL     1      -2.153  -8.140  -9.608  1.00  0.00     0.173 A 
ATOM     75  F   UNL     1      -0.043  -6.808 -12.247  1.00  0.00    -0.203 F 
ATOM     76  C   UNL     1      -2.035  -8.025 -12.363  1.00  0.00     0.198 A 
ATOM     77  C   UNL     1      -3.130  -8.765 -10.382  1.00  0.00     0.198 A 
ATOM     78  F   UNL     1      -2.378  -8.153  -8.290  1.00  0.00    -0.203 F 
ATOM     79  F   UNL     1      -2.018  -7.883 -13.695  1.00  0.00    -0.200 F 
ATOM     80  C   UNL     1      -3.093  -8.676 -11.757  1.00  0.00     0.200 A 
ATOM     81  F   UNL     1      -4.155  -9.379  -9.774  1.00  0.00    -0.200 F 
ATOM     82  F   UNL     1      -4.098  -9.171 -12.489  1.00  0.00    -0.200 F 
ENDBRANCH  58  72
BRANCH  59  83
ATOM     83  C   UNL     1      -5.720  -1.943  -5.631  1.00  0.00     0.064 A 
ATOM     84  C   UNL     1      -6.797  -1.464  -6.394  1.00  0.00     0.173 A 
ATOM     85  C   UNL     1      -6.054  -2.562  -4.408  1.00  0.00     0.173 A 
ATOM     86  F   UNL     1      -6.575  -0.892  -7.586  1.00  0.00    -0.203 F 
ATOM     87  C   UNL     1      -8.125  -1.626  -5.978  1.00  0.00     0.198 A 
ATOM     88  C   UNL     1      -7.378  -2.716  -3.990  1.00  0.00     0.198 A 
ATOM     89  F   UNL     1      -5.114  -3.111  -3.626  1.00  0.00    -0.203 F 
ATOM     90  F   UNL     1      -9.127  -1.212  -6.766  1.00  0.00    -0.200 F 
ATOM     91  C   UNL     1      -8.414  -2.263  -4.783  1.00  0.00     0.200 A 
ATOM     92  F   UNL     1      -7.640  -3.357  -2.842  1.00  0.00    -0.200 F 
ATOM     93  F   UNL     1      -9.685  -2.474  -4.414  1.00  0.00    -0.200 F 
ENDBRANCH  59  83
BRANCH  71  94
ATOM     94  C   UNL     1      -0.732  -0.711  -9.313  1.00  0.00     0.064 A 
ATOM     95  C   UNL     1      -0.592  -0.114  -8.048  1.00  0.00     0.173 A 
ATOM     96  C   UNL     1      -0.161  -0.038 -10.402  1.00  0.00     0.173 A 
ATOM     97  F   UNL     1      -1.008  -0.736  -6.939  1.00  0.00    -0.203 F 
ATOM     98  C   UNL     1       0.047   1.115  -7.890  1.00  0.00     0.198 A 
ATOM     99  C   UNL     1       0.512   1.170 -10.237  1.00  0.00     0.198 A 
ATOM    100  F   UNL     1      -0.206  -0.585 -11.627  1.00  0.00    -0.203 F 
ATOM    101  F   UNL     1       0.158   1.663  -6.670  1.00  0.00    -0.200 F 
ATOM    102  C   UNL     1       0.606   1.752  -8.984  1.00  0.00     0.200 A 
ATOM    103  F   UNL     1       1.098   1.753 -11.292  1.00  0.00    -0.200 F 
ATOM    104  F   UNL     1       1.261   2.910  -8.827  1.00  0.00    -0.200 F 
ENDBRANCH  71  94
ENDBRANCH  45  46
ENDBRANCH  37  40
ENDBRANCH  35  36
ENDBRANCH  34  35
ENDBRANCH  33  34
ENDBRANCH   1  33
TORSDOF 15
