REMARK SMILES Cc1c(CC(=O)NCCCCNC(=O)c2ccc(-c3c4nc(c(-c5c(F)c(F)c(F)c(F)c5F)c5ccc([nH]5)c(-c5c(F)c(F)c(F)c(F)c5F)c5nc(c(-c6c(F)c(F)c(F)c(F)c6F)c6ccc3[nH]6)C=C5)C=C4)cc2)c2ccccc2n1C(=O)c1ccc(Cl)cc1
REMARK SMILES IDX 9 1 8 2 7 3 5 4 6 5 4 7 3 8 1 9 2 10 84 11 78 12 83 13 79 14
REMARK SMILES IDX 82 15 80 16 81 17 85 18 86 19 87 20 88 21 93 22 89 23 92 24
REMARK SMILES IDX 90 25 91 26 10 27 11 28 12 29 13 30 14 32 15 33 16 34 77 35
REMARK SMILES IDX 17 36 76 37 18 38 19 39 20 40 70 41 21 42 75 43 69 44 71 45
REMARK SMILES IDX 22 46 74 47 68 48 67 49 23 51 55 52 35 53 54 54 36 55 39 56
REMARK SMILES IDX 53 57 72 58 37 59 38 60 52 62 73 63 40 64 24 65 25 66 33 67
REMARK SMILES IDX 26 68 27 69 31 70 34 71 28 72 29 73 32 74 30 75 56 76 57 77
REMARK SMILES IDX 65 78 58 79 59 80 63 81 66 82 60 83 61 84 64 85 62 86 41 87
REMARK SMILES IDX 42 88 50 89 43 90 44 91 48 92 51 93 45 94 46 95 49 96 47 97
REMARK H PARENT 7 6 12 31 71 50 39 61
REMARK Flexibility Score: inf
ROOT
ATOM      1  C   UNL     1      -2.958   1.027  -0.277  1.00  0.00     0.023 C 
ENDROOT
BRANCH   1   2
ATOM      2  C   UNL     1      -2.453  -0.397  -0.493  1.00  0.00     0.116 C 
BRANCH   2   3
ATOM      3  N   UNL     1      -2.719  -0.863  -1.838  1.00  0.00    -0.356 N 
ATOM      4  C   UNL     1      -1.825  -1.121  -2.837  1.00  0.00     0.224 C 
ATOM      5  O   UNL     1      -2.261  -1.501  -3.926  1.00  0.00    -0.275 OA
ATOM      6  H   UNL     1      -3.666  -1.013  -2.061  1.00  0.00     0.163 HD
BRANCH   4   7
ATOM      7  C   UNL     1      -0.332  -0.996  -2.574  1.00  0.00     0.138 C 
BRANCH   7   8
ATOM      8  C   UNL     1       0.113   0.420  -2.330  1.00  0.00    -0.010 A 
ATOM      9  C   UNL     1       1.288   0.171  -0.021  1.00  0.00     0.065 C 
ATOM     10  C   UNL     1       0.797   0.914  -1.226  1.00  0.00     0.028 A 
ATOM     11  N   UNL     1       0.941   2.302  -1.367  1.00  0.00    -0.280 N 
ATOM     12  C   UNL     1      -0.060   1.504  -3.235  1.00  0.00     0.004 A 
ATOM     13  C   UNL     1       0.527   2.639  -2.666  1.00  0.00     0.056 A 
ATOM     14  C   UNL     1      -0.649   1.598  -4.517  1.00  0.00     0.010 A 
ATOM     15  C   UNL     1       0.603   3.838  -3.408  1.00  0.00     0.027 A 
ATOM     16  C   UNL     1      -0.630   2.805  -5.214  1.00  0.00     0.001 A 
ATOM     17  C   UNL     1       0.004   3.909  -4.669  1.00  0.00     0.002 A 
BRANCH  11  18
ATOM     18  C   UNL     1       1.424   3.187  -0.357  1.00  0.00     0.262 C 
ATOM     19  O   UNL     1       1.814   2.723   0.706  1.00  0.00    -0.268 OA
BRANCH  18  20
ATOM     20  C   UNL     1       1.510   4.653  -0.480  1.00  0.00     0.040 A 
ATOM     21  C   UNL     1       0.360   5.438  -0.614  1.00  0.00     0.015 A 
ATOM     22  C   UNL     1       2.780   5.238  -0.463  1.00  0.00     0.015 A 
ATOM     23  C   UNL     1       0.493   6.814  -0.818  1.00  0.00     0.021 A 
ATOM     24  C   UNL     1       2.907   6.613  -0.661  1.00  0.00     0.021 A 
ATOM     25  C   UNL     1       1.765   7.391  -0.856  1.00  0.00     0.041 A 
ATOM     26  Cl  UNL     1       1.929   9.076  -1.161  1.00  0.00    -0.084 Cl
ENDBRANCH  18  20
ENDBRANCH  11  18
ENDBRANCH   7   8
ENDBRANCH   4   7
ENDBRANCH   2   3
ENDBRANCH   1   2
BRANCH   1  27
ATOM     27  C   UNL     1      -4.487   1.163  -0.294  1.00  0.00     0.023 C 
BRANCH  27  28
ATOM     28  C   UNL     1      -5.224   0.170   0.610  1.00  0.00     0.116 C 
BRANCH  28  29
ATOM     29  N   UNL     1      -4.774   0.204   1.988  1.00  0.00    -0.352 N 
ATOM     30  C   UNL     1      -5.114   0.934   3.092  1.00  0.00     0.251 C 
ATOM     31  H   UNL     1      -4.060  -0.449   2.170  1.00  0.00     0.163 HD
ATOM     32  O   UNL     1      -4.561   0.613   4.148  1.00  0.00    -0.269 OA
BRANCH  30  33
ATOM     33  C   UNL     1      -6.052   2.090   3.101  1.00  0.00     0.039 A 
ATOM     34  C   UNL     1      -6.721   2.592   1.987  1.00  0.00     0.014 A 
ATOM     35  C   UNL     1      -6.221   2.750   4.334  1.00  0.00     0.014 A 
ATOM     36  C   UNL     1      -7.470   3.758   2.076  1.00  0.00     0.010 A 
ATOM     37  C   UNL     1      -6.987   3.910   4.435  1.00  0.00     0.010 A 
ATOM     38  C   UNL     1      -7.577   4.436   3.291  1.00  0.00    -0.014 A 
BRANCH  38  39
ATOM     39  C   UNL     1      -8.344   5.678   3.279  1.00  0.00     0.031 A 
ATOM     40  C   UNL     1      -9.779   5.560   2.896  1.00  0.00     0.074 A 
ATOM     41  C   UNL     1      -7.822   6.873   3.612  1.00  0.00     0.049 A 
ATOM     42  N   UNL     1     -10.397   6.128   1.910  1.00  0.00    -0.248 NA
ATOM     43  C   UNL     1     -10.618   4.646   3.684  1.00  0.00     0.031 C 
ATOM     44  C   UNL     1      -6.538   7.140   4.262  1.00  0.00     0.029 A 
ATOM     45  N   UNL     1      -8.388   8.113   3.503  1.00  0.00    -0.354 N 
ATOM     46  C   UNL     1     -11.735   5.756   2.028  1.00  0.00     0.074 A 
ATOM     47  C   UNL     1     -11.801   4.778   3.083  1.00  0.00     0.031 C 
ATOM     48  C   UNL     1      -6.511   8.426   4.677  1.00  0.00     0.029 A 
ATOM     49  C   UNL     1      -7.705   9.099   4.192  1.00  0.00     0.049 A 
ATOM     50  H   UNL     1      -9.205   8.287   2.983  1.00  0.00     0.167 HD
ATOM     51  C   UNL     1     -12.729   6.409   1.367  1.00  0.00     0.037 A 
ATOM     52  C   UNL     1      -8.115  10.371   4.399  1.00  0.00     0.037 A 
ATOM     53  C   UNL     1     -12.230   7.211   0.288  1.00  0.00     0.049 A 
ATOM     54  C   UNL     1      -9.090  10.730   3.344  1.00  0.00     0.074 A 
ATOM     55  C   UNL     1     -11.797   6.991  -1.000  1.00  0.00     0.029 A 
ATOM     56  N   UNL     1     -11.869   8.486   0.625  1.00  0.00    -0.354 N 
ATOM     57  N   UNL     1      -8.788  10.864   2.083  1.00  0.00    -0.248 NA
ATOM     58  C   UNL     1     -10.518  10.715   3.644  1.00  0.00     0.031 C 
ATOM     59  C   UNL     1     -10.949   8.090  -1.327  1.00  0.00     0.029 A 
ATOM     60  C   UNL     1     -10.890   8.936  -0.221  1.00  0.00     0.049 A 
ATOM     61  H   UNL     1     -12.257   9.005   1.367  1.00  0.00     0.167 HD
ATOM     62  C   UNL     1      -9.951  10.541   1.415  1.00  0.00     0.074 A 
ATOM     63  C   UNL     1     -11.009  10.651   2.405  1.00  0.00     0.031 C 
ATOM     64  C   UNL     1      -9.910   9.905   0.212  1.00  0.00     0.037 A 
BRANCH  51  65
ATOM     65  C   UNL     1     -14.121   6.618   1.910  1.00  0.00     0.064 A 
ATOM     66  C   UNL     1     -15.142   7.100   1.065  1.00  0.00     0.173 A 
ATOM     67  C   UNL     1     -14.404   6.655   3.292  1.00  0.00     0.173 A 
ATOM     68  F   UNL     1     -14.963   7.148  -0.264  1.00  0.00    -0.203 F 
ATOM     69  C   UNL     1     -16.339   7.614   1.572  1.00  0.00     0.198 A 
ATOM     70  C   UNL     1     -15.619   7.122   3.791  1.00  0.00     0.198 A 
ATOM     71  F   UNL     1     -13.476   6.346   4.207  1.00  0.00    -0.203 F 
ATOM     72  F   UNL     1     -17.239   8.156   0.740  1.00  0.00    -0.200 F 
ATOM     73  C   UNL     1     -16.577   7.625   2.935  1.00  0.00     0.200 A 
ATOM     74  F   UNL     1     -15.821   7.149   5.116  1.00  0.00    -0.200 F 
ATOM     75  F   UNL     1     -17.703   8.159   3.426  1.00  0.00    -0.200 F 
ENDBRANCH  51  65
BRANCH  52  76
ATOM     76  C   UNL     1      -7.896  11.215   5.594  1.00  0.00     0.064 A 
ATOM     77  C   UNL     1      -8.105  12.602   5.541  1.00  0.00     0.173 A 
ATOM     78  C   UNL     1      -7.765  10.645   6.875  1.00  0.00     0.173 A 
ATOM     79  F   UNL     1      -8.273  13.216   4.361  1.00  0.00    -0.203 F 
ATOM     80  C   UNL     1      -8.226  13.366   6.704  1.00  0.00     0.198 A 
ATOM     81  C   UNL     1      -7.872  11.411   8.034  1.00  0.00     0.198 A 
ATOM     82  F   UNL     1      -7.631   9.320   7.030  1.00  0.00    -0.203 F 
ATOM     83  F   UNL     1      -8.506  14.674   6.617  1.00  0.00    -0.200 F 
ATOM     84  C   UNL     1      -8.123  12.768   7.949  1.00  0.00     0.200 A 
ATOM     85  F   UNL     1      -7.802  10.815   9.232  1.00  0.00    -0.200 F 
ATOM     86  F   UNL     1      -8.310  13.487   9.064  1.00  0.00    -0.200 F 
ENDBRANCH  52  76
BRANCH  64  87
ATOM     87  C   UNL     1      -8.652  10.045  -0.587  1.00  0.00     0.064 A 
ATOM     88  C   UNL     1      -7.418   9.494  -0.207  1.00  0.00     0.173 A 
ATOM     89  C   UNL     1      -8.719  10.707  -1.820  1.00  0.00     0.173 A 
ATOM     90  F   UNL     1      -7.303   8.772   0.915  1.00  0.00    -0.203 F 
ATOM     91  C   UNL     1      -6.288   9.647  -1.008  1.00  0.00     0.198 A 
ATOM     92  C   UNL     1      -7.598  10.827  -2.634  1.00  0.00     0.198 A 
ATOM     93  F   UNL     1      -9.888  11.207  -2.252  1.00  0.00    -0.203 F 
ATOM     94  F   UNL     1      -5.113   9.133  -0.618  1.00  0.00    -0.200 F 
ATOM     95  C   UNL     1      -6.380  10.309  -2.222  1.00  0.00     0.200 A 
ATOM     96  F   UNL     1      -7.702  11.427  -3.828  1.00  0.00    -0.200 F 
ATOM     97  F   UNL     1      -5.301  10.428  -3.007  1.00  0.00    -0.200 F 
ENDBRANCH  64  87
ENDBRANCH  38  39
ENDBRANCH  30  33
ENDBRANCH  28  29
ENDBRANCH  27  28
ENDBRANCH   1  27
TORSDOF 14
