REMARK SMILES CO[C@@H]1C[C@H](C(=O)NCCCCNC(=O)c2ccc(-c3c4nc(c(-c5c(F)c(F)c(F)c(F)c5F)c5ccc([nH]5)c(-c5c(F)c(F)c(F)c(F)c5F)c5nc(c(-c6c(F)c(F)c(F)c(F)c6F)c6ccc3[nH]6)C=C5)C=C4)cc2)N(C(=O)[C@H](CC(C)C)NC(N)=O)C1
REMARK SMILES IDX 9 1 8 2 6 3 7 4 5 6 3 7 4 8 91 9 79 10 2 11 1 12 80 13 81 14
REMARK SMILES IDX 82 15 87 16 88 17 89 19 90 20 83 23 84 24 85 25 86 26 10 27
REMARK SMILES IDX 11 28 12 29 13 30 14 31 15 33 16 34 17 35 78 36 18 37 77 38
REMARK SMILES IDX 19 39 20 40 21 41 71 42 22 43 76 44 70 45 72 46 23 47 75 48
REMARK SMILES IDX 69 49 68 50 24 52 56 53 36 54 55 55 37 56 40 57 54 58 73 59
REMARK SMILES IDX 38 60 39 61 53 63 74 64 41 65 25 66 26 67 34 68 27 69 28 70
REMARK SMILES IDX 32 71 35 72 29 73 30 74 33 75 31 76 57 77 58 78 66 79 59 80
REMARK SMILES IDX 60 81 64 82 67 83 61 84 62 85 65 86 63 87 42 88 43 89 51 90
REMARK SMILES IDX 44 91 45 92 49 93 52 94 46 95 47 96 50 97 48 98
REMARK H PARENT 8 5 87 18 89 21 89 22 13 32 72 51 40 62
REMARK Flexibility Score: inf
ROOT
ATOM      1  C   UNL     1      -3.713  -1.724  -0.481  1.00  0.00     0.116 C 
ENDROOT
BRANCH   1   2
ATOM      2  N   UNL     1      -2.781  -2.642  -1.107  1.00  0.00    -0.354 N 
ATOM      3  C   UNL     1      -3.161  -3.696  -1.895  1.00  0.00     0.242 C 
ATOM      4  O   UNL     1      -2.773  -4.820  -1.561  1.00  0.00    -0.273 OA
ATOM      5  H   UNL     1      -1.818  -2.500  -0.956  1.00  0.00     0.163 HD
BRANCH   3   6
ATOM      6  C   UNL     1      -3.965  -3.502  -3.213  1.00  0.00     0.177 C 
ATOM      7  C   UNL     1      -6.297  -3.090  -2.829  1.00  0.00     0.139 C 
ATOM      8  C   UNL     1      -5.318  -4.197  -3.202  1.00  0.00     0.069 C 
ATOM      9  C   UNL     1      -5.650  -1.823  -3.437  1.00  0.00     0.152 C 
ATOM     10  N   UNL     1      -4.237  -2.152  -3.645  1.00  0.00    -0.326 N 
BRANCH   7  11
ATOM     11  O   UNL     1      -6.448  -2.950  -1.418  1.00  0.00    -0.380 OA
ATOM     12  C   UNL     1      -6.999  -4.098  -0.775  1.00  0.00     0.195 C 
ENDBRANCH   7  11
BRANCH  10  13
ATOM     13  C   UNL     1      -3.391  -1.301  -4.324  1.00  0.00     0.246 C 
ATOM     14  O   UNL     1      -3.577  -0.077  -4.254  1.00  0.00    -0.272 OA
BRANCH  13  15
ATOM     15  C   UNL     1      -2.335  -1.877  -5.345  1.00  0.00     0.173 C 
BRANCH  15  16
ATOM     16  N   UNL     1      -2.005  -0.704  -6.182  1.00  0.00    -0.327 N 
ATOM     17  C   UNL     1      -1.621  -0.792  -7.479  1.00  0.00     0.312 C 
ATOM     18  H   UNL     1      -2.066   0.190  -5.775  1.00  0.00     0.166 HD
ATOM     19  N   UNL     1      -1.216   0.393  -7.991  1.00  0.00    -0.352 N 
ATOM     20  O   UNL     1      -1.598  -1.822  -8.136  1.00  0.00    -0.249 OA
ATOM     21  H   UNL     1      -1.247   1.205  -7.436  1.00  0.00     0.161 HD
ATOM     22  H   UNL     1      -0.889   0.442  -8.919  1.00  0.00     0.161 HD
ENDBRANCH  15  16
BRANCH  15  23
ATOM     23  C   UNL     1      -0.993  -2.458  -4.845  1.00  0.00     0.038 C 
BRANCH  23  24
ATOM     24  C   UNL     1      -0.893  -3.951  -4.469  1.00  0.00    -0.015 C 
ATOM     25  C   UNL     1      -1.504  -4.929  -5.477  1.00  0.00     0.007 C 
ATOM     26  C   UNL     1       0.559  -4.359  -4.200  1.00  0.00     0.007 C 
ENDBRANCH  23  24
ENDBRANCH  15  23
ENDBRANCH  13  15
ENDBRANCH  10  13
ENDBRANCH   3   6
ENDBRANCH   1   2
BRANCH   1  27
ATOM     27  C   UNL     1      -4.444  -2.428   0.668  1.00  0.00     0.023 C 
BRANCH  27  28
ATOM     28  C   UNL     1      -3.738  -2.357   2.014  1.00  0.00     0.023 C 
BRANCH  28  29
ATOM     29  C   UNL     1      -3.629  -0.954   2.589  1.00  0.00     0.116 C 
BRANCH  29  30
ATOM     30  N   UNL     1      -4.895  -0.233   2.645  1.00  0.00    -0.352 N 
ATOM     31  C   UNL     1      -5.351   0.625   3.622  1.00  0.00     0.251 C 
ATOM     32  H   UNL     1      -5.504  -0.378   1.885  1.00  0.00     0.163 HD
ATOM     33  O   UNL     1      -6.466   1.106   3.578  1.00  0.00    -0.269 OA
BRANCH  31  34
ATOM     34  C   UNL     1      -4.453   0.907   4.759  1.00  0.00     0.039 A 
ATOM     35  C   UNL     1      -4.916   0.685   6.056  1.00  0.00     0.014 A 
ATOM     36  C   UNL     1      -3.126   1.271   4.520  1.00  0.00     0.014 A 
ATOM     37  C   UNL     1      -4.016   0.745   7.118  1.00  0.00     0.010 A 
ATOM     38  C   UNL     1      -2.215   1.228   5.563  1.00  0.00     0.010 A 
ATOM     39  C   UNL     1      -2.651   0.970   6.872  1.00  0.00    -0.014 A 
BRANCH  39  40
ATOM     40  C   UNL     1      -1.655   0.963   7.968  1.00  0.00     0.031 A 
ATOM     41  C   UNL     1      -0.863   2.208   8.251  1.00  0.00     0.074 A 
ATOM     42  C   UNL     1      -1.403  -0.177   8.638  1.00  0.00     0.049 A 
ATOM     43  N   UNL     1       0.128   2.388   9.085  1.00  0.00    -0.248 NA
ATOM     44  C   UNL     1      -1.198   3.399   7.452  1.00  0.00     0.031 C 
ATOM     45  C   UNL     1      -2.052  -1.467   8.396  1.00  0.00     0.029 A 
ATOM     46  N   UNL     1      -0.518  -0.438   9.654  1.00  0.00    -0.354 N 
ATOM     47  C   UNL     1       0.555   3.693   8.881  1.00  0.00     0.074 A 
ATOM     48  C   UNL     1      -0.242   4.242   7.807  1.00  0.00     0.031 C 
ATOM     49  C   UNL     1      -1.565  -2.375   9.258  1.00  0.00     0.029 A 
ATOM     50  C   UNL     1      -0.549  -1.740  10.092  1.00  0.00     0.049 A 
ATOM     51  H   UNL     1       0.083   0.243  10.033  1.00  0.00     0.167 HD
ATOM     52  C   UNL     1       1.506   4.383   9.553  1.00  0.00     0.037 A 
ATOM     53  C   UNL     1       0.164  -2.346  11.060  1.00  0.00     0.037 A 
ATOM     54  C   UNL     1       2.245   3.851  10.665  1.00  0.00     0.049 A 
ATOM     55  C   UNL     1       1.164  -1.537  11.840  1.00  0.00     0.074 A 
ATOM     56  C   UNL     1       3.163   4.490  11.477  1.00  0.00     0.029 A 
ATOM     57  N   UNL     1       2.137   2.547  11.126  1.00  0.00    -0.354 N 
ATOM     58  N   UNL     1       1.504  -0.279  11.695  1.00  0.00    -0.248 NA
ATOM     59  C   UNL     1       1.872  -2.227  12.927  1.00  0.00     0.031 C 
ATOM     60  C   UNL     1       3.632   3.564  12.415  1.00  0.00     0.029 A 
ATOM     61  C   UNL     1       2.978   2.359  12.209  1.00  0.00     0.049 A 
ATOM     62  H   UNL     1       1.548   1.858  10.741  1.00  0.00     0.167 HD
ATOM     63  C   UNL     1       2.443  -0.020  12.683  1.00  0.00     0.074 A 
ATOM     64  C   UNL     1       2.608  -1.248  13.433  1.00  0.00     0.031 C 
ATOM     65  C   UNL     1       3.112   1.129  12.946  1.00  0.00     0.037 A 
BRANCH  52  66
ATOM     66  C   UNL     1       1.780   5.790   9.113  1.00  0.00     0.064 A 
ATOM     67  C   UNL     1       0.847   6.819   9.313  1.00  0.00     0.173 A 
ATOM     68  C   UNL     1       2.996   6.118   8.496  1.00  0.00     0.173 A 
ATOM     69  F   UNL     1      -0.338   6.554   9.884  1.00  0.00    -0.203 F 
ATOM     70  C   UNL     1       1.106   8.117   8.880  1.00  0.00     0.198 A 
ATOM     71  C   UNL     1       3.265   7.424   8.092  1.00  0.00     0.198 A 
ATOM     72  F   UNL     1       3.924   5.173   8.283  1.00  0.00    -0.203 F 
ATOM     73  F   UNL     1       0.176   9.069   9.030  1.00  0.00    -0.200 F 
ATOM     74  C   UNL     1       2.317   8.419   8.276  1.00  0.00     0.200 A 
ATOM     75  F   UNL     1       4.440   7.717   7.517  1.00  0.00    -0.200 F 
ATOM     76  F   UNL     1       2.567   9.669   7.862  1.00  0.00    -0.200 F 
ENDBRANCH  52  66
BRANCH  53  77
ATOM     77  C   UNL     1      -0.074  -3.778  11.375  1.00  0.00     0.064 A 
ATOM     78  C   UNL     1      -0.711  -4.153  12.567  1.00  0.00     0.173 A 
ATOM     79  C   UNL     1       0.328  -4.798  10.502  1.00  0.00     0.173 A 
ATOM     80  F   UNL     1      -1.098  -3.213  13.443  1.00  0.00    -0.203 F 
ATOM     81  C   UNL     1      -0.915  -5.494  12.884  1.00  0.00     0.198 A 
ATOM     82  C   UNL     1       0.100  -6.138  10.808  1.00  0.00     0.198 A 
ATOM     83  F   UNL     1       0.934  -4.492   9.345  1.00  0.00    -0.203 F 
ATOM     84  F   UNL     1      -1.487  -5.825  14.050  1.00  0.00    -0.200 F 
ATOM     85  C   UNL     1      -0.514  -6.486  12.002  1.00  0.00     0.200 A 
ATOM     86  F   UNL     1       0.478  -7.094   9.948  1.00  0.00    -0.200 F 
ATOM     87  F   UNL     1      -0.712  -7.776  12.306  1.00  0.00    -0.200 F 
ENDBRANCH  53  77
BRANCH  65  88
ATOM     88  C   UNL     1       4.057   1.121  14.109  1.00  0.00     0.064 A 
ATOM     89  C   UNL     1       5.294   0.466  14.042  1.00  0.00     0.173 A 
ATOM     90  C   UNL     1       3.740   1.819  15.284  1.00  0.00     0.173 A 
ATOM     91  F   UNL     1       5.633  -0.226  12.944  1.00  0.00    -0.203 F 
ATOM     92  C   UNL     1       6.174   0.493  15.120  1.00  0.00     0.198 A 
ATOM     93  C   UNL     1       4.634   1.866  16.349  1.00  0.00     0.198 A 
ATOM     94  F   UNL     1       2.570   2.466  15.391  1.00  0.00    -0.203 F 
ATOM     95  F   UNL     1       7.335  -0.172  15.051  1.00  0.00    -0.200 F 
ATOM     96  C   UNL     1       5.847   1.199  16.268  1.00  0.00     0.200 A 
ATOM     97  F   UNL     1       4.322   2.559  17.453  1.00  0.00    -0.200 F 
ATOM     98  F   UNL     1       6.700   1.232  17.302  1.00  0.00    -0.200 F 
ENDBRANCH  65  88
ENDBRANCH  39  40
ENDBRANCH  31  34
ENDBRANCH  29  30
ENDBRANCH  28  29
ENDBRANCH  27  28
ENDBRANCH   1  27
TORSDOF 17
