REMARK SMILES CC1=C(C)C[C@@H](C(=O)NCCCCNC(=O)c2ccc(-c3c4nc(c(-c5c(F)c(F)c(F)c(F)c5F)c5ccc([nH]5)c(-c5c(F)c(F)c(F)c(F)c5F)c5nc(c(-c6c(F)c(F)c(F)c(F)c6F)c6ccc3[nH]6)C=C5)C=C4)cc2)[C@@H](C(=O)N2CCN(c3cccc(C(F)(F)F)c3)CC2)C1
REMARK SMILES IDX 11 1 10 2 9 3 7 4 8 5 6 7 1 8 2 9 3 10 99 11 4 12 5 13 80 14
REMARK SMILES IDX 81 15 82 16 83 17 84 18 98 19 85 20 97 21 86 22 87 23 88 24
REMARK SMILES IDX 96 25 89 26 91 27 90 28 92 29 93 30 94 31 95 32 12 33 13 34
REMARK SMILES IDX 14 35 15 36 16 38 17 39 18 40 79 41 19 42 78 43 20 44 21 45
REMARK SMILES IDX 22 46 72 47 23 48 77 49 71 50 73 51 24 52 76 53 70 54 69 55
REMARK SMILES IDX 25 57 57 58 37 59 56 60 38 61 41 62 55 63 74 64 39 65 40 66
REMARK SMILES IDX 54 68 75 69 42 70 26 71 27 72 35 73 28 74 29 75 33 76 36 77
REMARK SMILES IDX 30 78 31 79 34 80 32 81 58 82 59 83 67 84 60 85 61 86 65 87
REMARK SMILES IDX 68 88 62 89 63 90 66 91 64 92 43 93 44 94 52 95 45 96 46 97
REMARK SMILES IDX 50 98 53 99 47 100 48 101 51 102 49 103
REMARK H PARENT 9 6 14 37 73 56 41 67
REMARK Flexibility Score: inf
ROOT
ATOM      1  C   UNL     1       3.311  -0.838   3.113  1.00  0.00     0.023 C 
ENDROOT
BRANCH   1   2
ATOM      2  C   UNL     1       2.865  -2.285   3.165  1.00  0.00     0.116 C 
BRANCH   2   3
ATOM      3  N   UNL     1       2.096  -2.571   4.354  1.00  0.00    -0.356 N 
ATOM      4  C   UNL     1       0.767  -2.484   4.618  1.00  0.00     0.224 C 
ATOM      5  O   UNL     1       0.392  -2.983   5.686  1.00  0.00    -0.275 OA
ATOM      6  H   UNL     1       2.636  -2.888   5.114  1.00  0.00     0.163 HD
BRANCH   4   7
ATOM      7  C   UNL     1      -0.268  -1.893   3.643  1.00  0.00     0.095 C 
ATOM      8  C   UNL     1       0.701  -0.205  -0.365  1.00  0.00     0.039 C 
ATOM      9  C   UNL     1       0.249  -0.871   0.913  1.00  0.00    -0.074 C 
ATOM     10  C   UNL     1       0.149  -2.198   1.090  1.00  0.00    -0.074 C 
ATOM     11  C   UNL     1      -0.071   0.111   1.999  1.00  0.00     0.045 C 
ATOM     12  C   UNL     1       0.583  -3.222   0.072  1.00  0.00     0.039 C 
ATOM     13  C   UNL     1      -0.371  -2.775   2.383  1.00  0.00     0.045 C 
ATOM     14  C   UNL     1      -0.351  -0.344   3.438  1.00  0.00     0.095 C 
BRANCH  14  15
ATOM     15  C   UNL     1       0.402   0.468   4.527  1.00  0.00     0.226 C 
ATOM     16  O   UNL     1       0.577  -0.025   5.645  1.00  0.00    -0.275 OA
ATOM     17  N   UNL     1       0.905   1.736   4.284  1.00  0.00    -0.339 N 
ATOM     18  C   UNL     1       2.034   2.188   5.109  1.00  0.00     0.141 C 
ATOM     19  C   UNL     1       0.370   2.804   3.413  1.00  0.00     0.141 C 
ATOM     20  C   UNL     1       3.147   2.768   4.225  1.00  0.00     0.138 C 
ATOM     21  C   UNL     1       1.475   3.447   2.523  1.00  0.00     0.138 C 
ATOM     22  N   UNL     1       2.619   3.831   3.363  1.00  0.00    -0.368 N 
BRANCH  22  23
ATOM     23  C   UNL     1       3.609   4.662   2.856  1.00  0.00     0.037 A 
ATOM     24  C   UNL     1       4.604   4.231   1.970  1.00  0.00     0.026 A 
ATOM     25  C   UNL     1       3.712   5.941   3.407  1.00  0.00     0.039 A 
ATOM     26  C   UNL     1       5.695   5.054   1.673  1.00  0.00     0.003 A 
ATOM     27  C   UNL     1       4.806   6.771   3.136  1.00  0.00     0.058 A 
ATOM     28  C   UNL     1       5.801   6.315   2.261  1.00  0.00     0.013 A 
BRANCH  27  29
ATOM     29  C   UNL     1       4.928   8.106   3.822  1.00  0.00     0.416 C 
ATOM     30  F   UNL     1       6.073   8.210   4.554  1.00  0.00    -0.166 F 
ATOM     31  F   UNL     1       4.947   9.147   2.946  1.00  0.00    -0.166 F 
ATOM     32  F   UNL     1       3.912   8.369   4.691  1.00  0.00    -0.166 F 
ENDBRANCH  27  29
ENDBRANCH  22  23
ENDBRANCH  14  15
ENDBRANCH   4   7
ENDBRANCH   2   3
ENDBRANCH   1   2
BRANCH   1  33
ATOM     33  C   UNL     1       4.532  -0.587   3.987  1.00  0.00     0.023 C 
BRANCH  33  34
ATOM     34  C   UNL     1       5.840  -0.800   3.251  1.00  0.00     0.116 C 
BRANCH  34  35
ATOM     35  N   UNL     1       6.017   0.076   2.094  1.00  0.00    -0.352 N 
ATOM     36  C   UNL     1       7.076   0.876   1.726  1.00  0.00     0.251 C 
ATOM     37  H   UNL     1       5.252   0.098   1.475  1.00  0.00     0.163 HD
ATOM     38  O   UNL     1       6.985   1.595   0.742  1.00  0.00    -0.269 OA
BRANCH  36  39
ATOM     39  C   UNL     1       8.300   0.901   2.557  1.00  0.00     0.039 A 
ATOM     40  C   UNL     1       8.948   2.119   2.777  1.00  0.00     0.014 A 
ATOM     41  C   UNL     1       8.774  -0.260   3.163  1.00  0.00     0.014 A 
ATOM     42  C   UNL     1      10.005   2.182   3.687  1.00  0.00     0.010 A 
ATOM     43  C   UNL     1       9.713  -0.167   4.176  1.00  0.00     0.010 A 
ATOM     44  C   UNL     1      10.357   1.050   4.438  1.00  0.00    -0.014 A 
BRANCH  44  45
ATOM     45  C   UNL     1      11.425   1.073   5.468  1.00  0.00     0.031 A 
ATOM     46  C   UNL     1      12.576   0.108   5.347  1.00  0.00     0.074 A 
ATOM     47  C   UNL     1      11.316   1.873   6.546  1.00  0.00     0.049 A 
ATOM     48  N   UNL     1      13.504  -0.195   6.218  1.00  0.00    -0.248 NA
ATOM     49  C   UNL     1      12.658  -0.666   4.095  1.00  0.00     0.031 C 
ATOM     50  C   UNL     1      10.224   2.814   6.804  1.00  0.00     0.029 A 
ATOM     51  N   UNL     1      12.135   2.013   7.638  1.00  0.00    -0.354 N 
ATOM     52  C   UNL     1      14.245  -1.215   5.635  1.00  0.00     0.074 A 
ATOM     53  C   UNL     1      13.616  -1.535   4.374  1.00  0.00     0.031 C 
ATOM     54  C   UNL     1      10.460   3.459   7.959  1.00  0.00     0.029 A 
ATOM     55  C   UNL     1      11.690   2.942   8.548  1.00  0.00     0.049 A 
ATOM     56  H   UNL     1      12.963   1.495   7.759  1.00  0.00     0.167 HD
ATOM     57  C   UNL     1      15.375  -1.805   6.089  1.00  0.00     0.037 A 
ATOM     58  C   UNL     1      12.218   3.323   9.726  1.00  0.00     0.037 A 
ATOM     59  C   UNL     1      16.034  -1.433   7.310  1.00  0.00     0.049 A 
ATOM     60  C   UNL     1      13.492   2.670  10.195  1.00  0.00     0.074 A 
ATOM     61  C   UNL     1      17.208  -1.930   7.846  1.00  0.00     0.029 A 
ATOM     62  N   UNL     1      15.582  -0.445   8.173  1.00  0.00    -0.354 N 
ATOM     63  N   UNL     1      14.201   1.729   9.620  1.00  0.00    -0.248 NA
ATOM     64  C   UNL     1      14.040   3.135  11.476  1.00  0.00     0.031 C 
ATOM     65  C   UNL     1      17.458  -1.255   9.045  1.00  0.00     0.029 A 
ATOM     66  C   UNL     1      16.459  -0.313   9.236  1.00  0.00     0.049 A 
ATOM     67  H   UNL     1      14.761   0.083   8.048  1.00  0.00     0.167 HD
ATOM     68  C   UNL     1      15.295   1.516  10.447  1.00  0.00     0.074 A 
ATOM     69  C   UNL     1      15.163   2.436  11.558  1.00  0.00     0.031 C 
ATOM     70  C   UNL     1      16.316   0.636  10.308  1.00  0.00     0.037 A 
BRANCH  57  71
ATOM     71  C   UNL     1      15.984  -2.883   5.239  1.00  0.00     0.064 A 
ATOM     72  C   UNL     1      16.574  -2.591   3.999  1.00  0.00     0.173 A 
ATOM     73  C   UNL     1      15.998  -4.216   5.673  1.00  0.00     0.173 A 
ATOM     74  F   UNL     1      16.571  -1.334   3.529  1.00  0.00    -0.203 F 
ATOM     75  C   UNL     1      17.125  -3.597   3.211  1.00  0.00     0.198 A 
ATOM     76  C   UNL     1      16.581  -5.216   4.897  1.00  0.00     0.198 A 
ATOM     77  F   UNL     1      15.450  -4.551   6.851  1.00  0.00    -0.203 F 
ATOM     78  F   UNL     1      17.628  -3.301   2.005  1.00  0.00    -0.200 F 
ATOM     79  C   UNL     1      17.135  -4.907   3.664  1.00  0.00     0.200 A 
ATOM     80  F   UNL     1      16.600  -6.481   5.341  1.00  0.00    -0.200 F 
ATOM     81  F   UNL     1      17.671  -5.874   2.907  1.00  0.00    -0.200 F 
ENDBRANCH  57  71
BRANCH  58  82
ATOM     82  C   UNL     1      11.574   4.394  10.532  1.00  0.00     0.064 A 
ATOM     83  C   UNL     1      12.201   5.638  10.698  1.00  0.00     0.173 A 
ATOM     84  C   UNL     1      10.346   4.195  11.178  1.00  0.00     0.173 A 
ATOM     85  F   UNL     1      13.387   5.871  10.116  1.00  0.00    -0.203 F 
ATOM     86  C   UNL     1      11.643   6.627  11.505  1.00  0.00     0.198 A 
ATOM     87  C   UNL     1       9.773   5.196  11.961  1.00  0.00     0.198 A 
ATOM     88  F   UNL     1       9.700   3.027  11.048  1.00  0.00    -0.203 F 
ATOM     89  F   UNL     1      12.296   7.782  11.693  1.00  0.00    -0.200 F 
ATOM     90  C   UNL     1      10.428   6.406  12.134  1.00  0.00     0.200 A 
ATOM     91  F   UNL     1       8.592   4.983  12.558  1.00  0.00    -0.200 F 
ATOM     92  F   UNL     1       9.895   7.354  12.917  1.00  0.00    -0.200 F 
ENDBRANCH  58  82
BRANCH  70  93
ATOM     93  C   UNL     1      17.396   0.670  11.347  1.00  0.00     0.064 A 
ATOM     94  C   UNL     1      17.189   0.171  12.640  1.00  0.00     0.173 A 
ATOM     95  C   UNL     1      18.668   1.167  11.026  1.00  0.00     0.173 A 
ATOM     96  F   UNL     1      15.984  -0.301  12.996  1.00  0.00    -0.203 F 
ATOM     97  C   UNL     1      18.210   0.192  13.584  1.00  0.00     0.198 A 
ATOM     98  C   UNL     1      19.696   1.159  11.963  1.00  0.00     0.198 A 
ATOM     99  F   UNL     1      18.917   1.647   9.798  1.00  0.00    -0.203 F 
ATOM    100  F   UNL     1      17.979  -0.249  14.829  1.00  0.00    -0.200 F 
ATOM    101  C   UNL     1      19.464   0.678  13.243  1.00  0.00     0.200 A 
ATOM    102  F   UNL     1      20.910   1.616  11.629  1.00  0.00    -0.200 F 
ATOM    103  F   UNL     1      20.449   0.689  14.152  1.00  0.00    -0.200 F 
ENDBRANCH  70  93
ENDBRANCH  44  45
ENDBRANCH  36  39
ENDBRANCH  34  35
ENDBRANCH  33  34
ENDBRANCH   1  33
TORSDOF 14
