REMARK SMILES C[C@@H](Nc1ccc(C(=O)NCCCCNC(=O)c2ccc(-c3c4nc(c(-c5c(F)c(F)c(F)c(F)c5F)c5ccc([nH]5)c(-c5c(F)c(F)c(F)c(F)c5F)c5nc(c(-c6c(F)c(F)c(F)c(F)c6F)c6ccc3[nH]6)C=C5)C=C4)cc2)cc1)C1CC[NH+](C)CC1
REMARK SMILES IDX 12 1 11 2 10 3 8 4 9 5 7 7 4 8 5 9 82 10 6 11 81 12 3 13
REMARK SMILES IDX 2 15 1 16 83 17 84 18 89 19 85 20 88 21 86 22 87 23 13 25
REMARK SMILES IDX 14 26 15 27 16 28 17 30 18 31 19 32 80 33 20 34 79 35 21 36
REMARK SMILES IDX 22 37 23 38 73 39 24 40 78 41 72 42 74 43 25 44 77 45 71 46
REMARK SMILES IDX 70 47 26 49 58 50 38 51 57 52 39 53 42 54 56 55 75 56 40 57
REMARK SMILES IDX 41 58 55 60 76 61 43 62 27 63 28 64 36 65 29 66 30 67 34 68
REMARK SMILES IDX 37 69 31 70 32 71 35 72 33 73 59 74 60 75 68 76 61 77 62 78
REMARK SMILES IDX 66 79 69 80 63 81 64 82 67 83 65 84 44 85 45 86 53 87 46 88
REMARK SMILES IDX 47 89 51 90 54 91 48 92 49 93 52 94 50 95
REMARK H PARENT 10 6 3 14 86 24 15 29 74 48 42 59
REMARK Flexibility Score: inf
ROOT
ATOM      1  C   UNL     1      -4.246  -6.411   3.440  1.00  0.00     0.023 C 
ENDROOT
BRANCH   1   2
ATOM      2  C   UNL     1      -4.410  -4.912   3.672  1.00  0.00     0.116 C 
BRANCH   2   3
ATOM      3  N   UNL     1      -3.992  -4.543   5.003  1.00  0.00    -0.352 N 
ATOM      4  C   UNL     1      -2.830  -3.946   5.409  1.00  0.00     0.251 C 
ATOM      5  O   UNL     1      -2.706  -3.604   6.583  1.00  0.00    -0.269 OA
ATOM      6  H   UNL     1      -4.634  -4.750   5.720  1.00  0.00     0.163 HD
BRANCH   4   7
ATOM      7  C   UNL     1      -1.744  -3.640   4.466  1.00  0.00     0.039 A 
ATOM      8  C   UNL     1       0.865  -2.538   2.186  1.00  0.00     0.034 A 
ATOM      9  C   UNL     1       0.466  -1.536   3.655  1.00  0.00     0.026 A 
ATOM     10  C   UNL     1       0.090  -4.161   1.937  1.00  0.00     0.026 A 
ATOM     11  C   UNL     1      -0.862  -2.079   4.780  1.00  0.00     0.016 A 
ATOM     12  C   UNL     1      -1.230  -4.718   3.100  1.00  0.00     0.016 A 
BRANCH   8  13
ATOM     13  N   UNL     1       1.520  -1.888   1.150  1.00  0.00    -0.382 N 
ATOM     14  H   UNL     1       2.503  -1.842   1.134  1.00  0.00     0.160 HD
BRANCH  13  15
ATOM     15  C   UNL     1       0.730  -1.268   0.078  1.00  0.00     0.079 C 
ATOM     16  C   UNL     1       1.284   0.149  -0.142  1.00  0.00     0.031 C 
BRANCH  15  17
ATOM     17  C   UNL     1      -0.831  -1.218   0.162  1.00  0.00     0.022 C 
ATOM     18  C   UNL     1      -1.511  -0.411   1.272  1.00  0.00     0.067 C 
ATOM     19  C   UNL     1      -1.510  -2.577   0.070  1.00  0.00     0.067 C 
ATOM     20  C   UNL     1      -1.646  -1.100   2.649  1.00  0.00     0.262 C 
ATOM     21  C   UNL     1      -1.995  -3.107   1.429  1.00  0.00     0.262 C 
ATOM     22  N   UNL     1      -1.161  -2.620   2.721  1.00  0.00    -0.337 N 
ATOM     23  C   UNL     1       0.274  -3.568   3.891  1.00  0.00     0.332 C 
ATOM     24  H   UNL     1      -0.796  -3.159   3.506  1.00  0.00     0.347 HD
ENDBRANCH  15  17
ENDBRANCH  13  15
ENDBRANCH   8  13
ENDBRANCH   4   7
ENDBRANCH   2   3
ENDBRANCH   1   2
BRANCH   1  25
ATOM     25  C   UNL     1      -5.241  -7.276   4.205  1.00  0.00     0.023 C 
BRANCH  25  26
ATOM     26  C   UNL     1      -6.697  -6.926   3.954  1.00  0.00     0.116 C 
BRANCH  26  27
ATOM     27  N   UNL     1      -7.055  -6.955   2.543  1.00  0.00    -0.352 N 
ATOM     28  C   UNL     1      -8.226  -7.398   1.981  1.00  0.00     0.251 C 
ATOM     29  H   UNL     1      -6.375  -6.615   1.917  1.00  0.00     0.163 HD
ATOM     30  O   UNL     1      -8.349  -7.499   0.767  1.00  0.00    -0.269 OA
BRANCH  28  31
ATOM     31  C   UNL     1      -9.325  -7.788   2.882  1.00  0.00     0.039 A 
ATOM     32  C   UNL     1      -9.923  -9.037   2.722  1.00  0.00     0.014 A 
ATOM     33  C   UNL     1      -9.697  -6.944   3.933  1.00  0.00     0.014 A 
ATOM     34  C   UNL     1     -10.865  -9.464   3.655  1.00  0.00     0.010 A 
ATOM     35  C   UNL     1     -10.558  -7.413   4.915  1.00  0.00     0.010 A 
ATOM     36  C   UNL     1     -11.164  -8.671   4.777  1.00  0.00    -0.014 A 
BRANCH  36  37
ATOM     37  C   UNL     1     -12.133  -9.129   5.801  1.00  0.00     0.031 A 
ATOM     38  C   UNL     1     -13.396  -8.347   6.035  1.00  0.00     0.074 A 
ATOM     39  C   UNL     1     -11.858 -10.219   6.542  1.00  0.00     0.049 A 
ATOM     40  N   UNL     1     -14.355  -8.563   6.899  1.00  0.00    -0.248 NA
ATOM     41  C   UNL     1     -13.595  -7.145   5.209  1.00  0.00     0.031 C 
ATOM     42  C   UNL     1     -10.643 -11.029   6.438  1.00  0.00     0.029 A 
ATOM     43  N   UNL     1     -12.584 -10.835   7.530  1.00  0.00    -0.354 N 
ATOM     44  C   UNL     1     -15.261  -7.526   6.721  1.00  0.00     0.074 A 
ATOM     45  C   UNL     1     -14.704  -6.640   5.725  1.00  0.00     0.031 C 
ATOM     46  C   UNL     1     -10.725 -12.056   7.299  1.00  0.00     0.029 A 
ATOM     47  C   UNL     1     -11.974 -11.953   8.046  1.00  0.00     0.049 A 
ATOM     48  H   UNL     1     -13.459 -10.507   7.840  1.00  0.00     0.167 HD
ATOM     49  C   UNL     1     -16.468  -7.348   7.309  1.00  0.00     0.037 A 
ATOM     50  C   UNL     1     -12.380 -12.794   9.015  1.00  0.00     0.037 A 
ATOM     51  C   UNL     1     -17.021  -8.241   8.292  1.00  0.00     0.049 A 
ATOM     52  C   UNL     1     -13.711 -12.553   9.678  1.00  0.00     0.074 A 
ATOM     53  C   UNL     1     -18.250  -8.175   8.924  1.00  0.00     0.029 A 
ATOM     54  N   UNL     1     -16.373  -9.362   8.793  1.00  0.00    -0.354 N 
ATOM     55  N   UNL     1     -14.594 -11.610   9.451  1.00  0.00    -0.248 NA
ATOM     56  C   UNL     1     -14.106 -13.502  10.728  1.00  0.00     0.031 C 
ATOM     57  C   UNL     1     -18.320  -9.219   9.851  1.00  0.00     0.029 A 
ATOM     58  C   UNL     1     -17.168  -9.981   9.744  1.00  0.00     0.049 A 
ATOM     59  H   UNL     1     -15.481  -9.672   8.513  1.00  0.00     0.167 HD
ATOM     60  C   UNL     1     -15.662 -11.874  10.299  1.00  0.00     0.074 A 
ATOM     61  C   UNL     1     -15.322 -13.075  11.032  1.00  0.00     0.031 C 
ATOM     62  C   UNL     1     -16.820 -11.185  10.456  1.00  0.00     0.037 A 
BRANCH  49  63
ATOM     63  C   UNL     1     -17.268  -6.144   6.901  1.00  0.00     0.064 A 
ATOM     64  C   UNL     1     -17.802  -6.016   5.608  1.00  0.00     0.173 A 
ATOM     65  C   UNL     1     -17.529  -5.116   7.819  1.00  0.00     0.173 A 
ATOM     66  F   UNL     1     -17.573  -6.963   4.686  1.00  0.00    -0.203 F 
ATOM     67  C   UNL     1     -18.536  -4.891   5.242  1.00  0.00     0.198 A 
ATOM     68  C   UNL     1     -18.295  -4.010   7.461  1.00  0.00     0.198 A 
ATOM     69  F   UNL     1     -17.046  -5.186   9.069  1.00  0.00    -0.203 F 
ATOM     70  F   UNL     1     -18.983  -4.765   3.985  1.00  0.00    -0.200 F 
ATOM     71  C   UNL     1     -18.790  -3.894   6.171  1.00  0.00     0.200 A 
ATOM     72  F   UNL     1     -18.553  -3.055   8.365  1.00  0.00    -0.200 F 
ATOM     73  F   UNL     1     -19.504  -2.816   5.820  1.00  0.00    -0.200 F 
ENDBRANCH  49  63
BRANCH  50  74
ATOM     74  C   UNL     1     -11.535 -13.956   9.403  1.00  0.00     0.064 A 
ATOM     75  C   UNL     1     -11.962 -15.271   9.169  1.00  0.00     0.173 A 
ATOM     76  C   UNL     1     -10.296 -13.779  10.038  1.00  0.00     0.173 A 
ATOM     77  F   UNL     1     -13.147 -15.494   8.581  1.00  0.00    -0.203 F 
ATOM     78  C   UNL     1     -11.202 -16.362   9.585  1.00  0.00     0.198 A 
ATOM     79  C   UNL     1      -9.520 -14.871  10.421  1.00  0.00     0.198 A 
ATOM     80  F   UNL     1      -9.835 -12.543  10.280  1.00  0.00    -0.203 F 
ATOM     81  F   UNL     1     -11.666 -17.606   9.405  1.00  0.00    -0.200 F 
ATOM     82  C   UNL     1      -9.979 -16.161  10.207  1.00  0.00     0.200 A 
ATOM     83  F   UNL     1      -8.330 -14.672  11.005  1.00  0.00    -0.200 F 
ATOM     84  F   UNL     1      -9.249 -17.210  10.608  1.00  0.00    -0.200 F 
ENDBRANCH  50  74
BRANCH  62  85
ATOM     85  C   UNL     1     -17.830 -11.745  11.417  1.00  0.00     0.064 A 
ATOM     86  C   UNL     1     -17.610 -11.761  12.803  1.00  0.00     0.173 A 
ATOM     87  C   UNL     1     -19.053 -12.245  10.943  1.00  0.00     0.173 A 
ATOM     88  F   UNL     1     -16.454 -11.306  13.309  1.00  0.00    -0.203 F 
ATOM     89  C   UNL     1     -18.560 -12.292  13.672  1.00  0.00     0.198 A 
ATOM     90  C   UNL     1     -20.017 -12.737  11.818  1.00  0.00     0.198 A 
ATOM     91  F   UNL     1     -19.321 -12.245   9.628  1.00  0.00    -0.203 F 
ATOM     92  F   UNL     1     -18.300 -12.355  14.986  1.00  0.00    -0.200 F 
ATOM     93  C   UNL     1     -19.764 -12.772  13.180  1.00  0.00     0.200 A 
ATOM     94  F   UNL     1     -21.188 -13.181  11.342  1.00  0.00    -0.200 F 
ATOM     95  F   UNL     1     -20.680 -13.275  14.020  1.00  0.00    -0.200 F 
ENDBRANCH  62  85
ENDBRANCH  36  37
ENDBRANCH  28  31
ENDBRANCH  26  27
ENDBRANCH  25  26
ENDBRANCH   1  25
TORSDOF 14
