REMARK SMILES O=C(NCCCCNC(=O)c1cc(S(=O)(=O)Nc2ccccc2-n2cc(Br)cn2)c[nH]1)c1ccc(-c2c3nc(c(-c4c(F)c(F)c(F)c(F)c4F)c4ccc([nH]4)c(-c4c(F)c(F)c(F)c(F)c4F)c4nc(c(-c5c(F)c(F)c(F)c(F)c5F)c5ccc2[nH]5)C=C4)C=C3)cc1
REMARK SMILES IDX 6 1 5 2 4 3 3 4 1 5 2 6 32 8 33 9 94 10 34 11 93 12 35 13
REMARK SMILES IDX 36 14 37 15 87 16 38 17 92 18 86 19 88 20 39 21 91 22 85 23
REMARK SMILES IDX 84 24 40 26 72 27 52 28 71 29 53 30 56 31 70 32 89 33 54 34
REMARK SMILES IDX 55 35 69 37 90 38 57 39 41 40 42 41 50 42 43 43 44 44 48 45
REMARK SMILES IDX 51 46 45 47 46 48 49 49 47 50 73 51 74 52 82 53 75 54 76 55
REMARK SMILES IDX 80 56 83 57 77 58 78 59 81 60 79 61 58 62 59 63 67 64 60 65
REMARK SMILES IDX 61 66 65 67 68 68 62 69 63 70 66 71 64 72 7 73 8 74 9 75
REMARK SMILES IDX 10 77 11 78 12 79 31 80 13 81 30 82 14 84 15 85 16 86 17 87
REMARK SMILES IDX 18 89 19 90 23 91 20 92 22 93 21 94 24 95 25 96 29 97 26 98
REMARK SMILES IDX 28 99 27 100
REMARK H PARENT 3 7 88 25 56 36 8 76 31 83 17 88
REMARK Flexibility Score: inf
ROOT
ATOM      1  C   UNL     1       4.341   3.284  -0.419  1.00  0.00     0.023 C 
ENDROOT
BRANCH   1   2
ATOM      2  C   UNL     1       4.961   1.906  -0.606  1.00  0.00     0.023 C 
BRANCH   2   3
ATOM      3  C   UNL     1       4.625   0.891   0.489  1.00  0.00     0.116 C 
BRANCH   3   4
ATOM      4  N   UNL     1       3.210   0.626   0.696  1.00  0.00    -0.352 N 
ATOM      5  O   UNL     1       1.132  -0.142   0.482  1.00  0.00    -0.269 OA
ATOM      6  C   UNL     1       2.234   0.011  -0.047  1.00  0.00     0.251 C 
ATOM      7  H   UNL     1       2.880   0.960   1.561  1.00  0.00     0.163 HD
BRANCH   6   8
ATOM      8  C   UNL     1       2.414  -0.411  -1.460  1.00  0.00     0.039 A 
ATOM      9  C   UNL     1       3.649  -0.733  -2.017  1.00  0.00     0.014 A 
ATOM     10  C   UNL     1       1.264  -0.496  -2.267  1.00  0.00     0.014 A 
ATOM     11  C   UNL     1       3.761  -0.999  -3.373  1.00  0.00     0.010 A 
ATOM     12  C   UNL     1       1.359  -0.825  -3.622  1.00  0.00     0.010 A 
ATOM     13  C   UNL     1       2.619  -1.054  -4.177  1.00  0.00    -0.014 A 
BRANCH  13  14
ATOM     14  C   UNL     1       2.833  -1.532  -5.561  1.00  0.00     0.031 A 
ATOM     15  C   UNL     1       3.142  -3.029  -5.598  1.00  0.00     0.074 A 
ATOM     16  C   UNL     1       2.891  -0.593  -6.548  1.00  0.00     0.049 A 
ATOM     17  N   UNL     1       3.977  -3.689  -6.342  1.00  0.00    -0.248 NA
ATOM     18  C   UNL     1       2.506  -3.903  -4.579  1.00  0.00     0.031 C 
ATOM     19  C   UNL     1       2.527   0.822  -6.365  1.00  0.00     0.029 A 
ATOM     20  N   UNL     1       3.280  -0.615  -7.874  1.00  0.00    -0.354 N 
ATOM     21  C   UNL     1       3.840  -5.052  -6.011  1.00  0.00     0.074 A 
ATOM     22  C   UNL     1       3.022  -5.106  -4.836  1.00  0.00     0.031 C 
ATOM     23  C   UNL     1       2.770   1.526  -7.489  1.00  0.00     0.029 A 
ATOM     24  C   UNL     1       3.324   0.655  -8.507  1.00  0.00     0.049 A 
ATOM     25  H   UNL     1       3.510  -1.449  -8.344  1.00  0.00     0.167 HD
ATOM     26  C   UNL     1       4.298  -6.067  -6.801  1.00  0.00     0.037 A 
ATOM     27  C   UNL     1       3.815   0.996  -9.741  1.00  0.00     0.037 A 
ATOM     28  C   UNL     1       4.957  -5.552  -7.952  1.00  0.00     0.049 A 
ATOM     29  C   UNL     1       4.230  -0.270 -10.366  1.00  0.00     0.074 A 
ATOM     30  C   UNL     1       6.185  -4.982  -8.156  1.00  0.00     0.029 A 
ATOM     31  N   UNL     1       4.188  -5.354  -9.071  1.00  0.00    -0.354 N 
ATOM     32  N   UNL     1       3.413  -1.154 -10.854  1.00  0.00    -0.248 NA
ATOM     33  C   UNL     1       5.660  -0.603 -10.420  1.00  0.00     0.031 C 
ATOM     34  C   UNL     1       5.993  -4.117  -9.256  1.00  0.00     0.029 A 
ATOM     35  C   UNL     1       4.683  -4.254  -9.726  1.00  0.00     0.049 A 
ATOM     36  H   UNL     1       3.420  -5.902  -9.353  1.00  0.00     0.167 HD
ATOM     37  C   UNL     1       4.213  -2.267 -10.967  1.00  0.00     0.074 A 
ATOM     38  C   UNL     1       5.577  -1.798 -10.998  1.00  0.00     0.031 C 
ATOM     39  C   UNL     1       3.757  -3.456 -10.499  1.00  0.00     0.037 A 
BRANCH  26  40
ATOM     40  C   UNL     1       4.025  -7.546  -6.774  1.00  0.00     0.064 A 
ATOM     41  C   UNL     1       4.929  -8.411  -7.441  1.00  0.00     0.173 A 
ATOM     42  C   UNL     1       2.788  -8.101  -6.421  1.00  0.00     0.173 A 
ATOM     43  F   UNL     1       6.153  -7.987  -7.793  1.00  0.00    -0.203 F 
ATOM     44  C   UNL     1       4.573  -9.702  -7.827  1.00  0.00     0.198 A 
ATOM     45  C   UNL     1       2.453  -9.415  -6.767  1.00  0.00     0.198 A 
ATOM     46  F   UNL     1       1.842  -7.364  -5.827  1.00  0.00    -0.203 F 
ATOM     47  F   UNL     1       5.416 -10.435  -8.568  1.00  0.00    -0.200 F 
ATOM     48  C   UNL     1       3.328 -10.199  -7.501  1.00  0.00     0.200 A 
ATOM     49  F   UNL     1       1.244  -9.895  -6.446  1.00  0.00    -0.200 F 
ATOM     50  F   UNL     1       2.957 -11.416  -7.920  1.00  0.00    -0.200 F 
ENDBRANCH  26  40
BRANCH  27  51
ATOM     51  C   UNL     1       4.090   2.252 -10.548  1.00  0.00     0.064 A 
ATOM     52  C   UNL     1       3.752   3.562 -10.183  1.00  0.00     0.173 A 
ATOM     53  C   UNL     1       4.806   2.169 -11.780  1.00  0.00     0.173 A 
ATOM     54  F   UNL     1       2.986   3.814  -9.120  1.00  0.00    -0.203 F 
ATOM     55  C   UNL     1       4.179   4.684 -10.920  1.00  0.00     0.198 A 
ATOM     56  C   UNL     1       5.263   3.280 -12.491  1.00  0.00     0.198 A 
ATOM     57  F   UNL     1       5.096   0.992 -12.351  1.00  0.00    -0.203 F 
ATOM     58  F   UNL     1       3.833   5.913 -10.513  1.00  0.00    -0.200 F 
ATOM     59  C   UNL     1       4.962   4.544 -12.051  1.00  0.00     0.200 A 
ATOM     60  F   UNL     1       6.010   3.104 -13.591  1.00  0.00    -0.200 F 
ATOM     61  F   UNL     1       5.409   5.617 -12.717  1.00  0.00    -0.200 F 
ENDBRANCH  27  51
BRANCH  39  62
ATOM     62  C   UNL     1       2.241  -3.520 -10.442  1.00  0.00     0.064 A 
ATOM     63  C   UNL     1       1.484  -3.429 -11.620  1.00  0.00     0.173 A 
ATOM     64  C   UNL     1       1.513  -3.493  -9.241  1.00  0.00     0.173 A 
ATOM     65  F   UNL     1       2.099  -3.456 -12.813  1.00  0.00    -0.203 F 
ATOM     66  C   UNL     1       0.093  -3.290 -11.590  1.00  0.00     0.198 A 
ATOM     67  C   UNL     1       0.125  -3.365  -9.205  1.00  0.00     0.198 A 
ATOM     68  F   UNL     1       2.138  -3.582  -8.072  1.00  0.00    -0.203 F 
ATOM     69  F   UNL     1      -0.593  -3.187 -12.736  1.00  0.00    -0.200 F 
ATOM     70  C   UNL     1      -0.586  -3.253 -10.382  1.00  0.00     0.200 A 
ATOM     71  F   UNL     1      -0.515  -3.349  -8.026  1.00  0.00    -0.200 F 
ATOM     72  F   UNL     1      -1.919  -3.122 -10.353  1.00  0.00    -0.200 F 
ENDBRANCH  39  62
ENDBRANCH  13  14
ENDBRANCH   6   8
ENDBRANCH   3   4
ENDBRANCH   2   3
ENDBRANCH   1   2
BRANCH   1  73
ATOM     73  C   UNL     1       4.715   3.987   0.876  1.00  0.00     0.116 C 
BRANCH  73  74
ATOM     74  N   UNL     1       6.128   4.308   0.948  1.00  0.00    -0.351 N 
ATOM     75  C   UNL     1       6.754   5.497   1.228  1.00  0.00     0.267 C 
ATOM     76  H   UNL     1       6.734   3.554   0.767  1.00  0.00     0.163 HD
ATOM     77  O   UNL     1       7.963   5.570   1.006  1.00  0.00    -0.268 OA
BRANCH  75  78
ATOM     78  C   UNL     1       6.014   6.612   1.774  1.00  0.00     0.105 A 
ATOM     79  C   UNL     1       4.791   6.690   2.410  1.00  0.00     0.055 A 
ATOM     80  N   UNL     1       6.533   7.894   1.804  1.00  0.00    -0.356 N 
ATOM     81  C   UNL     1       4.594   8.005   2.885  1.00  0.00     0.106 A 
ATOM     82  C   UNL     1       5.678   8.745   2.462  1.00  0.00     0.105 A 
ATOM     83  H   UNL     1       7.395   8.159   1.410  1.00  0.00     0.166 HD
BRANCH  81  84
ATOM     84  S   UNL     1       3.214   8.493   3.802  1.00  0.00     0.263 S 
ATOM     85  O   UNL     1       3.473   9.856   4.184  1.00  0.00    -0.201 OA
ATOM     86  O   UNL     1       2.088   8.142   2.953  1.00  0.00    -0.201 OA
BRANCH  84  87
ATOM     87  N   UNL     1       3.037   7.596   5.247  1.00  0.00    -0.277 N 
ATOM     88  H   UNL     1       2.759   8.040   6.081  1.00  0.00     0.180 HD
BRANCH  87  89
ATOM     89  C   UNL     1       3.302   6.182   5.223  1.00  0.00     0.075 A 
ATOM     90  C   UNL     1       2.264   5.322   4.836  1.00  0.00     0.029 A 
ATOM     91  C   UNL     1       4.598   5.655   5.407  1.00  0.00     0.089 A 
ATOM     92  C   UNL     1       2.501   3.956   4.647  1.00  0.00     0.002 A 
ATOM     93  C   UNL     1       4.830   4.284   5.183  1.00  0.00     0.030 A 
ATOM     94  C   UNL     1       3.781   3.438   4.819  1.00  0.00     0.002 A 
BRANCH  91  95
ATOM     95  N   UNL     1       5.713   6.478   5.729  1.00  0.00    -0.238 N 
ATOM     96  C   UNL     1       5.720   7.714   6.338  1.00  0.00     0.130 A 
ATOM     97  N   UNL     1       6.972   6.109   5.353  1.00  0.00    -0.175 NA
ATOM     98  C   UNL     1       6.966   8.233   6.131  1.00  0.00     0.056 A 
ATOM     99  C   UNL     1       7.697   7.222   5.509  1.00  0.00     0.151 A 
ATOM    100  Br  UNL     1       7.587   9.932   6.577  1.00  0.00    -0.047 Br
ENDBRANCH  91  95
ENDBRANCH  87  89
ENDBRANCH  84  87
ENDBRANCH  81  84
ENDBRANCH  75  78
ENDBRANCH  73  74
ENDBRANCH   1  73
TORSDOF 15
