REMARK SMILES Cc1ccc(N2C(=O)[NH+]=C(NCCCCNC(=O)c3ccc(-c4c5nc(c(-c6c(F)c(F)c(F)c(F)c6F)c6ccc([nH]6)c(-c6c(F)c(F)c(F)c(F)c6F)c6nc(c(-c7c(F)c(F)c(F)c(F)c7F)c7ccc4[nH]7)C=C6)C=C5)cc3)/C(=C\c3ccccc3OCc3cccc(C(=O)[O-])c3)C2=O)cc1
REMARK SMILES IDX 12 1 11 2 6 3 7 4 101 5 8 6 9 7 82 8 102 9 10 10 83 12 5 14
REMARK SMILES IDX 1 15 2 16 3 17 104 18 4 19 103 20 84 21 85 22 89 23 86 24
REMARK SMILES IDX 88 25 87 26 90 27 91 28 92 29 93 30 100 31 94 32 96 33 95 34
REMARK SMILES IDX 97 35 98 36 99 37 13 38 14 39 15 40 16 41 17 42 18 44 19 45
REMARK SMILES IDX 20 46 81 47 21 48 80 49 22 50 23 51 24 52 74 53 25 54 79 55
REMARK SMILES IDX 73 56 75 57 26 58 78 59 72 60 71 61 27 63 59 64 39 65 58 66
REMARK SMILES IDX 40 67 43 68 57 69 76 70 41 71 42 72 56 74 77 75 44 76 28 77
REMARK SMILES IDX 29 78 37 79 30 80 31 81 35 82 38 83 32 84 33 85 36 86 34 87
REMARK SMILES IDX 60 88 61 89 69 90 62 91 63 92 67 93 70 94 64 95 65 96 68 97
REMARK SMILES IDX 66 98 45 99 46 100 54 101 47 102 48 103 52 104 55 105 49 106
REMARK SMILES IDX 50 107 53 108 51 109
REMARK H PARENT 9 11 11 13 16 43 75 62 43 73
REMARK Flexibility Score: inf
ROOT
ATOM      1  C   UNL     1      -8.070   0.284   1.659  1.00  0.00     0.194 C 
ENDROOT
BRANCH   1   2
ATOM      2  N   UNL     1      -7.233   1.212   0.911  1.00  0.00    -0.305 N 
ATOM      3  N   UNL     1      -3.099   0.840   0.456  1.00  0.00    -0.155 N 
ATOM      4  C   UNL     1      -3.841   0.117   1.412  1.00  0.00     0.448 C 
ATOM      5  C   UNL     1      -3.707   1.746  -0.407  1.00  0.00     0.328 C 
ATOM      6  O   UNL     1      -3.315  -0.677   2.190  1.00  0.00    -0.212 OA
ATOM      7  N   UNL     1      -5.188   0.341   1.550  1.00  0.00    -0.209 N 
ATOM      8  C   UNL     1      -5.183   1.612  -0.478  1.00  0.00     0.129 C 
ATOM      9  O   UNL     1      -3.141   2.526  -1.174  1.00  0.00    -0.249 OA
ATOM     10  C   UNL     1      -5.878   1.025   0.694  1.00  0.00     0.236 C 
ATOM     11  H   UNL     1      -5.650  -0.035   2.334  1.00  0.00     0.270 HD
ATOM     12  C   UNL     1      -5.723   1.871  -1.687  1.00  0.00     0.034 C 
ATOM     13  H   UNL     1      -7.655   2.019   0.538  1.00  0.00     0.256 HD
BRANCH   3  14
ATOM     14  C   UNL     1      -1.671   0.625   0.349  1.00  0.00     0.111 A 
ATOM     15  C   UNL     1       2.599  -0.064  -0.059  1.00  0.00     0.044 C 
ATOM     16  C   UNL     1       1.127   0.181   0.083  1.00  0.00    -0.051 A 
ATOM     17  C   UNL     1       0.261  -0.878   0.360  1.00  0.00     0.007 A 
ATOM     18  C   UNL     1       0.591   1.459  -0.079  1.00  0.00     0.007 A 
ATOM     19  C   UNL     1      -1.115  -0.656   0.497  1.00  0.00     0.044 A 
ATOM     20  C   UNL     1      -0.787   1.675   0.051  1.00  0.00     0.044 A 
ENDBRANCH   3  14
BRANCH  12  21
ATOM     21  C   UNL     1      -7.066   1.537  -2.176  1.00  0.00     0.018 A 
ATOM     22  C   UNL     1      -7.782   2.554  -2.823  1.00  0.00     0.012 A 
ATOM     23  C   UNL     1      -7.640   0.257  -2.075  1.00  0.00     0.127 A 
ATOM     24  C   UNL     1      -9.072   2.323  -3.296  1.00  0.00     0.001 A 
ATOM     25  C   UNL     1      -8.948   0.041  -2.513  1.00  0.00     0.047 A 
ATOM     26  C   UNL     1      -9.656   1.072  -3.132  1.00  0.00     0.004 A 
BRANCH  23  27
ATOM     27  O   UNL     1      -7.041  -0.795  -1.432  1.00  0.00    -0.488 OA
BRANCH  27  28
ATOM     28  C   UNL     1      -5.907  -1.330  -2.128  1.00  0.00     0.265 C 
BRANCH  28  29
ATOM     29  C   UNL     1      -5.383  -2.533  -1.375  1.00  0.00    -0.010 A 
ATOM     30  C   UNL     1      -4.002  -2.762  -1.258  1.00  0.00     0.007 A 
ATOM     31  C   UNL     1      -6.269  -3.485  -0.849  1.00  0.00     0.017 A 
ATOM     32  C   UNL     1      -3.520  -3.916  -0.633  1.00  0.00     0.001 A 
ATOM     33  C   UNL     1      -5.787  -4.648  -0.235  1.00  0.00    -0.002 A 
ATOM     34  C   UNL     1      -4.410  -4.864  -0.131  1.00  0.00     0.010 A 
BRANCH  33  35
ATOM     35  C   UNL     1      -6.705  -5.692   0.274  1.00  0.00     0.071 C 
ATOM     36  O   UNL     1      -6.411  -6.838   0.550  1.00  0.00    -0.545 OA
ATOM     37  O   UNL     1      -7.958  -5.232   0.422  1.00  0.00    -0.545 OA
ENDBRANCH  33  35
ENDBRANCH  28  29
ENDBRANCH  27  28
ENDBRANCH  23  27
ENDBRANCH  12  21
ENDBRANCH   1   2
BRANCH   1  38
ATOM     38  C   UNL     1      -9.069   1.014   2.563  1.00  0.00     0.039 C 
BRANCH  38  39
ATOM     39  C   UNL     1     -10.082   1.921   1.856  1.00  0.00     0.024 C 
BRANCH  39  40
ATOM     40  C   UNL     1     -11.179   1.173   1.098  1.00  0.00     0.116 C 
BRANCH  40  41
ATOM     41  N   UNL     1     -12.522   1.438   1.622  1.00  0.00    -0.352 N 
ATOM     42  C   UNL     1     -13.755   0.998   1.178  1.00  0.00     0.251 C 
ATOM     43  H   UNL     1     -12.550   2.021   2.415  1.00  0.00     0.163 HD
ATOM     44  O   UNL     1     -14.777   1.275   1.796  1.00  0.00    -0.269 OA
BRANCH  42  45
ATOM     45  C   UNL     1     -13.822   0.091   0.013  1.00  0.00     0.039 A 
ATOM     46  C   UNL     1     -14.546  -1.101   0.130  1.00  0.00     0.014 A 
ATOM     47  C   UNL     1     -13.037   0.326  -1.108  1.00  0.00     0.014 A 
ATOM     48  C   UNL     1     -14.274  -2.158  -0.739  1.00  0.00     0.010 A 
ATOM     49  C   UNL     1     -12.715  -0.739  -1.922  1.00  0.00     0.010 A 
ATOM     50  C   UNL     1     -13.272  -1.998  -1.693  1.00  0.00    -0.014 A 
BRANCH  50  51
ATOM     51  C   UNL     1     -12.675  -3.097  -2.437  1.00  0.00     0.031 A 
ATOM     52  C   UNL     1     -13.063  -3.358  -3.835  1.00  0.00     0.074 A 
ATOM     53  C   UNL     1     -11.688  -3.833  -1.877  1.00  0.00     0.049 A 
ATOM     54  N   UNL     1     -13.035  -4.527  -4.382  1.00  0.00    -0.248 NA
ATOM     55  C   UNL     1     -13.519  -2.307  -4.736  1.00  0.00     0.031 C 
ATOM     56  C   UNL     1     -10.847  -4.826  -2.539  1.00  0.00     0.029 A 
ATOM     57  N   UNL     1     -11.386  -3.977  -0.513  1.00  0.00    -0.354 N 
ATOM     58  C   UNL     1     -13.183  -4.353  -5.736  1.00  0.00     0.074 A 
ATOM     59  C   UNL     1     -13.546  -2.961  -5.901  1.00  0.00     0.031 C 
ATOM     60  C   UNL     1     -10.405  -5.695  -1.620  1.00  0.00     0.029 A 
ATOM     61  C   UNL     1     -11.015  -5.333  -0.353  1.00  0.00     0.049 A 
ATOM     62  H   UNL     1     -11.425  -3.283   0.184  1.00  0.00     0.167 HD
ATOM     63  C   UNL     1     -12.844  -5.364  -6.588  1.00  0.00     0.037 A 
ATOM     64  C   UNL     1     -11.682  -6.175   0.486  1.00  0.00     0.037 A 
ATOM     65  C   UNL     1     -12.381  -6.546  -5.864  1.00  0.00     0.049 A 
ATOM     66  C   UNL     1     -12.270  -7.359  -0.229  1.00  0.00     0.074 A 
ATOM     67  C   UNL     1     -11.111  -7.014  -5.564  1.00  0.00     0.029 A 
ATOM     68  N   UNL     1     -13.260  -7.247  -5.039  1.00  0.00    -0.354 N 
ATOM     69  N   UNL     1     -12.424  -7.394  -1.524  1.00  0.00    -0.248 NA
ATOM     70  C   UNL     1     -12.741  -8.576   0.425  1.00  0.00     0.031 C 
ATOM     71  C   UNL     1     -11.223  -7.951  -4.509  1.00  0.00     0.029 A 
ATOM     72  C   UNL     1     -12.560  -8.073  -4.178  1.00  0.00     0.049 A 
ATOM     73  H   UNL     1     -14.241  -7.165  -5.066  1.00  0.00     0.167 HD
ATOM     74  C   UNL     1     -12.980  -8.586  -1.883  1.00  0.00     0.074 A 
ATOM     75  C   UNL     1     -13.164  -9.295  -0.630  1.00  0.00     0.031 C 
ATOM     76  C   UNL     1     -13.234  -8.896  -3.186  1.00  0.00     0.037 A 
BRANCH  63  77
ATOM     77  C   UNL     1     -12.644  -5.129  -8.066  1.00  0.00     0.064 A 
ATOM     78  C   UNL     1     -11.588  -5.739  -8.776  1.00  0.00     0.173 A 
ATOM     79  C   UNL     1     -13.442  -4.253  -8.825  1.00  0.00     0.173 A 
ATOM     80  F   UNL     1     -10.805  -6.665  -8.210  1.00  0.00    -0.203 F 
ATOM     81  C   UNL     1     -11.286  -5.407 -10.100  1.00  0.00     0.198 A 
ATOM     82  C   UNL     1     -13.106  -3.877 -10.130  1.00  0.00     0.198 A 
ATOM     83  F   UNL     1     -14.581  -3.754  -8.324  1.00  0.00    -0.203 F 
ATOM     84  F   UNL     1     -10.260  -6.010 -10.719  1.00  0.00    -0.200 F 
ATOM     85  C   UNL     1     -12.020  -4.446 -10.764  1.00  0.00     0.200 A 
ATOM     86  F   UNL     1     -13.837  -2.949 -10.764  1.00  0.00    -0.200 F 
ATOM     87  F   UNL     1     -11.692  -4.083 -12.011  1.00  0.00    -0.200 F 
ENDBRANCH  63  77
BRANCH  64  88
ATOM     88  C   UNL     1     -12.243  -5.462   1.662  1.00  0.00     0.064 A 
ATOM     89  C   UNL     1     -11.309  -4.811   2.494  1.00  0.00     0.173 A 
ATOM     90  C   UNL     1     -13.561  -4.995   1.672  1.00  0.00     0.173 A 
ATOM     91  F   UNL     1     -10.040  -5.253   2.539  1.00  0.00    -0.203 F 
ATOM     92  C   UNL     1     -11.621  -3.608   3.118  1.00  0.00     0.198 A 
ATOM     93  C   UNL     1     -13.883  -3.816   2.348  1.00  0.00     0.198 A 
ATOM     94  F   UNL     1     -14.498  -5.590   0.921  1.00  0.00    -0.203 F 
ATOM     95  F   UNL     1     -10.658  -2.901   3.727  1.00  0.00    -0.200 F 
ATOM     96  C   UNL     1     -12.899  -3.090   3.008  1.00  0.00     0.200 A 
ATOM     97  F   UNL     1     -15.128  -3.324   2.269  1.00  0.00    -0.200 F 
ATOM     98  F   UNL     1     -13.168  -1.869   3.493  1.00  0.00    -0.200 F 
ENDBRANCH  64  88
BRANCH  76  99
ATOM     99  C   UNL     1     -14.020 -10.094  -3.624  1.00  0.00     0.064 A 
ATOM    100  C   UNL     1     -15.124 -10.586  -2.910  1.00  0.00     0.173 A 
ATOM    101  C   UNL     1     -13.752 -10.716  -4.863  1.00  0.00     0.173 A 
ATOM    102  F   UNL     1     -15.537  -9.994  -1.780  1.00  0.00    -0.203 F 
ATOM    103  C   UNL     1     -15.860 -11.681  -3.363  1.00  0.00     0.198 A 
ATOM    104  C   UNL     1     -14.520 -11.776  -5.337  1.00  0.00     0.198 A 
ATOM    105  F   UNL     1     -12.749 -10.300  -5.650  1.00  0.00    -0.203 F 
ATOM    106  F   UNL     1     -16.875 -12.149  -2.624  1.00  0.00    -0.200 F 
ATOM    107  C   UNL     1     -15.562 -12.271  -4.577  1.00  0.00     0.200 A 
ATOM    108  F   UNL     1     -14.252 -12.307  -6.538  1.00  0.00    -0.200 F 
ATOM    109  F   UNL     1     -16.289 -13.304  -5.023  1.00  0.00    -0.200 F 
ENDBRANCH  76  99
ENDBRANCH  50  51
ENDBRANCH  42  45
ENDBRANCH  40  41
ENDBRANCH  39  40
ENDBRANCH  38  39
ENDBRANCH   1  38
TORSDOF 16
