REMARK SMILES C[C@@H]1SC[C@H](C(=O)NCCCCNC(=O)c2ccc(-c3c4nc(c(-c5c(F)c(F)c(F)c(F)c5F)c5ccc([nH]5)c(-c5c(F)c(F)c(F)c(F)c5F)c5nc(c(-c6c(F)c(F)c(F)c(F)c6F)c6ccc3[nH]6)C=C5)C=C4)cc2)N1C(=O)N(C)[C@@H](C)Cc1cccs1
REMARK SMILES IDX 9 1 8 2 6 3 7 4 5 6 1 7 2 8 3 9 79 10 4 11 80 12 81 13 82 14
REMARK SMILES IDX 83 15 84 16 85 17 86 18 87 19 88 20 91 21 89 22 90 23 10 24
REMARK SMILES IDX 11 25 12 26 13 27 14 28 15 30 16 31 17 32 78 33 18 34 77 35
REMARK SMILES IDX 19 36 20 37 21 38 71 39 22 40 76 41 70 42 72 43 23 44 75 45
REMARK SMILES IDX 69 46 68 47 24 49 56 50 36 51 55 52 37 53 40 54 54 55 73 56
REMARK SMILES IDX 38 57 39 58 53 60 74 61 41 62 25 63 26 64 34 65 27 66 28 67
REMARK SMILES IDX 32 68 35 69 29 70 30 71 33 72 31 73 57 74 58 75 66 76 59 77
REMARK SMILES IDX 60 78 64 79 67 80 61 81 62 82 65 83 63 84 42 85 43 86 51 87
REMARK SMILES IDX 44 88 45 89 49 90 52 91 46 92 47 93 50 94 48 95
REMARK H PARENT 8 5 13 29 72 48 40 59
REMARK Flexibility Score: inf
ROOT
ATOM      1  C   UNL     1      -3.007  -1.796  -0.504  1.00  0.00     0.116 C 
ENDROOT
BRANCH   1   2
ATOM      2  N   UNL     1      -2.913  -2.567  -1.722  1.00  0.00    -0.354 N 
ATOM      3  C   UNL     1      -1.988  -2.506  -2.720  1.00  0.00     0.243 C 
ATOM      4  O   UNL     1      -2.250  -3.124  -3.759  1.00  0.00    -0.273 OA
ATOM      5  H   UNL     1      -3.623  -3.237  -1.849  1.00  0.00     0.163 HD
BRANCH   3   6
ATOM      6  C   UNL     1      -0.785  -1.536  -2.668  1.00  0.00     0.187 C 
ATOM      7  C   UNL     1       0.106   0.728   0.013  1.00  0.00     0.043 C 
ATOM      8  C   UNL     1       0.518  -0.001  -1.266  1.00  0.00     0.142 C 
ATOM      9  S   UNL     1      -0.040   0.977  -2.702  1.00  0.00    -0.135 SA
ATOM     10  N   UNL     1      -0.024  -1.351  -1.401  1.00  0.00    -0.300 N 
ATOM     11  C   UNL     1      -1.330  -0.191  -3.136  1.00  0.00     0.107 C 
BRANCH  10  12
ATOM     12  C   UNL     1       0.368  -2.519  -0.782  1.00  0.00     0.321 C 
ATOM     13  O   UNL     1      -0.098  -3.579  -1.217  1.00  0.00    -0.248 OA
BRANCH  12  14
ATOM     14  N   UNL     1       1.212  -2.575   0.308  1.00  0.00    -0.325 N 
ATOM     15  C   UNL     1       1.983  -1.513   0.944  1.00  0.00     0.149 C 
BRANCH  14  16
ATOM     16  C   UNL     1       1.410  -3.911   0.952  1.00  0.00     0.088 C 
ATOM     17  C   UNL     1       0.113  -4.426   1.597  1.00  0.00     0.031 C 
BRANCH  16  18
ATOM     18  C   UNL     1       2.056  -4.990   0.040  1.00  0.00     0.071 C 
BRANCH  18  19
ATOM     19  C   UNL     1       3.414  -4.614  -0.508  1.00  0.00     0.007 A 
ATOM     20  C   UNL     1       3.794  -3.496  -1.229  1.00  0.00     0.015 A 
ATOM     21  S   UNL     1       4.728  -5.707  -0.343  1.00  0.00    -0.149 S 
ATOM     22  C   UNL     1       5.169  -3.512  -1.593  1.00  0.00     0.012 A 
ATOM     23  C   UNL     1       5.788  -4.674  -1.198  1.00  0.00     0.065 A 
ENDBRANCH  18  19
ENDBRANCH  16  18
ENDBRANCH  14  16
ENDBRANCH  12  14
ENDBRANCH  10  12
ENDBRANCH   3   6
ENDBRANCH   1   2
BRANCH   1  24
ATOM     24  C   UNL     1      -4.371  -1.121  -0.395  1.00  0.00     0.023 C 
BRANCH  24  25
ATOM     25  C   UNL     1      -5.547  -2.088  -0.256  1.00  0.00     0.023 C 
BRANCH  25  26
ATOM     26  C   UNL     1      -5.427  -3.078   0.895  1.00  0.00     0.116 C 
BRANCH  26  27
ATOM     27  N   UNL     1      -5.271  -2.423   2.185  1.00  0.00    -0.352 N 
ATOM     28  C   UNL     1      -5.966  -2.630   3.353  1.00  0.00     0.251 C 
ATOM     29  H   UNL     1      -4.569  -1.734   2.227  1.00  0.00     0.163 HD
ATOM     30  O   UNL     1      -5.811  -1.884   4.308  1.00  0.00    -0.269 OA
BRANCH  28  31
ATOM     31  C   UNL     1      -6.927  -3.749   3.430  1.00  0.00     0.039 A 
ATOM     32  C   UNL     1      -8.201  -3.510   3.950  1.00  0.00     0.014 A 
ATOM     33  C   UNL     1      -6.580  -5.018   2.961  1.00  0.00     0.014 A 
ATOM     34  C   UNL     1      -9.152  -4.532   3.933  1.00  0.00     0.010 A 
ATOM     35  C   UNL     1      -7.552  -6.006   2.866  1.00  0.00     0.010 A 
ATOM     36  C   UNL     1      -8.847  -5.775   3.355  1.00  0.00    -0.014 A 
BRANCH  36  37
ATOM     37  C   UNL     1      -9.867  -6.848   3.252  1.00  0.00     0.031 A 
ATOM     38  C   UNL     1      -9.666  -8.149   3.976  1.00  0.00     0.074 A 
ATOM     39  C   UNL     1     -10.940  -6.674   2.458  1.00  0.00     0.049 A 
ATOM     40  N   UNL     1     -10.412  -9.225   3.971  1.00  0.00    -0.248 NA
ATOM     41  C   UNL     1      -8.448  -8.267   4.792  1.00  0.00     0.031 C 
ATOM     42  C   UNL     1     -11.224  -5.474   1.671  1.00  0.00     0.029 A 
ATOM     43  N   UNL     1     -11.991  -7.512   2.179  1.00  0.00    -0.354 N 
ATOM     44  C   UNL     1      -9.751 -10.146   4.772  1.00  0.00     0.074 A 
ATOM     45  C   UNL     1      -8.510  -9.529   5.188  1.00  0.00     0.031 C 
ATOM     46  C   UNL     1     -12.391  -5.637   1.027  1.00  0.00     0.029 A 
ATOM     47  C   UNL     1     -12.915  -6.968   1.321  1.00  0.00     0.049 A 
ATOM     48  H   UNL     1     -12.075  -8.416   2.558  1.00  0.00     0.167 HD
ATOM     49  C   UNL     1     -10.153 -11.382   5.151  1.00  0.00     0.037 A 
ATOM     50  C   UNL     1     -14.054  -7.487   0.826  1.00  0.00     0.037 A 
ATOM     51  C   UNL     1     -11.392 -11.989   4.738  1.00  0.00     0.049 A 
ATOM     52  C   UNL     1     -14.462  -8.878   1.228  1.00  0.00     0.074 A 
ATOM     53  C   UNL     1     -11.916 -13.217   5.100  1.00  0.00     0.029 A 
ATOM     54  N   UNL     1     -12.297 -11.412   3.857  1.00  0.00    -0.354 N 
ATOM     55  N   UNL     1     -13.865  -9.714   2.043  1.00  0.00    -0.248 NA
ATOM     56  C   UNL     1     -15.706  -9.395   0.643  1.00  0.00     0.031 C 
ATOM     57  C   UNL     1     -13.111 -13.407   4.396  1.00  0.00     0.029 A 
ATOM     58  C   UNL     1     -13.363 -12.272   3.642  1.00  0.00     0.049 A 
ATOM     59  H   UNL     1     -12.197 -10.523   3.446  1.00  0.00     0.167 HD
ATOM     60  C   UNL     1     -14.674 -10.842   2.093  1.00  0.00     0.074 A 
ATOM     61  C   UNL     1     -15.811 -10.576   1.236  1.00  0.00     0.031 C 
ATOM     62  C   UNL     1     -14.492 -11.992   2.789  1.00  0.00     0.037 A 
BRANCH  49  63
ATOM     63  C   UNL     1      -9.235 -12.156   6.054  1.00  0.00     0.064 A 
ATOM     64  C   UNL     1      -8.979 -11.746   7.373  1.00  0.00     0.173 A 
ATOM     65  C   UNL     1      -8.598 -13.320   5.599  1.00  0.00     0.173 A 
ATOM     66  F   UNL     1      -9.553 -10.634   7.858  1.00  0.00    -0.203 F 
ATOM     67  C   UNL     1      -8.085 -12.442   8.182  1.00  0.00     0.198 A 
ATOM     68  C   UNL     1      -7.733 -14.036   6.424  1.00  0.00     0.198 A 
ATOM     69  F   UNL     1      -8.810 -13.764   4.351  1.00  0.00    -0.203 F 
ATOM     70  F   UNL     1      -7.803 -11.988   9.412  1.00  0.00    -0.200 F 
ATOM     71  C   UNL     1      -7.467 -13.589   7.709  1.00  0.00     0.200 A 
ATOM     72  F   UNL     1      -7.148 -15.153   5.970  1.00  0.00    -0.200 F 
ATOM     73  F   UNL     1      -6.604 -14.257   8.488  1.00  0.00    -0.200 F 
ENDBRANCH  49  63
BRANCH  50  74
ATOM     74  C   UNL     1     -14.913  -6.668  -0.069  1.00  0.00     0.064 A 
ATOM     75  C   UNL     1     -16.160  -6.200   0.368  1.00  0.00     0.173 A 
ATOM     76  C   UNL     1     -14.508  -6.329  -1.368  1.00  0.00     0.173 A 
ATOM     77  F   UNL     1     -16.599  -6.515   1.596  1.00  0.00    -0.203 F 
ATOM     78  C   UNL     1     -16.976  -5.437  -0.464  1.00  0.00     0.198 A 
ATOM     79  C   UNL     1     -15.312  -5.541  -2.190  1.00  0.00     0.198 A 
ATOM     80  F   UNL     1     -13.322  -6.747  -1.833  1.00  0.00    -0.203 F 
ATOM     81  F   UNL     1     -18.180  -5.037  -0.034  1.00  0.00    -0.200 F 
ATOM     82  C   UNL     1     -16.548  -5.102  -1.740  1.00  0.00     0.200 A 
ATOM     83  F   UNL     1     -14.889  -5.206  -3.416  1.00  0.00    -0.200 F 
ATOM     84  F   UNL     1     -17.329  -4.360  -2.537  1.00  0.00    -0.200 F 
ENDBRANCH  50  74
BRANCH  62  85
ATOM     85  C   UNL     1     -15.566 -13.037   2.683  1.00  0.00     0.064 A 
ATOM     86  C   UNL     1     -15.772 -13.770   1.505  1.00  0.00     0.173 A 
ATOM     87  C   UNL     1     -16.376 -13.334   3.790  1.00  0.00     0.173 A 
ATOM     88  F   UNL     1     -15.035 -13.515   0.413  1.00  0.00    -0.203 F 
ATOM     89  C   UNL     1     -16.768 -14.741   1.431  1.00  0.00     0.198 A 
ATOM     90  C   UNL     1     -17.347 -14.329   3.723  1.00  0.00     0.198 A 
ATOM     91  F   UNL     1     -16.217 -12.668   4.944  1.00  0.00    -0.203 F 
ATOM     92  F   UNL     1     -16.982 -15.391   0.279  1.00  0.00    -0.200 F 
ATOM     93  C   UNL     1     -17.548 -15.025   2.541  1.00  0.00     0.200 A 
ATOM     94  F   UNL     1     -18.089 -14.613   4.802  1.00  0.00    -0.200 F 
ATOM     95  F   UNL     1     -18.500 -15.966   2.470  1.00  0.00    -0.200 F 
ENDBRANCH  62  85
ENDBRANCH  36  37
ENDBRANCH  28  31
ENDBRANCH  26  27
ENDBRANCH  25  26
ENDBRANCH  24  25
ENDBRANCH   1  24
TORSDOF 16
