REMARK SMILES O=C(NCCCCNC(=O)c1ccn(-c2cc(-c3ccncc3)nc(-c3ccccc3F)n2)n1)c1ccc(-c2c3nc(c(-c4c(F)c(F)c(F)c(F)c4F)c4ccc([nH]4)c(-c4c(F)c(F)c(F)c(F)c4F)c4nc(c(-c5c(F)c(F)c(F)c(F)c5F)c5ccc2[nH]5)C=C4)C=C3)cc1
REMARK SMILES IDX 5 1 4 2 3 3 1 4 2 5 35 7 36 8 97 9 37 10 96 11 38 12 39 13
REMARK SMILES IDX 40 14 90 15 41 16 95 17 89 18 91 19 42 20 94 21 88 22 87 23
REMARK SMILES IDX 43 25 75 26 55 27 74 28 56 29 59 30 73 31 92 32 57 33 58 34
REMARK SMILES IDX 72 36 93 37 60 38 44 39 45 40 53 41 46 42 47 43 51 44 54 45
REMARK SMILES IDX 48 46 49 47 52 48 50 49 76 50 77 51 85 52 78 53 79 54 83 55
REMARK SMILES IDX 86 56 80 57 81 58 84 59 82 60 61 61 62 62 70 63 63 64 64 65
REMARK SMILES IDX 68 66 71 67 65 68 66 69 69 70 67 71 6 72 7 73 8 74 9 75
REMARK SMILES IDX 10 77 11 78 12 79 34 80 13 81 14 82 15 83 16 84 33 85 17 86
REMARK SMILES IDX 25 87 24 88 18 89 19 90 23 91 20 92 22 93 21 94 26 95 27 96
REMARK SMILES IDX 31 97 28 98 30 99 32 100 29 101
REMARK H PARENT 3 6 91 24 59 35 8 76
REMARK Flexibility Score: inf
ROOT
ATOM      1  C   UNL     1       4.881   0.857  -2.126  1.00  0.00     0.023 C 
ENDROOT
BRANCH   1   2
ATOM      2  C   UNL     1       4.647   0.952  -0.616  1.00  0.00     0.116 C 
BRANCH   2   3
ATOM      3  N   UNL     1       3.261   1.141  -0.244  1.00  0.00    -0.352 N 
ATOM      4  O   UNL     1       1.167   0.833   0.379  1.00  0.00    -0.269 OA
ATOM      5  C   UNL     1       2.192   0.308  -0.063  1.00  0.00     0.251 C 
ATOM      6  H   UNL     1       3.037   2.086  -0.084  1.00  0.00     0.163 HD
BRANCH   5   7
ATOM      7  C   UNL     1       2.166  -1.144  -0.396  1.00  0.00     0.039 A 
ATOM      8  C   UNL     1       3.250  -1.897  -0.847  1.00  0.00     0.014 A 
ATOM      9  C   UNL     1       0.918  -1.785  -0.271  1.00  0.00     0.014 A 
ATOM     10  C   UNL     1       3.084  -3.222  -1.238  1.00  0.00     0.010 A 
ATOM     11  C   UNL     1       0.749  -3.117  -0.636  1.00  0.00     0.010 A 
ATOM     12  C   UNL     1       1.830  -3.826  -1.153  1.00  0.00    -0.014 A 
BRANCH  12  13
ATOM     13  C   UNL     1       1.728  -5.231  -1.542  1.00  0.00     0.031 A 
ATOM     14  C   UNL     1       2.464  -6.216  -0.691  1.00  0.00     0.074 A 
ATOM     15  C   UNL     1       0.908  -5.662  -2.520  1.00  0.00     0.049 A 
ATOM     16  N   UNL     1       3.295  -7.145  -1.049  1.00  0.00    -0.248 NA
ATOM     17  C   UNL     1       2.256  -6.130   0.763  1.00  0.00     0.031 C 
ATOM     18  C   UNL     1      -0.114  -4.903  -3.243  1.00  0.00     0.029 A 
ATOM     19  N   UNL     1       0.754  -6.931  -2.997  1.00  0.00    -0.354 N 
ATOM     20  C   UNL     1       3.611  -7.853   0.113  1.00  0.00     0.074 A 
ATOM     21  C   UNL     1       3.006  -7.138   1.207  1.00  0.00     0.031 C 
ATOM     22  C   UNL     1      -0.919  -5.765  -3.903  1.00  0.00     0.029 A 
ATOM     23  C   UNL     1      -0.390  -7.111  -3.755  1.00  0.00     0.049 A 
ATOM     24  H   UNL     1       1.399  -7.653  -2.818  1.00  0.00     0.167 HD
ATOM     25  C   UNL     1       4.224  -9.069   0.093  1.00  0.00     0.037 A 
ATOM     26  C   UNL     1      -0.909  -8.294  -4.158  1.00  0.00     0.037 A 
ATOM     27  C   UNL     1       4.942  -9.293  -1.129  1.00  0.00     0.049 A 
ATOM     28  C   UNL     1       0.165  -9.315  -4.086  1.00  0.00     0.074 A 
ATOM     29  C   UNL     1       6.005  -8.675  -1.758  1.00  0.00     0.029 A 
ATOM     30  N   UNL     1       4.420 -10.149  -2.063  1.00  0.00    -0.354 N 
ATOM     31  N   UNL     1       1.210  -9.351  -4.864  1.00  0.00    -0.248 NA
ATOM     32  C   UNL     1       0.255 -10.123  -2.879  1.00  0.00     0.031 C 
ATOM     33  C   UNL     1       5.746  -8.816  -3.152  1.00  0.00     0.029 A 
ATOM     34  C   UNL     1       4.549  -9.522  -3.275  1.00  0.00     0.049 A 
ATOM     35  H   UNL     1       4.029 -11.037  -1.897  1.00  0.00     0.167 HD
ATOM     36  C   UNL     1       2.226  -9.856  -4.068  1.00  0.00     0.074 A 
ATOM     37  C   UNL     1       1.555 -10.416  -2.902  1.00  0.00     0.031 C 
ATOM     38  C   UNL     1       3.531  -9.531  -4.297  1.00  0.00     0.037 A 
BRANCH  25  39
ATOM     39  C   UNL     1       3.958 -10.172   1.088  1.00  0.00     0.064 A 
ATOM     40  C   UNL     1       2.758 -10.273   1.825  1.00  0.00     0.173 A 
ATOM     41  C   UNL     1       4.781 -11.316   1.109  1.00  0.00     0.173 A 
ATOM     42  F   UNL     1       1.833  -9.305   1.804  1.00  0.00    -0.203 F 
ATOM     43  C   UNL     1       2.410 -11.425   2.529  1.00  0.00     0.198 A 
ATOM     44  C   UNL     1       4.403 -12.488   1.772  1.00  0.00     0.198 A 
ATOM     45  F   UNL     1       5.930 -11.347   0.416  1.00  0.00    -0.203 F 
ATOM     46  F   UNL     1       1.246 -11.465   3.193  1.00  0.00    -0.200 F 
ATOM     47  C   UNL     1       3.217 -12.542   2.480  1.00  0.00     0.200 A 
ATOM     48  F   UNL     1       5.164 -13.586   1.669  1.00  0.00    -0.200 F 
ATOM     49  F   UNL     1       2.828 -13.679   3.072  1.00  0.00    -0.200 F 
ENDBRANCH  25  39
BRANCH  26  50
ATOM     50  C   UNL     1      -2.338  -8.659  -4.290  1.00  0.00     0.064 A 
ATOM     51  C   UNL     1      -3.324  -8.058  -3.483  1.00  0.00     0.173 A 
ATOM     52  C   UNL     1      -2.729  -9.798  -5.012  1.00  0.00     0.173 A 
ATOM     53  F   UNL     1      -3.027  -7.021  -2.688  1.00  0.00    -0.203 F 
ATOM     54  C   UNL     1      -4.619  -8.570  -3.397  1.00  0.00     0.198 A 
ATOM     55  C   UNL     1      -4.023 -10.317  -4.914  1.00  0.00     0.198 A 
ATOM     56  F   UNL     1      -1.837 -10.458  -5.766  1.00  0.00    -0.203 F 
ATOM     57  F   UNL     1      -5.508  -7.991  -2.577  1.00  0.00    -0.200 F 
ATOM     58  C   UNL     1      -4.964  -9.708  -4.100  1.00  0.00     0.200 A 
ATOM     59  F   UNL     1      -4.342 -11.444  -5.566  1.00  0.00    -0.200 F 
ATOM     60  F   UNL     1      -6.186 -10.240  -3.959  1.00  0.00    -0.200 F 
ENDBRANCH  26  50
BRANCH  38  61
ATOM     61  C   UNL     1       3.874  -8.850  -5.589  1.00  0.00     0.064 A 
ATOM     62  C   UNL     1       4.833  -9.437  -6.424  1.00  0.00     0.173 A 
ATOM     63  C   UNL     1       3.417  -7.565  -5.929  1.00  0.00     0.173 A 
ATOM     64  F   UNL     1       5.351 -10.637  -6.114  1.00  0.00    -0.203 F 
ATOM     65  C   UNL     1       5.316  -8.771  -7.547  1.00  0.00     0.198 A 
ATOM     66  C   UNL     1       3.876  -6.915  -7.073  1.00  0.00     0.198 A 
ATOM     67  F   UNL     1       2.581  -6.896  -5.124  1.00  0.00    -0.203 F 
ATOM     68  F   UNL     1       6.280  -9.332  -8.292  1.00  0.00    -0.200 F 
ATOM     69  C   UNL     1       4.832  -7.515  -7.876  1.00  0.00     0.200 A 
ATOM     70  F   UNL     1       3.426  -5.688  -7.375  1.00  0.00    -0.200 F 
ATOM     71  F   UNL     1       5.313  -6.868  -8.947  1.00  0.00    -0.200 F 
ENDBRANCH  38  61
ENDBRANCH  12  13
ENDBRANCH   5   7
ENDBRANCH   2   3
ENDBRANCH   1   2
BRANCH   1  72
ATOM     72  C   UNL     1       4.346   2.036  -2.946  1.00  0.00     0.023 C 
BRANCH  72  73
ATOM     73  C   UNL     1       4.774   3.414  -2.450  1.00  0.00     0.116 C 
BRANCH  73  74
ATOM     74  N   UNL     1       6.216   3.553  -2.462  1.00  0.00    -0.351 N 
ATOM     75  C   UNL     1       6.981   4.434  -3.189  1.00  0.00     0.271 C 
ATOM     76  H   UNL     1       6.711   2.937  -1.875  1.00  0.00     0.163 HD
ATOM     77  O   UNL     1       8.198   4.314  -3.179  1.00  0.00    -0.267 OA
BRANCH  75  78
ATOM     78  C   UNL     1       6.297   5.522  -3.890  1.00  0.00     0.150 A 
ATOM     79  C   UNL     1       5.693   6.657  -3.295  1.00  0.00     0.056 A 
ATOM     80  N   UNL     1       6.195   5.560  -5.231  1.00  0.00    -0.161 NA
ATOM     81  C   UNL     1       5.358   7.470  -4.347  1.00  0.00     0.118 A 
ATOM     82  N   UNL     1       5.734   6.809  -5.495  1.00  0.00    -0.222 N 
BRANCH  82  83
ATOM     83  C   UNL     1       5.701   7.344  -6.812  1.00  0.00     0.158 A 
ATOM     84  C   UNL     1       5.706   6.482  -7.888  1.00  0.00     0.078 A 
ATOM     85  N   UNL     1       5.678   8.689  -6.940  1.00  0.00    -0.209 NA
ATOM     86  C   UNL     1       5.644   7.073  -9.134  1.00  0.00     0.077 A 
ATOM     87  C   UNL     1       5.705   9.166  -8.194  1.00  0.00     0.165 A 
ATOM     88  N   UNL     1       5.684   8.412  -9.304  1.00  0.00    -0.228 NA
BRANCH  86  89
ATOM     89  C   UNL     1       5.478   6.284 -10.358  1.00  0.00     0.003 A 
ATOM     90  C   UNL     1       4.371   5.441 -10.522  1.00  0.00     0.030 A 
ATOM     91  C   UNL     1       6.396   6.370 -11.408  1.00  0.00     0.030 A 
ATOM     92  C   UNL     1       4.238   4.728 -11.702  1.00  0.00     0.111 A 
ATOM     93  C   UNL     1       6.183   5.608 -12.546  1.00  0.00     0.111 A 
ATOM     94  N   UNL     1       5.126   4.786 -12.714  1.00  0.00    -0.265 NA
ENDBRANCH  86  89
BRANCH  87  95
ATOM     95  C   UNL     1       5.904  10.601  -8.344  1.00  0.00     0.055 A 
ATOM     96  C   UNL     1       7.062  11.220  -7.834  1.00  0.00     0.015 A 
ATOM     97  C   UNL     1       4.961  11.406  -8.985  1.00  0.00     0.134 A 
ATOM     98  C   UNL     1       7.265  12.596  -7.974  1.00  0.00     0.001 A 
ATOM     99  C   UNL     1       5.152  12.781  -9.121  1.00  0.00     0.040 A 
ATOM    100  F   UNL     1       3.825  10.873  -9.462  1.00  0.00    -0.206 F 
ATOM    101  C   UNL     1       6.308  13.377  -8.618  1.00  0.00     0.003 A 
ENDBRANCH  87  95
ENDBRANCH  82  83
ENDBRANCH  75  78
ENDBRANCH  73  74
ENDBRANCH  72  73
ENDBRANCH   1  72
TORSDOF 14
