REMARK SMILES CC(C)[NH2+][C@@]1(C(=O)NCCCCNC(=O)c2ccc(-c3c4nc(c(-c5c(F)c(F)c(F)c(F)c5F)c5ccc([nH]5)c(-c5c(F)c(F)c(F)c(F)c5F)c5nc(c(-c6c(F)c(F)c(F)c(F)c6F)c6ccc3[nH]6)C=C5)C=C4)cc2)CC[C@@H](Sc2cccc(Br)c2)C1
REMARK SMILES IDX 10 1 9 2 8 3 6 4 7 5 5 7 79 8 90 9 80 10 81 11 4 12 2 15
REMARK SMILES IDX 1 16 3 17 82 18 83 19 84 20 89 21 85 22 87 23 86 24 88 25
REMARK SMILES IDX 11 26 12 27 13 28 14 29 15 31 16 32 17 33 78 34 18 35 77 36
REMARK SMILES IDX 19 37 20 38 21 39 71 40 22 41 76 42 70 43 72 44 23 45 75 46
REMARK SMILES IDX 69 47 68 48 24 50 56 51 36 52 55 53 37 54 40 55 54 56 73 57
REMARK SMILES IDX 38 58 39 59 53 61 74 62 41 63 25 64 26 65 34 66 27 67 28 68
REMARK SMILES IDX 32 69 35 70 29 71 30 72 33 73 31 74 57 75 58 76 66 77 59 78
REMARK SMILES IDX 60 79 64 80 67 81 61 82 62 83 65 84 63 85 42 86 43 87 51 88
REMARK SMILES IDX 44 89 45 90 49 91 52 92 46 93 47 94 50 95 48 96
REMARK H PARENT 8 6 4 13 4 14 13 30 72 49 40 60
REMARK Flexibility Score: inf
ROOT
ATOM      1  C   UNL     1      -3.756   4.992   3.418  1.00  0.00     0.023 C 
ENDROOT
BRANCH   1   2
ATOM      2  C   UNL     1      -2.245   4.824   3.277  1.00  0.00     0.116 C 
BRANCH   2   3
ATOM      3  N   UNL     1      -1.845   3.438   3.292  1.00  0.00    -0.351 N 
ATOM      4  C   UNL     1      -1.443   2.572   2.322  1.00  0.00     0.281 C 
ATOM      5  O   UNL     1      -1.198   1.435   2.748  1.00  0.00    -0.268 OA
ATOM      6  H   UNL     1      -1.866   3.036   4.190  1.00  0.00     0.163 HD
BRANCH   4   7
ATOM      7  C   UNL     1      -1.357   2.936   0.780  1.00  0.00     0.176 C 
ATOM      8  C   UNL     1      -0.637   4.244   0.424  1.00  0.00     0.080 C 
ATOM      9  C   UNL     1      -2.792   3.082   0.219  1.00  0.00     0.094 C 
ATOM     10  C   UNL     1      -1.654   5.250  -0.110  1.00  0.00     0.022 C 
ATOM     11  C   UNL     1      -3.010   4.556  -0.120  1.00  0.00     0.058 C 
BRANCH   7  12
ATOM     12  N   UNL     1      -0.735   1.797   0.041  1.00  0.00    -0.332 N 
ATOM     13  H   UNL     1      -1.327   0.980   0.191  1.00  0.00     0.347 HD
ATOM     14  H   UNL     1      -0.668   2.127  -0.922  1.00  0.00     0.347 HD
BRANCH  12  15
ATOM     15  C   UNL     1       0.639   1.410   0.389  1.00  0.00     0.176 C 
ATOM     16  C   UNL     1       0.731  -0.110   0.211  1.00  0.00     0.075 C 
ATOM     17  C   UNL     1       1.693   2.071  -0.506  1.00  0.00     0.075 C 
ENDBRANCH  12  15
ENDBRANCH   7  12
BRANCH  11  18
ATOM     18  S   UNL     1      -4.030   4.838  -1.626  1.00  0.00    -0.122 SA
BRANCH  18  19
ATOM     19  C   UNL     1      -2.847   4.570  -2.933  1.00  0.00     0.009 A 
ATOM     20  C   UNL     1      -2.277   5.675  -3.578  1.00  0.00     0.015 A 
ATOM     21  C   UNL     1      -2.478   3.281  -3.324  1.00  0.00     0.030 A 
ATOM     22  C   UNL     1      -1.305   5.495  -4.563  1.00  0.00     0.002 A 
ATOM     23  C   UNL     1      -1.504   3.108  -4.306  1.00  0.00     0.019 A 
ATOM     24  C   UNL     1      -0.911   4.207  -4.923  1.00  0.00     0.016 A 
ATOM     25  Br  UNL     1      -0.974   1.360  -4.794  1.00  0.00    -0.051 Br
ENDBRANCH  18  19
ENDBRANCH  11  18
ENDBRANCH   4   7
ENDBRANCH   2   3
ENDBRANCH   1   2
BRANCH   1  26
ATOM     26  C   UNL     1      -4.242   5.180   4.854  1.00  0.00     0.023 C 
BRANCH  26  27
ATOM     27  C   UNL     1      -3.625   6.359   5.601  1.00  0.00     0.116 C 
BRANCH  27  28
ATOM     28  N   UNL     1      -3.732   7.634   4.905  1.00  0.00    -0.352 N 
ATOM     29  C   UNL     1      -3.800   8.892   5.457  1.00  0.00     0.251 C 
ATOM     30  H   UNL     1      -3.760   7.590   3.921  1.00  0.00     0.163 HD
ATOM     31  O   UNL     1      -3.951   9.885   4.755  1.00  0.00    -0.269 OA
BRANCH  29  32
ATOM     32  C   UNL     1      -3.739   9.019   6.926  1.00  0.00     0.039 A 
ATOM     33  C   UNL     1      -4.779   9.672   7.589  1.00  0.00     0.014 A 
ATOM     34  C   UNL     1      -2.708   8.407   7.642  1.00  0.00     0.014 A 
ATOM     35  C   UNL     1      -4.830   9.639   8.983  1.00  0.00     0.010 A 
ATOM     36  C   UNL     1      -2.801   8.310   9.025  1.00  0.00     0.010 A 
ATOM     37  C   UNL     1      -3.866   8.918   9.708  1.00  0.00    -0.014 A 
BRANCH  37  38
ATOM     38  C   UNL     1      -3.956   8.779  11.182  1.00  0.00     0.031 A 
ATOM     39  C   UNL     1      -2.883   9.359  12.056  1.00  0.00     0.074 A 
ATOM     40  C   UNL     1      -4.959   8.061  11.724  1.00  0.00     0.049 A 
ATOM     41  N   UNL     1      -2.736   9.275  13.354  1.00  0.00    -0.248 NA
ATOM     42  C   UNL     1      -1.811  10.105  11.378  1.00  0.00     0.031 C 
ATOM     43  C   UNL     1      -6.026   7.394  10.974  1.00  0.00     0.029 A 
ATOM     44  N   UNL     1      -5.238   7.761  13.034  1.00  0.00    -0.354 N 
ATOM     45  C   UNL     1      -1.550   9.937  13.642  1.00  0.00     0.074 A 
ATOM     46  C   UNL     1      -0.988  10.370  12.381  1.00  0.00     0.031 C 
ATOM     47  C   UNL     1      -6.856   6.786  11.837  1.00  0.00     0.029 A 
ATOM     48  C   UNL     1      -6.364   6.992  13.196  1.00  0.00     0.049 A 
ATOM     49  H   UNL     1      -4.683   8.069  13.786  1.00  0.00     0.167 HD
ATOM     50  C   UNL     1      -0.994  10.184  14.851  1.00  0.00     0.037 A 
ATOM     51  C   UNL     1      -6.933   6.507  14.316  1.00  0.00     0.037 A 
ATOM     52  C   UNL     1      -1.575   9.786  16.105  1.00  0.00     0.049 A 
ATOM     53  C   UNL     1      -6.309   6.820  15.649  1.00  0.00     0.074 A 
ATOM     54  C   UNL     1      -1.127  10.048  17.387  1.00  0.00     0.029 A 
ATOM     55  N   UNL     1      -2.739   9.041  16.231  1.00  0.00    -0.354 N 
ATOM     56  N   UNL     1      -5.226   7.509  15.914  1.00  0.00    -0.248 NA
ATOM     57  C   UNL     1      -6.992   6.293  16.839  1.00  0.00     0.031 C 
ATOM     58  C   UNL     1      -2.001   9.433  18.290  1.00  0.00     0.029 A 
ATOM     59  C   UNL     1      -3.016   8.823  17.571  1.00  0.00     0.049 A 
ATOM     60  H   UNL     1      -3.286   8.716  15.480  1.00  0.00     0.167 HD
ATOM     61  C   UNL     1      -5.112   7.523  17.297  1.00  0.00     0.074 A 
ATOM     62  C   UNL     1      -6.244   6.784  17.817  1.00  0.00     0.031 C 
ATOM     63  C   UNL     1      -4.154   8.095  18.068  1.00  0.00     0.037 A 
BRANCH  50  64
ATOM     64  C   UNL     1       0.306  10.934  14.872  1.00  0.00     0.064 A 
ATOM     65  C   UNL     1       0.373  12.295  14.537  1.00  0.00     0.173 A 
ATOM     66  C   UNL     1       1.493  10.291  15.252  1.00  0.00     0.173 A 
ATOM     67  F   UNL     1      -0.732  12.951  14.153  1.00  0.00    -0.203 F 
ATOM     68  C   UNL     1       1.587  12.977  14.552  1.00  0.00     0.198 A 
ATOM     69  C   UNL     1       2.700  10.984  15.294  1.00  0.00     0.198 A 
ATOM     70  F   UNL     1       1.484   8.992  15.584  1.00  0.00    -0.203 F 
ATOM     71  F   UNL     1       1.635  14.263  14.178  1.00  0.00    -0.200 F 
ATOM     72  C   UNL     1       2.748  12.323  14.937  1.00  0.00     0.200 A 
ATOM     73  F   UNL     1       3.820  10.354  15.675  1.00  0.00    -0.200 F 
ATOM     74  F   UNL     1       3.914  12.982  14.954  1.00  0.00    -0.200 F 
ENDBRANCH  50  64
BRANCH  51  75
ATOM     75  C   UNL     1      -8.182   5.709  14.230  1.00  0.00     0.064 A 
ATOM     76  C   UNL     1      -9.403   6.239  14.671  1.00  0.00     0.173 A 
ATOM     77  C   UNL     1      -8.185   4.406  13.712  1.00  0.00     0.173 A 
ATOM     78  F   UNL     1      -9.446   7.473  15.193  1.00  0.00    -0.203 F 
ATOM     79  C   UNL     1     -10.575   5.488  14.618  1.00  0.00     0.198 A 
ATOM     80  C   UNL     1      -9.363   3.666  13.635  1.00  0.00     0.198 A 
ATOM     81  F   UNL     1      -7.044   3.856  13.271  1.00  0.00    -0.203 F 
ATOM     82  F   UNL     1     -11.720   6.004  15.087  1.00  0.00    -0.200 F 
ATOM     83  C   UNL     1     -10.556   4.204  14.095  1.00  0.00     0.200 A 
ATOM     84  F   UNL     1      -9.343   2.429  13.118  1.00  0.00    -0.200 F 
ATOM     85  F   UNL     1     -11.684   3.483  14.041  1.00  0.00    -0.200 F 
ENDBRANCH  51  75
BRANCH  63  86
ATOM     86  C   UNL     1      -4.309   7.973  19.555  1.00  0.00     0.064 A 
ATOM     87  C   UNL     1      -4.075   6.762  20.221  1.00  0.00     0.173 A 
ATOM     88  C   UNL     1      -4.654   9.094  20.325  1.00  0.00     0.173 A 
ATOM     89  F   UNL     1      -3.757   5.660  19.526  1.00  0.00    -0.203 F 
ATOM     90  C   UNL     1      -4.205   6.672  21.604  1.00  0.00     0.198 A 
ATOM     91  C   UNL     1      -4.756   9.006  21.710  1.00  0.00     0.198 A 
ATOM     92  F   UNL     1      -4.882  10.277  19.734  1.00  0.00    -0.203 F 
ATOM     93  F   UNL     1      -4.020   5.494  22.217  1.00  0.00    -0.200 F 
ATOM     94  C   UNL     1      -4.538   7.794  22.348  1.00  0.00     0.200 A 
ATOM     95  F   UNL     1      -5.067  10.094  22.428  1.00  0.00    -0.200 F 
ATOM     96  F   UNL     1      -4.656   7.707  23.680  1.00  0.00    -0.200 F 
ENDBRANCH  63  86
ENDBRANCH  37  38
ENDBRANCH  29  32
ENDBRANCH  27  28
ENDBRANCH  26  27
ENDBRANCH   1  26
TORSDOF 15
