REMARK SMILES O=C(NCCCCNC(=O)[C@@H](Cc1ccccc1)NS(=O)(=O)c1ccccc1C(F)(F)F)c1ccc(-c2c3nc(c(-c4c(F)c(F)c(F)c(F)c4F)c4ccc([nH]4)c(-c4c(F)c(F)c(F)c(F)c4F)c4nc(c(-c5c(F)c(F)c(F)c(F)c5F)c5ccc2[nH]5)C=C4)C=C3)cc1
REMARK SMILES IDX 6 1 5 2 4 3 3 4 1 5 2 6 33 8 34 9 95 10 35 11 94 12 36 13
REMARK SMILES IDX 37 14 38 15 88 16 39 17 93 18 87 19 89 20 40 21 92 22 86 23
REMARK SMILES IDX 85 24 41 26 73 27 53 28 72 29 54 30 57 31 71 32 90 33 55 34
REMARK SMILES IDX 56 35 70 37 91 38 58 39 42 40 43 41 51 42 44 43 45 44 49 45
REMARK SMILES IDX 52 46 46 47 47 48 50 49 48 50 74 51 75 52 83 53 76 54 77 55
REMARK SMILES IDX 81 56 84 57 78 58 79 59 82 60 80 61 59 62 60 63 68 64 61 65
REMARK SMILES IDX 62 66 66 67 69 68 63 69 64 70 67 71 65 72 7 73 8 74 9 75
REMARK SMILES IDX 10 77 11 78 12 79 13 80 14 81 18 82 15 83 17 84 16 85 19 86
REMARK SMILES IDX 20 88 21 89 22 90 23 91 24 92 28 93 25 94 27 95 26 96 29 97
REMARK SMILES IDX 30 98 31 99 32 100
REMARK H PARENT 3 7 89 25 57 36 8 76 19 87
REMARK Flexibility Score: inf
ROOT
ATOM      1  C   UNL     1       4.916  -3.048   0.955  1.00  0.00     0.023 C 
ENDROOT
BRANCH   1   2
ATOM      2  C   UNL     1       5.361  -1.613   0.770  1.00  0.00     0.023 C 
BRANCH   2   3
ATOM      3  C   UNL     1       4.685  -0.920  -0.395  1.00  0.00     0.116 C 
BRANCH   3   4
ATOM      4  N   UNL     1       3.228  -0.872  -0.287  1.00  0.00    -0.352 N 
ATOM      5  O   UNL     1       1.178   0.055  -0.034  1.00  0.00    -0.269 OA
ATOM      6  C   UNL     1       2.376   0.208  -0.245  1.00  0.00     0.251 C 
ATOM      7  H   UNL     1       2.786  -1.751  -0.235  1.00  0.00     0.163 HD
BRANCH   6   8
ATOM      8  C   UNL     1       2.933   1.564  -0.415  1.00  0.00     0.039 A 
ATOM      9  C   UNL     1       3.920   1.786  -1.369  1.00  0.00     0.014 A 
ATOM     10  C   UNL     1       2.528   2.597   0.435  1.00  0.00     0.014 A 
ATOM     11  C   UNL     1       4.683   2.937  -1.297  1.00  0.00     0.010 A 
ATOM     12  C   UNL     1       3.191   3.827   0.386  1.00  0.00     0.010 A 
ATOM     13  C   UNL     1       4.308   3.989  -0.446  1.00  0.00    -0.014 A 
BRANCH  13  14
ATOM     14  C   UNL     1       5.078   5.256  -0.517  1.00  0.00     0.031 A 
ATOM     15  C   UNL     1       5.787   5.817   0.683  1.00  0.00     0.074 A 
ATOM     16  C   UNL     1       5.184   5.862  -1.717  1.00  0.00     0.049 A 
ATOM     17  N   UNL     1       6.498   6.914   0.777  1.00  0.00    -0.248 NA
ATOM     18  C   UNL     1       5.679   5.067   1.943  1.00  0.00     0.031 C 
ATOM     19  C   UNL     1       4.534   5.401  -2.949  1.00  0.00     0.029 A 
ATOM     20  N   UNL     1       5.900   6.958  -2.116  1.00  0.00    -0.354 N 
ATOM     21  C   UNL     1       6.885   7.006   2.108  1.00  0.00     0.074 A 
ATOM     22  C   UNL     1       6.325   5.859   2.790  1.00  0.00     0.031 C 
ATOM     23  C   UNL     1       4.952   6.148  -3.977  1.00  0.00     0.029 A 
ATOM     24  C   UNL     1       5.806   7.209  -3.463  1.00  0.00     0.049 A 
ATOM     25  H   UNL     1       6.430   7.512  -1.499  1.00  0.00     0.167 HD
ATOM     26  C   UNL     1       7.637   7.966   2.698  1.00  0.00     0.037 A 
ATOM     27  C   UNL     1       6.321   8.204  -4.206  1.00  0.00     0.037 A 
ATOM     28  C   UNL     1       8.216   9.085   1.996  1.00  0.00     0.049 A 
ATOM     29  C   UNL     1       7.141   9.254  -3.521  1.00  0.00     0.074 A 
ATOM     30  C   UNL     1       9.016  10.098   2.494  1.00  0.00     0.029 A 
ATOM     31  N   UNL     1       8.059   9.333   0.638  1.00  0.00    -0.354 N 
ATOM     32  N   UNL     1       7.489   9.335  -2.260  1.00  0.00    -0.248 NA
ATOM     33  C   UNL     1       7.622  10.360  -4.356  1.00  0.00     0.031 C 
ATOM     34  C   UNL     1       9.306  10.982   1.449  1.00  0.00     0.029 A 
ATOM     35  C   UNL     1       8.730  10.494   0.288  1.00  0.00     0.049 A 
ATOM     36  H   UNL     1       7.547   8.767   0.017  1.00  0.00     0.167 HD
ATOM     37  C   UNL     1       8.231  10.499  -2.147  1.00  0.00     0.074 A 
ATOM     38  C   UNL     1       8.310  11.074  -3.476  1.00  0.00     0.031 C 
ATOM     39  C   UNL     1       8.789  11.049  -1.041  1.00  0.00     0.037 A 
BRANCH  26  40
ATOM     40  C   UNL     1       7.857   7.875   4.182  1.00  0.00     0.064 A 
ATOM     41  C   UNL     1       8.698   6.908   4.751  1.00  0.00     0.173 A 
ATOM     42  C   UNL     1       7.256   8.807   5.043  1.00  0.00     0.173 A 
ATOM     43  F   UNL     1       9.290   5.986   3.976  1.00  0.00    -0.203 F 
ATOM     44  C   UNL     1       8.914   6.865   6.128  1.00  0.00     0.198 A 
ATOM     45  C   UNL     1       7.495   8.778   6.415  1.00  0.00     0.198 A 
ATOM     46  F   UNL     1       6.447   9.758   4.552  1.00  0.00    -0.203 F 
ATOM     47  F   UNL     1       9.691   5.908   6.653  1.00  0.00    -0.200 F 
ATOM     48  C   UNL     1       8.318   7.804   6.957  1.00  0.00     0.200 A 
ATOM     49  F   UNL     1       6.928   9.694   7.213  1.00  0.00    -0.200 F 
ATOM     50  F   UNL     1       8.535   7.767   8.279  1.00  0.00    -0.200 F 
ENDBRANCH  26  40
BRANCH  27  51
ATOM     51  C   UNL     1       6.036   8.257  -5.662  1.00  0.00     0.064 A 
ATOM     52  C   UNL     1       7.050   8.052  -6.605  1.00  0.00     0.173 A 
ATOM     53  C   UNL     1       4.733   8.472  -6.139  1.00  0.00     0.173 A 
ATOM     54  F   UNL     1       8.313   7.858  -6.199  1.00  0.00    -0.203 F 
ATOM     55  C   UNL     1       6.774   8.066  -7.971  1.00  0.00     0.198 A 
ATOM     56  C   UNL     1       4.452   8.450  -7.502  1.00  0.00     0.198 A 
ATOM     57  F   UNL     1       3.724   8.664  -5.276  1.00  0.00    -0.203 F 
ATOM     58  F   UNL     1       7.768   7.901  -8.854  1.00  0.00    -0.200 F 
ATOM     59  C   UNL     1       5.474   8.255  -8.418  1.00  0.00     0.200 A 
ATOM     60  F   UNL     1       3.191   8.608  -7.926  1.00  0.00    -0.200 F 
ATOM     61  F   UNL     1       5.207   8.249  -9.730  1.00  0.00    -0.200 F 
ENDBRANCH  27  51
BRANCH  39  62
ATOM     62  C   UNL     1       9.546  12.327  -1.236  1.00  0.00     0.064 A 
ATOM     63  C   UNL     1       8.886  13.538  -1.494  1.00  0.00     0.173 A 
ATOM     64  C   UNL     1      10.946  12.343  -1.155  1.00  0.00     0.173 A 
ATOM     65  F   UNL     1       7.549  13.568  -1.602  1.00  0.00    -0.203 F 
ATOM     66  C   UNL     1       9.603  14.713  -1.692  1.00  0.00     0.198 A 
ATOM     67  C   UNL     1      11.658  13.526  -1.324  1.00  0.00     0.198 A 
ATOM     68  F   UNL     1      11.621  11.210  -0.908  1.00  0.00    -0.203 F 
ATOM     69  F   UNL     1       8.956  15.848  -1.991  1.00  0.00    -0.200 F 
ATOM     70  C   UNL     1      10.987  14.708  -1.601  1.00  0.00     0.200 A 
ATOM     71  F   UNL     1      12.995  13.521  -1.227  1.00  0.00    -0.200 F 
ATOM     72  F   UNL     1      11.677  15.841  -1.792  1.00  0.00    -0.200 F 
ENDBRANCH  39  62
ENDBRANCH  13  14
ENDBRANCH   6   8
ENDBRANCH   3   4
ENDBRANCH   2   3
ENDBRANCH   1   2
BRANCH   1  73
ATOM     73  C   UNL     1       5.369  -4.020  -0.127  1.00  0.00     0.116 C 
BRANCH  73  74
ATOM     74  N   UNL     1       6.696  -4.512   0.199  1.00  0.00    -0.355 N 
ATOM     75  C   UNL     1       7.011  -5.520   1.076  1.00  0.00     0.238 C 
ATOM     76  H   UNL     1       7.451  -4.075  -0.258  1.00  0.00     0.163 HD
ATOM     77  O   UNL     1       8.077  -5.427   1.690  1.00  0.00    -0.273 OA
BRANCH  75  78
ATOM     78  C   UNL     1       6.120  -6.777   1.207  1.00  0.00     0.163 C 
BRANCH  78  79
ATOM     79  C   UNL     1       5.195  -6.801   2.432  1.00  0.00     0.065 C 
BRANCH  79  80
ATOM     80  C   UNL     1       4.069  -5.811   2.609  1.00  0.00    -0.046 A 
ATOM     81  C   UNL     1       4.152  -4.812   3.596  1.00  0.00     0.004 A 
ATOM     82  C   UNL     1       2.885  -5.910   1.868  1.00  0.00     0.004 A 
ATOM     83  C   UNL     1       3.106  -3.904   3.792  1.00  0.00     0.000 A 
ATOM     84  C   UNL     1       1.832  -5.013   2.075  1.00  0.00     0.000 A 
ATOM     85  C   UNL     1       1.946  -4.003   3.027  1.00  0.00     0.000 A 
ENDBRANCH  79  80
ENDBRANCH  78  79
BRANCH  78  86
ATOM     86  N   UNL     1       5.553  -7.083  -0.117  1.00  0.00    -0.198 NA
ATOM     87  H   UNL     1       6.312  -6.913  -0.776  1.00  0.00     0.142 HD
BRANCH  86  88
ATOM     88  S   UNL     1       4.884  -8.515  -0.595  1.00  0.00     0.241 S 
ATOM     89  O   UNL     1       3.800  -8.794   0.318  1.00  0.00    -0.207 OA
ATOM     90  O   UNL     1       4.652  -8.390  -2.018  1.00  0.00    -0.207 OA
BRANCH  88  91
ATOM     91  C   UNL     1       6.067  -9.832  -0.404  1.00  0.00     0.094 A 
ATOM     92  C   UNL     1       5.493 -11.093  -0.137  1.00  0.00     0.022 A 
ATOM     93  C   UNL     1       7.460  -9.713  -0.528  1.00  0.00     0.076 A 
ATOM     94  C   UNL     1       6.288 -12.219   0.066  1.00  0.00     0.001 A 
ATOM     95  C   UNL     1       8.246 -10.857  -0.251  1.00  0.00     0.014 A 
ATOM     96  C   UNL     1       7.668 -12.094   0.038  1.00  0.00     0.001 A 
BRANCH  93  97
ATOM     97  C   UNL     1       8.206  -8.473  -0.942  1.00  0.00     0.417 C 
ATOM     98  F   UNL     1       8.720  -7.813   0.128  1.00  0.00    -0.166 F 
ATOM     99  F   UNL     1       9.277  -8.752  -1.739  1.00  0.00    -0.166 F 
ATOM    100  F   UNL     1       7.476  -7.562  -1.637  1.00  0.00    -0.166 F 
ENDBRANCH  93  97
ENDBRANCH  88  91
ENDBRANCH  86  88
ENDBRANCH  78  86
ENDBRANCH  75  78
ENDBRANCH  73  74
ENDBRANCH   1  73
TORSDOF 17
