REMARK SMILES O=C(NCCCCNC(=O)c1ccccc1/C=N\NC(=S)NCc1ccccc1)c1ccc(-c2c3nc(c(-c4c(F)c(F)c(F)c(F)c4F)c4ccc([nH]4)c(-c4c(F)c(F)c(F)c(F)c4F)c4nc(c(-c5c(F)c(F)c(F)c(F)c5F)c5ccc2[nH]5)C=C4)C=C3)cc1
REMARK SMILES IDX 8 1 9 2 10 3 7 5 6 6 5 7 4 8 3 9 1 10 2 11 30 13 31 14 92 15
REMARK SMILES IDX 32 16 91 17 33 18 34 19 35 20 85 21 36 22 90 23 84 24 86 25
REMARK SMILES IDX 37 26 89 27 83 28 82 29 38 31 70 32 50 33 69 34 51 35 54 36
REMARK SMILES IDX 68 37 87 38 52 39 53 40 67 42 88 43 55 44 39 45 40 46 48 47
REMARK SMILES IDX 41 48 42 49 46 50 49 51 43 52 44 53 47 54 45 55 71 56 72 57
REMARK SMILES IDX 80 58 73 59 74 60 78 61 81 62 75 63 76 64 79 65 77 66 56 67
REMARK SMILES IDX 57 68 65 69 58 70 59 71 63 72 66 73 60 74 61 75 64 76 62 77
REMARK SMILES IDX 11 78 12 79 16 80 13 81 15 82 14 83 17 84 18 85 19 86 20 88
REMARK SMILES IDX 21 89 22 90 23 92 24 93 25 94 29 95 26 96 28 97 27 98
REMARK H PARENT 8 4 3 12 86 30 54 41 19 87 22 91
REMARK Flexibility Score: inf
ROOT
ATOM      1  N   UNL     1       6.571  -2.106  -3.569  1.00  0.00    -0.352 N 
ATOM      2  C   UNL     1       7.072  -2.774  -4.666  1.00  0.00     0.251 C 
ATOM      3  O   UNL     1       8.270  -2.698  -4.925  1.00  0.00    -0.269 OA
ATOM      4  H   UNL     1       7.249  -1.595  -3.070  1.00  0.00     0.163 HD
ENDROOT
BRANCH   1   5
ATOM      5  C   UNL     1       5.232  -2.010  -3.007  1.00  0.00     0.116 C 
BRANCH   5   6
ATOM      6  C   UNL     1       4.951  -2.934  -1.822  1.00  0.00     0.023 C 
BRANCH   6   7
ATOM      7  C   UNL     1       5.246  -2.362  -0.444  1.00  0.00     0.023 C 
BRANCH   7   8
ATOM      8  C   UNL     1       4.682  -0.976  -0.202  1.00  0.00     0.116 C 
BRANCH   8   9
ATOM      9  N   UNL     1       3.261  -0.826  -0.496  1.00  0.00    -0.352 N 
ATOM     10  O   UNL     1       1.214   0.138  -0.246  1.00  0.00    -0.269 OA
ATOM     11  C   UNL     1       2.409   0.130   0.019  1.00  0.00     0.251 C 
ATOM     12  H   UNL     1       2.869  -1.474  -1.126  1.00  0.00     0.163 HD
BRANCH  11  13
ATOM     13  C   UNL     1       2.987   1.110   0.958  1.00  0.00     0.039 A 
ATOM     14  C   UNL     1       4.142   1.798   0.589  1.00  0.00     0.014 A 
ATOM     15  C   UNL     1       2.494   1.180   2.261  1.00  0.00     0.014 A 
ATOM     16  C   UNL     1       4.928   2.366   1.576  1.00  0.00     0.010 A 
ATOM     17  C   UNL     1       3.225   1.873   3.229  1.00  0.00     0.010 A 
ATOM     18  C   UNL     1       4.478   2.418   2.908  1.00  0.00    -0.014 A 
BRANCH  18  19
ATOM     19  C   UNL     1       5.338   3.076   3.924  1.00  0.00     0.031 A 
ATOM     20  C   UNL     1       5.877   2.321   5.108  1.00  0.00     0.074 A 
ATOM     21  C   UNL     1       5.678   4.365   3.729  1.00  0.00     0.049 A 
ATOM     22  N   UNL     1       6.664   2.745   6.067  1.00  0.00    -0.248 NA
ATOM     23  C   UNL     1       5.479   0.912   5.247  1.00  0.00     0.031 C 
ATOM     24  C   UNL     1       5.212   5.196   2.615  1.00  0.00     0.029 A 
ATOM     25  N   UNL     1       6.516   5.192   4.430  1.00  0.00    -0.354 N 
ATOM     26  C   UNL     1       6.823   1.673   6.937  1.00  0.00     0.074 A 
ATOM     27  C   UNL     1       6.038   0.581   6.403  1.00  0.00     0.031 C 
ATOM     28  C   UNL     1       5.825   6.385   2.666  1.00  0.00     0.029 A 
ATOM     29  C   UNL     1       6.657   6.433   3.860  1.00  0.00     0.049 A 
ATOM     30  H   UNL     1       6.971   4.922   5.260  1.00  0.00     0.167 HD
ATOM     31  C   UNL     1       7.558   1.611   8.074  1.00  0.00     0.037 A 
ATOM     32  C   UNL     1       7.363   7.503   4.264  1.00  0.00     0.037 A 
ATOM     33  C   UNL     1       8.361   2.698   8.579  1.00  0.00     0.049 A 
ATOM     34  C   UNL     1       8.160   7.405   5.531  1.00  0.00     0.074 A 
ATOM     35  C   UNL     1       9.173   2.724   9.700  1.00  0.00     0.029 A 
ATOM     36  N   UNL     1       8.451   3.954   7.994  1.00  0.00    -0.354 N 
ATOM     37  N   UNL     1       8.317   6.380   6.332  1.00  0.00    -0.248 NA
ATOM     38  C   UNL     1       8.874   8.616   5.952  1.00  0.00     0.031 C 
ATOM     39  C   UNL     1       9.712   4.010   9.822  1.00  0.00     0.029 A 
ATOM     40  C   UNL     1       9.287   4.768   8.744  1.00  0.00     0.049 A 
ATOM     41  H   UNL     1       7.989   4.226   7.168  1.00  0.00     0.167 HD
ATOM     42  C   UNL     1       9.165   6.812   7.340  1.00  0.00     0.074 A 
ATOM     43  C   UNL     1       9.505   8.188   7.035  1.00  0.00     0.031 C 
ATOM     44  C   UNL     1       9.620   6.133   8.421  1.00  0.00     0.037 A 
BRANCH  31  45
ATOM     45  C   UNL     1       7.512   0.339   8.874  1.00  0.00     0.064 A 
ATOM     46  C   UNL     1       8.114  -0.846   8.426  1.00  0.00     0.173 A 
ATOM     47  C   UNL     1       6.895   0.320  10.136  1.00  0.00     0.173 A 
ATOM     48  F   UNL     1       8.708  -0.889   7.224  1.00  0.00    -0.203 F 
ATOM     49  C   UNL     1       8.077  -2.007   9.197  1.00  0.00     0.198 A 
ATOM     50  C   UNL     1       6.886  -0.833  10.917  1.00  0.00     0.198 A 
ATOM     51  F   UNL     1       6.310   1.426  10.619  1.00  0.00    -0.203 F 
ATOM     52  F   UNL     1       8.619  -3.139   8.727  1.00  0.00    -0.200 F 
ATOM     53  C   UNL     1       7.471  -1.998  10.444  1.00  0.00     0.200 A 
ATOM     54  F   UNL     1       6.312  -0.817  12.128  1.00  0.00    -0.200 F 
ATOM     55  F   UNL     1       7.444  -3.113  11.187  1.00  0.00    -0.200 F 
ENDBRANCH  31  45
BRANCH  32  56
ATOM     56  C   UNL     1       7.339   8.750   3.458  1.00  0.00     0.064 A 
ATOM     57  C   UNL     1       8.485   9.198   2.790  1.00  0.00     0.173 A 
ATOM     58  C   UNL     1       6.165   9.507   3.324  1.00  0.00     0.173 A 
ATOM     59  F   UNL     1       9.635   8.516   2.900  1.00  0.00    -0.203 F 
ATOM     60  C   UNL     1       8.464  10.367   2.032  1.00  0.00     0.198 A 
ATOM     61  C   UNL     1       6.136  10.655   2.537  1.00  0.00     0.198 A 
ATOM     62  F   UNL     1       5.038   9.114   3.935  1.00  0.00    -0.203 F 
ATOM     63  F   UNL     1       9.585  10.798   1.439  1.00  0.00    -0.200 F 
ATOM     64  C   UNL     1       7.287  11.090   1.900  1.00  0.00     0.200 A 
ATOM     65  F   UNL     1       4.991  11.337   2.394  1.00  0.00    -0.200 F 
ATOM     66  F   UNL     1       7.265  12.208   1.162  1.00  0.00    -0.200 F 
ENDBRANCH  32  56
BRANCH  44  67
ATOM     67  C   UNL     1      10.572   6.859   9.326  1.00  0.00     0.064 A 
ATOM     68  C   UNL     1      10.154   7.919  10.144  1.00  0.00     0.173 A 
ATOM     69  C   UNL     1      11.924   6.484   9.376  1.00  0.00     0.173 A 
ATOM     70  F   UNL     1       8.876   8.328  10.118  1.00  0.00    -0.203 F 
ATOM     71  C   UNL     1      11.061   8.600  10.951  1.00  0.00     0.198 A 
ATOM     72  C   UNL     1      12.820   7.145  10.209  1.00  0.00     0.198 A 
ATOM     73  F   UNL     1      12.373   5.473   8.617  1.00  0.00    -0.203 F 
ATOM     74  F   UNL     1      10.652   9.651  11.676  1.00  0.00    -0.200 F 
ATOM     75  C   UNL     1      12.391   8.209  10.987  1.00  0.00     0.200 A 
ATOM     76  F   UNL     1      14.102   6.757  10.253  1.00  0.00    -0.200 F 
ATOM     77  F   UNL     1      13.263   8.867  11.764  1.00  0.00    -0.200 F 
ENDBRANCH  44  67
ENDBRANCH  18  19
ENDBRANCH  11  13
ENDBRANCH   8   9
ENDBRANCH   7   8
ENDBRANCH   6   7
ENDBRANCH   5   6
ENDBRANCH   1   5
BRANCH   2  78
ATOM     78  C   UNL     1       6.246  -3.733  -5.420  1.00  0.00     0.048 A 
ATOM     79  C   UNL     1       6.920  -5.405  -5.574  1.00  0.00     0.014 A 
ATOM     80  C   UNL     1       4.483  -3.451  -5.747  1.00  0.00     0.007 A 
ATOM     81  C   UNL     1       5.837  -6.795  -6.045  1.00  0.00     0.001 A 
ATOM     82  C   UNL     1       3.398  -4.822  -6.262  1.00  0.00     0.010 A 
ATOM     83  C   UNL     1       4.092  -6.492  -6.400  1.00  0.00     0.001 A 
BRANCH  80  84
ATOM     84  C   UNL     1       4.147  -2.176  -6.316  1.00  0.00     0.142 C 
ATOM     85  N   UNL     1       4.014  -2.099  -7.591  1.00  0.00    -0.181 NA
BRANCH  85  86
ATOM     86  N   UNL     1       4.368  -3.200  -8.332  1.00  0.00    -0.254 N 
ATOM     87  H   UNL     1       3.994  -3.201  -9.243  1.00  0.00     0.193 HD
BRANCH  86  88
ATOM     88  C   UNL     1       5.136  -4.291  -8.053  1.00  0.00     0.187 C 
ATOM     89  S   UNL     1       5.874  -5.008  -9.395  1.00  0.00    -0.039 S 
BRANCH  88  90
ATOM     90  N   UNL     1       5.362  -4.927  -6.813  1.00  0.00    -0.357 N 
ATOM     91  H   UNL     1       6.151  -5.492  -6.982  1.00  0.00     0.163 HD
BRANCH  90  92
ATOM     92  C   UNL     1       4.910  -5.303  -4.806  1.00  0.00     0.151 C 
BRANCH  92  93
ATOM     93  C   UNL     1       5.489  -6.330  -3.605  1.00  0.00    -0.029 A 
ATOM     94  C   UNL     1       6.598  -5.997  -2.793  1.00  0.00     0.005 A 
ATOM     95  C   UNL     1       4.608  -7.332  -3.145  1.00  0.00     0.005 A 
ATOM     96  C   UNL     1       6.795  -6.622  -1.559  1.00  0.00     0.000 A 
ATOM     97  C   UNL     1       4.803  -7.937  -1.902  1.00  0.00     0.000 A 
ATOM     98  C   UNL     1       5.885  -7.571  -1.104  1.00  0.00     0.000 A 
ENDBRANCH  92  93
ENDBRANCH  90  92
ENDBRANCH  88  90
ENDBRANCH  86  88
ENDBRANCH  85  86
ENDBRANCH  80  84
ENDBRANCH   2  78
TORSDOF 17
