REMARK SMILES O=C(NCCCCNC(=O)c1ccccc1C(=O)OC[C@@H]1C[C@H]2CC[C@@H]1C2)c1ccc(-c2c3nc(c(-c4c(F)c(F)c(F)c(F)c4F)c4ccc([nH]4)c(-c4c(F)c(F)c(F)c(F)c4F)c4nc(c(-c5c(F)c(F)c(F)c(F)c5F)c5ccc2[nH]5)C=C4)C=C3)cc1
REMARK SMILES IDX 6 1 5 2 4 3 3 4 1 5 2 6 28 8 29 9 90 10 30 11 89 12 31 13
REMARK SMILES IDX 32 14 33 15 83 16 34 17 88 18 82 19 84 20 35 21 87 22 81 23
REMARK SMILES IDX 80 24 36 26 68 27 48 28 67 29 49 30 52 31 66 32 85 33 50 34
REMARK SMILES IDX 51 35 65 37 86 38 53 39 37 40 38 41 46 42 39 43 40 44 44 45
REMARK SMILES IDX 47 46 41 47 42 48 45 49 43 50 69 51 70 52 78 53 71 54 72 55
REMARK SMILES IDX 76 56 79 57 73 58 74 59 77 60 75 61 54 62 55 63 63 64 56 65
REMARK SMILES IDX 57 66 61 67 64 68 58 69 59 70 62 71 60 72 7 73 8 74 9 75
REMARK SMILES IDX 10 77 11 78 12 79 16 80 13 81 15 82 14 83 17 84 18 85 19 86
REMARK SMILES IDX 20 87 21 88 22 89 26 90 23 91 25 92 27 93 24 94
REMARK H PARENT 3 7 84 25 52 36 8 76
REMARK Flexibility Score: inf
ROOT
ATOM      1  C   UNL     1       4.334  -3.876  -0.131  1.00  0.00     0.023 C 
ENDROOT
BRANCH   1   2
ATOM      2  C   UNL     1       4.805  -2.568   0.507  1.00  0.00     0.023 C 
BRANCH   2   3
ATOM      3  C   UNL     1       4.576  -1.306  -0.319  1.00  0.00     0.116 C 
BRANCH   3   4
ATOM      4  N   UNL     1       3.169  -0.981  -0.495  1.00  0.00    -0.352 N 
ATOM      5  O   UNL     1       1.210   0.079  -0.126  1.00  0.00    -0.269 OA
ATOM      6  C   UNL     1       2.429   0.059   0.019  1.00  0.00     0.251 C 
ATOM      7  H   UNL     1       2.668  -1.601  -1.073  1.00  0.00     0.163 HD
BRANCH   6   8
ATOM      8  C   UNL     1       3.091   1.138   0.786  1.00  0.00     0.039 A 
ATOM      9  C   UNL     1       4.265   1.732   0.322  1.00  0.00     0.014 A 
ATOM     10  C   UNL     1       2.529   1.557   1.995  1.00  0.00     0.014 A 
ATOM     11  C   UNL     1       4.976   2.593   1.152  1.00  0.00     0.010 A 
ATOM     12  C   UNL     1       3.199   2.495   2.787  1.00  0.00     0.010 A 
ATOM     13  C   UNL     1       4.458   2.977   2.400  1.00  0.00    -0.014 A 
BRANCH  13  14
ATOM     14  C   UNL     1       5.258   3.873   3.277  1.00  0.00     0.031 A 
ATOM     15  C   UNL     1       5.778   3.394   4.608  1.00  0.00     0.074 A 
ATOM     16  C   UNL     1       5.563   5.114   2.849  1.00  0.00     0.049 A 
ATOM     17  N   UNL     1       6.538   4.020   5.473  1.00  0.00    -0.248 NA
ATOM     18  C   UNL     1       5.388   2.040   5.029  1.00  0.00     0.031 C 
ATOM     19  C   UNL     1       5.111   5.701   1.587  1.00  0.00     0.029 A 
ATOM     20  N   UNL     1       6.342   6.093   3.412  1.00  0.00    -0.354 N 
ATOM     21  C   UNL     1       6.695   3.150   6.545  1.00  0.00     0.074 A 
ATOM     22  C   UNL     1       5.930   1.961   6.236  1.00  0.00     0.031 C 
ATOM     23  C   UNL     1       5.663   6.915   1.445  1.00  0.00     0.029 A 
ATOM     24  C   UNL     1       6.464   7.213   2.628  1.00  0.00     0.049 A 
ATOM     25  H   UNL     1       6.771   6.000   4.293  1.00  0.00     0.167 HD
ATOM     26  C   UNL     1       7.419   3.322   7.678  1.00  0.00     0.037 A 
ATOM     27  C   UNL     1       7.144   8.356   2.837  1.00  0.00     0.037 A 
ATOM     28  C   UNL     1       8.207   4.492   7.973  1.00  0.00     0.049 A 
ATOM     29  C   UNL     1       7.939   8.518   4.102  1.00  0.00     0.074 A 
ATOM     30  C   UNL     1       9.011   4.738   9.073  1.00  0.00     0.029 A 
ATOM     31  N   UNL     1       8.288   5.614   7.162  1.00  0.00    -0.354 N 
ATOM     32  N   UNL     1       8.113   7.670   5.085  1.00  0.00    -0.248 NA
ATOM     33  C   UNL     1       8.634   9.800   4.282  1.00  0.00     0.031 C 
ATOM     34  C   UNL     1       9.544   6.026   8.949  1.00  0.00     0.029 A 
ATOM     35  C   UNL     1       9.113   6.563   7.747  1.00  0.00     0.049 A 
ATOM     36  H   UNL     1       7.828   5.722   6.298  1.00  0.00     0.167 HD
ATOM     37  C   UNL     1       8.958   8.301   5.987  1.00  0.00     0.074 A 
ATOM     38  C   UNL     1       9.273   9.599   5.426  1.00  0.00     0.031 C 
ATOM     39  C   UNL     1       9.430   7.845   7.173  1.00  0.00     0.037 A 
BRANCH  26  40
ATOM     40  C   UNL     1       7.384   2.224   8.703  1.00  0.00     0.064 A 
ATOM     41  C   UNL     1       8.032   0.997   8.496  1.00  0.00     0.173 A 
ATOM     42  C   UNL     1       6.731   2.420   9.930  1.00  0.00     0.173 A 
ATOM     43  F   UNL     1       8.662   0.753   7.337  1.00  0.00    -0.203 F 
ATOM     44  C   UNL     1       8.006  -0.001   9.468  1.00  0.00     0.198 A 
ATOM     45  C   UNL     1       6.731   1.431  10.910  1.00  0.00     0.198 A 
ATOM     46  F   UNL     1       6.102   3.578  10.183  1.00  0.00    -0.203 F 
ATOM     47  F   UNL     1       8.596  -1.181   9.230  1.00  0.00    -0.200 F 
ATOM     48  C   UNL     1       7.362   0.220  10.676  1.00  0.00     0.200 A 
ATOM     49  F   UNL     1       6.119   1.651  12.082  1.00  0.00    -0.200 F 
ATOM     50  F   UNL     1       7.345  -0.739  11.613  1.00  0.00    -0.200 F 
ENDBRANCH  26  40
BRANCH  27  51
ATOM     51  C   UNL     1       7.118   9.428   1.809  1.00  0.00     0.064 A 
ATOM     52  C   UNL     1       8.263   9.736   1.062  1.00  0.00     0.173 A 
ATOM     53  C   UNL     1       5.950  10.159   1.548  1.00  0.00     0.173 A 
ATOM     54  F   UNL     1       9.409   9.077   1.290  1.00  0.00    -0.203 F 
ATOM     55  C   UNL     1       8.245  10.746   0.104  1.00  0.00     0.198 A 
ATOM     56  C   UNL     1       5.925  11.149   0.569  1.00  0.00     0.198 A 
ATOM     57  F   UNL     1       4.827   9.898   2.233  1.00  0.00    -0.203 F 
ATOM     58  F   UNL     1       9.364  11.049  -0.568  1.00  0.00    -0.200 F 
ATOM     59  C   UNL     1       7.075  11.447  -0.147  1.00  0.00     0.200 A 
ATOM     60  F   UNL     1       4.789  11.812   0.319  1.00  0.00    -0.200 F 
ATOM     61  F   UNL     1       7.056  12.414  -1.074  1.00  0.00    -0.200 F 
ENDBRANCH  27  51
BRANCH  39  62
ATOM     62  C   UNL     1      10.374   8.739   7.922  1.00  0.00     0.064 A 
ATOM     63  C   UNL     1       9.937   9.910   8.557  1.00  0.00     0.173 A 
ATOM     64  C   UNL     1      11.735   8.407   8.019  1.00  0.00     0.173 A 
ATOM     65  F   UNL     1       8.649  10.279   8.479  1.00  0.00    -0.203 F 
ATOM     66  C   UNL     1      10.832  10.733   9.235  1.00  0.00     0.198 A 
ATOM     67  C   UNL     1      12.621   9.217   8.723  1.00  0.00     0.198 A 
ATOM     68  F   UNL     1      12.203   7.294   7.434  1.00  0.00    -0.203 F 
ATOM     69  F   UNL     1      10.401  11.875   9.789  1.00  0.00    -0.200 F 
ATOM     70  C   UNL     1      12.171  10.383   9.322  1.00  0.00     0.200 A 
ATOM     71  F   UNL     1      13.913   8.871   8.816  1.00  0.00    -0.200 F 
ATOM     72  F   UNL     1      13.031  11.177   9.976  1.00  0.00    -0.200 F 
ENDBRANCH  39  62
ENDBRANCH  13  14
ENDBRANCH   6   8
ENDBRANCH   3   4
ENDBRANCH   2   3
ENDBRANCH   1   2
BRANCH   1  73
ATOM     73  C   UNL     1       4.785  -4.109  -1.570  1.00  0.00     0.116 C 
BRANCH  73  74
ATOM     74  N   UNL     1       6.226  -4.040  -1.743  1.00  0.00    -0.352 N 
ATOM     75  C   UNL     1       6.994  -4.608  -2.728  1.00  0.00     0.252 C 
ATOM     76  H   UNL     1       6.714  -3.519  -1.065  1.00  0.00     0.163 HD
ATOM     77  O   UNL     1       8.214  -4.475  -2.723  1.00  0.00    -0.269 OA
BRANCH  75  78
ATOM     78  C   UNL     1       6.359  -5.453  -3.756  1.00  0.00     0.054 A 
ATOM     79  C   UNL     1       6.704  -6.813  -3.732  1.00  0.00     0.015 A 
ATOM     80  C   UNL     1       5.427  -4.978  -4.689  1.00  0.00     0.072 A 
ATOM     81  C   UNL     1       6.079  -7.710  -4.597  1.00  0.00     0.001 A 
ATOM     82  C   UNL     1       4.793  -5.894  -5.544  1.00  0.00     0.016 A 
ATOM     83  C   UNL     1       5.115  -7.253  -5.494  1.00  0.00     0.001 A 
BRANCH  80  84
ATOM     84  C   UNL     1       5.004  -3.563  -4.778  1.00  0.00     0.338 C 
ATOM     85  O   UNL     1       3.860  -3.234  -5.059  1.00  0.00    -0.246 OA
BRANCH  84  86
ATOM     86  O   UNL     1       6.023  -2.729  -4.478  1.00  0.00    -0.462 OA
BRANCH  86  87
ATOM     87  C   UNL     1       5.674  -1.347  -4.272  1.00  0.00     0.237 C 
BRANCH  87  88
ATOM     88  C   UNL     1       5.633  -0.602  -5.607  1.00  0.00     0.030 C 
ATOM     89  C   UNL     1       6.559   0.639  -5.631  1.00  0.00     0.011 C 
ATOM     90  C   UNL     1       4.242   0.031  -5.891  1.00  0.00    -0.004 C 
ATOM     91  C   UNL     1       5.620   1.768  -6.084  1.00  0.00    -0.010 C 
ATOM     92  C   UNL     1       4.168   0.359  -7.391  1.00  0.00     0.004 C 
ATOM     93  C   UNL     1       4.360   1.433  -5.290  1.00  0.00     0.007 C 
ATOM     94  C   UNL     1       5.177   1.506  -7.535  1.00  0.00     0.004 C 
ENDBRANCH  87  88
ENDBRANCH  86  87
ENDBRANCH  84  86
ENDBRANCH  80  84
ENDBRANCH  75  78
ENDBRANCH  73  74
ENDBRANCH   1  73
TORSDOF 15
