REMARK SMILES CC1(C)C(C(=O)N2CCOC[C@H]2C(=O)NCCCCNC(=O)c2ccc(-c3c4nc(c(-c5c(F)c(F)c(F)c(F)c5F)c5ccc([nH]5)c(-c5c(F)c(F)c(F)c(F)c5F)c5nc(c(-c6c(F)c(F)c(F)c(F)c6F)c6ccc3[nH]6)C=C5)C=C4)cc2)C1(C)C
REMARK SMILES IDX 17 1 16 2 15 3 13 4 14 5 12 7 7 8 8 9 9 10 11 11 10 12 5 13
REMARK SMILES IDX 6 14 4 15 1 16 2 17 3 18 86 19 87 20 88 21 18 22 19 23 20 24
REMARK SMILES IDX 21 25 22 27 23 28 24 29 85 30 25 31 84 32 26 33 27 34 28 35
REMARK SMILES IDX 78 36 29 37 83 38 77 39 79 40 30 41 82 42 76 43 75 44 31 46
REMARK SMILES IDX 63 47 43 48 62 49 44 50 47 51 61 52 80 53 45 54 46 55 60 57
REMARK SMILES IDX 81 58 48 59 32 60 33 61 41 62 34 63 35 64 39 65 42 66 36 67
REMARK SMILES IDX 37 68 40 69 38 70 64 71 65 72 73 73 66 74 67 75 71 76 74 77
REMARK SMILES IDX 68 78 69 79 72 80 70 81 49 82 50 83 58 84 51 85 52 86 56 87
REMARK SMILES IDX 59 88 53 89 54 90 57 91 55 92
REMARK H PARENT 15 6 20 26 79 45 47 56
REMARK Flexibility Score: inf
ROOT
ATOM      1  C   UNL     1      -3.468  -0.117   5.536  1.00  0.00     0.023 C 
ENDROOT
BRANCH   1   2
ATOM      2  C   UNL     1      -3.737  -1.605   5.795  1.00  0.00     0.116 C 
BRANCH   2   3
ATOM      3  N   UNL     1      -4.395  -2.249   4.673  1.00  0.00    -0.354 N 
ATOM      4  C   UNL     1      -4.000  -3.049   3.648  1.00  0.00     0.245 C 
ATOM      5  O   UNL     1      -4.930  -3.440   2.928  1.00  0.00    -0.273 OA
ATOM      6  H   UNL     1      -5.361  -2.062   4.649  1.00  0.00     0.163 HD
BRANCH   4   7
ATOM      7  C   UNL     1      -2.541  -3.461   3.304  1.00  0.00     0.200 C 
ATOM      8  N   UNL     1      -1.703  -2.448   2.625  1.00  0.00    -0.326 N 
ATOM      9  C   UNL     1      -1.072  -1.521   3.524  1.00  0.00     0.149 C 
ATOM     10  C   UNL     1      -0.290  -2.252   4.622  1.00  0.00     0.181 C 
ATOM     11  C   UNL     1      -1.752  -4.136   4.433  1.00  0.00     0.195 C 
ATOM     12  O   UNL     1      -1.097  -3.213   5.316  1.00  0.00    -0.377 OA
BRANCH   8  13
ATOM     13  C   UNL     1      -1.549  -2.515   1.253  1.00  0.00     0.227 C 
ATOM     14  O   UNL     1      -2.247  -3.278   0.586  1.00  0.00    -0.275 OA
BRANCH  13  15
ATOM     15  C   UNL     1      -0.539  -1.734   0.463  1.00  0.00     0.091 C 
ATOM     16  C   UNL     1       1.104  -0.049  -0.569  1.00  0.00     0.012 C 
ATOM     17  C   UNL     1       0.819  -1.039   0.565  1.00  0.00    -0.017 C 
ATOM     18  C   UNL     1       1.507  -0.546   1.814  1.00  0.00     0.012 C 
ATOM     19  C   UNL     1       0.779  -2.528   0.234  1.00  0.00    -0.017 C 
ATOM     20  C   UNL     1       1.087  -3.014  -1.162  1.00  0.00     0.012 C 
ATOM     21  C   UNL     1       1.187  -3.565   1.264  1.00  0.00     0.012 C 
ENDBRANCH  13  15
ENDBRANCH   8  13
ENDBRANCH   4   7
ENDBRANCH   2   3
ENDBRANCH   1   2
BRANCH   1  22
ATOM     22  C   UNL     1      -4.222   0.837   6.448  1.00  0.00     0.023 C 
BRANCH  22  23
ATOM     23  C   UNL     1      -3.879   0.697   7.923  1.00  0.00     0.116 C 
BRANCH  23  24
ATOM     24  N   UNL     1      -2.493   1.002   8.255  1.00  0.00    -0.352 N 
ATOM     25  C   UNL     1      -2.018   1.584   9.415  1.00  0.00     0.251 C 
ATOM     26  H   UNL     1      -1.820   0.766   7.577  1.00  0.00     0.163 HD
ATOM     27  O   UNL     1      -0.836   1.841   9.561  1.00  0.00    -0.269 OA
BRANCH  25  28
ATOM     28  C   UNL     1      -3.004   1.943  10.456  1.00  0.00     0.039 A 
ATOM     29  C   UNL     1      -3.087   3.270  10.880  1.00  0.00     0.014 A 
ATOM     30  C   UNL     1      -3.935   0.995  10.887  1.00  0.00     0.014 A 
ATOM     31  C   UNL     1      -4.170   3.668  11.664  1.00  0.00     0.010 A 
ATOM     32  C   UNL     1      -5.062   1.415  11.579  1.00  0.00     0.010 A 
ATOM     33  C   UNL     1      -5.193   2.756  11.973  1.00  0.00    -0.014 A 
BRANCH  33  34
ATOM     34  C   UNL     1      -6.411   3.178  12.707  1.00  0.00     0.031 A 
ATOM     35  C   UNL     1      -6.727   2.569  14.043  1.00  0.00     0.074 A 
ATOM     36  C   UNL     1      -7.272   4.045  12.138  1.00  0.00     0.049 A 
ATOM     37  N   UNL     1      -7.766   2.757  14.816  1.00  0.00    -0.248 NA
ATOM     38  C   UNL     1      -5.765   1.583  14.559  1.00  0.00     0.031 C 
ATOM     39  C   UNL     1      -7.115   4.654  10.816  1.00  0.00     0.029 A 
ATOM     40  N   UNL     1      -8.456   4.562  12.602  1.00  0.00    -0.354 N 
ATOM     41  C   UNL     1      -7.592   1.898  15.892  1.00  0.00     0.074 A 
ATOM     42  C   UNL     1      -6.387   1.139  15.639  1.00  0.00     0.031 C 
ATOM     43  C   UNL     1      -8.137   5.496  10.596  1.00  0.00     0.029 A 
ATOM     44  C   UNL     1      -9.038   5.462  11.744  1.00  0.00     0.049 A 
ATOM     45  H   UNL     1      -8.850   4.312  13.469  1.00  0.00     0.167 HD
ATOM     46  C   UNL     1      -8.349   1.774  17.008  1.00  0.00     0.037 A 
ATOM     47  C   UNL     1     -10.166   6.185  11.877  1.00  0.00     0.037 A 
ATOM     48  C   UNL     1      -9.523   2.561  17.275  1.00  0.00     0.049 A 
ATOM     49  C   UNL     1     -10.984   6.045  13.131  1.00  0.00     0.074 A 
ATOM     50  C   UNL     1     -10.312   2.578  18.410  1.00  0.00     0.029 A 
ATOM     51  N   UNL     1     -10.075   3.474  16.387  1.00  0.00    -0.354 N 
ATOM     52  N   UNL     1     -10.765   5.293  14.182  1.00  0.00    -0.248 NA
ATOM     53  C   UNL     1     -12.204   6.860  13.218  1.00  0.00     0.031 C 
ATOM     54  C   UNL     1     -11.367   3.472  18.194  1.00  0.00     0.029 A 
ATOM     55  C   UNL     1     -11.210   4.044  16.941  1.00  0.00     0.049 A 
ATOM     56  H   UNL     1      -9.714   3.685  15.496  1.00  0.00     0.167 HD
ATOM     57  C   UNL     1     -11.801   5.562  15.066  1.00  0.00     0.074 A 
ATOM     58  C   UNL     1     -12.643   6.556  14.432  1.00  0.00     0.031 C 
ATOM     59  C   UNL     1     -12.033   5.035  16.294  1.00  0.00     0.037 A 
BRANCH  46  60
ATOM     60  C   UNL     1      -7.916   0.751  18.017  1.00  0.00     0.064 A 
ATOM     61  C   UNL     1      -6.734   0.903  18.760  1.00  0.00     0.173 A 
ATOM     62  C   UNL     1      -8.680  -0.406  18.231  1.00  0.00     0.173 A 
ATOM     63  F   UNL     1      -5.959   1.983  18.582  1.00  0.00    -0.203 F 
ATOM     64  C   UNL     1      -6.309  -0.087  19.642  1.00  0.00     0.198 A 
ATOM     65  C   UNL     1      -8.269  -1.378  19.140  1.00  0.00     0.198 A 
ATOM     66  F   UNL     1      -9.820  -0.600  17.551  1.00  0.00    -0.203 F 
ATOM     67  F   UNL     1      -5.140   0.047  20.284  1.00  0.00    -0.200 F 
ATOM     68  C   UNL     1      -7.078  -1.224  19.834  1.00  0.00     0.200 A 
ATOM     69  F   UNL     1      -9.018  -2.472  19.332  1.00  0.00    -0.200 F 
ATOM     70  F   UNL     1      -6.665  -2.180  20.677  1.00  0.00    -0.200 F 
ENDBRANCH  46  60
BRANCH  47  71
ATOM     71  C   UNL     1     -10.550   7.156  10.821  1.00  0.00     0.064 A 
ATOM     72  C   UNL     1     -10.424   8.535  11.044  1.00  0.00     0.173 A 
ATOM     73  C   UNL     1     -11.029   6.738   9.572  1.00  0.00     0.173 A 
ATOM     74  F   UNL     1      -9.988   8.982  12.231  1.00  0.00    -0.203 F 
ATOM     75  C   UNL     1     -10.771   9.459  10.062  1.00  0.00     0.198 A 
ATOM     76  C   UNL     1     -11.356   7.663   8.582  1.00  0.00     0.198 A 
ATOM     77  F   UNL     1     -11.163   5.431   9.308  1.00  0.00    -0.203 F 
ATOM     78  F   UNL     1     -10.670  10.771  10.313  1.00  0.00    -0.200 F 
ATOM     79  C   UNL     1     -11.232   9.023   8.829  1.00  0.00     0.200 A 
ATOM     80  F   UNL     1     -11.789   7.238   7.387  1.00  0.00    -0.200 F 
ATOM     81  F   UNL     1     -11.558   9.911   7.881  1.00  0.00    -0.200 F 
ENDBRANCH  47  71
BRANCH  59  82
ATOM     82  C   UNL     1     -13.227   5.545  17.044  1.00  0.00     0.064 A 
ATOM     83  C   UNL     1     -14.533   5.191  16.674  1.00  0.00     0.173 A 
ATOM     84  C   UNL     1     -13.061   6.368  18.169  1.00  0.00     0.173 A 
ATOM     85  F   UNL     1     -14.744   4.421  15.597  1.00  0.00    -0.203 F 
ATOM     86  C   UNL     1     -15.630   5.661  17.391  1.00  0.00     0.198 A 
ATOM     87  C   UNL     1     -14.159   6.813  18.899  1.00  0.00     0.198 A 
ATOM     88  F   UNL     1     -11.832   6.730  18.566  1.00  0.00    -0.203 F 
ATOM     89  F   UNL     1     -16.871   5.347  16.994  1.00  0.00    -0.200 F 
ATOM     90  C   UNL     1     -15.442   6.465  18.506  1.00  0.00     0.200 A 
ATOM     91  F   UNL     1     -13.975   7.579  19.983  1.00  0.00    -0.200 F 
ATOM     92  F   UNL     1     -16.500   6.911  19.198  1.00  0.00    -0.200 F 
ENDBRANCH  59  82
ENDBRANCH  33  34
ENDBRANCH  25  28
ENDBRANCH  23  24
ENDBRANCH  22  23
ENDBRANCH   1  22
TORSDOF 13
