REMARK SMILES Cc1nc2n(n1)[C@@H](c1ccc([N+](=O)[O-])o1)CC(C(=O)NCCCCNC(=O)c1ccc(-c3c4nc(c(-c5c(F)c(F)c(F)c(F)c5F)c5ccc([nH]5)c(-c5c(F)c(F)c(F)c(F)c5F)c5nc(c(-c6c(F)c(F)c(F)c(F)c6F)c6ccc3[nH]6)C=C5)C=C4)cc1)=N2
REMARK SMILES IDX 22 1 21 2 20 3 18 4 19 5 17 7 1 8 2 9 3 10 6 11 4 12 5 13
REMARK SMILES IDX 91 14 7 15 16 16 8 17 9 18 15 19 10 20 11 21 12 22 13 23
REMARK SMILES IDX 14 24 23 25 24 26 25 27 26 28 27 30 28 31 29 32 90 33 30 34
REMARK SMILES IDX 89 35 31 36 32 37 33 38 83 39 34 40 88 41 82 42 84 43 35 44
REMARK SMILES IDX 87 45 81 46 80 47 36 49 68 50 48 51 67 52 49 53 52 54 66 55
REMARK SMILES IDX 85 56 50 57 51 58 65 60 86 61 53 62 37 63 38 64 46 65 39 66
REMARK SMILES IDX 40 67 44 68 47 69 41 70 42 71 45 72 43 73 69 74 70 75 78 76
REMARK SMILES IDX 71 77 72 78 76 79 79 80 73 81 74 82 77 83 75 84 54 85 55 86
REMARK SMILES IDX 63 87 56 88 57 89 61 90 64 91 58 92 59 93 62 94 60 95
REMARK H PARENT 20 6 25 29 84 48 52 59
REMARK Flexibility Score: inf
ROOT
ATOM      1  C   UNL     1      -0.817   5.500  -8.517  1.00  0.00     0.023 C 
ENDROOT
BRANCH   1   2
ATOM      2  C   UNL     1      -1.841   4.938  -7.525  1.00  0.00     0.116 C 
BRANCH   2   3
ATOM      3  N   UNL     1      -1.892   3.484  -7.567  1.00  0.00    -0.351 N 
ATOM      4  C   UNL     1      -1.551   2.434  -6.744  1.00  0.00     0.265 C 
ATOM      5  O   UNL     1      -1.775   1.313  -7.178  1.00  0.00    -0.268 OA
ATOM      6  H   UNL     1      -2.273   3.164  -8.416  1.00  0.00     0.163 HD
BRANCH   4   7
ATOM      7  C   UNL     1      -0.925   2.554  -5.335  1.00  0.00     0.112 C 
ATOM      8  C   UNL     1       0.805   0.322  -0.245  1.00  0.00     0.092 C 
ATOM      9  C   UNL     1       0.449   1.076  -1.465  1.00  0.00     0.149 A 
ATOM     10  N   UNL     1      -0.157   0.490  -2.546  1.00  0.00    -0.195 NA
ATOM     11  N   UNL     1       0.712   2.381  -1.611  1.00  0.00    -0.154 NA
ATOM     12  C   UNL     1      -0.276   1.463  -3.424  1.00  0.00     0.249 A 
ATOM     13  N   UNL     1       0.268   2.585  -2.866  1.00  0.00    -0.219 N 
ATOM     14  N   UNL     1      -0.797   1.441  -4.671  1.00  0.00    -0.211 NA
ATOM     15  C   UNL     1       0.337   3.864  -3.532  1.00  0.00     0.184 C 
ATOM     16  C   UNL     1      -0.553   3.902  -4.781  1.00  0.00     0.098 C 
BRANCH  15  17
ATOM     17  C   UNL     1       1.753   4.251  -3.856  1.00  0.00     0.136 A 
ATOM     18  C   UNL     1       3.010   3.736  -3.581  1.00  0.00     0.056 A 
ATOM     19  O   UNL     1       1.885   5.413  -4.572  1.00  0.00    -0.404 OA
ATOM     20  C   UNL     1       3.958   4.613  -4.176  1.00  0.00     0.134 A 
ATOM     21  C   UNL     1       3.214   5.602  -4.771  1.00  0.00     0.433 A 
BRANCH  21  22
ATOM     22  N   UNL     1       3.574   6.746  -5.547  1.00  0.00     0.102 N 
ATOM     23  O   UNL     1       4.784   6.965  -5.679  1.00  0.00    -0.256 OA
ATOM     24  O   UNL     1       2.654   7.413  -6.040  1.00  0.00    -0.256 OA
ENDBRANCH  21  22
ENDBRANCH  15  17
ENDBRANCH   4   7
ENDBRANCH   2   3
ENDBRANCH   1   2
BRANCH   1  25
ATOM     25  C   UNL     1      -1.288   5.546  -9.988  1.00  0.00     0.023 C 
BRANCH  25  26
ATOM     26  C   UNL     1      -2.388   6.577 -10.324  1.00  0.00     0.116 C 
BRANCH  26  27
ATOM     27  N   UNL     1      -1.937   7.938 -10.085  1.00  0.00    -0.352 N 
ATOM     28  C   UNL     1      -2.156   9.125 -10.733  1.00  0.00     0.251 C 
ATOM     29  H   UNL     1      -1.355   8.025  -9.295  1.00  0.00     0.163 HD
ATOM     30  O   UNL     1      -1.464  10.088 -10.402  1.00  0.00    -0.269 OA
BRANCH  28  31
ATOM     31  C   UNL     1      -3.165   9.326 -11.803  1.00  0.00     0.039 A 
ATOM     32  C   UNL     1      -2.837  10.220 -12.838  1.00  0.00     0.014 A 
ATOM     33  C   UNL     1      -4.459   8.815 -11.740  1.00  0.00     0.014 A 
ATOM     34  C   UNL     1      -3.767  10.566 -13.828  1.00  0.00     0.010 A 
ATOM     35  C   UNL     1      -5.395   9.172 -12.727  1.00  0.00     0.010 A 
ATOM     36  C   UNL     1      -5.054  10.028 -13.797  1.00  0.00    -0.014 A 
BRANCH  36  37
ATOM     37  C   UNL     1      -5.950  10.217 -14.972  1.00  0.00     0.031 A 
ATOM     38  C   UNL     1      -6.569   8.960 -15.461  1.00  0.00     0.074 A 
ATOM     39  C   UNL     1      -6.586  11.358 -15.329  1.00  0.00     0.049 A 
ATOM     40  N   UNL     1      -7.635   8.506 -14.881  1.00  0.00    -0.248 NA
ATOM     41  C   UNL     1      -5.972   8.023 -16.405  1.00  0.00     0.031 C 
ATOM     42  C   UNL     1      -6.766  12.524 -14.462  1.00  0.00     0.029 A 
ATOM     43  N   UNL     1      -7.360  11.648 -16.443  1.00  0.00    -0.354 N 
ATOM     44  C   UNL     1      -7.810   7.201 -15.281  1.00  0.00     0.074 A 
ATOM     45  C   UNL     1      -6.781   6.954 -16.266  1.00  0.00     0.031 C 
ATOM     46  C   UNL     1      -7.691  13.339 -15.013  1.00  0.00     0.029 A 
ATOM     47  C   UNL     1      -8.074  12.839 -16.338  1.00  0.00     0.049 A 
ATOM     48  H   UNL     1      -7.401  11.064 -17.235  1.00  0.00     0.167 HD
ATOM     49  C   UNL     1      -8.818   6.454 -14.753  1.00  0.00     0.037 A 
ATOM     50  C   UNL     1      -9.289  13.110 -16.891  1.00  0.00     0.037 A 
ATOM     51  C   UNL     1      -9.682   7.120 -13.800  1.00  0.00     0.049 A 
ATOM     52  C   UNL     1     -10.211  12.093 -16.290  1.00  0.00     0.074 A 
ATOM     53  C   UNL     1     -10.264   6.904 -12.569  1.00  0.00     0.029 A 
ATOM     54  N   UNL     1     -10.054   8.382 -14.159  1.00  0.00    -0.354 N 
ATOM     55  N   UNL     1     -10.736  12.165 -15.097  1.00  0.00    -0.248 NA
ATOM     56  C   UNL     1     -10.435  10.817 -16.987  1.00  0.00     0.031 C 
ATOM     57  C   UNL     1     -11.004   8.094 -12.228  1.00  0.00     0.029 A 
ATOM     58  C   UNL     1     -10.891   8.995 -13.275  1.00  0.00     0.049 A 
ATOM     59  H   UNL     1      -9.745   8.814 -14.987  1.00  0.00     0.167 HD
ATOM     60  C   UNL     1     -11.143  10.870 -14.814  1.00  0.00     0.074 A 
ATOM     61  C   UNL     1     -11.106  10.138 -16.062  1.00  0.00     0.031 C 
ATOM     62  C   UNL     1     -11.204  10.377 -13.543  1.00  0.00     0.037 A 
BRANCH  49  63
ATOM     63  C   UNL     1      -9.222   5.141 -15.286  1.00  0.00     0.064 A 
ATOM     64  C   UNL     1     -10.366   5.096 -16.102  1.00  0.00     0.173 A 
ATOM     65  C   UNL     1      -8.641   3.936 -14.893  1.00  0.00     0.173 A 
ATOM     66  F   UNL     1     -10.942   6.237 -16.514  1.00  0.00    -0.203 F 
ATOM     67  C   UNL     1     -10.937   3.886 -16.474  1.00  0.00     0.198 A 
ATOM     68  C   UNL     1      -9.211   2.721 -15.276  1.00  0.00     0.198 A 
ATOM     69  F   UNL     1      -7.549   3.933 -14.114  1.00  0.00    -0.203 F 
ATOM     70  F   UNL     1     -12.049   3.875 -17.221  1.00  0.00    -0.200 F 
ATOM     71  C   UNL     1     -10.365   2.698 -16.052  1.00  0.00     0.200 A 
ATOM     72  F   UNL     1      -8.660   1.568 -14.874  1.00  0.00    -0.200 F 
ATOM     73  F   UNL     1     -10.928   1.529 -16.388  1.00  0.00    -0.200 F 
ENDBRANCH  49  63
BRANCH  50  74
ATOM     74  C   UNL     1      -9.394  13.529 -18.327  1.00  0.00     0.064 A 
ATOM     75  C   UNL     1      -8.467  14.440 -18.872  1.00  0.00     0.173 A 
ATOM     76  C   UNL     1     -10.434  13.136 -19.191  1.00  0.00     0.173 A 
ATOM     77  F   UNL     1      -7.518  14.984 -18.095  1.00  0.00    -0.203 F 
ATOM     78  C   UNL     1      -8.511  14.830 -20.215  1.00  0.00     0.198 A 
ATOM     79  C   UNL     1     -10.456  13.492 -20.542  1.00  0.00     0.198 A 
ATOM     80  F   UNL     1     -11.464  12.405 -18.749  1.00  0.00    -0.203 F 
ATOM     81  F   UNL     1      -7.603  15.694 -20.691  1.00  0.00    -0.200 F 
ATOM     82  C   UNL     1      -9.486  14.328 -21.058  1.00  0.00     0.200 A 
ATOM     83  F   UNL     1     -11.421  13.012 -21.338  1.00  0.00    -0.200 F 
ATOM     84  F   UNL     1      -9.503  14.661 -22.355  1.00  0.00    -0.200 F 
ENDBRANCH  50  74
BRANCH  62  85
ATOM     85  C   UNL     1     -11.313  11.406 -12.481  1.00  0.00     0.064 A 
ATOM     86  C   UNL     1     -12.405  12.290 -12.486  1.00  0.00     0.173 A 
ATOM     87  C   UNL     1     -10.330  11.577 -11.500  1.00  0.00     0.173 A 
ATOM     88  F   UNL     1     -13.387  12.149 -13.392  1.00  0.00    -0.203 F 
ATOM     89  C   UNL     1     -12.494  13.325 -11.565  1.00  0.00     0.198 A 
ATOM     90  C   UNL     1     -10.435  12.602 -10.563  1.00  0.00     0.198 A 
ATOM     91  F   UNL     1      -9.257  10.771 -11.454  1.00  0.00    -0.203 F 
ATOM     92  F   UNL     1     -13.532  14.171 -11.609  1.00  0.00    -0.200 F 
ATOM     93  C   UNL     1     -11.510  13.479 -10.603  1.00  0.00     0.200 A 
ATOM     94  F   UNL     1      -9.491  12.748  -9.623  1.00  0.00    -0.200 F 
ATOM     95  F   UNL     1     -11.600  14.473  -9.708  1.00  0.00    -0.200 F 
ENDBRANCH  62  85
ENDBRANCH  36  37
ENDBRANCH  28  31
ENDBRANCH  26  27
ENDBRANCH  25  26
ENDBRANCH   1  25
TORSDOF 13
