REMARK SMILES COc1ccccc1[C@@H]1CN(C(=O)c2cnn3ccccc23)C[C@H]1C(=O)NCCCCNC(=O)c1ccc(-c2c3nc(c(-c4c(F)c(F)c(F)c(F)c4F)c4ccc([nH]4)c(-c4c(F)c(F)c(F)c(F)c4F)c4nc(c(-c5c(F)c(F)c(F)c(F)c5F)c5ccc2[nH]5)C=C4)C=C3)cc1
REMARK SMILES IDX 29 1 28 2 27 3 25 4 26 5 24 7 9 8 10 9 11 10 23 11 8 12 3 13
REMARK SMILES IDX 4 14 5 15 7 16 6 17 2 18 1 19 12 20 13 21 14 22 15 23 22 24
REMARK SMILES IDX 16 25 17 26 21 27 18 28 20 29 19 30 30 31 31 32 32 33 33 34
REMARK SMILES IDX 34 36 35 37 36 38 97 39 37 40 96 41 38 42 39 43 40 44 90 45
REMARK SMILES IDX 41 46 95 47 89 48 91 49 42 50 94 51 88 52 87 53 43 55 75 56
REMARK SMILES IDX 55 57 74 58 56 59 59 60 73 61 92 62 57 63 58 64 72 66 93 67
REMARK SMILES IDX 60 68 44 69 45 70 53 71 46 72 47 73 51 74 54 75 48 76 49 77
REMARK SMILES IDX 52 78 50 79 76 80 77 81 85 82 78 83 79 84 83 85 86 86 80 87
REMARK SMILES IDX 81 88 84 89 82 90 61 91 62 92 70 93 63 94 64 95 68 96 71 97
REMARK SMILES IDX 65 98 66 99 69 100 67 101
REMARK H PARENT 27 6 32 35 91 54 59 65
REMARK Flexibility Score: inf
ROOT
ATOM      1  C   UNL     1       6.241   1.944   2.718  1.00  0.00     0.023 C 
ENDROOT
BRANCH   1   2
ATOM      2  C   UNL     1       5.788   0.501   2.482  1.00  0.00     0.116 C 
BRANCH   2   3
ATOM      3  N   UNL     1       4.621   0.159   3.270  1.00  0.00    -0.356 N 
ATOM      4  C   UNL     1       3.325  -0.039   2.917  1.00  0.00     0.225 C 
ATOM      5  O   UNL     1       2.536  -0.306   3.828  1.00  0.00    -0.275 OA
ATOM      6  H   UNL     1       4.800   0.050   4.232  1.00  0.00     0.163 HD
BRANCH   4   7
ATOM      7  C   UNL     1       2.828   0.027   1.482  1.00  0.00     0.107 C 
ATOM      8  C   UNL     1       3.000   1.386   0.775  1.00  0.00     0.057 C 
ATOM      9  C   UNL     1       3.296   1.030  -0.680  1.00  0.00     0.129 C 
ATOM     10  N   UNL     1       4.027  -0.220  -0.561  1.00  0.00    -0.337 N 
ATOM     11  C   UNL     1       3.527  -0.988   0.572  1.00  0.00     0.134 C 
BRANCH   8  12
ATOM     12  C   UNL     1       1.935   2.432   1.002  1.00  0.00    -0.000 A 
ATOM     13  C   UNL     1       0.653   2.440   0.430  1.00  0.00     0.122 A 
ATOM     14  C   UNL     1      -0.220   3.511   0.673  1.00  0.00     0.047 A 
ATOM     15  C   UNL     1       0.172   4.594   1.461  1.00  0.00     0.004 A 
ATOM     16  C   UNL     1       2.303   3.538   1.803  1.00  0.00     0.008 A 
ATOM     17  C   UNL     1       1.443   4.615   2.014  1.00  0.00     0.001 A 
BRANCH  13  18
ATOM     18  O   UNL     1       0.255   1.582  -0.560  1.00  0.00    -0.496 OA
ATOM     19  C   UNL     1      -0.109   0.278  -0.125  1.00  0.00     0.278 C 
ENDBRANCH  13  18
ENDBRANCH   8  12
BRANCH  10  20
ATOM     20  C   UNL     1       4.955  -0.762  -1.431  1.00  0.00     0.257 C 
ATOM     21  O   UNL     1       5.338  -1.923  -1.307  1.00  0.00    -0.269 OA
BRANCH  20  22
ATOM     22  C   UNL     1       5.453   0.064  -2.511  1.00  0.00     0.085 A 
ATOM     23  C   UNL     1       5.524  -0.309  -3.869  1.00  0.00     0.150 A 
ATOM     24  C   UNL     1       6.053   1.312  -2.481  1.00  0.00     0.079 A 
ATOM     25  N   UNL     1       6.026   0.643  -4.654  1.00  0.00    -0.176 NA
ATOM     26  N   UNL     1       6.351   1.650  -3.808  1.00  0.00    -0.240 N 
ATOM     27  C   UNL     1       6.407   2.256  -1.468  1.00  0.00     0.029 A 
ATOM     28  C   UNL     1       6.908   2.883  -4.151  1.00  0.00     0.113 A 
ATOM     29  C   UNL     1       6.934   3.445  -1.813  1.00  0.00     0.004 A 
ATOM     30  C   UNL     1       7.192   3.788  -3.200  1.00  0.00     0.020 A 
ENDBRANCH  20  22
ENDBRANCH  10  20
ENDBRANCH   4   7
ENDBRANCH   2   3
ENDBRANCH   1   2
BRANCH   1  31
ATOM     31  C   UNL     1       6.794   2.256   4.112  1.00  0.00     0.023 C 
BRANCH  31  32
ATOM     32  C   UNL     1       8.020   1.441   4.487  1.00  0.00     0.116 C 
BRANCH  32  33
ATOM     33  N   UNL     1       9.148   1.640   3.571  1.00  0.00    -0.352 N 
ATOM     34  C   UNL     1      10.376   0.989   3.581  1.00  0.00     0.251 C 
ATOM     35  H   UNL     1       9.021   2.316   2.867  1.00  0.00     0.163 HD
ATOM     36  O   UNL     1      11.357   1.449   3.034  1.00  0.00    -0.269 OA
BRANCH  34  37
ATOM     37  C   UNL     1      10.429  -0.318   4.256  1.00  0.00     0.039 A 
ATOM     38  C   UNL     1      11.438  -0.681   5.153  1.00  0.00     0.014 A 
ATOM     39  C   UNL     1       9.339  -1.141   4.024  1.00  0.00     0.014 A 
ATOM     40  C   UNL     1      11.290  -1.869   5.868  1.00  0.00     0.010 A 
ATOM     41  C   UNL     1       9.074  -2.136   4.910  1.00  0.00     0.010 A 
ATOM     42  C   UNL     1      10.093  -2.585   5.740  1.00  0.00    -0.014 A 
BRANCH  42  43
ATOM     43  C   UNL     1       9.787  -3.789   6.499  1.00  0.00     0.031 A 
ATOM     44  C   UNL     1       9.771  -3.608   7.976  1.00  0.00     0.074 A 
ATOM     45  C   UNL     1       9.249  -4.858   5.862  1.00  0.00     0.049 A 
ATOM     46  N   UNL     1      10.479  -4.231   8.860  1.00  0.00    -0.248 NA
ATOM     47  C   UNL     1       8.954  -2.516   8.537  1.00  0.00     0.031 C 
ATOM     48  C   UNL     1       8.936  -5.005   4.429  1.00  0.00     0.029 A 
ATOM     49  N   UNL     1       8.723  -5.996   6.386  1.00  0.00    -0.354 N 
ATOM     50  C   UNL     1      10.046  -3.760  10.097  1.00  0.00     0.074 A 
ATOM     51  C   UNL     1       9.261  -2.584   9.834  1.00  0.00     0.031 C 
ATOM     52  C   UNL     1       8.065  -6.020   4.249  1.00  0.00     0.029 A 
ATOM     53  C   UNL     1       7.906  -6.710   5.510  1.00  0.00     0.049 A 
ATOM     54  H   UNL     1       8.904  -6.292   7.308  1.00  0.00     0.167 HD
ATOM     55  C   UNL     1      10.142  -4.536  11.213  1.00  0.00     0.037 A 
ATOM     56  C   UNL     1       7.124  -7.771   5.830  1.00  0.00     0.037 A 
ATOM     57  C   UNL     1      11.069  -5.621  11.012  1.00  0.00     0.049 A 
ATOM     58  C   UNL     1       7.643  -8.311   7.114  1.00  0.00     0.074 A 
ATOM     59  C   UNL     1      12.414  -5.703  10.708  1.00  0.00     0.029 A 
ATOM     60  N   UNL     1      10.551  -6.861  10.723  1.00  0.00    -0.354 N 
ATOM     61  N   UNL     1       8.826  -8.849   7.238  1.00  0.00    -0.248 NA
ATOM     62  C   UNL     1       7.063  -7.779   8.338  1.00  0.00     0.031 C 
ATOM     63  C   UNL     1      12.516  -6.791   9.788  1.00  0.00     0.029 A 
ATOM     64  C   UNL     1      11.248  -7.358   9.652  1.00  0.00     0.049 A 
ATOM     65  H   UNL     1       9.815  -7.309  11.198  1.00  0.00     0.167 HD
ATOM     66  C   UNL     1       9.317  -8.352   8.437  1.00  0.00     0.074 A 
ATOM     67  C   UNL     1       8.163  -7.740   9.096  1.00  0.00     0.031 C 
ATOM     68  C   UNL     1      10.660  -8.210   8.646  1.00  0.00     0.037 A 
BRANCH  55  69
ATOM     69  C   UNL     1       9.117  -4.558  12.322  1.00  0.00     0.064 A 
ATOM     70  C   UNL     1       9.395  -5.290  13.493  1.00  0.00     0.173 A 
ATOM     71  C   UNL     1       7.771  -4.166  12.155  1.00  0.00     0.173 A 
ATOM     72  F   UNL     1      10.638  -5.726  13.747  1.00  0.00    -0.203 F 
ATOM     73  C   UNL     1       8.385  -5.674  14.380  1.00  0.00     0.198 A 
ATOM     74  C   UNL     1       6.776  -4.505  13.070  1.00  0.00     0.198 A 
ATOM     75  F   UNL     1       7.337  -3.545  11.052  1.00  0.00    -0.203 F 
ATOM     76  F   UNL     1       8.675  -6.483  15.408  1.00  0.00    -0.200 F 
ATOM     77  C   UNL     1       7.075  -5.289  14.162  1.00  0.00     0.200 A 
ATOM     78  F   UNL     1       5.509  -4.137  12.830  1.00  0.00    -0.200 F 
ATOM     79  F   UNL     1       6.096  -5.713  14.972  1.00  0.00    -0.200 F 
ENDBRANCH  55  69
BRANCH  56  80
ATOM     80  C   UNL     1       5.771  -8.089   5.308  1.00  0.00     0.064 A 
ATOM     81  C   UNL     1       5.205  -9.363   5.472  1.00  0.00     0.173 A 
ATOM     82  C   UNL     1       4.897  -7.068   4.880  1.00  0.00     0.173 A 
ATOM     83  F   UNL     1       5.955 -10.378   5.925  1.00  0.00    -0.203 F 
ATOM     84  C   UNL     1       3.844  -9.599   5.238  1.00  0.00     0.198 A 
ATOM     85  C   UNL     1       3.541  -7.305   4.644  1.00  0.00     0.198 A 
ATOM     86  F   UNL     1       5.321  -5.800   4.776  1.00  0.00    -0.203 F 
ATOM     87  F   UNL     1       3.328 -10.816   5.459  1.00  0.00    -0.200 F 
ATOM     88  C   UNL     1       3.012  -8.567   4.834  1.00  0.00     0.200 A 
ATOM     89  F   UNL     1       2.740  -6.288   4.293  1.00  0.00    -0.200 F 
ATOM     90  F   UNL     1       1.699  -8.778   4.670  1.00  0.00    -0.200 F 
ENDBRANCH  56  80
BRANCH  68  91
ATOM     91  C   UNL     1      11.596  -8.799   7.624  1.00  0.00     0.064 A 
ATOM     92  C   UNL     1      11.692  -8.354   6.292  1.00  0.00     0.173 A 
ATOM     93  C   UNL     1      12.539  -9.741   8.049  1.00  0.00     0.173 A 
ATOM     94  F   UNL     1      10.900  -7.381   5.833  1.00  0.00    -0.203 F 
ATOM     95  C   UNL     1      12.656  -8.860   5.421  1.00  0.00     0.198 A 
ATOM     96  C   UNL     1      13.523 -10.221   7.188  1.00  0.00     0.198 A 
ATOM     97  F   UNL     1      12.538 -10.160   9.324  1.00  0.00    -0.203 F 
ATOM     98  F   UNL     1      12.718  -8.419   4.155  1.00  0.00    -0.200 F 
ATOM     99  C   UNL     1      13.575  -9.790   5.872  1.00  0.00     0.200 A 
ATOM    100  F   UNL     1      14.442 -11.083   7.645  1.00  0.00    -0.200 F 
ATOM    101  F   UNL     1      14.529 -10.248   5.050  1.00  0.00    -0.200 F 
ENDBRANCH  68  91
ENDBRANCH  42  43
ENDBRANCH  34  37
ENDBRANCH  32  33
ENDBRANCH  31  32
ENDBRANCH   1  31
TORSDOF 15
