REMARK SMILES Cc1ccc2cc(C[N@H+]3CC[NH2+][C@H](C(=O)NCCCCNC(=O)c4ccc(-c5c6nc(c(-c7c(F)c(F)c(F)c(F)c7F)c7ccc([nH]7)c(-c7c(F)c(F)c(F)c(F)c7F)c7nc(c(-c8c(F)c(F)c(F)c(F)c8F)c8ccc5[nH]8)C=C7)C=C6)cc4)C3)c(N3CCOCC3)nc2c1
REMARK SMILES IDX 18 1 17 2 16 3 14 4 15 5 13 7 9 8 10 9 87 10 11 12 12 13
REMARK SMILES IDX 8 16 7 17 1 18 2 19 3 20 97 21 4 22 96 23 5 24 95 25 6 26
REMARK SMILES IDX 88 27 89 28 90 29 94 30 91 31 93 32 92 33 19 34 20 35 21 36
REMARK SMILES IDX 22 37 23 39 24 40 25 41 86 42 26 43 85 44 27 45 28 46 29 47
REMARK SMILES IDX 79 48 30 49 84 50 78 51 80 52 31 53 83 54 77 55 76 56 32 58
REMARK SMILES IDX 64 59 44 60 63 61 45 62 48 63 62 64 81 65 46 66 47 67 61 69
REMARK SMILES IDX 82 70 49 71 33 72 34 73 42 74 35 75 36 76 40 77 43 78 37 79
REMARK SMILES IDX 38 80 41 81 39 82 65 83 66 84 74 85 67 86 68 87 72 88 75 89
REMARK SMILES IDX 69 90 70 91 73 92 71 93 50 94 51 95 59 96 52 97 53 98 57 99
REMARK SMILES IDX 60 100 54 101 55 102 58 103 56 104
REMARK H PARENT 16 6 9 11 12 14 12 15 21 38 80 57 48 68
REMARK Flexibility Score: inf
ROOT
ATOM      1  C   UNL     1       3.323  -1.218   5.926  1.00  0.00     0.023 C 
ENDROOT
BRANCH   1   2
ATOM      2  C   UNL     1       2.081  -1.928   5.376  1.00  0.00     0.116 C 
BRANCH   2   3
ATOM      3  N   UNL     1       2.145  -3.394   5.375  1.00  0.00    -0.351 N 
ATOM      4  C   UNL     1       1.082  -4.290   5.441  1.00  0.00     0.284 C 
ATOM      5  O   UNL     1       1.299  -5.500   5.376  1.00  0.00    -0.268 OA
ATOM      6  H   UNL     1       3.044  -3.790   5.323  1.00  0.00     0.163 HD
BRANCH   4   7
ATOM      7  C   UNL     1      -0.330  -3.704   5.576  1.00  0.00     0.328 C 
ATOM      8  N   UNL     1      -1.891  -2.515   7.069  1.00  0.00    -0.321 N 
ATOM      9  C   UNL     1      -3.044  -3.057   6.353  1.00  0.00     0.324 C 
ATOM     10  C   UNL     1      -0.736  -3.417   7.019  1.00  0.00     0.339 C 
ATOM     11  H   UNL     1      -2.168  -2.513   8.051  1.00  0.00     0.348 HD
ATOM     12  C   UNL     1      -2.752  -3.894   5.064  1.00  0.00     0.323 C 
ATOM     13  N   UNL     1      -1.389  -4.448   4.833  1.00  0.00    -0.327 N 
ATOM     14  H   UNL     1      -1.182  -4.399   3.836  1.00  0.00     0.347 HD
ATOM     15  H   UNL     1      -1.386  -5.409   5.174  1.00  0.00     0.347 HD
BRANCH   8  16
ATOM     16  C   UNL     1      -1.649  -1.061   6.990  1.00  0.00     0.303 C 
BRANCH  16  17
ATOM     17  C   UNL     1      -1.383  -0.300   5.700  1.00  0.00     0.049 A 
ATOM     18  C   UNL     1       0.915   1.339  -0.196  1.00  0.00     0.044 C 
ATOM     19  C   UNL     1       0.327   0.766   1.059  1.00  0.00    -0.049 A 
ATOM     20  C   UNL     1       0.093  -0.606   1.107  1.00  0.00     0.004 A 
ATOM     21  C   UNL     1       0.050   1.560   2.202  1.00  0.00     0.032 A 
ATOM     22  C   UNL     1      -0.483  -1.149   2.236  1.00  0.00     0.010 A 
ATOM     23  C   UNL     1      -0.482   1.024   3.389  1.00  0.00     0.073 A 
ATOM     24  C   UNL     1      -0.774  -0.332   3.339  1.00  0.00     0.001 A 
ATOM     25  N   UNL     1      -0.727   1.723   4.535  1.00  0.00    -0.230 NA
ATOM     26  C   UNL     1      -1.334  -0.910   4.460  1.00  0.00     0.023 A 
ATOM     27  C   UNL     1      -1.142   1.077   5.674  1.00  0.00     0.138 A 
BRANCH  27  28
ATOM     28  N   UNL     1      -1.489   1.861   6.747  1.00  0.00    -0.352 N 
ATOM     29  C   UNL     1      -0.751   1.948   8.001  1.00  0.00     0.146 C 
ATOM     30  C   UNL     1      -2.774   2.555   6.695  1.00  0.00     0.146 C 
ATOM     31  C   UNL     1      -1.682   1.673   9.204  1.00  0.00     0.181 C 
ATOM     32  C   UNL     1      -3.616   2.137   7.911  1.00  0.00     0.181 C 
ATOM     33  O   UNL     1      -2.917   2.406   9.139  1.00  0.00    -0.378 OA
ENDBRANCH  27  28
ENDBRANCH  16  17
ENDBRANCH   8  16
ENDBRANCH   4   7
ENDBRANCH   2   3
ENDBRANCH   1   2
BRANCH   1  34
ATOM     34  C   UNL     1       4.505  -1.097   4.963  1.00  0.00     0.023 C 
BRANCH  34  35
ATOM     35  C   UNL     1       4.300  -0.153   3.774  1.00  0.00     0.116 C 
BRANCH  35  36
ATOM     36  N   UNL     1       4.440   1.267   4.091  1.00  0.00    -0.352 N 
ATOM     37  C   UNL     1       5.340   2.217   3.634  1.00  0.00     0.251 C 
ATOM     38  H   UNL     1       3.783   1.607   4.741  1.00  0.00     0.163 HD
ATOM     39  O   UNL     1       5.315   3.353   4.079  1.00  0.00    -0.269 OA
BRANCH  37  40
ATOM     40  C   UNL     1       6.384   1.847   2.645  1.00  0.00     0.039 A 
ATOM     41  C   UNL     1       6.082   1.060   1.538  1.00  0.00     0.014 A 
ATOM     42  C   UNL     1       7.707   2.252   2.862  1.00  0.00     0.014 A 
ATOM     43  C   UNL     1       7.112   0.453   0.826  1.00  0.00     0.010 A 
ATOM     44  C   UNL     1       8.738   1.726   2.072  1.00  0.00     0.010 A 
ATOM     45  C   UNL     1       8.458   0.743   1.112  1.00  0.00    -0.014 A 
BRANCH  45  46
ATOM     46  C   UNL     1       9.532  -0.063   0.460  1.00  0.00     0.031 A 
ATOM     47  C   UNL     1      10.450  -0.933   1.289  1.00  0.00     0.074 A 
ATOM     48  C   UNL     1       9.621  -0.103  -0.885  1.00  0.00     0.049 A 
ATOM     49  N   UNL     1      11.394  -1.754   0.892  1.00  0.00    -0.248 NA
ATOM     50  C   UNL     1      10.298  -0.878   2.753  1.00  0.00     0.031 C 
ATOM     51  C   UNL     1       8.797   0.680  -1.806  1.00  0.00     0.029 A 
ATOM     52  N   UNL     1      10.420  -0.854  -1.713  1.00  0.00    -0.354 N 
ATOM     53  C   UNL     1      11.953  -2.287   2.048  1.00  0.00     0.074 A 
ATOM     54  C   UNL     1      11.270  -1.680   3.167  1.00  0.00     0.031 C 
ATOM     55  C   UNL     1       9.090   0.328  -3.067  1.00  0.00     0.029 A 
ATOM     56  C   UNL     1      10.165  -0.659  -3.050  1.00  0.00     0.049 A 
ATOM     57  H   UNL     1      11.109  -1.473  -1.381  1.00  0.00     0.167 HD
ATOM     58  C   UNL     1      12.931  -3.216   2.168  1.00  0.00     0.037 A 
ATOM     59  C   UNL     1      10.738  -1.202  -4.142  1.00  0.00     0.037 A 
ATOM     60  C   UNL     1      13.575  -3.871   1.060  1.00  0.00     0.049 A 
ATOM     61  C   UNL     1      11.841  -2.211  -3.976  1.00  0.00     0.074 A 
ATOM     62  C   UNL     1      14.532  -4.871   1.094  1.00  0.00     0.029 A 
ATOM     63  N   UNL     1      13.326  -3.599  -0.274  1.00  0.00    -0.354 N 
ATOM     64  N   UNL     1      12.328  -2.728  -2.875  1.00  0.00    -0.248 NA
ATOM     65  C   UNL     1      12.483  -2.704  -5.204  1.00  0.00     0.031 C 
ATOM     66  C   UNL     1      14.898  -5.171  -0.220  1.00  0.00     0.029 A 
ATOM     67  C   UNL     1      14.137  -4.389  -1.073  1.00  0.00     0.049 A 
ATOM     68  H   UNL     1      12.671  -2.943  -0.606  1.00  0.00     0.167 HD
ATOM     69  C   UNL     1      13.327  -3.605  -3.276  1.00  0.00     0.074 A 
ATOM     70  C   UNL     1      13.356  -3.578  -4.722  1.00  0.00     0.031 C 
ATOM     71  C   UNL     1      14.157  -4.353  -2.511  1.00  0.00     0.037 A 
BRANCH  58  72
ATOM     72  C   UNL     1      13.378  -3.612   3.545  1.00  0.00     0.064 A 
ATOM     73  C   UNL     1      12.602  -4.455   4.353  1.00  0.00     0.173 A 
ATOM     74  C   UNL     1      14.653  -3.250   4.005  1.00  0.00     0.173 A 
ATOM     75  F   UNL     1      11.374  -4.825   3.960  1.00  0.00    -0.203 F 
ATOM     76  C   UNL     1      13.088  -4.924   5.571  1.00  0.00     0.198 A 
ATOM     77  C   UNL     1      15.145  -3.738   5.213  1.00  0.00     0.198 A 
ATOM     78  F   UNL     1      15.438  -2.453   3.264  1.00  0.00    -0.203 F 
ATOM     79  F   UNL     1      12.326  -5.721   6.333  1.00  0.00    -0.200 F 
ATOM     80  C   UNL     1      14.363  -4.576   5.994  1.00  0.00     0.200 A 
ATOM     81  F   UNL     1      16.384  -3.415   5.611  1.00  0.00    -0.200 F 
ATOM     82  F   UNL     1      14.841  -5.053   7.152  1.00  0.00    -0.200 F 
ENDBRANCH  58  72
BRANCH  59  83
ATOM     83  C   UNL     1      10.294  -0.781  -5.498  1.00  0.00     0.064 A 
ATOM     84  C   UNL     1       9.646  -1.676  -6.360  1.00  0.00     0.173 A 
ATOM     85  C   UNL     1      10.521   0.523  -5.963  1.00  0.00     0.173 A 
ATOM     86  F   UNL     1       9.428  -2.942  -5.973  1.00  0.00    -0.203 F 
ATOM     87  C   UNL     1       9.256  -1.286  -7.641  1.00  0.00     0.198 A 
ATOM     88  C   UNL     1      10.101   0.921  -7.229  1.00  0.00     0.198 A 
ATOM     89  F   UNL     1      11.138   1.418  -5.178  1.00  0.00    -0.203 F 
ATOM     90  F   UNL     1       8.681  -2.175  -8.463  1.00  0.00    -0.200 F 
ATOM     91  C   UNL     1       9.477   0.013  -8.071  1.00  0.00     0.200 A 
ATOM     92  F   UNL     1      10.303   2.182  -7.634  1.00  0.00    -0.200 F 
ATOM     93  F   UNL     1       9.096   0.389  -9.300  1.00  0.00    -0.200 F 
ENDBRANCH  59  83
BRANCH  71  94
ATOM     94  C   UNL     1      15.178  -5.200  -3.211  1.00  0.00     0.064 A 
ATOM     95  C   UNL     1      16.310  -4.625  -3.805  1.00  0.00     0.173 A 
ATOM     96  C   UNL     1      15.071  -6.599  -3.212  1.00  0.00     0.173 A 
ATOM     97  F   UNL     1      16.451  -3.291  -3.839  1.00  0.00    -0.203 F 
ATOM     98  C   UNL     1      17.295  -5.420  -4.384  1.00  0.00     0.198 A 
ATOM     99  C   UNL     1      16.071  -7.392  -3.768  1.00  0.00     0.198 A 
ATOM    100  F   UNL     1      14.011  -7.197  -2.648  1.00  0.00    -0.203 F 
ATOM    101  F   UNL     1      18.356  -4.848  -4.971  1.00  0.00    -0.200 F 
ATOM    102  C   UNL     1      17.180  -6.802  -4.356  1.00  0.00     0.200 A 
ATOM    103  F   UNL     1      15.966  -8.727  -3.726  1.00  0.00    -0.200 F 
ATOM    104  F   UNL     1      18.139  -7.566  -4.895  1.00  0.00    -0.200 F 
ENDBRANCH  71  94
ENDBRANCH  45  46
ENDBRANCH  37  40
ENDBRANCH  35  36
ENDBRANCH  34  35
ENDBRANCH   1  34
TORSDOF 14
