REMARK SMILES CC[C@@H](C)[C@H](NC(=O)N1CCn2c1nc1ccccc12)C(=O)N[C@H](C)C(=O)NCCCCNC(=O)c1ccc(-c2c3nc(c(-c4c(F)c(F)c(F)c(F)c4F)c4ccc([nH]4)c(-c4c(F)c(F)c(F)c(F)c4F)c4nc(c(-c5c(F)c(F)c(F)c(F)c5F)c5ccc2[nH]5)C=C4)C=C3)cc1
REMARK SMILES IDX 29 1 28 2 26 3 27 4 24 6 25 7 23 8 21 9 22 10 5 12 3 13 4 14
REMARK SMILES IDX 2 15 1 16 6 17 7 18 8 20 9 21 10 22 13 23 11 24 12 25 14 26
REMARK SMILES IDX 20 27 15 28 19 29 16 30 18 31 17 32 30 33 31 34 32 35 33 36
REMARK SMILES IDX 34 37 35 39 36 40 37 41 98 42 38 43 97 44 39 45 40 46 41 47
REMARK SMILES IDX 91 48 42 49 96 50 90 51 92 52 43 53 95 54 89 55 88 56 44 58
REMARK SMILES IDX 76 59 56 60 75 61 57 62 60 63 74 64 93 65 58 66 59 67 73 69
REMARK SMILES IDX 94 70 61 71 45 72 46 73 54 74 47 75 48 76 52 77 55 78 49 79
REMARK SMILES IDX 50 80 53 81 51 82 77 83 78 84 86 85 79 86 80 87 84 88 87 89
REMARK SMILES IDX 81 90 82 91 85 92 83 93 62 94 63 95 71 96 64 97 65 98 69 99
REMARK SMILES IDX 72 100 66 101 67 102 70 103 68 104
REMARK H PARENT 28 5 23 11 6 19 33 38 92 57 60 68
REMARK Flexibility Score: inf
ROOT
ATOM      1  C   UNL     1       6.665  -2.546  -6.057  1.00  0.00     0.116 C 
ENDROOT
BRANCH   1   2
ATOM      2  N   UNL     1       7.006  -1.288  -5.432  1.00  0.00    -0.354 N 
ATOM      3  C   UNL     1       6.570  -0.743  -4.265  1.00  0.00     0.242 C 
ATOM      4  O   UNL     1       7.237   0.195  -3.812  1.00  0.00    -0.273 OA
ATOM      5  H   UNL     1       7.656  -0.740  -5.929  1.00  0.00     0.163 HD
BRANCH   3   6
ATOM      6  C   UNL     1       5.173  -1.043  -3.683  1.00  0.00     0.168 C 
ATOM      7  C   UNL     1       4.263  -0.047  -4.303  1.00  0.00     0.041 C 
BRANCH   6   8
ATOM      8  N   UNL     1       4.636  -2.393  -3.728  1.00  0.00    -0.343 N 
ATOM      9  C   UNL     1       3.395  -2.932  -3.786  1.00  0.00     0.243 C 
ATOM     10  O   UNL     1       3.357  -4.061  -3.259  1.00  0.00    -0.273 OA
ATOM     11  H   UNL     1       5.342  -3.079  -3.712  1.00  0.00     0.164 HD
BRANCH   9  12
ATOM     12  C   UNL     1       2.078  -2.414  -4.539  1.00  0.00     0.176 C 
BRANCH  12  13
ATOM     13  C   UNL     1       1.871  -2.914  -6.018  1.00  0.00     0.018 C 
ATOM     14  C   UNL     1       2.800  -4.075  -6.397  1.00  0.00     0.010 C 
BRANCH  13  15
ATOM     15  C   UNL     1       1.847  -1.770  -7.025  1.00  0.00     0.002 C 
ATOM     16  C   UNL     1       1.690  -2.153  -8.487  1.00  0.00     0.004 C 
ENDBRANCH  13  15
ENDBRANCH  12  13
BRANCH  12  17
ATOM     17  N   UNL     1       1.082  -1.382  -4.090  1.00  0.00    -0.326 N 
ATOM     18  C   UNL     1       0.691  -0.114  -3.970  1.00  0.00     0.324 C 
ATOM     19  H   UNL     1       0.354  -1.903  -3.680  1.00  0.00     0.166 HD
ATOM     20  O   UNL     1      -0.354  -0.015  -3.302  1.00  0.00    -0.248 OA
BRANCH  18  21
ATOM     21  N   UNL     1       1.355   1.017  -4.271  1.00  0.00    -0.262 N 
ATOM     22  C   UNL     1       1.365   2.108  -3.273  1.00  0.00     0.152 C 
ATOM     23  C   UNL     1       2.000   1.450  -5.404  1.00  0.00     0.214 A 
ATOM     24  C   UNL     1       2.230   3.222  -3.867  1.00  0.00     0.148 C 
ATOM     25  N   UNL     1       2.538   2.691  -5.177  1.00  0.00    -0.308 N 
ATOM     26  N   UNL     1       2.323   1.036  -6.598  1.00  0.00    -0.212 NA
ATOM     27  C   UNL     1       3.488   2.960  -6.101  1.00  0.00     0.070 A 
ATOM     28  C   UNL     1       3.309   1.925  -7.022  1.00  0.00     0.091 A 
ATOM     29  C   UNL     1       4.489   3.929  -6.208  1.00  0.00     0.028 A 
ATOM     30  C   UNL     1       4.158   1.866  -8.140  1.00  0.00     0.031 A 
ATOM     31  C   UNL     1       5.355   3.817  -7.302  1.00  0.00     0.002 A 
ATOM     32  C   UNL     1       5.191   2.809  -8.256  1.00  0.00     0.002 A 
ENDBRANCH  18  21
ENDBRANCH  12  17
ENDBRANCH   9  12
ENDBRANCH   6   8
ENDBRANCH   3   6
ENDBRANCH   1   2
BRANCH   1  33
ATOM     33  C   UNL     1       5.707  -2.448  -7.237  1.00  0.00     0.023 C 
BRANCH  33  34
ATOM     34  C   UNL     1       6.132  -1.643  -8.457  1.00  0.00     0.023 C 
BRANCH  34  35
ATOM     35  C   UNL     1       7.623  -1.567  -8.714  1.00  0.00     0.116 C 
BRANCH  35  36
ATOM     36  N   UNL     1       8.189  -2.804  -9.238  1.00  0.00    -0.352 N 
ATOM     37  C   UNL     1       8.679  -3.033 -10.510  1.00  0.00     0.251 C 
ATOM     38  H   UNL     1       8.226  -3.564  -8.614  1.00  0.00     0.163 HD
ATOM     39  O   UNL     1       9.107  -4.112 -10.865  1.00  0.00    -0.269 OA
BRANCH  37  40
ATOM     40  C   UNL     1       8.621  -1.890 -11.435  1.00  0.00     0.039 A 
ATOM     41  C   UNL     1       9.386  -0.759 -11.133  1.00  0.00     0.014 A 
ATOM     42  C   UNL     1       7.599  -1.862 -12.385  1.00  0.00     0.014 A 
ATOM     43  C   UNL     1       8.994   0.461 -11.658  1.00  0.00     0.010 A 
ATOM     44  C   UNL     1       7.253  -0.645 -12.958  1.00  0.00     0.010 A 
ATOM     45  C   UNL     1       7.904   0.523 -12.537  1.00  0.00    -0.014 A 
BRANCH  45  46
ATOM     46  C   UNL     1       7.586   1.852 -13.065  1.00  0.00     0.031 A 
ATOM     47  C   UNL     1       8.158   2.048 -14.425  1.00  0.00     0.074 A 
ATOM     48  C   UNL     1       6.479   2.550 -12.746  1.00  0.00     0.049 A 
ATOM     49  N   UNL     1       7.549   1.632 -15.496  1.00  0.00    -0.248 NA
ATOM     50  C   UNL     1       9.562   2.397 -14.626  1.00  0.00     0.031 C 
ATOM     51  C   UNL     1       5.173   1.968 -12.422  1.00  0.00     0.029 A 
ATOM     52  N   UNL     1       6.232   3.896 -12.884  1.00  0.00    -0.354 N 
ATOM     53  C   UNL     1       8.505   1.551 -16.486  1.00  0.00     0.074 A 
ATOM     54  C   UNL     1       9.731   2.065 -15.914  1.00  0.00     0.031 C 
ATOM     55  C   UNL     1       4.231   2.919 -12.587  1.00  0.00     0.029 A 
ATOM     56  C   UNL     1       4.877   4.199 -12.856  1.00  0.00     0.049 A 
ATOM     57  H   UNL     1       6.940   4.572 -12.990  1.00  0.00     0.167 HD
ATOM     58  C   UNL     1       8.255   1.018 -17.707  1.00  0.00     0.037 A 
ATOM     59  C   UNL     1       4.312   5.242 -13.521  1.00  0.00     0.037 A 
ATOM     60  C   UNL     1       6.916   0.574 -17.940  1.00  0.00     0.049 A 
ATOM     61  C   UNL     1       4.372   4.747 -14.944  1.00  0.00     0.074 A 
ATOM     62  C   UNL     1       6.231  -0.620 -17.881  1.00  0.00     0.029 A 
ATOM     63  N   UNL     1       5.963   1.523 -18.228  1.00  0.00    -0.354 N 
ATOM     64  N   UNL     1       3.527   3.917 -15.497  1.00  0.00    -0.248 NA
ATOM     65  C   UNL     1       5.628   4.913 -15.683  1.00  0.00     0.031 C 
ATOM     66  C   UNL     1       4.856  -0.268 -17.712  1.00  0.00     0.029 A 
ATOM     67  C   UNL     1       4.799   1.122 -17.622  1.00  0.00     0.049 A 
ATOM     68  H   UNL     1       6.092   2.336 -18.767  1.00  0.00     0.167 HD
ATOM     69  C   UNL     1       4.259   3.250 -16.483  1.00  0.00     0.074 A 
ATOM     70  C   UNL     1       5.520   3.950 -16.588  1.00  0.00     0.031 C 
ATOM     71  C   UNL     1       3.883   2.046 -16.998  1.00  0.00     0.037 A 
BRANCH  58  72
ATOM     72  C   UNL     1       9.236   0.987 -18.799  1.00  0.00     0.064 A 
ATOM     73  C   UNL     1       9.143   1.964 -19.797  1.00  0.00     0.173 A 
ATOM     74  C   UNL     1      10.140  -0.065 -18.971  1.00  0.00     0.173 A 
ATOM     75  F   UNL     1       8.278   2.982 -19.657  1.00  0.00    -0.203 F 
ATOM     76  C   UNL     1       9.906   1.877 -20.953  1.00  0.00     0.198 A 
ATOM     77  C   UNL     1      10.908  -0.148 -20.130  1.00  0.00     0.198 A 
ATOM     78  F   UNL     1      10.253  -1.022 -18.039  1.00  0.00    -0.203 F 
ATOM     79  F   UNL     1       9.774   2.806 -21.909  1.00  0.00    -0.200 F 
ATOM     80  C   UNL     1      10.781   0.815 -21.124  1.00  0.00     0.200 A 
ATOM     81  F   UNL     1      11.755  -1.173 -20.300  1.00  0.00    -0.200 F 
ATOM     82  F   UNL     1      11.497   0.715 -22.253  1.00  0.00    -0.200 F 
ENDBRANCH  58  72
BRANCH  59  83
ATOM     83  C   UNL     1       4.776   6.585 -13.053  1.00  0.00     0.064 A 
ATOM     84  C   UNL     1       4.653   6.876 -11.674  1.00  0.00     0.173 A 
ATOM     85  C   UNL     1       5.347   7.591 -13.842  1.00  0.00     0.173 A 
ATOM     86  F   UNL     1       4.023   6.016 -10.858  1.00  0.00    -0.203 F 
ATOM     87  C   UNL     1       5.183   8.036 -11.108  1.00  0.00     0.198 A 
ATOM     88  C   UNL     1       5.901   8.743 -13.272  1.00  0.00     0.198 A 
ATOM     89  F   UNL     1       5.401   7.484 -15.175  1.00  0.00    -0.203 F 
ATOM     90  F   UNL     1       5.081   8.245  -9.789  1.00  0.00    -0.200 F 
ATOM     91  C   UNL     1       5.835   8.956 -11.906  1.00  0.00     0.200 A 
ATOM     92  F   UNL     1       6.523   9.635 -14.055  1.00  0.00    -0.200 F 
ATOM     93  F   UNL     1       6.397  10.044 -11.363  1.00  0.00    -0.200 F 
ENDBRANCH  59  83
BRANCH  71  94
ATOM     94  C   UNL     1       2.519   1.597 -16.614  1.00  0.00     0.064 A 
ATOM     95  C   UNL     1       1.397   2.180 -17.212  1.00  0.00     0.173 A 
ATOM     96  C   UNL     1       2.318   0.579 -15.670  1.00  0.00     0.173 A 
ATOM     97  F   UNL     1       1.545   3.155 -18.123  1.00  0.00    -0.203 F 
ATOM     98  C   UNL     1       0.115   1.746 -16.893  1.00  0.00     0.198 A 
ATOM     99  C   UNL     1       1.036   0.132 -15.371  1.00  0.00     0.198 A 
ATOM    100  F   UNL     1       3.359   0.001 -15.050  1.00  0.00    -0.203 F 
ATOM    101  F   UNL     1      -0.949   2.311 -17.481  1.00  0.00    -0.200 F 
ATOM    102  C   UNL     1      -0.064   0.714 -15.983  1.00  0.00     0.200 A 
ATOM    103  F   UNL     1       0.865  -0.876 -14.503  1.00  0.00    -0.200 F 
ATOM    104  F   UNL     1      -1.298   0.272 -15.703  1.00  0.00    -0.200 F 
ENDBRANCH  71  94
ENDBRANCH  45  46
ENDBRANCH  37  40
ENDBRANCH  35  36
ENDBRANCH  34  35
ENDBRANCH  33  34
ENDBRANCH   1  33
TORSDOF 17
