REMARK SMILES CC(C)Nc1ncc(C(=O)N2CCC[C@H](c3cccc(C(=O)NCCCCNC(=O)c4ccc(-c5c6nc(c(-c7c(F)c(F)c(F)c(F)c7F)c7ccc([nH]7)c(-c7c(F)c(F)c(F)c(F)c7F)c7nc(c(-c8c(F)c(F)c(F)c(F)c8F)c8ccc5[nH]8)C=C7)C=C6)cc4)c3)C2)cn1
REMARK SMILES IDX 24 1 23 2 21 3 22 4 20 6 16 7 17 8 94 9 18 10 19 11 15 12
REMARK SMILES IDX 11 13 12 14 95 15 13 16 14 17 9 18 10 19 8 20 5 21 6 22
REMARK SMILES IDX 97 23 7 24 96 25 4 26 2 28 1 29 3 30 25 31 26 32 27 33 28 34
REMARK SMILES IDX 29 35 30 37 31 38 32 39 93 40 33 41 92 42 34 43 35 44 36 45
REMARK SMILES IDX 86 46 37 47 91 48 85 49 87 50 38 51 90 52 84 53 83 54 39 56
REMARK SMILES IDX 71 57 51 58 70 59 52 60 55 61 69 62 88 63 53 64 54 65 68 67
REMARK SMILES IDX 89 68 56 69 40 70 41 71 49 72 42 73 43 74 47 75 50 76 44 77
REMARK SMILES IDX 45 78 48 79 46 80 72 81 73 82 81 83 74 84 75 85 79 86 82 87
REMARK SMILES IDX 76 88 77 89 80 90 78 91 57 92 58 93 66 94 59 95 60 96 64 97
REMARK SMILES IDX 67 98 61 99 62 100 65 101 63 102
REMARK H PARENT 23 5 4 27 28 36 87 55 55 66
REMARK Flexibility Score: inf
ROOT
ATOM      1  C   UNL     1      -6.031  -6.665   9.477  1.00  0.00     0.116 C 
ENDROOT
BRANCH   1   2
ATOM      2  N   UNL     1      -5.084  -6.403  10.551  1.00  0.00    -0.352 N 
ATOM      3  C   UNL     1      -4.037  -5.507  10.659  1.00  0.00     0.251 C 
ATOM      4  O   UNL     1      -3.378  -5.502  11.698  1.00  0.00    -0.269 OA
ATOM      5  H   UNL     1      -5.213  -6.967  11.348  1.00  0.00     0.163 HD
BRANCH   3   6
ATOM      6  C   UNL     1      -3.641  -4.610   9.537  1.00  0.00     0.040 A 
ATOM      7  C   UNL     1      -4.178  -3.588   7.377  1.00  0.00    -0.042 A 
ATOM      8  C   UNL     1      -2.815  -3.307   7.212  1.00  0.00     0.004 A 
ATOM      9  C   UNL     1      -4.567  -4.127   8.614  1.00  0.00     0.018 A 
ATOM     10  C   UNL     1      -1.890  -3.603   8.222  1.00  0.00     0.001 A 
ATOM     11  C   UNL     1      -2.295  -4.290   9.366  1.00  0.00     0.014 A 
BRANCH   7  12
ATOM     12  C   UNL     1      -5.195  -3.526   6.228  1.00  0.00     0.039 C 
ATOM     13  N   UNL     1      -5.069  -1.164   5.484  1.00  0.00    -0.338 N 
ATOM     14  C   UNL     1      -6.370  -0.830   6.053  1.00  0.00     0.120 C 
ATOM     15  C   UNL     1      -4.865  -2.554   5.070  1.00  0.00     0.128 C 
ATOM     16  C   UNL     1      -6.794  -1.798   7.148  1.00  0.00     0.022 C 
ATOM     17  C   UNL     1      -6.652  -3.239   6.664  1.00  0.00     0.012 C 
BRANCH  13  18
ATOM     18  C   UNL     1      -4.058  -0.216   5.523  1.00  0.00     0.257 C 
ATOM     19  O   UNL     1      -3.950   0.608   6.426  1.00  0.00    -0.269 OA
BRANCH  18  20
ATOM     20  C   UNL     1      -3.161  -0.098   4.362  1.00  0.00     0.076 A 
ATOM     21  C   UNL     1      -1.631   0.472   2.183  1.00  0.00     0.222 A 
ATOM     22  N   UNL     1      -2.814  -0.126   1.984  1.00  0.00    -0.221 NA
ATOM     23  N   UNL     1      -1.148   0.787   3.394  1.00  0.00    -0.221 NA
ATOM     24  C   UNL     1      -3.554  -0.398   3.079  1.00  0.00     0.130 A 
ATOM     25  C   UNL     1      -1.939   0.522   4.461  1.00  0.00     0.130 A 
BRANCH  21  26
ATOM     26  N   UNL     1      -0.935   0.773   1.048  1.00  0.00    -0.352 N 
ATOM     27  H   UNL     1      -1.429   0.896   0.206  1.00  0.00     0.163 HD
BRANCH  26  28
ATOM     28  C   UNL     1       0.502   0.915   1.040  1.00  0.00     0.076 C 
ATOM     29  C   UNL     1       1.062  -0.063   0.008  1.00  0.00     0.030 C 
ATOM     30  C   UNL     1       0.880   2.349   0.687  1.00  0.00     0.030 C 
ENDBRANCH  26  28
ENDBRANCH  21  26
ENDBRANCH  18  20
ENDBRANCH  13  18
ENDBRANCH   7  12
ENDBRANCH   3   6
ENDBRANCH   1   2
BRANCH   1  31
ATOM     31  C   UNL     1      -6.148  -8.125   9.065  1.00  0.00     0.023 C 
BRANCH  31  32
ATOM     32  C   UNL     1      -6.723  -9.072  10.105  1.00  0.00     0.023 C 
BRANCH  32  33
ATOM     33  C   UNL     1      -8.033  -8.636  10.745  1.00  0.00     0.116 C 
BRANCH  33  34
ATOM     34  N   UNL     1      -9.098  -8.367   9.791  1.00  0.00    -0.352 N 
ATOM     35  C   UNL     1     -10.405  -8.800   9.788  1.00  0.00     0.251 C 
ATOM     36  H   UNL     1      -8.846  -7.789   9.035  1.00  0.00     0.163 HD
ATOM     37  O   UNL     1     -11.138  -8.533   8.847  1.00  0.00    -0.269 OA
BRANCH  35  38
ATOM     38  C   UNL     1     -10.911  -9.622  10.910  1.00  0.00     0.039 A 
ATOM     39  C   UNL     1     -11.692 -10.744  10.623  1.00  0.00     0.014 A 
ATOM     40  C   UNL     1     -10.606  -9.303  12.235  1.00  0.00     0.014 A 
ATOM     41  C   UNL     1     -12.112 -11.578  11.662  1.00  0.00     0.010 A 
ATOM     42  C   UNL     1     -10.935 -10.189  13.255  1.00  0.00     0.010 A 
ATOM     43  C   UNL     1     -11.709 -11.325  12.984  1.00  0.00    -0.014 A 
BRANCH  43  44
ATOM     44  C   UNL     1     -12.126 -12.219  14.094  1.00  0.00     0.031 A 
ATOM     45  C   UNL     1     -12.999 -11.692  15.200  1.00  0.00     0.074 A 
ATOM     46  C   UNL     1     -11.698 -13.496  14.122  1.00  0.00     0.049 A 
ATOM     47  N   UNL     1     -13.486 -12.317  16.243  1.00  0.00    -0.248 NA
ATOM     48  C   UNL     1     -13.346 -10.263  15.145  1.00  0.00     0.031 C 
ATOM     49  C   UNL     1     -10.804 -14.112  13.141  1.00  0.00     0.029 A 
ATOM     50  N   UNL     1     -11.968 -14.510  15.007  1.00  0.00    -0.354 N 
ATOM     51  C   UNL     1     -14.190 -11.359  16.961  1.00  0.00     0.074 A 
ATOM     52  C   UNL     1     -13.996 -10.096  16.285  1.00  0.00     0.031 C 
ATOM     53  C   UNL     1     -10.640 -15.409  13.448  1.00  0.00     0.029 A 
ATOM     54  C   UNL     1     -11.391 -15.708  14.663  1.00  0.00     0.049 A 
ATOM     55  H   UNL     1     -12.522 -14.390  15.812  1.00  0.00     0.167 HD
ATOM     56  C   UNL     1     -14.962 -11.521  18.063  1.00  0.00     0.037 A 
ATOM     57  C   UNL     1     -11.476 -16.915  15.255  1.00  0.00     0.037 A 
ATOM     58  C   UNL     1     -15.159 -12.780  18.730  1.00  0.00     0.049 A 
ATOM     59  C   UNL     1     -12.327 -17.068  16.487  1.00  0.00     0.074 A 
ATOM     60  C   UNL     1     -15.943 -13.063  19.835  1.00  0.00     0.029 A 
ATOM     61  N   UNL     1     -14.559 -13.973  18.350  1.00  0.00    -0.354 N 
ATOM     62  N   UNL     1     -13.048 -16.172  17.116  1.00  0.00    -0.248 NA
ATOM     63  C   UNL     1     -12.387 -18.410  17.080  1.00  0.00     0.031 C 
ATOM     64  C   UNL     1     -15.779 -14.416  20.153  1.00  0.00     0.029 A 
ATOM     65  C   UNL     1     -14.944 -14.992  19.209  1.00  0.00     0.049 A 
ATOM     66  H   UNL     1     -13.950 -14.081  17.584  1.00  0.00     0.167 HD
ATOM     67  C   UNL     1     -13.681 -16.848  18.151  1.00  0.00     0.074 A 
ATOM     68  C   UNL     1     -13.267 -18.233  18.055  1.00  0.00     0.031 C 
ATOM     69  C   UNL     1     -14.533 -16.368  19.092  1.00  0.00     0.037 A 
BRANCH  56  70
ATOM     70  C   UNL     1     -15.649 -10.297  18.604  1.00  0.00     0.064 A 
ATOM     71  C   UNL     1     -16.660  -9.641  17.882  1.00  0.00     0.173 A 
ATOM     72  C   UNL     1     -15.290  -9.766  19.851  1.00  0.00     0.173 A 
ATOM     73  F   UNL     1     -17.034 -10.097  16.677  1.00  0.00    -0.203 F 
ATOM     74  C   UNL     1     -17.250  -8.476  18.366  1.00  0.00     0.198 A 
ATOM     75  C   UNL     1     -15.909  -8.622  20.350  1.00  0.00     0.198 A 
ATOM     76  F   UNL     1     -14.334 -10.353  20.588  1.00  0.00    -0.203 F 
ATOM     77  F   UNL     1     -18.159  -7.829  17.624  1.00  0.00    -0.200 F 
ATOM     78  C   UNL     1     -16.878  -7.971  19.602  1.00  0.00     0.200 A 
ATOM     79  F   UNL     1     -15.559  -8.142  21.551  1.00  0.00    -0.200 F 
ATOM     80  F   UNL     1     -17.444  -6.848  20.066  1.00  0.00    -0.200 F 
ENDBRANCH  56  70
BRANCH  57  81
ATOM     81  C   UNL     1     -10.791 -18.089  14.653  1.00  0.00     0.064 A 
ATOM     82  C   UNL     1     -11.532 -19.129  14.072  1.00  0.00     0.173 A 
ATOM     83  C   UNL     1      -9.394 -18.205  14.650  1.00  0.00     0.173 A 
ATOM     84  F   UNL     1     -12.872 -19.073  14.066  1.00  0.00    -0.203 F 
ATOM     85  C   UNL     1     -10.904 -20.250  13.534  1.00  0.00     0.198 A 
ATOM     86  C   UNL     1      -8.765 -19.313  14.085  1.00  0.00     0.198 A 
ATOM     87  F   UNL     1      -8.639 -17.236  15.187  1.00  0.00    -0.203 F 
ATOM     88  F   UNL     1     -11.639 -21.251  13.030  1.00  0.00    -0.200 F 
ATOM     89  C   UNL     1      -9.520 -20.339  13.537  1.00  0.00     0.200 A 
ATOM     90  F   UNL     1      -7.427 -19.388  14.076  1.00  0.00    -0.200 F 
ATOM     91  F   UNL     1      -8.915 -21.415  13.017  1.00  0.00    -0.200 F 
ENDBRANCH  57  81
BRANCH  69  92
ATOM     92  C   UNL     1     -15.121 -17.362  20.054  1.00  0.00     0.064 A 
ATOM     93  C   UNL     1     -14.345 -18.003  21.031  1.00  0.00     0.173 A 
ATOM     94  C   UNL     1     -16.490 -17.670  19.999  1.00  0.00     0.173 A 
ATOM     95  F   UNL     1     -13.029 -17.755  21.118  1.00  0.00    -0.203 F 
ATOM     96  C   UNL     1     -14.907 -18.948  21.885  1.00  0.00     0.198 A 
ATOM     97  C   UNL     1     -17.056 -18.587  20.880  1.00  0.00     0.198 A 
ATOM     98  F   UNL     1     -17.281 -17.078  19.092  1.00  0.00    -0.203 F 
ATOM     99  F   UNL     1     -14.131 -19.600  22.763  1.00  0.00    -0.200 F 
ATOM    100  C   UNL     1     -16.262 -19.235  21.813  1.00  0.00     0.200 A 
ATOM    101  F   UNL     1     -18.369 -18.849  20.820  1.00  0.00    -0.200 F 
ATOM    102  F   UNL     1     -16.800 -20.146  22.636  1.00  0.00    -0.200 F 
ENDBRANCH  69  92
ENDBRANCH  43  44
ENDBRANCH  35  38
ENDBRANCH  33  34
ENDBRANCH  32  33
ENDBRANCH  31  32
ENDBRANCH   1  31
TORSDOF 16
