REMARK SMILES CCCc1cc(OC(F)(F)F)cc2c1O[C@@H](C(F)(F)F)C(C(=O)NCCCCNC(=O)c1ccc(-c3c4nc(c(-c5c(F)c(F)c(F)c(F)c5F)c5ccc([nH]5)c(-c5c(F)c(F)c(F)c(F)c5F)c5nc(c(-c6c(F)c(F)c(F)c(F)c6F)c6ccc3[nH]6)C=C5)C=C4)cc1)=C2
REMARK SMILES IDX 26 1 25 2 24 3 22 4 23 5 21 7 4 8 5 9 14 10 6 11 13 12 15 13
REMARK SMILES IDX 12 14 95 15 16 16 3 17 2 18 1 19 7 20 8 21 9 22 10 23 11 24
REMARK SMILES IDX 17 25 18 26 19 27 20 28 27 29 28 30 29 31 30 32 31 34 32 35
REMARK SMILES IDX 33 36 94 37 34 38 93 39 35 40 36 41 37 42 87 43 38 44 92 45
REMARK SMILES IDX 86 46 88 47 39 48 91 49 85 50 84 51 40 53 72 54 52 55 71 56
REMARK SMILES IDX 53 57 56 58 70 59 89 60 54 61 55 62 69 64 90 65 57 66 41 67
REMARK SMILES IDX 42 68 50 69 43 70 44 71 48 72 51 73 45 74 46 75 49 76 47 77
REMARK SMILES IDX 73 78 74 79 82 80 75 81 76 82 80 83 83 84 77 85 78 86 81 87
REMARK SMILES IDX 79 88 58 89 59 90 67 91 60 92 61 93 65 94 68 95 62 96 63 97
REMARK SMILES IDX 66 98 64 99
REMARK H PARENT 24 6 29 33 88 52 56 63
REMARK Flexibility Score: inf
ROOT
ATOM      1  C   UNL     1      -1.951  -4.114   8.239  1.00  0.00     0.023 C 
ENDROOT
BRANCH   1   2
ATOM      2  C   UNL     1      -0.683  -4.785   7.693  1.00  0.00     0.116 C 
BRANCH   2   3
ATOM      3  N   UNL     1      -1.046  -5.879   6.808  1.00  0.00    -0.352 N 
ATOM      4  C   UNL     1      -1.304  -5.936   5.472  1.00  0.00     0.251 C 
ATOM      5  O   UNL     1      -1.775  -6.979   5.027  1.00  0.00    -0.270 OA
ATOM      6  H   UNL     1      -1.119  -6.748   7.263  1.00  0.00     0.163 HD
BRANCH   4   7
ATOM      7  C   UNL     1      -0.964  -4.829   4.537  1.00  0.00     0.067 C 
ATOM      8  C   UNL     1       0.664  -1.891   1.994  1.00  0.00    -0.002 A 
ATOM      9  C   UNL     1       0.800  -0.590   2.517  1.00  0.00     0.054 A 
ATOM     10  C   UNL     1       0.038  -2.870   2.785  1.00  0.00     0.131 A 
ATOM     11  C   UNL     1       0.228  -0.229   3.734  1.00  0.00     0.130 A 
ATOM     12  C   UNL     1      -0.507  -2.521   4.019  1.00  0.00     0.021 A 
ATOM     13  O   UNL     1       0.064  -4.163   2.347  1.00  0.00    -0.475 OA
ATOM     14  C   UNL     1      -0.428  -1.202   4.480  1.00  0.00     0.058 A 
ATOM     15  C   UNL     1      -1.041  -3.542   4.898  1.00  0.00     0.025 C 
ATOM     16  C   UNL     1      -0.651  -5.197   3.090  1.00  0.00     0.314 C 
BRANCH   8  17
ATOM     17  C   UNL     1       1.239  -2.203   0.627  1.00  0.00     0.039 C 
BRANCH  17  18
ATOM     18  C   UNL     1       0.596  -1.429  -0.538  1.00  0.00     0.001 C 
ATOM     19  C   UNL     1       1.014   0.032  -0.653  1.00  0.00     0.004 C 
ENDBRANCH  17  18
ENDBRANCH   8  17
BRANCH  11  20
ATOM     20  O   UNL     1       0.276   1.005   4.313  1.00  0.00    -0.406 OA
BRANCH  20  21
ATOM     21  C   UNL     1       0.589   2.102   3.470  1.00  0.00     0.573 C 
ATOM     22  F   UNL     1       1.883   2.064   3.086  1.00  0.00    -0.132 F 
ATOM     23  F   UNL     1      -0.206   2.124   2.378  1.00  0.00    -0.132 F 
ATOM     24  F   UNL     1       0.389   3.247   4.158  1.00  0.00    -0.132 F 
ENDBRANCH  20  21
ENDBRANCH  11  20
BRANCH  16  25
ATOM     25  C   UNL     1       0.090  -6.533   2.847  1.00  0.00     0.429 C 
ATOM     26  F   UNL     1      -0.738  -7.601   2.846  1.00  0.00    -0.167 F 
ATOM     27  F   UNL     1       0.683  -6.540   1.622  1.00  0.00    -0.167 F 
ATOM     28  F   UNL     1       1.069  -6.753   3.755  1.00  0.00    -0.167 F 
ENDBRANCH  16  25
ENDBRANCH   4   7
ENDBRANCH   2   3
ENDBRANCH   1   2
BRANCH   1  29
ATOM     29  C   UNL     1      -2.623  -4.886   9.376  1.00  0.00     0.023 C 
BRANCH  29  30
ATOM     30  C   UNL     1      -1.770  -5.037  10.628  1.00  0.00     0.116 C 
BRANCH  30  31
ATOM     31  N   UNL     1      -1.326  -3.763  11.170  1.00  0.00    -0.352 N 
ATOM     32  C   UNL     1      -1.130  -3.410  12.480  1.00  0.00     0.251 C 
ATOM     33  H   UNL     1      -1.140  -3.060  10.507  1.00  0.00     0.163 HD
ATOM     34  O   UNL     1      -0.878  -2.245  12.774  1.00  0.00    -0.269 OA
BRANCH  32  35
ATOM     35  C   UNL     1      -1.257  -4.431  13.538  1.00  0.00     0.039 A 
ATOM     36  C   UNL     1      -1.972  -4.111  14.694  1.00  0.00     0.014 A 
ATOM     37  C   UNL     1      -0.682  -5.696  13.391  1.00  0.00     0.014 A 
ATOM     38  C   UNL     1      -2.142  -5.076  15.685  1.00  0.00     0.010 A 
ATOM     39  C   UNL     1      -0.928  -6.683  14.339  1.00  0.00     0.010 A 
ATOM     40  C   UNL     1      -1.644  -6.378  15.505  1.00  0.00    -0.014 A 
BRANCH  40  41
ATOM     41  C   UNL     1      -1.846  -7.416  16.545  1.00  0.00     0.031 A 
ATOM     42  C   UNL     1      -0.664  -8.004  17.265  1.00  0.00     0.074 A 
ATOM     43  C   UNL     1      -3.092  -7.845  16.820  1.00  0.00     0.049 A 
ATOM     44  N   UNL     1      -0.639  -8.910  18.210  1.00  0.00    -0.248 NA
ATOM     45  C   UNL     1       0.667  -7.535  16.852  1.00  0.00     0.031 C 
ATOM     46  C   UNL     1      -4.310  -7.391  16.146  1.00  0.00     0.029 A 
ATOM     47  N   UNL     1      -3.542  -8.756  17.741  1.00  0.00    -0.354 N 
ATOM     48  C   UNL     1       0.704  -9.119  18.497  1.00  0.00     0.074 A 
ATOM     49  C   UNL     1       1.465  -8.301  17.580  1.00  0.00     0.031 C 
ATOM     50  C   UNL     1      -5.371  -7.996  16.702  1.00  0.00     0.029 A 
ATOM     51  C   UNL     1      -4.907  -8.905  17.745  1.00  0.00     0.049 A 
ATOM     52  H   UNL     1      -2.943  -9.255  18.342  1.00  0.00     0.167 HD
ATOM     53  C   UNL     1       1.252  -9.899  19.459  1.00  0.00     0.037 A 
ATOM     54  C   UNL     1      -5.694  -9.686  18.509  1.00  0.00     0.037 A 
ATOM     55  C   UNL     1       0.487 -10.699  20.380  1.00  0.00     0.049 A 
ATOM     56  C   UNL     1      -5.059 -10.546  19.568  1.00  0.00     0.074 A 
ATOM     57  C   UNL     1       0.941 -11.480  21.428  1.00  0.00     0.029 A 
ATOM     58  N   UNL     1      -0.895 -10.823  20.358  1.00  0.00    -0.354 N 
ATOM     59  N   UNL     1      -3.793 -10.672  19.887  1.00  0.00    -0.248 NA
ATOM     60  C   UNL     1      -5.966 -11.364  20.384  1.00  0.00     0.031 C 
ATOM     61  C   UNL     1      -0.162 -12.123  22.003  1.00  0.00     0.029 A 
ATOM     62  C   UNL     1      -1.309 -11.691  21.356  1.00  0.00     0.049 A 
ATOM     63  H   UNL     1      -1.493 -10.363  19.726  1.00  0.00     0.167 HD
ATOM     64  C   UNL     1      -3.754 -11.560  20.953  1.00  0.00     0.074 A 
ATOM     65  C   UNL     1      -5.127 -11.919  21.245  1.00  0.00     0.031 C 
ATOM     66  C   UNL     1      -2.680 -12.040  21.630  1.00  0.00     0.037 A 
BRANCH  53  67
ATOM     67  C   UNL     1       2.751  -9.922  19.564  1.00  0.00     0.064 A 
ATOM     68  C   UNL     1       3.479  -8.797  19.982  1.00  0.00     0.173 A 
ATOM     69  C   UNL     1       3.469 -11.092  19.271  1.00  0.00     0.173 A 
ATOM     70  F   UNL     1       2.845  -7.648  20.263  1.00  0.00    -0.203 F 
ATOM     71  C   UNL     1       4.869  -8.831  20.069  1.00  0.00     0.198 A 
ATOM     72  C   UNL     1       4.855 -11.133  19.393  1.00  0.00     0.198 A 
ATOM     73  F   UNL     1       2.825 -12.198  18.870  1.00  0.00    -0.203 F 
ATOM     74  F   UNL     1       5.544  -7.727  20.415  1.00  0.00    -0.200 F 
ATOM     75  C   UNL     1       5.555 -10.001  19.783  1.00  0.00     0.200 A 
ATOM     76  F   UNL     1       5.516 -12.269  19.130  1.00  0.00    -0.200 F 
ATOM     77  F   UNL     1       6.891 -10.036  19.875  1.00  0.00    -0.200 F 
ENDBRANCH  53  67
BRANCH  54  78
ATOM     78  C   UNL     1      -7.169  -9.668  18.322  1.00  0.00     0.064 A 
ATOM     79  C   UNL     1      -8.017  -9.151  19.312  1.00  0.00     0.173 A 
ATOM     80  C   UNL     1      -7.763 -10.180  17.159  1.00  0.00     0.173 A 
ATOM     81  F   UNL     1      -7.499  -8.667  20.451  1.00  0.00    -0.203 F 
ATOM     82  C   UNL     1      -9.402  -9.173  19.159  1.00  0.00     0.198 A 
ATOM     83  C   UNL     1      -9.146 -10.170  16.992  1.00  0.00     0.198 A 
ATOM     84  F   UNL     1      -6.998 -10.679  16.177  1.00  0.00    -0.203 F 
ATOM     85  F   UNL     1     -10.189  -8.723  20.145  1.00  0.00    -0.200 F 
ATOM     86  C   UNL     1      -9.965  -9.677  17.997  1.00  0.00     0.200 A 
ATOM     87  F   UNL     1      -9.685 -10.642  15.860  1.00  0.00    -0.200 F 
ATOM     88  F   UNL     1     -11.296  -9.695  17.849  1.00  0.00    -0.200 F 
ENDBRANCH  54  78
BRANCH  66  89
ATOM     89  C   UNL     1      -2.955 -12.982  22.768  1.00  0.00     0.064 A 
ATOM     90  C   UNL     1      -3.458 -14.274  22.554  1.00  0.00     0.173 A 
ATOM     91  C   UNL     1      -2.700 -12.589  24.092  1.00  0.00     0.173 A 
ATOM     92  F   UNL     1      -3.730 -14.695  21.309  1.00  0.00    -0.203 F 
ATOM     93  C   UNL     1      -3.737 -15.121  23.623  1.00  0.00     0.198 A 
ATOM     94  C   UNL     1      -2.944 -13.453  25.156  1.00  0.00     0.198 A 
ATOM     95  F   UNL     1      -2.209 -11.369  24.354  1.00  0.00    -0.203 F 
ATOM     96  F   UNL     1      -4.283 -16.324  23.397  1.00  0.00    -0.200 F 
ATOM     97  C   UNL     1      -3.475 -14.712  24.922  1.00  0.00     0.200 A 
ATOM     98  F   UNL     1      -2.673 -13.063  26.409  1.00  0.00    -0.200 F 
ATOM     99  F   UNL     1      -3.745 -15.528  25.950  1.00  0.00    -0.200 F 
ENDBRANCH  66  89
ENDBRANCH  40  41
ENDBRANCH  32  35
ENDBRANCH  30  31
ENDBRANCH  29  30
ENDBRANCH   1  29
TORSDOF 16
