REMARK SMILES CCCCCn1c(SCC(=O)NCCCCNC(=O)c2ccc(-c3c4nc(c(-c5c(F)c(F)c(F)c(F)c5F)c5ccc([nH]5)c(-c5c(F)c(F)c(F)c(F)c5F)c5nc(c(-c6c(F)c(F)c(F)c(F)c6F)c6ccc3[nH]6)C=C5)C=C4)cc2)nc2ccccc2c1=O
REMARK SMILES IDX 10 1 11 2 12 3 9 5 8 6 7 7 6 8 90 9 83 10 89 11 91 12 84 13
REMARK SMILES IDX 88 14 85 15 87 16 86 17 5 18 4 19 3 20 2 21 1 22 13 23 14 24
REMARK SMILES IDX 15 25 16 26 17 27 18 28 19 30 20 31 21 32 82 33 22 34 81 35
REMARK SMILES IDX 23 36 24 37 25 38 75 39 26 40 80 41 74 42 76 43 27 44 79 45
REMARK SMILES IDX 73 46 72 47 28 49 60 50 40 51 59 52 41 53 44 54 58 55 77 56
REMARK SMILES IDX 42 57 43 58 57 60 78 61 45 62 29 63 30 64 38 65 31 66 32 67
REMARK SMILES IDX 36 68 39 69 33 70 34 71 37 72 35 73 61 74 62 75 70 76 63 77
REMARK SMILES IDX 64 78 68 79 71 80 65 81 66 82 69 83 67 84 46 85 47 86 55 87
REMARK SMILES IDX 48 88 49 89 53 90 56 91 50 92 51 93 54 94 52 95
REMARK H PARENT 12 4 17 29 76 48 44 59
REMARK Flexibility Score: inf
ROOT
ATOM      1  C   UNL     1      -3.107  -0.903   0.468  1.00  0.00     0.230 C 
ATOM      2  O   UNL     1      -2.796  -1.522   1.486  1.00  0.00    -0.274 OA
ATOM      3  N   UNL     1      -4.412  -0.556   0.289  1.00  0.00    -0.355 N 
ATOM      4  H   UNL     1      -5.006  -0.707   1.060  1.00  0.00     0.163 HD
ENDROOT
BRANCH   1   5
ATOM      5  C   UNL     1      -2.078  -0.452  -0.536  1.00  0.00     0.178 C 
BRANCH   5   6
ATOM      6  S   UNL     1      -1.925  -1.471  -1.992  1.00  0.00    -0.078 SA
BRANCH   6   7
ATOM      7  C   UNL     1      -1.768  -3.179  -1.649  1.00  0.00     0.171 A 
ATOM      8  N   UNL     1      -1.085  -3.752  -0.587  1.00  0.00    -0.287 N 
ATOM      9  C   UNL     1      -1.094  -5.149  -0.429  1.00  0.00     0.262 A 
ATOM     10  N   UNL     1      -2.288  -3.880  -2.610  1.00  0.00    -0.224 NA
ATOM     11  C   UNL     1      -1.568  -5.951  -1.564  1.00  0.00     0.066 A 
ATOM     12  O   UNL     1      -0.693  -5.739   0.573  1.00  0.00    -0.269 OA
ATOM     13  C   UNL     1      -2.118  -5.263  -2.633  1.00  0.00     0.079 A 
ATOM     14  C   UNL     1      -1.388  -7.340  -1.608  1.00  0.00     0.016 A 
ATOM     15  C   UNL     1      -2.460  -5.976  -3.786  1.00  0.00     0.029 A 
ATOM     16  C   UNL     1      -1.734  -8.043  -2.761  1.00  0.00     0.001 A 
ATOM     17  C   UNL     1      -2.262  -7.359  -3.855  1.00  0.00     0.002 A 
BRANCH   8  18
ATOM     18  C   UNL     1      -0.319  -3.059   0.445  1.00  0.00     0.128 C 
BRANCH  18  19
ATOM     19  C   UNL     1       1.202  -3.208   0.300  1.00  0.00     0.022 C 
BRANCH  19  20
ATOM     20  C   UNL     1       1.821  -2.615  -0.971  1.00  0.00     0.002 C 
BRANCH  20  21
ATOM     21  C   UNL     1       1.668  -1.109  -1.199  1.00  0.00    -0.003 C 
ATOM     22  C   UNL     1       1.937  -0.228   0.007  1.00  0.00     0.004 C 
ENDBRANCH  20  21
ENDBRANCH  19  20
ENDBRANCH  18  19
ENDBRANCH   8  18
ENDBRANCH   6   7
ENDBRANCH   5   6
ENDBRANCH   1   5
BRANCH   3  23
ATOM     23  C   UNL     1      -5.036   0.006  -0.892  1.00  0.00     0.116 C 
BRANCH  23  24
ATOM     24  C   UNL     1      -5.754  -1.074  -1.697  1.00  0.00     0.023 C 
BRANCH  24  25
ATOM     25  C   UNL     1      -6.882  -1.780  -0.943  1.00  0.00     0.023 C 
BRANCH  25  26
ATOM     26  C   UNL     1      -7.870  -0.856  -0.244  1.00  0.00     0.116 C 
BRANCH  26  27
ATOM     27  N   UNL     1      -8.458   0.150  -1.117  1.00  0.00    -0.352 N 
ATOM     28  C   UNL     1      -9.694   0.744  -1.009  1.00  0.00     0.251 C 
ATOM     29  H   UNL     1      -7.904   0.440  -1.877  1.00  0.00     0.163 HD
ATOM     30  O   UNL     1     -10.087   1.543  -1.851  1.00  0.00    -0.269 OA
BRANCH  28  31
ATOM     31  C   UNL     1     -10.568   0.346   0.111  1.00  0.00     0.039 A 
ATOM     32  C   UNL     1     -10.081   0.356   1.419  1.00  0.00     0.014 A 
ATOM     33  C   UNL     1     -11.841  -0.154  -0.173  1.00  0.00     0.014 A 
ATOM     34  C   UNL     1     -10.790  -0.305   2.412  1.00  0.00     0.010 A 
ATOM     35  C   UNL     1     -12.589  -0.743   0.847  1.00  0.00     0.010 A 
ATOM     36  C   UNL     1     -12.041  -0.882   2.131  1.00  0.00    -0.014 A 
BRANCH  36  37
ATOM     37  C   UNL     1     -12.729  -1.663   3.191  1.00  0.00     0.031 A 
ATOM     38  C   UNL     1     -12.924  -3.148   3.045  1.00  0.00     0.074 A 
ATOM     39  C   UNL     1     -13.102  -1.040   4.324  1.00  0.00     0.049 A 
ATOM     40  N   UNL     1     -13.444  -3.999   3.894  1.00  0.00    -0.248 NA
ATOM     41  C   UNL     1     -12.483  -3.762   1.782  1.00  0.00     0.031 C 
ATOM     42  C   UNL     1     -12.951   0.392   4.582  1.00  0.00     0.029 A 
ATOM     43  N   UNL     1     -13.645  -1.534   5.483  1.00  0.00    -0.354 N 
ATOM     44  C   UNL     1     -13.410  -5.236   3.264  1.00  0.00     0.074 A 
ATOM     45  C   UNL     1     -12.848  -5.026   1.948  1.00  0.00     0.031 C 
ATOM     46  C   UNL     1     -13.326   0.652   5.843  1.00  0.00     0.029 A 
ATOM     47  C   UNL     1     -13.798  -0.584   6.461  1.00  0.00     0.049 A 
ATOM     48  H   UNL     1     -13.900  -2.477   5.601  1.00  0.00     0.167 HD
ATOM     49  C   UNL     1     -13.797  -6.440   3.747  1.00  0.00     0.037 A 
ATOM     50  C   UNL     1     -14.269  -0.693   7.718  1.00  0.00     0.037 A 
ATOM     51  C   UNL     1     -14.318  -6.653   5.072  1.00  0.00     0.049 A 
ATOM     52  C   UNL     1     -14.732  -2.032   8.213  1.00  0.00     0.074 A 
ATOM     53  C   UNL     1     -14.685  -7.844   5.673  1.00  0.00     0.029 A 
ATOM     54  N   UNL     1     -14.543  -5.649   6.002  1.00  0.00    -0.354 N 
ATOM     55  N   UNL     1     -14.678  -3.196   7.613  1.00  0.00    -0.248 NA
ATOM     56  C   UNL     1     -15.341  -2.071   9.549  1.00  0.00     0.031 C 
ATOM     57  C   UNL     1     -15.172  -7.557   6.951  1.00  0.00     0.029 A 
ATOM     58  C   UNL     1     -15.075  -6.190   7.160  1.00  0.00     0.049 A 
ATOM     59  H   UNL     1     -14.352  -4.694   5.859  1.00  0.00     0.167 HD
ATOM     60  C   UNL     1     -15.248  -4.104   8.493  1.00  0.00     0.074 A 
ATOM     61  C   UNL     1     -15.618  -3.361   9.680  1.00  0.00     0.031 C 
ATOM     62  C   UNL     1     -15.453  -5.433   8.325  1.00  0.00     0.037 A 
BRANCH  49  63
ATOM     63  C   UNL     1     -13.678  -7.631   2.842  1.00  0.00     0.064 A 
ATOM     64  C   UNL     1     -12.434  -8.204   2.542  1.00  0.00     0.173 A 
ATOM     65  C   UNL     1     -14.827  -8.242   2.318  1.00  0.00     0.173 A 
ATOM     66  F   UNL     1     -11.305  -7.651   3.010  1.00  0.00    -0.203 F 
ATOM     67  C   UNL     1     -12.343  -9.337   1.736  1.00  0.00     0.198 A 
ATOM     68  C   UNL     1     -14.734  -9.388   1.533  1.00  0.00     0.198 A 
ATOM     69  F   UNL     1     -16.041  -7.737   2.582  1.00  0.00    -0.203 F 
ATOM     70  F   UNL     1     -11.141  -9.848   1.436  1.00  0.00    -0.200 F 
ATOM     71  C   UNL     1     -13.493  -9.932   1.239  1.00  0.00     0.200 A 
ATOM     72  F   UNL     1     -15.847  -9.969   1.062  1.00  0.00    -0.200 F 
ATOM     73  F   UNL     1     -13.404 -11.028   0.472  1.00  0.00    -0.200 F 
ENDBRANCH  49  63
BRANCH  50  74
ATOM     74  C   UNL     1     -14.312   0.510   8.585  1.00  0.00     0.064 A 
ATOM     75  C   UNL     1     -13.428   0.648   9.663  1.00  0.00     0.173 A 
ATOM     76  C   UNL     1     -15.198   1.565   8.324  1.00  0.00     0.173 A 
ATOM     77  F   UNL     1     -12.575  -0.344   9.961  1.00  0.00    -0.203 F 
ATOM     78  C   UNL     1     -13.425   1.801  10.445  1.00  0.00     0.198 A 
ATOM     79  C   UNL     1     -15.177   2.727   9.091  1.00  0.00     0.198 A 
ATOM     80  F   UNL     1     -16.060   1.480   7.301  1.00  0.00    -0.203 F 
ATOM     81  F   UNL     1     -12.581   1.903  11.480  1.00  0.00    -0.200 F 
ATOM     82  C   UNL     1     -14.291   2.844  10.152  1.00  0.00     0.200 A 
ATOM     83  F   UNL     1     -16.004   3.738   8.794  1.00  0.00    -0.200 F 
ATOM     84  F   UNL     1     -14.273   3.961  10.891  1.00  0.00    -0.200 F 
ENDBRANCH  50  74
BRANCH  62  85
ATOM     85  C   UNL     1     -16.130  -6.173   9.438  1.00  0.00     0.064 A 
ATOM     86  C   UNL     1     -17.514  -6.068   9.637  1.00  0.00     0.173 A 
ATOM     87  C   UNL     1     -15.410  -7.058  10.253  1.00  0.00     0.173 A 
ATOM     88  F   UNL     1     -18.240  -5.223   8.890  1.00  0.00    -0.203 F 
ATOM     89  C   UNL     1     -18.154  -6.823  10.615  1.00  0.00     0.198 A 
ATOM     90  C   UNL     1     -16.057  -7.828  11.216  1.00  0.00     0.198 A 
ATOM     91  F   UNL     1     -14.085  -7.197  10.096  1.00  0.00    -0.203 F 
ATOM     92  F   UNL     1     -19.474  -6.693  10.802  1.00  0.00    -0.200 F 
ATOM     93  C   UNL     1     -17.427  -7.710  11.396  1.00  0.00     0.200 A 
ATOM     94  F   UNL     1     -15.356  -8.693  11.961  1.00  0.00    -0.200 F 
ATOM     95  F   UNL     1     -18.048  -8.450  12.324  1.00  0.00    -0.200 F 
ENDBRANCH  62  85
ENDBRANCH  36  37
ENDBRANCH  28  31
ENDBRANCH  26  27
ENDBRANCH  25  26
ENDBRANCH  24  25
ENDBRANCH  23  24
ENDBRANCH   3  23
TORSDOF 17
