REMARK SMILES CC(=O)c1c(C)nn(CC(=O)N2CCC[C@H](c3cccc(C(=O)NCCCCNC(=O)c4ccc(-c5c6nc(c(-c7c(F)c(F)c(F)c(F)c7F)c7ccc([nH]7)c(-c7c(F)c(F)c(F)c(F)c7F)c7nc(c(-c8c(F)c(F)c(F)c(F)c8F)c8ccc5[nH]8)C=C7)C=C6)cc4)c3)C2)c1C
REMARK SMILES IDX 25 1 24 2 22 3 23 4 21 6 17 7 18 8 95 9 19 10 20 11 16 12
REMARK SMILES IDX 12 13 13 14 96 15 14 16 15 17 10 18 11 19 9 20 8 21 4 22
REMARK SMILES IDX 5 23 97 24 6 25 7 26 98 27 2 28 1 29 3 30 26 31 27 32 28 33
REMARK SMILES IDX 29 34 30 35 31 37 32 38 33 39 94 40 34 41 93 42 35 43 36 44
REMARK SMILES IDX 37 45 87 46 38 47 92 48 86 49 88 50 39 51 91 52 85 53 84 54
REMARK SMILES IDX 40 56 72 57 52 58 71 59 53 60 56 61 70 62 89 63 54 64 55 65
REMARK SMILES IDX 69 67 90 68 57 69 41 70 42 71 50 72 43 73 44 74 48 75 51 76
REMARK SMILES IDX 45 77 46 78 49 79 47 80 73 81 74 82 82 83 75 84 76 85 80 86
REMARK SMILES IDX 83 87 77 88 78 89 81 90 79 91 58 92 59 93 67 94 60 95 61 96
REMARK SMILES IDX 65 97 68 98 62 99 63 100 66 101 64 102
REMARK H PARENT 24 5 29 36 88 55 56 66
REMARK Flexibility Score: inf
ROOT
ATOM      1  C   UNL     1      -0.171   1.360  10.335  1.00  0.00     0.116 C 
ENDROOT
BRANCH   1   2
ATOM      2  N   UNL     1      -0.830   0.190  10.907  1.00  0.00    -0.352 N 
ATOM      3  C   UNL     1      -0.778  -1.157  10.588  1.00  0.00     0.251 C 
ATOM      4  O   UNL     1      -1.454  -1.942  11.250  1.00  0.00    -0.269 OA
ATOM      5  H   UNL     1      -1.424   0.397  11.664  1.00  0.00     0.163 HD
BRANCH   3   6
ATOM      6  C   UNL     1       0.002  -1.666   9.429  1.00  0.00     0.040 A 
ATOM      7  C   UNL     1       1.627  -1.181   7.686  1.00  0.00    -0.042 A 
ATOM      8  C   UNL     1       1.137  -2.284   6.986  1.00  0.00     0.004 A 
ATOM      9  C   UNL     1       1.151  -1.014   8.988  1.00  0.00     0.018 A 
ATOM     10  C   UNL     1       0.132  -3.104   7.507  1.00  0.00     0.001 A 
ATOM     11  C   UNL     1      -0.477  -2.762   8.709  1.00  0.00     0.014 A 
BRANCH   7  12
ATOM     12  C   UNL     1       2.458  -0.059   7.049  1.00  0.00     0.039 C 
ATOM     13  N   UNL     1       4.160  -1.339   5.776  1.00  0.00    -0.340 N 
ATOM     14  C   UNL     1       5.218  -0.967   6.730  1.00  0.00     0.119 C 
ATOM     15  C   UNL     1       3.082  -0.358   5.669  1.00  0.00     0.127 C 
ATOM     16  C   UNL     1       4.682  -0.539   8.098  1.00  0.00     0.022 C 
ATOM     17  C   UNL     1       3.575   0.497   7.948  1.00  0.00     0.012 C 
BRANCH  13  18
ATOM     18  C   UNL     1       4.179  -2.608   5.219  1.00  0.00     0.244 C 
ATOM     19  O   UNL     1       4.884  -3.484   5.750  1.00  0.00    -0.273 OA
BRANCH  18  20
ATOM     20  C   UNL     1       3.561  -2.978   3.874  1.00  0.00     0.244 C 
BRANCH  20  21
ATOM     21  N   UNL     1       2.414  -2.260   3.342  1.00  0.00    -0.259 N 
ATOM     22  C   UNL     1       1.060  -0.913   2.237  1.00  0.00     0.061 A 
ATOM     23  C   UNL     1       0.360  -1.748   3.147  1.00  0.00     0.070 A 
ATOM     24  C   UNL     1       2.399  -1.252   2.402  1.00  0.00     0.047 A 
ATOM     25  C   UNL     1      -1.081  -1.741   3.513  1.00  0.00     0.069 C 
ATOM     26  N   UNL     1       1.177  -2.646   3.706  1.00  0.00    -0.177 NA
ATOM     27  C   UNL     1       3.644  -0.670   1.840  1.00  0.00     0.067 C 
BRANCH  22  28
ATOM     28  C   UNL     1       0.490   0.107   1.372  1.00  0.00     0.163 C 
ATOM     29  C   UNL     1       0.838   0.060  -0.095  1.00  0.00     0.093 C 
ATOM     30  O   UNL     1      -0.307   0.937   1.805  1.00  0.00    -0.294 OA
ENDBRANCH  22  28
ENDBRANCH  20  21
ENDBRANCH  18  20
ENDBRANCH  13  18
ENDBRANCH   7  12
ENDBRANCH   3   6
ENDBRANCH   1   2
BRANCH   1  31
ATOM     31  C   UNL     1      -1.094   2.498   9.912  1.00  0.00     0.023 C 
BRANCH  31  32
ATOM     32  C   UNL     1      -1.833   3.243  11.018  1.00  0.00     0.023 C 
BRANCH  32  33
ATOM     33  C   UNL     1      -0.939   3.836  12.097  1.00  0.00     0.116 C 
BRANCH  33  34
ATOM     34  N   UNL     1       0.011   4.833  11.600  1.00  0.00    -0.352 N 
ATOM     35  C   UNL     1       0.939   5.552  12.341  1.00  0.00     0.251 C 
ATOM     36  H   UNL     1      -0.012   5.015  10.633  1.00  0.00     0.163 HD
ATOM     37  O   UNL     1       1.431   6.584  11.929  1.00  0.00    -0.269 OA
BRANCH  35  38
ATOM     38  C   UNL     1       1.334   5.006  13.652  1.00  0.00     0.039 A 
ATOM     39  C   UNL     1       1.406   5.806  14.798  1.00  0.00     0.014 A 
ATOM     40  C   UNL     1       1.574   3.639  13.712  1.00  0.00     0.014 A 
ATOM     41  C   UNL     1       1.639   5.196  16.029  1.00  0.00     0.010 A 
ATOM     42  C   UNL     1       1.638   3.025  14.932  1.00  0.00     0.010 A 
ATOM     43  C   UNL     1       1.736   3.799  16.087  1.00  0.00    -0.014 A 
BRANCH  43  44
ATOM     44  C   UNL     1       1.816   3.081  17.355  1.00  0.00     0.031 A 
ATOM     45  C   UNL     1       0.638   3.263  18.254  1.00  0.00     0.074 A 
ATOM     46  C   UNL     1       2.728   2.094  17.516  1.00  0.00     0.049 A 
ATOM     47  N   UNL     1       0.626   3.650  19.488  1.00  0.00    -0.248 NA
ATOM     48  C   UNL     1      -0.711   3.099  17.678  1.00  0.00     0.031 C 
ATOM     49  C   UNL     1       3.726   1.630  16.541  1.00  0.00     0.029 A 
ATOM     50  N   UNL     1       2.856   1.181  18.516  1.00  0.00    -0.354 N 
ATOM     51  C   UNL     1      -0.705   3.583  19.901  1.00  0.00     0.074 A 
ATOM     52  C   UNL     1      -1.491   3.432  18.707  1.00  0.00     0.031 C 
ATOM     53  C   UNL     1       4.153   0.396  16.879  1.00  0.00     0.029 A 
ATOM     54  C   UNL     1       3.590   0.050  18.169  1.00  0.00     0.049 A 
ATOM     55  H   UNL     1       2.463   1.310  19.409  1.00  0.00     0.167 HD
ATOM     56  C   UNL     1      -1.022   3.384  21.212  1.00  0.00     0.037 A 
ATOM     57  C   UNL     1       3.674  -1.109  18.870  1.00  0.00     0.037 A 
ATOM     58  C   UNL     1       0.095   3.716  22.063  1.00  0.00     0.049 A 
ATOM     59  C   UNL     1       3.230  -0.810  20.256  1.00  0.00     0.074 A 
ATOM     60  C   UNL     1       0.854   4.854  22.263  1.00  0.00     0.029 A 
ATOM     61  N   UNL     1       0.833   2.687  22.595  1.00  0.00    -0.354 N 
ATOM     62  N   UNL     1       3.886  -0.030  21.072  1.00  0.00    -0.248 NA
ATOM     63  C   UNL     1       1.817  -0.984  20.557  1.00  0.00     0.031 C 
ATOM     64  C   UNL     1       2.191   4.379  22.418  1.00  0.00     0.029 A 
ATOM     65  C   UNL     1       2.155   2.985  22.393  1.00  0.00     0.049 A 
ATOM     66  H   UNL     1       0.477   1.883  23.040  1.00  0.00     0.167 HD
ATOM     67  C   UNL     1       2.906   0.720  21.703  1.00  0.00     0.074 A 
ATOM     68  C   UNL     1       1.649   0.038  21.401  1.00  0.00     0.031 C 
ATOM     69  C   UNL     1       3.166   1.984  22.149  1.00  0.00     0.037 A 
BRANCH  56  70
ATOM     70  C   UNL     1      -2.169   2.516  21.697  1.00  0.00     0.064 A 
ATOM     71  C   UNL     1      -2.398   2.411  23.085  1.00  0.00     0.173 A 
ATOM     72  C   UNL     1      -2.832   1.552  20.906  1.00  0.00     0.173 A 
ATOM     73  F   UNL     1      -1.828   3.273  23.941  1.00  0.00    -0.203 F 
ATOM     74  C   UNL     1      -3.128   1.355  23.640  1.00  0.00     0.198 A 
ATOM     75  C   UNL     1      -3.604   0.531  21.460  1.00  0.00     0.198 A 
ATOM     76  F   UNL     1      -2.682   1.479  19.580  1.00  0.00    -0.203 F 
ATOM     77  F   UNL     1      -3.190   1.217  24.971  1.00  0.00    -0.200 F 
ATOM     78  C   UNL     1      -3.719   0.408  22.826  1.00  0.00     0.200 A 
ATOM     79  F   UNL     1      -4.161  -0.383  20.652  1.00  0.00    -0.200 F 
ATOM     80  F   UNL     1      -4.355  -0.645  23.355  1.00  0.00    -0.200 F 
ENDBRANCH  56  70
BRANCH  57  81
ATOM     81  C   UNL     1       3.779  -2.494  18.343  1.00  0.00     0.064 A 
ATOM     82  C   UNL     1       4.118  -3.566  19.186  1.00  0.00     0.173 A 
ATOM     83  C   UNL     1       3.289  -2.840  17.067  1.00  0.00     0.173 A 
ATOM     84  F   UNL     1       4.551  -3.330  20.433  1.00  0.00    -0.203 F 
ATOM     85  C   UNL     1       3.952  -4.898  18.788  1.00  0.00     0.198 A 
ATOM     86  C   UNL     1       3.132  -4.169  16.667  1.00  0.00     0.198 A 
ATOM     87  F   UNL     1       2.862  -1.899  16.213  1.00  0.00    -0.203 F 
ATOM     88  F   UNL     1       4.227  -5.892  19.645  1.00  0.00    -0.200 F 
ATOM     89  C   UNL     1       3.450  -5.198  17.533  1.00  0.00     0.200 A 
ATOM     90  F   UNL     1       2.614  -4.443  15.462  1.00  0.00    -0.200 F 
ATOM     91  F   UNL     1       3.233  -6.471  17.174  1.00  0.00    -0.200 F 
ENDBRANCH  57  81
BRANCH  69  92
ATOM     92  C   UNL     1       4.596   2.452  22.167  1.00  0.00     0.064 A 
ATOM     93  C   UNL     1       5.397   2.591  21.020  1.00  0.00     0.173 A 
ATOM     94  C   UNL     1       5.120   2.930  23.375  1.00  0.00     0.173 A 
ATOM     95  F   UNL     1       4.936   2.259  19.810  1.00  0.00    -0.203 F 
ATOM     96  C   UNL     1       6.676   3.142  21.089  1.00  0.00     0.198 A 
ATOM     97  C   UNL     1       6.382   3.514  23.436  1.00  0.00     0.198 A 
ATOM     98  F   UNL     1       4.380   2.878  24.494  1.00  0.00    -0.203 F 
ATOM     99  F   UNL     1       7.421   3.254  19.979  1.00  0.00    -0.200 F 
ATOM    100  C   UNL     1       7.164   3.611  22.296  1.00  0.00     0.200 A 
ATOM    101  F   UNL     1       6.827   4.014  24.597  1.00  0.00    -0.200 F 
ATOM    102  F   UNL     1       8.375   4.181  22.357  1.00  0.00    -0.200 F 
ENDBRANCH  69  92
ENDBRANCH  43  44
ENDBRANCH  35  38
ENDBRANCH  33  34
ENDBRANCH  32  33
ENDBRANCH  31  32
ENDBRANCH   1  31
TORSDOF 16
