REMARK SMILES O=C(CCN1C(=O)/C(=C2\C(=O)N(Cc3ccc(Cl)cc3)c3ccccc32)SC1=S)NCCCCNC(=O)c1ccc(-c2c3nc(c(-c4c(F)c(F)c(F)c(F)c4F)c4ccc([nH]4)c(-c4c(F)c(F)c(F)c(F)c4F)c4nc(c(-c5c(F)c(F)c(F)c(F)c5F)c5ccc2[nH]5)C=C4)C=C3)cc1
REMARK SMILES IDX 31 1 30 2 1 3 2 4 3 6 4 7 5 8 6 9 28 10 7 11 8 12 27 13
REMARK SMILES IDX 29 14 9 15 10 16 26 17 11 18 12 19 21 20 25 21 22 22 24 23
REMARK SMILES IDX 23 24 13 25 14 26 15 27 20 28 16 29 19 30 17 31 18 32 32 33
REMARK SMILES IDX 33 34 34 35 35 36 36 37 37 39 38 40 39 41 100 42 40 43 99 44
REMARK SMILES IDX 41 45 42 46 43 47 93 48 44 49 98 50 92 51 94 52 45 53 97 54
REMARK SMILES IDX 91 55 90 56 46 58 78 59 58 60 77 61 59 62 62 63 76 64 95 65
REMARK SMILES IDX 60 66 61 67 75 69 96 70 63 71 47 72 48 73 56 74 49 75 50 76
REMARK SMILES IDX 54 77 57 78 51 79 52 80 55 81 53 82 79 83 80 84 88 85 81 86
REMARK SMILES IDX 82 87 86 88 89 89 83 90 84 91 87 92 85 93 64 94 65 95 73 96
REMARK SMILES IDX 66 97 67 98 71 99 74 100 68 101 69 102 72 103 70 104
REMARK H PARENT 30 5 35 38 94 57 62 68
REMARK Flexibility Score: inf
ROOT
ATOM      1  C   UNL     1       1.777  -0.545  -2.704  1.00  0.00     0.116 C 
ENDROOT
BRANCH   1   2
ATOM      2  N   UNL     1       2.430  -0.017  -1.500  1.00  0.00    -0.356 N 
ATOM      3  O   UNL     1       0.882  -0.882  -0.032  1.00  0.00    -0.275 OA
ATOM      4  C   UNL     1       1.912  -0.244  -0.235  1.00  0.00     0.221 C 
ATOM      5  H   UNL     1       3.255   0.512  -1.594  1.00  0.00     0.163 HD
BRANCH   4   6
ATOM      6  C   UNL     1       2.697   0.340   0.924  1.00  0.00     0.122 C 
BRANCH   6   7
ATOM      7  C   UNL     1       3.748  -0.625   1.469  1.00  0.00     0.137 C 
BRANCH   7   8
ATOM      8  N   UNL     1       5.040  -0.646   0.771  1.00  0.00    -0.292 N 
ATOM      9  C   UNL     1       5.723   0.543   0.499  1.00  0.00     0.267 C 
ATOM     10  C   UNL     1       5.779  -1.802   0.606  1.00  0.00     0.148 C 
ATOM     11  O   UNL     1       5.411   1.651   0.891  1.00  0.00    -0.268 OA
ATOM     12  C   UNL     1       6.928   0.227  -0.330  1.00  0.00     0.093 C 
ATOM     13  S   UNL     1       7.421  -1.360   0.176  1.00  0.00    -0.053 SA
ATOM     14  S   UNL     1       5.305  -3.393   0.751  1.00  0.00    -0.052 S 
ATOM     15  C   UNL     1       7.066   0.763  -1.562  1.00  0.00     0.069 C 
ATOM     16  C   UNL     1       6.507   2.114  -2.007  1.00  0.00     0.260 C 
ATOM     17  C   UNL     1       7.148  -0.075  -2.778  1.00  0.00     0.012 A 
ATOM     18  O   UNL     1       6.312   3.077  -1.320  1.00  0.00    -0.269 OA
ATOM     19  N   UNL     1       6.217   1.973  -3.375  1.00  0.00    -0.303 N 
ATOM     20  C   UNL     1       6.473   0.646  -3.766  1.00  0.00     0.052 A 
ATOM     21  C   UNL     1       7.423  -1.432  -2.940  1.00  0.00     0.011 A 
ATOM     22  C   UNL     1       5.921  -0.023  -4.820  1.00  0.00     0.027 A 
ATOM     23  C   UNL     1       6.731  -2.129  -3.909  1.00  0.00     0.001 A 
ATOM     24  C   UNL     1       5.918  -1.423  -4.776  1.00  0.00     0.002 A 
BRANCH  19  25
ATOM     25  C   UNL     1       5.457   2.974  -4.125  1.00  0.00     0.161 C 
BRANCH  25  26
ATOM     26  C   UNL     1       6.152   3.702  -5.265  1.00  0.00    -0.028 A 
ATOM     27  C   UNL     1       5.962   3.316  -6.603  1.00  0.00     0.007 A 
ATOM     28  C   UNL     1       6.896   4.867  -5.023  1.00  0.00     0.007 A 
ATOM     29  C   UNL     1       6.547   4.033  -7.658  1.00  0.00     0.021 A 
ATOM     30  C   UNL     1       7.460   5.599  -6.079  1.00  0.00     0.021 A 
ATOM     31  C   UNL     1       7.307   5.164  -7.391  1.00  0.00     0.041 A 
ATOM     32  Cl  UNL     1       8.067   6.012  -8.680  1.00  0.00    -0.084 Cl
ENDBRANCH  25  26
ENDBRANCH  19  25
ENDBRANCH   7   8
ENDBRANCH   6   7
ENDBRANCH   4   6
ENDBRANCH   1   2
BRANCH   1  33
ATOM     33  C   UNL     1       1.616   0.476  -3.849  1.00  0.00     0.023 C 
BRANCH  33  34
ATOM     34  C   UNL     1       2.736   0.529  -4.921  1.00  0.00     0.023 C 
BRANCH  34  35
ATOM     35  C   UNL     1       2.835  -0.619  -5.967  1.00  0.00     0.116 C 
BRANCH  35  36
ATOM     36  N   UNL     1       3.293  -0.242  -7.354  1.00  0.00    -0.352 N 
ATOM     37  C   UNL     1       4.338  -0.201  -8.270  1.00  0.00     0.251 C 
ATOM     38  H   UNL     1       2.509   0.143  -7.809  1.00  0.00     0.163 HD
ATOM     39  O   UNL     1       3.991   0.111  -9.417  1.00  0.00    -0.269 OA
BRANCH  37  40
ATOM     40  C   UNL     1       5.825  -0.336  -8.089  1.00  0.00     0.039 A 
ATOM     41  C   UNL     1       6.506  -1.425  -7.582  1.00  0.00     0.014 A 
ATOM     42  C   UNL     1       6.651   0.681  -8.598  1.00  0.00     0.014 A 
ATOM     43  C   UNL     1       7.887  -1.312  -7.217  1.00  0.00     0.010 A 
ATOM     44  C   UNL     1       8.052   0.742  -8.347  1.00  0.00     0.010 A 
ATOM     45  C   UNL     1       8.698  -0.202  -7.539  1.00  0.00    -0.014 A 
BRANCH  45  46
ATOM     46  C   UNL     1      10.146  -0.020  -7.051  1.00  0.00     0.031 A 
ATOM     47  C   UNL     1      10.692   1.335  -6.565  1.00  0.00     0.074 A 
ATOM     48  C   UNL     1      11.035  -1.040  -6.960  1.00  0.00     0.049 A 
ATOM     49  N   UNL     1      11.933   1.712  -6.318  1.00  0.00    -0.248 NA
ATOM     50  C   UNL     1       9.714   2.396  -6.312  1.00  0.00     0.031 C 
ATOM     51  C   UNL     1      10.775  -2.434  -7.300  1.00  0.00     0.029 A 
ATOM     52  N   UNL     1      12.355  -1.059  -6.532  1.00  0.00    -0.354 N 
ATOM     53  C   UNL     1      11.881   3.063  -5.964  1.00  0.00     0.074 A 
ATOM     54  C   UNL     1      10.485   3.435  -6.015  1.00  0.00     0.031 C 
ATOM     55  C   UNL     1      11.844  -3.179  -6.984  1.00  0.00     0.029 A 
ATOM     56  C   UNL     1      12.936  -2.307  -6.561  1.00  0.00     0.049 A 
ATOM     57  H   UNL     1      12.834  -0.252  -6.235  1.00  0.00     0.167 HD
ATOM     58  C   UNL     1      12.878   3.923  -5.617  1.00  0.00     0.037 A 
ATOM     59  C   UNL     1      14.201  -2.733  -6.347  1.00  0.00     0.037 A 
ATOM     60  C   UNL     1      14.270   3.578  -5.436  1.00  0.00     0.049 A 
ATOM     61  C   UNL     1      15.312  -1.767  -6.034  1.00  0.00     0.074 A 
ATOM     62  C   UNL     1      15.322   4.405  -5.064  1.00  0.00     0.029 A 
ATOM     63  N   UNL     1      14.802   2.311  -5.574  1.00  0.00    -0.354 N 
ATOM     64  N   UNL     1      15.254  -0.478  -5.825  1.00  0.00    -0.248 NA
ATOM     65  C   UNL     1      16.677  -2.320  -5.965  1.00  0.00     0.031 C 
ATOM     66  C   UNL     1      16.496   3.647  -5.020  1.00  0.00     0.029 A 
ATOM     67  C   UNL     1      16.167   2.338  -5.315  1.00  0.00     0.049 A 
ATOM     68  H   UNL     1      14.290   1.506  -5.819  1.00  0.00     0.167 HD
ATOM     69  C   UNL     1      16.564  -0.069  -5.600  1.00  0.00     0.074 A 
ATOM     70  C   UNL     1      17.397  -1.247  -5.668  1.00  0.00     0.031 C 
ATOM     71  C   UNL     1      17.023   1.184  -5.372  1.00  0.00     0.037 A 
BRANCH  58  72
ATOM     72  C   UNL     1      12.537   5.380  -5.411  1.00  0.00     0.064 A 
ATOM     73  C   UNL     1      11.895   5.839  -4.253  1.00  0.00     0.173 A 
ATOM     74  C   UNL     1      13.001   6.343  -6.326  1.00  0.00     0.173 A 
ATOM     75  F   UNL     1      11.440   4.967  -3.342  1.00  0.00    -0.203 F 
ATOM     76  C   UNL     1      11.720   7.204  -4.024  1.00  0.00     0.198 A 
ATOM     77  C   UNL     1      12.851   7.705  -6.079  1.00  0.00     0.198 A 
ATOM     78  F   UNL     1      13.653   5.961  -7.435  1.00  0.00    -0.203 F 
ATOM     79  F   UNL     1      11.086   7.621  -2.919  1.00  0.00    -0.200 F 
ATOM     80  C   UNL     1      12.208   8.135  -4.930  1.00  0.00     0.200 A 
ATOM     81  F   UNL     1      13.353   8.602  -6.940  1.00  0.00    -0.200 F 
ATOM     82  F   UNL     1      12.065   9.446  -4.690  1.00  0.00    -0.200 F 
ENDBRANCH  58  72
BRANCH  59  83
ATOM     83  C   UNL     1      14.514  -4.182  -6.498  1.00  0.00     0.064 A 
ATOM     84  C   UNL     1      14.891  -4.961  -5.395  1.00  0.00     0.173 A 
ATOM     85  C   UNL     1      14.435  -4.816  -7.748  1.00  0.00     0.173 A 
ATOM     86  F   UNL     1      15.026  -4.393  -4.188  1.00  0.00    -0.203 F 
ATOM     87  C   UNL     1      15.165  -6.320  -5.537  1.00  0.00     0.198 A 
ATOM     88  C   UNL     1      14.668  -6.181  -7.880  1.00  0.00     0.198 A 
ATOM     89  F   UNL     1      14.094  -4.111  -8.837  1.00  0.00    -0.203 F 
ATOM     90  F   UNL     1      15.558  -7.037  -4.475  1.00  0.00    -0.200 F 
ATOM     91  C   UNL     1      15.037  -6.932  -6.775  1.00  0.00     0.200 A 
ATOM     92  F   UNL     1      14.524  -6.769  -9.075  1.00  0.00    -0.200 F 
ATOM     93  F   UNL     1      15.273  -8.244  -6.905  1.00  0.00    -0.200 F 
ENDBRANCH  59  83
BRANCH  71  94
ATOM     94  C   UNL     1      18.498   1.373  -5.157  1.00  0.00     0.064 A 
ATOM     95  C   UNL     1      19.411   1.276  -6.218  1.00  0.00     0.173 A 
ATOM     96  C   UNL     1      19.003   1.707  -3.891  1.00  0.00     0.173 A 
ATOM     97  F   UNL     1      18.985   0.946  -7.446  1.00  0.00    -0.203 F 
ATOM     98  C   UNL     1      20.774   1.491  -6.017  1.00  0.00     0.198 A 
ATOM     99  C   UNL     1      20.363   1.944  -3.697  1.00  0.00     0.198 A 
ATOM    100  F   UNL     1      18.176   1.818  -2.841  1.00  0.00    -0.203 F 
ATOM    101  F   UNL     1      21.630   1.358  -7.040  1.00  0.00    -0.200 F 
ATOM    102  C   UNL     1      21.247   1.832  -4.759  1.00  0.00     0.200 A 
ATOM    103  F   UNL     1      20.818   2.284  -2.483  1.00  0.00    -0.200 F 
ATOM    104  F   UNL     1      22.557   2.047  -4.569  1.00  0.00    -0.200 F 
ENDBRANCH  71  94
ENDBRANCH  45  46
ENDBRANCH  37  40
ENDBRANCH  35  36
ENDBRANCH  34  35
ENDBRANCH  33  34
ENDBRANCH   1  33
TORSDOF 15
