REMARK SMILES CC[C@H](C(=O)NCCCCNC(=O)c1ccc(-c2c3nc(c(-c4c(F)c(F)c(F)c(F)c4F)c4ccc([nH]4)c(-c4c(F)c(F)c(F)c(F)c4F)c4nc(c(-c5c(F)c(F)c(F)c(F)c5F)c5ccc2[nH]5)C=C4)C=C3)cc1)[N@@H+](C)Cc1cncn1C(C)C
REMARK SMILES IDX 7 1 6 2 4 3 5 4 3 6 2 7 1 8 77 9 78 10 79 12 80 13 81 14
REMARK SMILES IDX 84 15 82 16 83 17 85 18 86 19 87 20 8 21 9 22 10 23 11 24
REMARK SMILES IDX 12 25 13 27 14 28 15 29 76 30 16 31 75 32 17 33 18 34 19 35
REMARK SMILES IDX 69 36 20 37 74 38 68 39 70 40 21 41 73 42 67 43 66 44 22 46
REMARK SMILES IDX 54 47 34 48 53 49 35 50 38 51 52 52 71 53 36 54 37 55 51 57
REMARK SMILES IDX 72 58 39 59 23 60 24 61 32 62 25 63 26 64 30 65 33 66 27 67
REMARK SMILES IDX 28 68 31 69 29 70 55 71 56 72 64 73 57 74 58 75 62 76 65 77
REMARK SMILES IDX 59 78 60 79 63 80 61 81 40 82 41 83 49 84 42 85 43 86 47 87
REMARK SMILES IDX 50 88 44 89 45 90 48 91 46 92
REMARK H PARENT 6 5 77 11 11 26 70 45 38 56
REMARK Flexibility Score: inf
ROOT
ATOM      1  C   UNL     1       2.557   0.813   0.763  1.00  0.00     0.116 C 
ENDROOT
BRANCH   1   2
ATOM      2  N   UNL     1       1.794  -0.305   0.274  1.00  0.00    -0.351 N 
ATOM      3  C   UNL     1       1.200  -1.377   0.837  1.00  0.00     0.278 C 
ATOM      4  O   UNL     1       0.613  -2.042  -0.035  1.00  0.00    -0.268 OA
ATOM      5  H   UNL     1       1.678  -0.282  -0.703  1.00  0.00     0.163 HD
BRANCH   3   6
ATOM      6  C   UNL     1       1.313  -1.893   2.336  1.00  0.00     0.273 C 
BRANCH   6   7
ATOM      7  C   UNL     1       1.490  -1.107   3.681  1.00  0.00     0.072 C 
ATOM      8  C   UNL     1       0.643   0.041   4.208  1.00  0.00     0.011 C 
ENDBRANCH   6   7
BRANCH   6   9
ATOM      9  N   UNL     1       0.459  -3.105   2.474  1.00  0.00    -0.322 N 
ATOM     10  C   UNL     1       0.846  -4.066   3.491  1.00  0.00     0.333 C 
ATOM     11  H   UNL     1       0.781  -3.493   1.587  1.00  0.00     0.348 HD
BRANCH   9  12
ATOM     12  C   UNL     1      -0.951  -3.103   2.101  1.00  0.00     0.319 C 
BRANCH  12  13
ATOM     13  C   UNL     1      -1.837  -2.212   2.897  1.00  0.00     0.093 A 
ATOM     14  C   UNL     1      -2.517  -2.521   4.061  1.00  0.00     0.140 A 
ATOM     15  N   UNL     1      -2.274  -0.937   2.571  1.00  0.00    -0.327 N 
ATOM     16  N   UNL     1      -3.277  -1.474   4.492  1.00  0.00    -0.245 NA
ATOM     17  C   UNL     1      -3.099  -0.535   3.595  1.00  0.00     0.200 A 
BRANCH  15  18
ATOM     18  C   UNL     1      -1.969  -0.119   1.398  1.00  0.00     0.082 C 
ATOM     19  C   UNL     1      -3.196   0.566   0.796  1.00  0.00     0.031 C 
ATOM     20  C   UNL     1      -0.956   0.988   1.679  1.00  0.00     0.031 C 
ENDBRANCH  15  18
ENDBRANCH  12  13
ENDBRANCH   9  12
ENDBRANCH   6   9
ENDBRANCH   3   6
ENDBRANCH   1   2
BRANCH   1  21
ATOM     21  C   UNL     1       3.358   1.481  -0.368  1.00  0.00     0.023 C 
BRANCH  21  22
ATOM     22  C   UNL     1       2.571   2.143  -1.516  1.00  0.00     0.023 C 
BRANCH  22  23
ATOM     23  C   UNL     1       1.449   3.108  -1.141  1.00  0.00     0.116 C 
BRANCH  23  24
ATOM     24  N   UNL     1       1.862   4.155  -0.222  1.00  0.00    -0.352 N 
ATOM     25  C   UNL     1       1.856   5.521  -0.344  1.00  0.00     0.251 C 
ATOM     26  H   UNL     1       2.208   3.826   0.639  1.00  0.00     0.163 HD
ATOM     27  O   UNL     1       2.364   6.202   0.552  1.00  0.00    -0.269 OA
BRANCH  25  28
ATOM     28  C   UNL     1       1.292   6.199  -1.532  1.00  0.00     0.039 A 
ATOM     29  C   UNL     1       1.988   7.287  -2.067  1.00  0.00     0.014 A 
ATOM     30  C   UNL     1       0.080   5.809  -2.106  1.00  0.00     0.014 A 
ATOM     31  C   UNL     1       1.511   7.931  -3.212  1.00  0.00     0.010 A 
ATOM     32  C   UNL     1      -0.353   6.398  -3.297  1.00  0.00     0.010 A 
ATOM     33  C   UNL     1       0.358   7.465  -3.867  1.00  0.00    -0.014 A 
BRANCH  33  34
ATOM     34  C   UNL     1      -0.078   8.079  -5.153  1.00  0.00     0.031 A 
ATOM     35  C   UNL     1      -1.408   8.774  -5.273  1.00  0.00     0.074 A 
ATOM     36  C   UNL     1       0.724   7.988  -6.233  1.00  0.00     0.049 A 
ATOM     37  N   UNL     1      -1.925   9.400  -6.303  1.00  0.00    -0.248 NA
ATOM     38  C   UNL     1      -2.284   8.744  -4.093  1.00  0.00     0.031 C 
ATOM     39  C   UNL     1       2.007   7.283  -6.274  1.00  0.00     0.029 A 
ATOM     40  N   UNL     1       0.588   8.496  -7.502  1.00  0.00    -0.354 N 
ATOM     41  C   UNL     1      -3.181   9.832  -5.895  1.00  0.00     0.074 A 
ATOM     42  C   UNL     1      -3.376   9.340  -4.548  1.00  0.00     0.031 C 
ATOM     43  C   UNL     1       2.560   7.442  -7.486  1.00  0.00     0.029 A 
ATOM     44  C   UNL     1       1.658   8.229  -8.322  1.00  0.00     0.049 A 
ATOM     45  H   UNL     1      -0.203   9.005  -7.797  1.00  0.00     0.167 HD
ATOM     46  C   UNL     1      -4.078  10.594  -6.568  1.00  0.00     0.037 A 
ATOM     47  C   UNL     1       1.893   8.582  -9.600  1.00  0.00     0.037 A 
ATOM     48  C   UNL     1      -3.879  11.091  -7.906  1.00  0.00     0.049 A 
ATOM     49  C   UNL     1       0.883   9.432 -10.324  1.00  0.00     0.074 A 
ATOM     50  C   UNL     1      -4.705  11.912  -8.655  1.00  0.00     0.029 A 
ATOM     51  N   UNL     1      -2.778  10.806  -8.701  1.00  0.00    -0.354 N 
ATOM     52  N   UNL     1      -0.262   9.907  -9.896  1.00  0.00    -0.248 NA
ATOM     53  C   UNL     1       1.208   9.810 -11.706  1.00  0.00     0.031 C 
ATOM     54  C   UNL     1      -4.133  12.075  -9.921  1.00  0.00     0.029 A 
ATOM     55  C   UNL     1      -2.915  11.415  -9.939  1.00  0.00     0.049 A 
ATOM     56  H   UNL     1      -2.012  10.252  -8.426  1.00  0.00     0.167 HD
ATOM     57  C   UNL     1      -0.775  10.666 -10.940  1.00  0.00     0.074 A 
ATOM     58  C   UNL     1       0.194  10.604 -12.013  1.00  0.00     0.031 C 
ATOM     59  C   UNL     1      -1.943  11.352 -11.002  1.00  0.00     0.037 A 
BRANCH  46  60
ATOM     60  C   UNL     1      -5.362  10.942  -5.865  1.00  0.00     0.064 A 
ATOM     61  C   UNL     1      -5.385  11.796  -4.751  1.00  0.00     0.173 A 
ATOM     62  C   UNL     1      -6.589  10.447  -6.333  1.00  0.00     0.173 A 
ATOM     63  F   UNL     1      -4.240  12.291  -4.255  1.00  0.00    -0.203 F 
ATOM     64  C   UNL     1      -6.581  12.112  -4.111  1.00  0.00     0.198 A 
ATOM     65  C   UNL     1      -7.787  10.795  -5.713  1.00  0.00     0.198 A 
ATOM     66  F   UNL     1      -6.630   9.634  -7.399  1.00  0.00    -0.203 F 
ATOM     67  F   UNL     1      -6.569  12.883  -3.015  1.00  0.00    -0.200 F 
ATOM     68  C   UNL     1      -7.782  11.618  -4.597  1.00  0.00     0.200 A 
ATOM     69  F   UNL     1      -8.949  10.329  -6.194  1.00  0.00    -0.200 F 
ATOM     70  F   UNL     1      -8.933  11.929  -3.986  1.00  0.00    -0.200 F 
ENDBRANCH  46  60
BRANCH  47  71
ATOM     71  C   UNL     1       3.156   8.169 -10.268  1.00  0.00     0.064 A 
ATOM     72  C   UNL     1       4.131   9.114 -10.621  1.00  0.00     0.173 A 
ATOM     73  C   UNL     1       3.412   6.825 -10.579  1.00  0.00     0.173 A 
ATOM     74  F   UNL     1       3.927  10.414 -10.363  1.00  0.00    -0.203 F 
ATOM     75  C   UNL     1       5.297   8.735 -11.283  1.00  0.00     0.198 A 
ATOM     76  C   UNL     1       4.593   6.443 -11.210  1.00  0.00     0.198 A 
ATOM     77  F   UNL     1       2.517   5.880 -10.257  1.00  0.00    -0.203 F 
ATOM     78  F   UNL     1       6.184   9.666 -11.658  1.00  0.00    -0.200 F 
ATOM     79  C   UNL     1       5.530   7.399 -11.572  1.00  0.00     0.200 A 
ATOM     80  F   UNL     1       4.823   5.149 -11.470  1.00  0.00    -0.200 F 
ATOM     81  F   UNL     1       6.653   7.035 -12.205  1.00  0.00    -0.200 F 
ENDBRANCH  47  71
BRANCH  59  82
ATOM     82  C   UNL     1      -2.214  12.134 -12.258  1.00  0.00     0.064 A 
ATOM     83  C   UNL     1      -2.457  11.505 -13.489  1.00  0.00     0.173 A 
ATOM     84  C   UNL     1      -2.233  13.537 -12.227  1.00  0.00     0.173 A 
ATOM     85  F   UNL     1      -2.439  10.166 -13.579  1.00  0.00    -0.203 F 
ATOM     86  C   UNL     1      -2.659  12.251 -14.648  1.00  0.00     0.198 A 
ATOM     87  C   UNL     1      -2.475  14.279 -13.380  1.00  0.00     0.198 A 
ATOM     88  F   UNL     1      -2.018  14.192 -11.076  1.00  0.00    -0.203 F 
ATOM     89  F   UNL     1      -2.816  11.627 -15.824  1.00  0.00    -0.200 F 
ATOM     90  C   UNL     1      -2.674  13.636 -14.592  1.00  0.00     0.200 A 
ATOM     91  F   UNL     1      -2.507  15.617 -13.320  1.00  0.00    -0.200 F 
ATOM     92  F   UNL     1      -2.867  14.351 -15.708  1.00  0.00    -0.200 F 
ENDBRANCH  59  82
ENDBRANCH  33  34
ENDBRANCH  25  28
ENDBRANCH  23  24
ENDBRANCH  22  23
ENDBRANCH  21  22
ENDBRANCH   1  21
TORSDOF 16
