REMARK SMILES C[C@@H]1CCCN(C(=O)N[C@@H]2CCCCC[C@@H]2C(=O)NCCCCNC(=O)c2ccc(-c3c4nc(c(-c5c(F)c(F)c(F)c(F)c5F)c5ccc([nH]5)c(-c5c(F)c(F)c(F)c(F)c5F)c5nc(c(-c6c(F)c(F)c(F)c(F)c6F)c6ccc3[nH]6)C=C5)C=C4)cc2)C1
REMARK SMILES IDX 21 1 20 2 19 3 17 4 18 5 16 7 10 8 9 9 7 10 8 11 6 13 1 14
REMARK SMILES IDX 2 15 3 16 90 17 4 18 5 19 11 20 12 21 15 23 14 24 13 25
REMARK SMILES IDX 22 27 23 28 24 29 25 30 26 32 27 33 28 34 89 35 29 36 88 37
REMARK SMILES IDX 30 38 31 39 32 40 82 41 33 42 87 43 81 44 83 45 34 46 86 47
REMARK SMILES IDX 80 48 79 49 35 51 67 52 47 53 66 54 48 55 51 56 65 57 84 58
REMARK SMILES IDX 49 59 50 60 64 62 85 63 52 64 36 65 37 66 45 67 38 68 39 69
REMARK SMILES IDX 43 70 46 71 40 72 41 73 44 74 42 75 68 76 69 77 77 78 70 79
REMARK SMILES IDX 71 80 75 81 78 82 72 83 73 84 76 85 74 86 53 87 54 88 62 89
REMARK SMILES IDX 55 90 56 91 60 92 63 93 57 94 58 95 61 96 59 97
REMARK H PARENT 19 6 9 12 24 31 83 50 51 61
REMARK Flexibility Score: 100.00
ROOT
ATOM      1  C   UNL     1       5.701   3.675  -2.279  1.00  0.00     0.023 C 
ENDROOT
BRANCH   1   2
ATOM      2  C   UNL     1       6.236   3.186  -0.933  1.00  0.00     0.116 C 
BRANCH   2   3
ATOM      3  N   UNL     1       5.291   3.433   0.137  1.00  0.00    -0.356 N 
ATOM      4  C   UNL     1       4.510   2.561   0.839  1.00  0.00     0.225 C 
ATOM      5  O   UNL     1       3.797   3.026   1.729  1.00  0.00    -0.275 OA
ATOM      6  H   UNL     1       5.197   4.378   0.399  1.00  0.00     0.163 HD
BRANCH   4   7
ATOM      7  C   UNL     1       4.565   1.062   0.523  1.00  0.00     0.101 C 
BRANCH   7   8
ATOM      8  C   UNL     1       3.868   0.749  -0.829  1.00  0.00     0.096 C 
BRANCH   8   9
ATOM      9  N   UNL     1       2.668   1.538  -1.169  1.00  0.00    -0.334 N 
ATOM     10  C   UNL     1       1.367   1.688  -0.892  1.00  0.00     0.317 C 
ATOM     11  O   UNL     1       0.851   2.658  -1.461  1.00  0.00    -0.249 OA
ATOM     12  H   UNL     1       2.918   2.201  -1.853  1.00  0.00     0.165 HD
BRANCH  10  13
ATOM     13  N   UNL     1       0.643   0.866  -0.091  1.00  0.00    -0.325 N 
ATOM     14  C   UNL     1      -3.128   0.280   0.001  1.00  0.00     0.009 C 
ATOM     15  C   UNL     1      -1.673   0.038  -0.390  1.00  0.00     0.005 C 
ATOM     16  C   UNL     1      -1.215  -1.339   0.121  1.00  0.00     0.007 C 
ATOM     17  C   UNL     1      -0.772   1.169   0.141  1.00  0.00     0.124 C 
ATOM     18  C   UNL     1       0.278  -1.542  -0.102  1.00  0.00     0.022 C 
ATOM     19  C   UNL     1       1.048  -0.382   0.510  1.00  0.00     0.121 C 
ENDBRANCH  10  13
ENDBRANCH   8   9
BRANCH   8  20
ATOM     20  C   UNL     1       3.843  -0.689  -1.373  1.00  0.00     0.026 C 
BRANCH  20  21
ATOM     21  C   UNL     1       4.766  -1.686  -0.682  1.00  0.00     0.002 CG0
ATOM     22  G   UNL     1       4.289  -2.118   0.700  1.00  0.00     0.000 G0
ENDBRANCH  20  21
ENDBRANCH   8  20
ENDBRANCH   7   8
BRANCH   7  23
ATOM     23  C   UNL     1       4.140   0.269   1.765  1.00  0.00     0.015 C 
BRANCH  23  24
ATOM     24  C   UNL     1       4.652  -1.168   1.835  1.00  0.00     0.001 C 
BRANCH  24  25
ATOM     25  C   UNL     1       4.289  -2.118   0.700  1.00  0.00     0.000 CG0
ATOM     26  G   UNL     1       4.766  -1.686  -0.682  1.00  0.00     0.000 G0
ENDBRANCH  24  25
ENDBRANCH  23  24
ENDBRANCH   7  23
ENDBRANCH   4   7
ENDBRANCH   2   3
ENDBRANCH   1   2
BRANCH   1  27
ATOM     27  C   UNL     1       5.554   5.193  -2.388  1.00  0.00     0.023 C 
BRANCH  27  28
ATOM     28  C   UNL     1       6.823   5.976  -2.083  1.00  0.00     0.116 C 
BRANCH  28  29
ATOM     29  N   UNL     1       7.956   5.559  -2.895  1.00  0.00    -0.352 N 
ATOM     30  C   UNL     1       8.936   6.336  -3.462  1.00  0.00     0.251 C 
ATOM     31  H   UNL     1       8.030   4.591  -3.059  1.00  0.00     0.163 HD
ATOM     32  O   UNL     1       9.757   5.848  -4.226  1.00  0.00    -0.269 OA
BRANCH  30  33
ATOM     33  C   UNL     1       8.961   7.780  -3.160  1.00  0.00     0.039 A 
ATOM     34  C   UNL     1       9.046   8.687  -4.218  1.00  0.00     0.014 A 
ATOM     35  C   UNL     1       8.854   8.228  -1.842  1.00  0.00     0.014 A 
ATOM     36  C   UNL     1       8.961  10.053  -3.955  1.00  0.00     0.010 A 
ATOM     37  C   UNL     1       8.690   9.584  -1.590  1.00  0.00     0.010 A 
ATOM     38  C   UNL     1       8.748  10.509  -2.644  1.00  0.00    -0.014 A 
BRANCH  38  39
ATOM     39  C   UNL     1       8.587  11.952  -2.350  1.00  0.00     0.031 A 
ATOM     40  C   UNL     1       9.592  12.659  -1.489  1.00  0.00     0.074 A 
ATOM     41  C   UNL     1       7.495  12.603  -2.794  1.00  0.00     0.049 A 
ATOM     42  N   UNL     1       9.595  13.896  -1.063  1.00  0.00    -0.248 NA
ATOM     43  C   UNL     1      10.730  11.857  -1.013  1.00  0.00     0.031 C 
ATOM     44  C   UNL     1       6.418  12.004  -3.584  1.00  0.00     0.029 A 
ATOM     45  N   UNL     1       7.104  13.907  -2.631  1.00  0.00    -0.354 N 
ATOM     46  C   UNL     1      10.720  14.014  -0.259  1.00  0.00     0.074 A 
ATOM     47  C   UNL     1      11.341  12.709  -0.204  1.00  0.00     0.031 C 
ATOM     48  C   UNL     1       5.497  12.943  -3.851  1.00  0.00     0.029 A 
ATOM     49  C   UNL     1       5.902  14.198  -3.225  1.00  0.00     0.049 A 
ATOM     50  H   UNL     1       7.636  14.571  -2.135  1.00  0.00     0.167 HD
ATOM     51  C   UNL     1      11.206  15.118   0.357  1.00  0.00     0.037 A 
ATOM     52  C   UNL     1       5.202  15.348  -3.256  1.00  0.00     0.037 A 
ATOM     53  C   UNL     1      10.592  16.418   0.281  1.00  0.00     0.049 A 
ATOM     54  C   UNL     1       5.765  16.565  -2.576  1.00  0.00     0.074 A 
ATOM     55  C   UNL     1      11.040  17.617   0.805  1.00  0.00     0.029 A 
ATOM     56  N   UNL     1       9.389  16.684  -0.358  1.00  0.00    -0.354 N 
ATOM     57  N   UNL     1       6.875  16.690  -1.889  1.00  0.00    -0.248 NA
ATOM     58  C   UNL     1       4.984  17.805  -2.686  1.00  0.00     0.031 C 
ATOM     59  C   UNL     1      10.082  18.599   0.527  1.00  0.00     0.029 A 
ATOM     60  C   UNL     1       9.064  18.024  -0.218  1.00  0.00     0.049 A 
ATOM     61  H   UNL     1       8.845  16.019  -0.839  1.00  0.00     0.167 HD
ATOM     62  C   UNL     1       6.937  18.021  -1.501  1.00  0.00     0.074 A 
ATOM     63  C   UNL     1       5.760  18.668  -2.045  1.00  0.00     0.031 C 
ATOM     64  C   UNL     1       7.885  18.650  -0.762  1.00  0.00     0.037 A 
BRANCH  51  65
ATOM     65  C   UNL     1      12.461  14.957   1.167  1.00  0.00     0.064 A 
ATOM     66  C   UNL     1      13.696  14.665   0.566  1.00  0.00     0.173 A 
ATOM     67  C   UNL     1      12.429  15.089   2.563  1.00  0.00     0.173 A 
ATOM     68  F   UNL     1      13.781  14.515  -0.765  1.00  0.00    -0.203 F 
ATOM     69  C   UNL     1      14.840  14.467   1.334  1.00  0.00     0.198 A 
ATOM     70  C   UNL     1      13.583  14.926   3.326  1.00  0.00     0.198 A 
ATOM     71  F   UNL     1      11.278  15.373   3.191  1.00  0.00    -0.203 F 
ATOM     72  F   UNL     1      15.991  14.121   0.742  1.00  0.00    -0.200 F 
ATOM     73  C   UNL     1      14.784  14.602   2.713  1.00  0.00     0.200 A 
ATOM     74  F   UNL     1      13.530  15.069   4.658  1.00  0.00    -0.200 F 
ATOM     75  F   UNL     1      15.884  14.408   3.452  1.00  0.00    -0.200 F 
ENDBRANCH  51  65
BRANCH  52  76
ATOM     76  C   UNL     1       3.910  15.398  -3.986  1.00  0.00     0.064 A 
ATOM     77  C   UNL     1       3.798  16.082  -5.204  1.00  0.00     0.173 A 
ATOM     78  C   UNL     1       2.774  14.733  -3.503  1.00  0.00     0.173 A 
ATOM     79  F   UNL     1       4.853  16.747  -5.697  1.00  0.00    -0.203 F 
ATOM     80  C   UNL     1       2.596  16.107  -5.907  1.00  0.00     0.198 A 
ATOM     81  C   UNL     1       1.579  14.737  -4.219  1.00  0.00     0.198 A 
ATOM     82  F   UNL     1       2.833  14.057  -2.346  1.00  0.00    -0.203 F 
ATOM     83  F   UNL     1       2.507  16.794  -7.054  1.00  0.00    -0.200 F 
ATOM     84  C   UNL     1       1.490  15.428  -5.418  1.00  0.00     0.200 A 
ATOM     85  F   UNL     1       0.518  14.066  -3.752  1.00  0.00    -0.200 F 
ATOM     86  F   UNL     1       0.338  15.441  -6.102  1.00  0.00    -0.200 F 
ENDBRANCH  52  76
BRANCH  64  87
ATOM     87  C   UNL     1       7.699  20.119  -0.516  1.00  0.00     0.064 A 
ATOM     88  C   UNL     1       6.713  20.601   0.357  1.00  0.00     0.173 A 
ATOM     89  C   UNL     1       8.549  21.054  -1.128  1.00  0.00     0.173 A 
ATOM     90  F   UNL     1       5.866  19.748   0.955  1.00  0.00    -0.203 F 
ATOM     91  C   UNL     1       6.568  21.966   0.590  1.00  0.00     0.198 A 
ATOM     92  C   UNL     1       8.421  22.416  -0.869  1.00  0.00     0.198 A 
ATOM     93  F   UNL     1       9.512  20.645  -1.966  1.00  0.00    -0.203 F 
ATOM     94  F   UNL     1       5.589  22.407   1.392  1.00  0.00    -0.200 F 
ATOM     95  C   UNL     1       7.427  22.871  -0.017  1.00  0.00     0.200 A 
ATOM     96  F   UNL     1       9.260  23.287  -1.445  1.00  0.00    -0.200 F 
ATOM     97  F   UNL     1       7.291  24.184   0.216  1.00  0.00    -0.200 F 
ENDBRANCH  64  87
ENDBRANCH  38  39
ENDBRANCH  30  33
ENDBRANCH  28  29
ENDBRANCH  27  28
ENDBRANCH   1  27
TORSDOF 13
