REMARK SMILES O=C(NCCCCNC(=O)c1cc(S(=O)(=O)ON2C(=O)c3cccc4cccc(c34)C2=O)ccc1Br)c1ccc(-c2c3nc(c(-c4c(F)c(F)c(F)c(F)c4F)c4ccc([nH]4)c(-c4c(F)c(F)c(F)c(F)c4F)c4nc(c(-c5c(F)c(F)c(F)c(F)c5F)c5ccc2[nH]5)C=C4)C=C3)cc1
REMARK SMILES IDX 6 1 5 2 4 3 3 4 1 5 2 6 37 8 38 9 99 10 39 11 98 12 40 13
REMARK SMILES IDX 41 14 42 15 92 16 43 17 97 18 91 19 93 20 44 21 96 22 90 23
REMARK SMILES IDX 89 24 45 26 77 27 57 28 76 29 58 30 61 31 75 32 94 33 59 34
REMARK SMILES IDX 60 35 74 37 95 38 62 39 46 40 47 41 55 42 48 43 49 44 53 45
REMARK SMILES IDX 56 46 50 47 51 48 54 49 52 50 78 51 79 52 87 53 80 54 81 55
REMARK SMILES IDX 85 56 88 57 82 58 83 59 86 60 84 61 63 62 64 63 72 64 65 65
REMARK SMILES IDX 66 66 70 67 73 68 67 69 68 70 71 71 69 72 7 73 8 74 9 75
REMARK SMILES IDX 10 77 11 78 12 79 35 80 13 81 34 82 36 83 33 84 14 85 15 86
REMARK SMILES IDX 16 87 17 88 18 89 19 90 31 91 20 92 21 93 29 94 32 95 22 96
REMARK SMILES IDX 30 97 28 98 23 99 25 100 27 101 24 102 26 103
REMARK H PARENT 3 7 93 25 61 36 8 76
REMARK Flexibility Score: inf
ROOT
ATOM      1  C   UNL     1       4.375  -1.526  -3.622  1.00  0.00     0.023 C 
ENDROOT
BRANCH   1   2
ATOM      2  C   UNL     1       4.858  -1.524  -2.173  1.00  0.00     0.023 C 
BRANCH   2   3
ATOM      3  C   UNL     1       4.507  -0.279  -1.368  1.00  0.00     0.116 C 
BRANCH   3   4
ATOM      4  N   UNL     1       3.073  -0.085  -1.210  1.00  0.00    -0.352 N 
ATOM      5  O   UNL     1       1.098   0.033  -0.123  1.00  0.00    -0.269 OA
ATOM      6  C   UNL     1       2.323  -0.001  -0.060  1.00  0.00     0.251 C 
ATOM      7  H   UNL     1       2.566  -0.001  -2.049  1.00  0.00     0.163 HD
BRANCH   6   8
ATOM      8  C   UNL     1       2.992   0.017   1.258  1.00  0.00     0.039 A 
ATOM      9  C   UNL     1       4.111   0.822   1.479  1.00  0.00     0.014 A 
ATOM     10  C   UNL     1       2.492  -0.785   2.289  1.00  0.00     0.014 A 
ATOM     11  C   UNL     1       4.823   0.703   2.666  1.00  0.00     0.010 A 
ATOM     12  C   UNL     1       3.156  -0.831   3.518  1.00  0.00     0.010 A 
ATOM     13  C   UNL     1       4.347  -0.114   3.705  1.00  0.00    -0.014 A 
BRANCH  13  14
ATOM     14  C   UNL     1       5.082  -0.148   4.996  1.00  0.00     0.031 A 
ATOM     15  C   UNL     1       5.731  -1.408   5.494  1.00  0.00     0.074 A 
ATOM     16  C   UNL     1       5.181   0.991   5.708  1.00  0.00     0.049 A 
ATOM     17  N   UNL     1       6.420  -1.602   6.592  1.00  0.00    -0.248 NA
ATOM     18  C   UNL     1       5.585  -2.610   4.660  1.00  0.00     0.031 C 
ATOM     19  C   UNL     1       4.582   2.273   5.330  1.00  0.00     0.029 A 
ATOM     20  N   UNL     1       5.830   1.264   6.885  1.00  0.00    -0.354 N 
ATOM     21  C   UNL     1       6.775  -2.945   6.589  1.00  0.00     0.074 A 
ATOM     22  C   UNL     1       6.202  -3.527   5.393  1.00  0.00     0.031 C 
ATOM     23  C   UNL     1       4.927   3.204   6.230  1.00  0.00     0.029 A 
ATOM     24  C   UNL     1       5.715   2.573   7.282  1.00  0.00     0.049 A 
ATOM     25  H   UNL     1       6.331   0.586   7.394  1.00  0.00     0.167 HD
ATOM     26  C   UNL     1       7.517  -3.623   7.497  1.00  0.00     0.037 A 
ATOM     27  C   UNL     1       6.174   3.195   8.383  1.00  0.00     0.037 A 
ATOM     28  C   UNL     1       8.096  -3.032   8.678  1.00  0.00     0.049 A 
ATOM     29  C   UNL     1       6.968   2.410   9.386  1.00  0.00     0.074 A 
ATOM     30  C   UNL     1       8.895  -3.628   9.639  1.00  0.00     0.029 A 
ATOM     31  N   UNL     1       7.931  -1.709   9.064  1.00  0.00    -0.354 N 
ATOM     32  N   UNL     1       7.327   1.151   9.352  1.00  0.00    -0.248 NA
ATOM     33  C   UNL     1       7.420   3.134  10.581  1.00  0.00     0.031 C 
ATOM     34  C   UNL     1       9.171  -2.681  10.631  1.00  0.00     0.029 A 
ATOM     35  C   UNL     1       8.591  -1.478  10.261  1.00  0.00     0.049 A 
ATOM     36  H   UNL     1       7.421  -1.034   8.561  1.00  0.00     0.167 HD
ATOM     37  C   UNL     1       8.060   0.933  10.509  1.00  0.00     0.074 A 
ATOM     38  C   UNL     1       8.113   2.198  11.213  1.00  0.00     0.031 C 
ATOM     39  C   UNL     1       8.634  -0.213  10.951  1.00  0.00     0.037 A 
BRANCH  26  40
ATOM     40  C   UNL     1       7.737  -5.092   7.267  1.00  0.00     0.064 A 
ATOM     41  C   UNL     1       8.574  -5.563   6.244  1.00  0.00     0.173 A 
ATOM     42  C   UNL     1       7.146  -6.040   8.116  1.00  0.00     0.173 A 
ATOM     43  F   UNL     1       9.158  -4.700   5.399  1.00  0.00    -0.203 F 
ATOM     44  C   UNL     1       8.793  -6.928   6.068  1.00  0.00     0.198 A 
ATOM     45  C   UNL     1       7.389  -7.402   7.955  1.00  0.00     0.198 A 
ATOM     46  F   UNL     1       6.343  -5.645   9.116  1.00  0.00    -0.203 F 
ATOM     47  F   UNL     1       9.565  -7.356   5.059  1.00  0.00    -0.200 F 
ATOM     48  C   UNL     1       8.207  -7.845   6.927  1.00  0.00     0.200 A 
ATOM     49  F   UNL     1       6.833  -8.286   8.795  1.00  0.00    -0.200 F 
ATOM     50  F   UNL     1       8.427  -9.157   6.761  1.00  0.00    -0.200 F 
ENDBRANCH  26  40
BRANCH  27  51
ATOM     51  C   UNL     1       5.881   4.637   8.588  1.00  0.00     0.064 A 
ATOM     52  C   UNL     1       6.900   5.597   8.531  1.00  0.00     0.173 A 
ATOM     53  C   UNL     1       4.573   5.085   8.829  1.00  0.00     0.173 A 
ATOM     54  F   UNL     1       8.168   5.215   8.321  1.00  0.00    -0.203 F 
ATOM     55  C   UNL     1       6.624   6.949   8.721  1.00  0.00     0.198 A 
ATOM     56  C   UNL     1       4.294   6.440   8.987  1.00  0.00     0.198 A 
ATOM     57  F   UNL     1       3.562   4.206   8.886  1.00  0.00    -0.203 F 
ATOM     58  F   UNL     1       7.622   7.843   8.703  1.00  0.00    -0.200 F 
ATOM     59  C   UNL     1       5.321   7.370   8.941  1.00  0.00     0.200 A 
ATOM     60  F   UNL     1       3.031   6.843   9.180  1.00  0.00    -0.200 F 
ATOM     61  F   UNL     1       5.055   8.672   9.114  1.00  0.00    -0.200 F 
ENDBRANCH  27  51
BRANCH  39  62
ATOM     62  C   UNL     1       9.393  -0.141  12.243  1.00  0.00     0.064 A 
ATOM     63  C   UNL     1       8.738   0.004  13.475  1.00  0.00     0.173 A 
ATOM     64  C   UNL     1      10.793  -0.243  12.251  1.00  0.00     0.173 A 
ATOM     65  F   UNL     1       7.402   0.124  13.518  1.00  0.00    -0.203 F 
ATOM     66  C   UNL     1       9.457   0.074  14.664  1.00  0.00     0.198 A 
ATOM     67  C   UNL     1      11.507  -0.204  13.445  1.00  0.00     0.198 A 
ATOM     68  F   UNL     1      11.467  -0.388  11.101  1.00  0.00    -0.203 F 
ATOM     69  F   UNL     1       8.814   0.267  15.824  1.00  0.00    -0.200 F 
ATOM     70  C   UNL     1      10.840  -0.037  14.649  1.00  0.00     0.200 A 
ATOM     71  F   UNL     1      12.841  -0.324  13.430  1.00  0.00    -0.200 F 
ATOM     72  F   UNL     1      11.531   0.026  15.796  1.00  0.00    -0.200 F 
ENDBRANCH  39  62
ENDBRANCH  13  14
ENDBRANCH   6   8
ENDBRANCH   3   4
ENDBRANCH   2   3
ENDBRANCH   1   2
BRANCH   1  73
ATOM     73  C   UNL     1       4.746  -0.291  -4.436  1.00  0.00     0.116 C 
BRANCH  73  74
ATOM     74  N   UNL     1       6.180  -0.071  -4.518  1.00  0.00    -0.352 N 
ATOM     75  C   UNL     1       6.936   0.245  -5.620  1.00  0.00     0.252 C 
ATOM     76  H   UNL     1       6.675  -0.160  -3.672  1.00  0.00     0.163 HD
ATOM     77  O   UNL     1       8.151   0.380  -5.530  1.00  0.00    -0.269 OA
BRANCH  75  78
ATOM     78  C   UNL     1       6.290   0.342  -6.940  1.00  0.00     0.055 A 
ATOM     79  C   UNL     1       6.636  -0.637  -7.878  1.00  0.00     0.038 A 
ATOM     80  C   UNL     1       5.376   1.349  -7.275  1.00  0.00     0.030 A 
ATOM     81  C   UNL     1       6.018  -0.634  -9.131  1.00  0.00     0.097 A 
ATOM     82  C   UNL     1       4.732   1.313  -8.518  1.00  0.00     0.018 A 
ATOM     83  Br  UNL     1       4.994   2.818  -6.136  1.00  0.00    -0.050 Br
ATOM     84  C   UNL     1       5.044   0.316  -9.446  1.00  0.00     0.024 A 
BRANCH  81  85
ATOM     85  S   UNL     1       6.508  -1.869 -10.311  1.00  0.00     0.318 S 
ATOM     86  O   UNL     1       7.838  -1.499 -10.758  1.00  0.00    -0.192 OA
ATOM     87  O   UNL     1       6.272  -3.150  -9.680  1.00  0.00    -0.192 OA
BRANCH  85  88
ATOM     88  O   UNL     1       5.462  -1.691 -11.559  1.00  0.00    -0.134 OA
BRANCH  88  89
ATOM     89  N   UNL     1       5.746  -2.584 -12.614  1.00  0.00    -0.127 N 
ATOM     90  C   UNL     1       6.481  -2.052 -13.656  1.00  0.00     0.286 C 
ATOM     91  C   UNL     1       5.017  -3.756 -12.596  1.00  0.00     0.286 C 
ATOM     92  O   UNL     1       6.843  -0.882 -13.732  1.00  0.00    -0.266 OA
ATOM     93  C   UNL     1       6.784  -3.008 -14.748  1.00  0.00     0.051 A 
ATOM     94  C   UNL     1       5.346  -4.702 -13.686  1.00  0.00     0.051 A 
ATOM     95  O   UNL     1       4.137  -4.021 -11.784  1.00  0.00    -0.266 OA
ATOM     96  C   UNL     1       7.635  -2.622 -15.790  1.00  0.00     0.014 A 
ATOM     97  C   UNL     1       6.219  -4.296 -14.711  1.00  0.00     0.007 A 
ATOM     98  C   UNL     1       4.789  -5.986 -13.674  1.00  0.00     0.014 A 
ATOM     99  C   UNL     1       7.937  -3.526 -16.804  1.00  0.00     0.001 A 
ATOM    100  C   UNL     1       6.530  -5.209 -15.744  1.00  0.00    -0.017 A 
ATOM    101  C   UNL     1       5.107  -6.883 -14.688  1.00  0.00     0.001 A 
ATOM    102  C   UNL     1       7.392  -4.811 -16.779  1.00  0.00     0.009 A 
ATOM    103  C   UNL     1       5.971  -6.498 -15.715  1.00  0.00     0.009 A 
ENDBRANCH  88  89
ENDBRANCH  85  88
ENDBRANCH  81  85
ENDBRANCH  75  78
ENDBRANCH  73  74
ENDBRANCH   1  73
TORSDOF 14
