REMARK SMILES COC(=O)[C@H]1CC[C@]2(C)[C@H](CC[C@]3(C)[C@H]2CC=C2[C@H]4CC(C)(C)CC[C@]4(C(=O)NCCCCNC(=O)c4ccc(-c5c6nc(c(-c7c(F)c(F)c(F)c(F)c7F)c7ccc([nH]7)c(-c7c(F)c(F)c(F)c(F)c7F)c7nc(c(-c8c(F)c(F)c(F)c(F)c8F)c8ccc5[nH]8)C=C7)C=C6)cc4)CC[C@@]23C)C1(C)C
REMARK SMILES IDX 31 1 30 2 29 3 27 4 28 5 26 7 5 8 6 9 104 10 7 11 10 12
REMARK SMILES IDX 105 13 106 14 8 15 11 16 15 17 9 18 12 19 16 20 13 21 17 22
REMARK SMILES IDX 102 23 14 24 18 25 101 26 103 27 19 28 100 29 20 30 21 31
REMARK SMILES IDX 25 32 24 33 22 34 23 35 3 36 4 37 2 38 1 39 32 40 33 41
REMARK SMILES IDX 34 42 35 43 36 45 37 46 38 47 99 48 39 49 98 50 40 51 41 52
REMARK SMILES IDX 42 53 92 54 43 55 97 56 91 57 93 58 44 59 96 60 90 61 89 62
REMARK SMILES IDX 45 64 77 65 57 66 76 67 58 68 61 69 75 70 94 71 59 72 60 73
REMARK SMILES IDX 74 75 95 76 62 77 46 78 47 79 55 80 48 81 49 82 53 83 56 84
REMARK SMILES IDX 50 85 51 86 54 87 52 88 78 89 79 90 87 91 80 92 81 93 85 94
REMARK SMILES IDX 88 95 82 96 83 97 86 98 84 99 63 100 64 101 72 102 65 103
REMARK SMILES IDX 66 104 70 105 73 106 67 107 68 108 71 109 69 110
REMARK H PARENT 29 6 34 44 93 63 61 74
REMARK Flexibility Score: inf
ROOT
ATOM      1  C   UNL     1      -7.496  -5.839  -6.657  1.00  0.00     0.023 C 
ENDROOT
BRANCH   1   2
ATOM      2  C   UNL     1      -6.515  -5.466  -7.763  1.00  0.00     0.116 C 
BRANCH   2   3
ATOM      3  N   UNL     1      -5.407  -4.669  -7.328  1.00  0.00    -0.356 N 
ATOM      4  C   UNL     1      -4.349  -5.311  -6.753  1.00  0.00     0.226 C 
ATOM      5  O   UNL     1      -4.516  -6.382  -6.174  1.00  0.00    -0.274 OA
ATOM      6  H   UNL     1      -5.408  -3.691  -7.439  1.00  0.00     0.163 HD
BRANCH   4   7
ATOM      7  C   UNL     1      -2.981  -4.655  -6.934  1.00  0.00     0.056 C 
ATOM      8  C   UNL     1       1.423   1.061  -3.682  1.00  0.00     0.105 C 
ATOM      9  C   UNL     1       0.395   2.207  -3.987  1.00  0.00     0.016 C 
ATOM     10  C   UNL     1       0.938  -0.425  -3.956  1.00  0.00    -0.019 C 
ATOM     11  C   UNL     1      -0.635   1.983  -5.136  1.00  0.00     0.008 C 
ATOM     12  C   UNL     1       0.048  -0.322  -5.263  1.00  0.00     0.002 C 
ATOM     13  C   UNL     1       0.334  -1.052  -2.659  1.00  0.00     0.012 C 
ATOM     14  C   UNL     1       2.131  -1.409  -4.195  1.00  0.00     0.012 C 
ATOM     15  C   UNL     1      -1.253   0.539  -5.116  1.00  0.00    -0.026 C 
ATOM     16  C   UNL     1      -0.000  -1.536  -6.162  1.00  0.00     0.005 C 
ATOM     17  C   UNL     1      -2.373   0.362  -6.276  1.00  0.00     0.006 C 
ATOM     18  C   UNL     1      -1.964   0.497  -3.741  1.00  0.00     0.012 C 
ATOM     19  C   UNL     1      -0.675  -1.311  -7.505  1.00  0.00     0.008 C 
ATOM     20  C   UNL     1      -3.852   0.096  -5.718  1.00  0.00     0.032 C 
ATOM     21  C   UNL     1      -2.047  -0.589  -7.565  1.00  0.00    -0.020 C 
ATOM     22  C   UNL     1      -4.193  -1.361  -5.603  1.00  0.00    -0.027 C 
ATOM     23  C   UNL     1      -3.272  -1.623  -7.827  1.00  0.00    -0.006 C 
ATOM     24  C   UNL     1      -1.905   0.359  -8.802  1.00  0.00     0.012 C 
ATOM     25  C   UNL     1      -3.623  -2.218  -6.460  1.00  0.00    -0.064 C 
ATOM     26  C   UNL     1      -3.157  -2.806  -8.848  1.00  0.00     0.013 C 
ATOM     27  C   UNL     1      -4.493  -0.829  -8.470  1.00  0.00     0.017 C 
ATOM     28  C   UNL     1      -2.819  -3.458  -6.014  1.00  0.00     0.031 C 
ATOM     29  C   UNL     1      -2.710  -4.210  -8.403  1.00  0.00     0.018 C 
ATOM     30  C   UNL     1      -2.723  -3.833  -4.514  1.00  0.00     0.015 C 
ATOM     31  C   UNL     1      -1.715  -4.996  -4.173  1.00  0.00    -0.035 C 
ATOM     32  C   UNL     1      -1.914  -5.744  -6.614  1.00  0.00     0.018 C 
ATOM     33  C   UNL     1      -1.843  -6.175  -5.147  1.00  0.00     0.007 C 
ATOM     34  C   UNL     1      -2.015  -5.492  -2.744  1.00  0.00     0.011 C 
ATOM     35  C   UNL     1      -0.236  -4.560  -4.183  1.00  0.00     0.011 C 
BRANCH   8  36
ATOM     36  C   UNL     1       2.690   1.359  -4.483  1.00  0.00     0.309 C 
ATOM     37  O   UNL     1       2.715   1.888  -5.586  1.00  0.00    -0.252 OA
BRANCH  36  38
ATOM     38  O   UNL     1       3.778   0.835  -3.850  1.00  0.00    -0.469 OA
ATOM     39  C   UNL     1       4.879   0.572  -4.722  1.00  0.00     0.282 C 
ENDBRANCH  36  38
ENDBRANCH   8  36
ENDBRANCH   4   7
ENDBRANCH   2   3
ENDBRANCH   1   2
BRANCH   1  40
ATOM     40  C   UNL     1      -8.099  -4.655  -5.905  1.00  0.00     0.023 C 
BRANCH  40  41
ATOM     41  C   UNL     1      -8.565  -3.515  -6.805  1.00  0.00     0.116 C 
BRANCH  41  42
ATOM     42  N   UNL     1      -9.332  -3.998  -7.953  1.00  0.00    -0.352 N 
ATOM     43  C   UNL     1     -10.676  -4.022  -8.157  1.00  0.00     0.251 C 
ATOM     44  H   UNL     1      -8.792  -4.361  -8.692  1.00  0.00     0.163 HD
ATOM     45  O   UNL     1     -11.169  -4.736  -9.038  1.00  0.00    -0.269 OA
BRANCH  43  46
ATOM     46  C   UNL     1     -11.528  -3.183  -7.320  1.00  0.00     0.039 A 
ATOM     47  C   UNL     1     -12.635  -3.747  -6.689  1.00  0.00     0.014 A 
ATOM     48  C   UNL     1     -11.188  -1.840  -7.139  1.00  0.00     0.014 A 
ATOM     49  C   UNL     1     -13.375  -2.967  -5.809  1.00  0.00     0.010 A 
ATOM     50  C   UNL     1     -11.877  -1.089  -6.204  1.00  0.00     0.010 A 
ATOM     51  C   UNL     1     -12.973  -1.650  -5.532  1.00  0.00    -0.014 A 
BRANCH  51  52
ATOM     52  C   UNL     1     -13.671  -0.838  -4.516  1.00  0.00     0.031 A 
ATOM     53  C   UNL     1     -14.396   0.405  -4.931  1.00  0.00     0.074 A 
ATOM     54  C   UNL     1     -13.562  -1.183  -3.221  1.00  0.00     0.049 A 
ATOM     55  N   UNL     1     -14.981   1.305  -4.185  1.00  0.00    -0.248 NA
ATOM     56  C   UNL     1     -14.445   0.692  -6.374  1.00  0.00     0.031 C 
ATOM     57  C   UNL     1     -12.833  -2.348  -2.715  1.00  0.00     0.029 A 
ATOM     58  N   UNL     1     -14.047  -0.577  -2.092  1.00  0.00    -0.354 N 
ATOM     59  C   UNL     1     -15.456   2.267  -5.064  1.00  0.00     0.074 A 
ATOM     60  C   UNL     1     -15.046   1.872  -6.394  1.00  0.00     0.031 C 
ATOM     61  C   UNL     1     -12.930  -2.379  -1.377  1.00  0.00     0.029 A 
ATOM     62  C   UNL     1     -13.683  -1.212  -0.931  1.00  0.00     0.049 A 
ATOM     63  H   UNL     1     -14.602   0.236  -2.111  1.00  0.00     0.167 HD
ATOM     64  C   UNL     1     -16.185   3.370  -4.781  1.00  0.00     0.037 A 
ATOM     65  C   UNL     1     -13.912  -0.873   0.351  1.00  0.00     0.037 A 
ATOM     66  C   UNL     1     -16.595   3.738  -3.452  1.00  0.00     0.049 A 
ATOM     67  C   UNL     1     -14.699   0.376   0.639  1.00  0.00     0.074 A 
ATOM     68  C   UNL     1     -17.402   4.790  -3.059  1.00  0.00     0.029 A 
ATOM     69  N   UNL     1     -16.213   3.070  -2.296  1.00  0.00    -0.354 N 
ATOM     70  N   UNL     1     -15.224   1.234  -0.203  1.00  0.00    -0.248 NA
ATOM     71  C   UNL     1     -14.923   0.706   2.052  1.00  0.00     0.031 C 
ATOM     72  C   UNL     1     -17.453   4.798  -1.661  1.00  0.00     0.029 A 
ATOM     73  C   UNL     1     -16.730   3.716  -1.185  1.00  0.00     0.049 A 
ATOM     74  H   UNL     1     -15.658   2.257  -2.270  1.00  0.00     0.167 HD
ATOM     75  C   UNL     1     -15.851   2.197   0.575  1.00  0.00     0.074 A 
ATOM     76  C   UNL     1     -15.662   1.803   1.956  1.00  0.00     0.031 C 
ATOM     77  C   UNL     1     -16.518   3.310   0.182  1.00  0.00     0.037 A 
BRANCH  64  78
ATOM     78  C   UNL     1     -16.575   4.261  -5.924  1.00  0.00     0.064 A 
ATOM     79  C   UNL     1     -17.496   3.852  -6.901  1.00  0.00     0.173 A 
ATOM     80  C   UNL     1     -16.046   5.556  -6.026  1.00  0.00     0.173 A 
ATOM     81  F   UNL     1     -18.023   2.619  -6.859  1.00  0.00    -0.203 F 
ATOM     82  C   UNL     1     -17.849   4.694  -7.952  1.00  0.00     0.198 A 
ATOM     83  C   UNL     1     -16.426   6.408  -7.059  1.00  0.00     0.198 A 
ATOM     84  F   UNL     1     -15.163   5.999  -5.118  1.00  0.00    -0.203 F 
ATOM     85  F   UNL     1     -18.690   4.262  -8.902  1.00  0.00    -0.200 F 
ATOM     86  C   UNL     1     -17.320   5.974  -8.025  1.00  0.00     0.200 A 
ATOM     87  F   UNL     1     -15.924   7.649  -7.121  1.00  0.00    -0.200 F 
ATOM     88  F   UNL     1     -17.668   6.787  -9.032  1.00  0.00    -0.200 F 
ENDBRANCH  64  78
BRANCH  65  89
ATOM     89  C   UNL     1     -13.382  -1.724   1.447  1.00  0.00     0.064 A 
ATOM     90  C   UNL     1     -14.245  -2.458   2.273  1.00  0.00     0.173 A 
ATOM     91  C   UNL     1     -12.004  -1.831   1.686  1.00  0.00     0.173 A 
ATOM     92  F   UNL     1     -15.572  -2.374   2.096  1.00  0.00    -0.203 F 
ATOM     93  C   UNL     1     -13.750  -3.250   3.307  1.00  0.00     0.198 A 
ATOM     94  C   UNL     1     -11.509  -2.649   2.699  1.00  0.00     0.198 A 
ATOM     95  F   UNL     1     -11.134  -1.155   0.920  1.00  0.00    -0.203 F 
ATOM     96  F   UNL     1     -14.600  -3.906   4.109  1.00  0.00    -0.200 F 
ATOM     97  C   UNL     1     -12.383  -3.351   3.514  1.00  0.00     0.200 A 
ATOM     98  F   UNL     1     -10.186  -2.756   2.884  1.00  0.00    -0.200 F 
ATOM     99  F   UNL     1     -11.908  -4.119   4.504  1.00  0.00    -0.200 F 
ENDBRANCH  65  89
BRANCH  77 100
ATOM    100  C   UNL     1     -17.093   4.182   1.260  1.00  0.00     0.064 A 
ATOM    101  C   UNL     1     -16.271   4.967   2.081  1.00  0.00     0.173 A 
ATOM    102  C   UNL     1     -18.482   4.279   1.433  1.00  0.00     0.173 A 
ATOM    103  F   UNL     1     -14.936   4.896   1.966  1.00  0.00    -0.203 F 
ATOM    104  C   UNL     1     -16.818   5.807   3.047  1.00  0.00     0.198 A 
ATOM    105  C   UNL     1     -19.027   5.145   2.377  1.00  0.00     0.198 A 
ATOM    106  F   UNL     1     -19.312   3.553   0.669  1.00  0.00    -0.203 F 
ATOM    107  F   UNL     1     -16.013   6.517   3.848  1.00  0.00    -0.200 F 
ATOM    108  C   UNL     1     -18.195   5.903   3.187  1.00  0.00     0.200 A 
ATOM    109  F   UNL     1     -20.357   5.249   2.499  1.00  0.00    -0.200 F 
ATOM    110  F   UNL     1     -18.720   6.725   4.106  1.00  0.00    -0.200 F 
ENDBRANCH  77 100
ENDBRANCH  51  52
ENDBRANCH  43  46
ENDBRANCH  41  42
ENDBRANCH  40  41
ENDBRANCH   1  40
TORSDOF 13
