REMARK SMILES O=C(NCCCCNC(=O)c1cc2ccccc2cc1OCCO)c1ccc(-c2c3nc(c(-c4c(F)c(F)c(F)c(F)c4F)c4ccc([nH]4)c(-c4c(F)c(F)c(F)c(F)c4F)c4nc(c(-c5c(F)c(F)c(F)c(F)c5F)c5ccc2[nH]5)C=C4)C=C3)cc1
REMARK SMILES IDX 6 1 5 2 4 3 3 4 1 5 2 6 25 8 26 9 87 10 27 11 86 12 28 13
REMARK SMILES IDX 29 14 30 15 80 16 31 17 85 18 79 19 81 20 32 21 84 22 78 23
REMARK SMILES IDX 77 24 33 26 65 27 45 28 64 29 46 30 49 31 63 32 82 33 47 34
REMARK SMILES IDX 48 35 62 37 83 38 50 39 34 40 35 41 43 42 36 43 37 44 41 45
REMARK SMILES IDX 44 46 38 47 39 48 42 49 40 50 66 51 67 52 75 53 68 54 69 55
REMARK SMILES IDX 73 56 76 57 70 58 71 59 74 60 72 61 51 62 52 63 60 64 53 65
REMARK SMILES IDX 54 66 58 67 61 68 55 69 56 70 59 71 57 72 7 73 8 74 9 75
REMARK SMILES IDX 10 77 11 78 12 79 20 80 13 81 19 82 14 83 18 84 15 85 17 86
REMARK SMILES IDX 16 87 21 88 22 89 23 90 24 91
REMARK H PARENT 3 7 81 25 49 36 8 76 24 92
REMARK Flexibility Score: inf
ROOT
ATOM      1  C   UNL     1       4.597   2.087   3.411  1.00  0.00     0.023 C 
ENDROOT
BRANCH   1   2
ATOM      2  C   UNL     1       5.005   1.778   1.966  1.00  0.00     0.023 C 
BRANCH   2   3
ATOM      3  C   UNL     1       4.617   0.408   1.425  1.00  0.00     0.116 C 
BRANCH   3   4
ATOM      4  N   UNL     1       3.191   0.237   1.215  1.00  0.00    -0.352 N 
ATOM      5  O   UNL     1       1.239   0.084   0.095  1.00  0.00    -0.269 OA
ATOM      6  C   UNL     1       2.467   0.126   0.052  1.00  0.00     0.251 C 
ATOM      7  H   UNL     1       2.655   0.194   2.039  1.00  0.00     0.163 HD
BRANCH   6   8
ATOM      8  C   UNL     1       3.144   0.096  -1.265  1.00  0.00     0.039 A 
ATOM      9  C   UNL     1       4.251  -0.721  -1.503  1.00  0.00     0.014 A 
ATOM     10  C   UNL     1       2.631   0.884  -2.301  1.00  0.00     0.014 A 
ATOM     11  C   UNL     1       4.937  -0.629  -2.713  1.00  0.00     0.010 A 
ATOM     12  C   UNL     1       3.273   0.914  -3.544  1.00  0.00     0.010 A 
ATOM     13  C   UNL     1       4.458   0.191  -3.748  1.00  0.00    -0.014 A 
BRANCH  13  14
ATOM     14  C   UNL     1       5.188   0.255  -5.042  1.00  0.00     0.031 A 
ATOM     15  C   UNL     1       5.834   1.533  -5.505  1.00  0.00     0.074 A 
ATOM     16  C   UNL     1       5.283  -0.854  -5.800  1.00  0.00     0.049 A 
ATOM     17  N   UNL     1       6.516   1.766  -6.601  1.00  0.00    -0.248 NA
ATOM     18  C   UNL     1       5.691   2.707  -4.631  1.00  0.00     0.031 C 
ATOM     19  C   UNL     1       4.687  -2.150  -5.471  1.00  0.00     0.029 A 
ATOM     20  N   UNL     1       5.920  -1.075  -6.995  1.00  0.00    -0.354 N 
ATOM     21  C   UNL     1       6.867   3.109  -6.555  1.00  0.00     0.074 A 
ATOM     22  C   UNL     1       6.300   3.650  -5.338  1.00  0.00     0.031 C 
ATOM     23  C   UNL     1       5.012  -3.037  -6.422  1.00  0.00     0.029 A 
ATOM     24  C   UNL     1       5.794  -2.363  -7.454  1.00  0.00     0.049 A 
ATOM     25  H   UNL     1       6.418  -0.376  -7.478  1.00  0.00     0.167 HD
ATOM     26  C   UNL     1       7.604   3.822  -7.442  1.00  0.00     0.037 A 
ATOM     27  C   UNL     1       6.243  -2.937  -8.586  1.00  0.00     0.037 A 
ATOM     28  C   UNL     1       8.184   3.279  -8.644  1.00  0.00     0.049 A 
ATOM     29  C   UNL     1       7.040  -2.117  -9.561  1.00  0.00     0.074 A 
ATOM     30  C   UNL     1       8.986   3.913  -9.578  1.00  0.00     0.029 A 
ATOM     31  N   UNL     1       8.016   1.974  -9.084  1.00  0.00    -0.354 N 
ATOM     32  N   UNL     1       7.404  -0.861  -9.481  1.00  0.00    -0.248 NA
ATOM     33  C   UNL     1       7.488  -2.797 -10.784  1.00  0.00     0.031 C 
ATOM     34  C   UNL     1       9.265   3.005 -10.606  1.00  0.00     0.029 A 
ATOM     35  C   UNL     1       8.678   1.791 -10.289  1.00  0.00     0.049 A 
ATOM     36  H   UNL     1       7.503   1.280  -8.610  1.00  0.00     0.167 HD
ATOM     37  C   UNL     1       8.136  -0.603 -10.631  1.00  0.00     0.074 A 
ATOM     38  C   UNL     1       8.182  -1.840 -11.383  1.00  0.00     0.031 C 
ATOM     39  C   UNL     1       8.715   0.556 -11.029  1.00  0.00     0.037 A 
BRANCH  26  40
ATOM     40  C   UNL     1       7.821   5.281  -7.156  1.00  0.00     0.064 A 
ATOM     41  C   UNL     1       8.672   5.713  -6.128  1.00  0.00     0.173 A 
ATOM     42  C   UNL     1       7.214   6.260  -7.959  1.00  0.00     0.173 A 
ATOM     43  F   UNL     1       9.270   4.819  -5.326  1.00  0.00    -0.203 F 
ATOM     44  C   UNL     1       8.888   7.070  -5.899  1.00  0.00     0.198 A 
ATOM     45  C   UNL     1       7.454   7.615  -7.744  1.00  0.00     0.198 A 
ATOM     46  F   UNL     1       6.399   5.901  -8.962  1.00  0.00    -0.203 F 
ATOM     47  F   UNL     1       9.673   7.460  -4.885  1.00  0.00    -0.200 F 
ATOM     48  C   UNL     1       8.285   8.019  -6.711  1.00  0.00     0.200 A 
ATOM     49  F   UNL     1       6.881   8.530  -8.539  1.00  0.00    -0.200 F 
ATOM     50  F   UNL     1       8.501   9.324  -6.494  1.00  0.00    -0.200 F 
ENDBRANCH  26  40
BRANCH  27  51
ATOM     51  C   UNL     1       5.943  -4.367  -8.852  1.00  0.00     0.064 A 
ATOM     52  C   UNL     1       6.955  -5.335  -8.822  1.00  0.00     0.173 A 
ATOM     53  C   UNL     1       4.636  -4.794  -9.129  1.00  0.00     0.173 A 
ATOM     54  F   UNL     1       8.223  -4.971  -8.583  1.00  0.00    -0.203 F 
ATOM     55  C   UNL     1       6.673  -6.677  -9.070  1.00  0.00     0.198 A 
ATOM     56  C   UNL     1       4.350  -6.139  -9.348  1.00  0.00     0.198 A 
ATOM     57  F   UNL     1       3.632  -3.906  -9.166  1.00  0.00    -0.203 F 
ATOM     58  F   UNL     1       7.664  -7.578  -9.074  1.00  0.00    -0.200 F 
ATOM     59  C   UNL     1       5.370  -7.079  -9.325  1.00  0.00     0.200 A 
ATOM     60  F   UNL     1       3.088  -6.525  -9.578  1.00  0.00    -0.200 F 
ATOM     61  F   UNL     1       5.098  -8.371  -9.554  1.00  0.00    -0.200 F 
ENDBRANCH  27  51
BRANCH  39  62
ATOM     62  C   UNL     1       9.469   0.535 -12.327  1.00  0.00     0.064 A 
ATOM     63  C   UNL     1       8.805   0.460 -13.560  1.00  0.00     0.173 A 
ATOM     64  C   UNL     1      10.869   0.617 -12.338  1.00  0.00     0.173 A 
ATOM     65  F   UNL     1       7.467   0.362 -13.602  1.00  0.00    -0.203 F 
ATOM     66  C   UNL     1       9.518   0.442 -14.756  1.00  0.00     0.198 A 
ATOM     67  C   UNL     1      11.577   0.627 -13.536  1.00  0.00     0.198 A 
ATOM     68  F   UNL     1      11.551   0.695 -11.185  1.00  0.00    -0.203 F 
ATOM     69  F   UNL     1       8.866   0.321 -15.921  1.00  0.00    -0.200 F 
ATOM     70  C   UNL     1      10.902   0.532 -14.743  1.00  0.00     0.200 A 
ATOM     71  F   UNL     1      12.913   0.726 -13.523  1.00  0.00    -0.200 F 
ATOM     72  F   UNL     1      11.586   0.519 -15.896  1.00  0.00    -0.200 F 
ENDBRANCH  39  62
ENDBRANCH  13  14
ENDBRANCH   6   8
ENDBRANCH   3   4
ENDBRANCH   2   3
ENDBRANCH   1   2
BRANCH   1  73
ATOM     73  C   UNL     1       4.981   1.066   4.487  1.00  0.00     0.116 C 
BRANCH  73  74
ATOM     74  N   UNL     1       6.373   0.654   4.446  1.00  0.00    -0.352 N 
ATOM     75  C   UNL     1       7.037  -0.143   5.346  1.00  0.00     0.255 C 
ATOM     76  H   UNL     1       6.902   0.985   3.684  1.00  0.00     0.163 HD
ATOM     77  O   UNL     1       8.165  -0.556   5.098  1.00  0.00    -0.269 OA
BRANCH  75  78
ATOM     78  C   UNL     1       6.427  -0.434   6.655  1.00  0.00     0.082 A 
ATOM     79  C   UNL     1       6.749   0.487   7.670  1.00  0.00     0.026 A 
ATOM     80  C   UNL     1       5.587  -1.514   6.931  1.00  0.00     0.132 A 
ATOM     81  C   UNL     1       6.196   0.375   8.955  1.00  0.00    -0.017 A 
ATOM     82  C   UNL     1       5.023  -1.613   8.213  1.00  0.00     0.056 A 
ATOM     83  C   UNL     1       6.492   1.294   9.975  1.00  0.00     0.009 A 
ATOM     84  C   UNL     1       5.307  -0.685   9.225  1.00  0.00    -0.015 A 
ATOM     85  C   UNL     1       5.904   1.173  11.236  1.00  0.00     0.001 A 
ATOM     86  C   UNL     1       4.720  -0.792  10.495  1.00  0.00     0.009 A 
ATOM     87  C   UNL     1       5.014   0.135  11.494  1.00  0.00     0.001 A 
BRANCH  80  88
ATOM     88  O   UNL     1       5.114  -2.482   6.101  1.00  0.00    -0.490 OA
BRANCH  88  89
ATOM     89  C   UNL     1       5.938  -3.048   5.082  1.00  0.00     0.257 C 
BRANCH  89  90
ATOM     90  C   UNL     1       5.359  -2.651   3.730  1.00  0.00     0.197 C 
BRANCH  90  91
ATOM     91  O   UNL     1       3.938  -2.511   3.790  1.00  0.00    -0.393 OA
ATOM     92  H   UNL     1       3.540  -3.358   4.044  1.00  0.00     0.210 HD
ENDBRANCH  90  91
ENDBRANCH  89  90
ENDBRANCH  88  89
ENDBRANCH  80  88
ENDBRANCH  75  78
ENDBRANCH  73  74
ENDBRANCH   1  73
TORSDOF 15
