REMARK SMILES COc1cc(OC(F)(F)F)cc2c1O[C@@H](C(F)(F)F)C(C(=O)NCCCCNC(=O)c1ccc(-c3c4nc(c(-c5c(F)c(F)c(F)c(F)c5F)c5ccc([nH]5)c(-c5c(F)c(F)c(F)c(F)c5F)c5nc(c(-c6c(F)c(F)c(F)c(F)c6F)c6ccc3[nH]6)C=C5)C=C4)cc1)=C2
REMARK SMILES IDX 25 1 24 2 23 3 21 4 22 5 20 7 3 8 4 9 13 10 5 11 12 12 14 13
REMARK SMILES IDX 11 14 94 15 15 16 2 17 1 18 6 19 7 20 8 21 9 22 10 23 16 24
REMARK SMILES IDX 17 25 18 26 19 27 26 28 27 29 28 30 29 31 30 33 31 34 32 35
REMARK SMILES IDX 93 36 33 37 92 38 34 39 35 40 36 41 86 42 37 43 91 44 85 45
REMARK SMILES IDX 87 46 38 47 90 48 84 49 83 50 39 52 71 53 51 54 70 55 52 56
REMARK SMILES IDX 55 57 69 58 88 59 53 60 54 61 68 63 89 64 56 65 40 66 41 67
REMARK SMILES IDX 49 68 42 69 43 70 47 71 50 72 44 73 45 74 48 75 46 76 72 77
REMARK SMILES IDX 73 78 81 79 74 80 75 81 79 82 82 83 76 84 77 85 80 86 78 87
REMARK SMILES IDX 57 88 58 89 66 90 59 91 60 92 64 93 67 94 61 95 62 96 65 97
REMARK SMILES IDX 63 98
REMARK H PARENT 23 6 28 32 87 51 55 62
REMARK Flexibility Score: inf
ROOT
ATOM      1  C   UNL     1       5.787   0.861   7.037  1.00  0.00     0.023 C 
ENDROOT
BRANCH   1   2
ATOM      2  C   UNL     1       6.170   1.647   5.777  1.00  0.00     0.116 C 
BRANCH   2   3
ATOM      3  N   UNL     1       6.667   0.740   4.758  1.00  0.00    -0.352 N 
ATOM      4  C   UNL     1       6.045   0.044   3.770  1.00  0.00     0.251 C 
ATOM      5  O   UNL     1       6.700  -0.797   3.160  1.00  0.00    -0.270 OA
ATOM      6  H   UNL     1       7.641   0.602   4.788  1.00  0.00     0.163 HD
BRANCH   4   7
ATOM      7  C   UNL     1       4.640   0.304   3.356  1.00  0.00     0.067 C 
ATOM      8  C   UNL     1       0.802   1.246   1.904  1.00  0.00     0.165 A 
ATOM      9  C   UNL     1      -0.197   1.634   2.808  1.00  0.00     0.097 A 
ATOM     10  C   UNL     1       2.080   0.904   2.365  1.00  0.00     0.170 A 
ATOM     11  C   UNL     1       0.055   1.640   4.178  1.00  0.00     0.134 A 
ATOM     12  C   UNL     1       2.330   0.897   3.735  1.00  0.00     0.025 A 
ATOM     13  O   UNL     1       3.073   0.690   1.455  1.00  0.00    -0.471 OA
ATOM     14  C   UNL     1       1.318   1.256   4.634  1.00  0.00     0.059 A 
ATOM     15  C   UNL     1       3.669   0.615   4.226  1.00  0.00     0.026 C 
ATOM     16  C   UNL     1       4.302   0.042   1.893  1.00  0.00     0.314 C 
BRANCH   8  17
ATOM     17  O   UNL     1       0.437   1.309   0.583  1.00  0.00    -0.493 OA
ATOM     18  C   UNL     1       0.808   0.161  -0.178  1.00  0.00     0.278 C 
ENDBRANCH   8  17
BRANCH  11  19
ATOM     19  O   UNL     1      -0.810   2.007   5.167  1.00  0.00    -0.406 OA
BRANCH  19  20
ATOM     20  C   UNL     1      -2.113   2.421   4.792  1.00  0.00     0.573 C 
ATOM     21  F   UNL     1      -2.070   3.503   3.987  1.00  0.00    -0.132 F 
ATOM     22  F   UNL     1      -2.777   1.420   4.175  1.00  0.00    -0.132 F 
ATOM     23  F   UNL     1      -2.797   2.754   5.908  1.00  0.00    -0.132 F 
ENDBRANCH  19  20
ENDBRANCH  11  19
BRANCH  16  24
ATOM     24  C   UNL     1       5.390   0.396   0.852  1.00  0.00     0.429 C 
ATOM     25  F   UNL     1       6.301  -0.589   0.690  1.00  0.00    -0.167 F 
ATOM     26  F   UNL     1       4.839   0.579  -0.379  1.00  0.00    -0.167 F 
ATOM     27  F   UNL     1       6.048   1.537   1.159  1.00  0.00    -0.167 F 
ENDBRANCH  16  24
ENDBRANCH   4   7
ENDBRANCH   2   3
ENDBRANCH   1   2
BRANCH   1  28
ATOM     28  C   UNL     1       6.980   0.416   7.889  1.00  0.00     0.023 C 
BRANCH  28  29
ATOM     29  C   UNL     1       7.776   1.555   8.513  1.00  0.00     0.116 C 
BRANCH  29  30
ATOM     30  N   UNL     1       6.972   2.412   9.371  1.00  0.00    -0.352 N 
ATOM     31  C   UNL     1       7.361   3.115  10.485  1.00  0.00     0.251 C 
ATOM     32  H   UNL     1       6.024   2.499   9.120  1.00  0.00     0.163 HD
ATOM     33  O   UNL     1       6.537   3.712  11.163  1.00  0.00    -0.269 OA
BRANCH  31  34
ATOM     34  C   UNL     1       8.784   3.104  10.881  1.00  0.00     0.039 A 
ATOM     35  C   UNL     1       9.108   2.799  12.205  1.00  0.00     0.014 A 
ATOM     36  C   UNL     1       9.790   3.359   9.945  1.00  0.00     0.014 A 
ATOM     37  C   UNL     1      10.448   2.685  12.577  1.00  0.00     0.010 A 
ATOM     38  C   UNL     1      11.122   3.181  10.301  1.00  0.00     0.010 A 
ATOM     39  C   UNL     1      11.463   2.841  11.619  1.00  0.00    -0.014 A 
BRANCH  39  40
ATOM     40  C   UNL     1      12.889   2.648  11.976  1.00  0.00     0.031 A 
ATOM     41  C   UNL     1      13.842   3.807  11.914  1.00  0.00     0.074 A 
ATOM     42  C   UNL     1      13.336   1.415  12.281  1.00  0.00     0.049 A 
ATOM     43  N   UNL     1      15.136   3.826  12.115  1.00  0.00    -0.248 NA
ATOM     44  C   UNL     1      13.272   5.113  11.550  1.00  0.00     0.031 C 
ATOM     45  C   UNL     1      12.515   0.203  12.318  1.00  0.00     0.029 A 
ATOM     46  N   UNL     1      14.594   0.974  12.603  1.00  0.00    -0.354 N 
ATOM     47  C   UNL     1      15.534   5.135  11.883  1.00  0.00     0.074 A 
ATOM     48  C   UNL     1      14.355   5.872  11.481  1.00  0.00     0.031 C 
ATOM     49  C   UNL     1      13.287  -0.840  12.661  1.00  0.00     0.029 A 
ATOM     50  C   UNL     1      14.661  -0.378  12.835  1.00  0.00     0.049 A 
ATOM     51  H   UNL     1      15.376   1.570  12.662  1.00  0.00     0.167 HD
ATOM     52  C   UNL     1      16.767   5.677  12.015  1.00  0.00     0.037 A 
ATOM     53  C   UNL     1      15.714  -1.156  13.148  1.00  0.00     0.037 A 
ATOM     54  C   UNL     1      17.929   4.947  12.450  1.00  0.00     0.049 A 
ATOM     55  C   UNL     1      17.071  -0.524  13.305  1.00  0.00     0.074 A 
ATOM     56  C   UNL     1      19.206   5.421  12.691  1.00  0.00     0.029 A 
ATOM     57  N   UNL     1      17.951   3.585  12.710  1.00  0.00    -0.354 N 
ATOM     58  N   UNL     1      17.421   0.731  13.161  1.00  0.00    -0.248 NA
ATOM     59  C   UNL     1      18.178  -1.417  13.675  1.00  0.00     0.031 C 
ATOM     60  C   UNL     1      20.012   4.338  13.056  1.00  0.00     0.029 A 
ATOM     61  C   UNL     1      19.227   3.197  13.088  1.00  0.00     0.049 A 
ATOM     62  H   UNL     1      17.176   2.982  12.636  1.00  0.00     0.167 HD
ATOM     63  C   UNL     1      18.777   0.784  13.450  1.00  0.00     0.074 A 
ATOM     64  C   UNL     1      19.185  -0.563  13.790  1.00  0.00     0.031 C 
ATOM     65  C   UNL     1      19.611   1.853  13.433  1.00  0.00     0.037 A 
BRANCH  52  66
ATOM     66  C   UNL     1      16.924   7.134  11.692  1.00  0.00     0.064 A 
ATOM     67  C   UNL     1      16.385   8.133  12.517  1.00  0.00     0.173 A 
ATOM     68  C   UNL     1      17.653   7.537  10.563  1.00  0.00     0.173 A 
ATOM     69  F   UNL     1      15.669   7.799  13.601  1.00  0.00    -0.203 F 
ATOM     70  C   UNL     1      16.547   9.481  12.209  1.00  0.00     0.198 A 
ATOM     71  C   UNL     1      17.837   8.887  10.274  1.00  0.00     0.198 A 
ATOM     72  F   UNL     1      18.193   6.623   9.744  1.00  0.00    -0.203 F 
ATOM     73  F   UNL     1      15.982  10.416  12.986  1.00  0.00    -0.200 F 
ATOM     74  C   UNL     1      17.278   9.857  11.093  1.00  0.00     0.200 A 
ATOM     75  F   UNL     1      18.554   9.249   9.201  1.00  0.00    -0.200 F 
ATOM     76  F   UNL     1      17.439  11.155  10.802  1.00  0.00    -0.200 F 
ENDBRANCH  52  66
BRANCH  53  77
ATOM     77  C   UNL     1      15.525  -2.614  13.362  1.00  0.00     0.064 A 
ATOM     78  C   UNL     1      15.639  -3.172  14.643  1.00  0.00     0.173 A 
ATOM     79  C   UNL     1      15.235  -3.477  12.296  1.00  0.00     0.173 A 
ATOM     80  F   UNL     1      15.935  -2.389  15.690  1.00  0.00    -0.203 F 
ATOM     81  C   UNL     1      15.493  -4.543  14.846  1.00  0.00     0.198 A 
ATOM     82  C   UNL     1      15.062  -4.844  12.505  1.00  0.00     0.198 A 
ATOM     83  F   UNL     1      15.109  -2.991  11.053  1.00  0.00    -0.203 F 
ATOM     84  F   UNL     1      15.653  -5.056  16.073  1.00  0.00    -0.200 F 
ATOM     85  C   UNL     1      15.199  -5.377  13.778  1.00  0.00     0.200 A 
ATOM     86  F   UNL     1      14.765  -5.645  11.473  1.00  0.00    -0.200 F 
ATOM     87  F   UNL     1      15.057  -6.695  13.974  1.00  0.00    -0.200 F 
ENDBRANCH  53  77
BRANCH  65  88
ATOM     88  C   UNL     1      21.039   1.616  13.828  1.00  0.00     0.064 A 
ATOM     89  C   UNL     1      21.932   0.941  12.983  1.00  0.00     0.173 A 
ATOM     90  C   UNL     1      21.528   2.106  15.048  1.00  0.00     0.173 A 
ATOM     91  F   UNL     1      21.507   0.440  11.813  1.00  0.00    -0.203 F 
ATOM     92  C   UNL     1      23.259   0.746  13.356  1.00  0.00     0.198 A 
ATOM     93  C   UNL     1      22.862   1.933  15.405  1.00  0.00     0.198 A 
ATOM     94  F   UNL     1      20.714   2.763  15.888  1.00  0.00    -0.203 F 
ATOM     95  F   UNL     1      24.084   0.060  12.554  1.00  0.00    -0.200 F 
ATOM     96  C   UNL     1      23.724   1.248  14.563  1.00  0.00     0.200 A 
ATOM     97  F   UNL     1      23.313   2.430  16.565  1.00  0.00    -0.200 F 
ATOM     98  F   UNL     1      25.003   1.065  14.917  1.00  0.00    -0.200 F 
ENDBRANCH  65  88
ENDBRANCH  39  40
ENDBRANCH  31  34
ENDBRANCH  29  30
ENDBRANCH  28  29
ENDBRANCH   1  28
TORSDOF 15
