REMARK SMILES O=C(NCCCCNC(=O)[C@H]1C=C[C@H](NC(=O)c2cc(F)c(Cl)cc2Cl)C1)c1ccc(-c2c3nc(c(-c4c(F)c(F)c(F)c(F)c4F)c4ccc([nH]4)c(-c4c(F)c(F)c(F)c(F)c4F)c4nc(c(-c5c(F)c(F)c(F)c(F)c5F)c5ccc2[nH]5)C=C4)C=C3)cc1
REMARK SMILES IDX 5 1 4 2 3 3 1 4 2 5 28 7 29 8 90 9 30 10 89 11 31 12 32 13
REMARK SMILES IDX 33 14 83 15 34 16 88 17 82 18 84 19 35 20 87 21 81 22 80 23
REMARK SMILES IDX 36 25 68 26 48 27 67 28 49 29 52 30 66 31 85 32 50 33 51 34
REMARK SMILES IDX 65 36 86 37 53 38 37 39 38 40 46 41 39 42 40 43 44 44 47 45
REMARK SMILES IDX 41 46 42 47 45 48 43 49 69 50 70 51 78 52 71 53 72 54 76 55
REMARK SMILES IDX 79 56 73 57 74 58 77 59 75 60 54 61 55 62 63 63 56 64 57 65
REMARK SMILES IDX 61 66 64 67 58 68 59 69 62 70 60 71 6 72 7 73 8 74 9 75
REMARK SMILES IDX 10 77 11 78 12 79 27 80 13 81 14 82 15 83 16 84 17 86 18 87
REMARK SMILES IDX 19 88 25 89 20 90 24 91 26 92 21 93 22 94 23 95
REMARK H PARENT 3 6 84 24 52 35 8 76 15 85
REMARK Flexibility Score: inf
ROOT
ATOM      1  C   UNL     1       4.724  -2.538  -1.263  1.00  0.00     0.023 C 
ENDROOT
BRANCH   1   2
ATOM      2  C   UNL     1       4.402  -1.237  -0.539  1.00  0.00     0.116 C 
BRANCH   2   3
ATOM      3  N   UNL     1       3.024  -0.801  -0.704  1.00  0.00    -0.352 N 
ATOM      4  O   UNL     1       1.137   0.309  -0.127  1.00  0.00    -0.269 OA
ATOM      5  C   UNL     1       2.329   0.099   0.068  1.00  0.00     0.251 C 
ATOM      6  H   UNL     1       2.530  -1.197  -1.458  1.00  0.00     0.163 HD
BRANCH   5   7
ATOM      7  C   UNL     1       3.034   0.766   1.179  1.00  0.00     0.039 A 
ATOM      8  C   UNL     1       4.250   1.412   0.953  1.00  0.00     0.014 A 
ATOM      9  C   UNL     1       2.501   0.677   2.467  1.00  0.00     0.014 A 
ATOM     10  C   UNL     1       5.007   1.837   2.035  1.00  0.00     0.010 A 
ATOM     11  C   UNL     1       3.230   1.176   3.547  1.00  0.00     0.010 A 
ATOM     12  C   UNL     1       4.507   1.720   3.343  1.00  0.00    -0.014 A 
BRANCH  12  13
ATOM     13  C   UNL     1       5.335   2.198   4.475  1.00  0.00     0.031 A 
ATOM     14  C   UNL     1       5.900   1.235   5.481  1.00  0.00     0.074 A 
ATOM     15  C   UNL     1       5.615   3.511   4.558  1.00  0.00     0.049 A 
ATOM     16  N   UNL     1       6.679   1.476   6.505  1.00  0.00    -0.248 NA
ATOM     17  C   UNL     1       5.539  -0.182   5.324  1.00  0.00     0.031 C 
ATOM     18  C   UNL     1       5.115   4.535   3.639  1.00  0.00     0.029 A 
ATOM     19  N   UNL     1       6.408   4.207   5.433  1.00  0.00    -0.354 N 
ATOM     20  C   UNL     1       6.876   0.252   7.130  1.00  0.00     0.074 A 
ATOM     21  C   UNL     1       6.125  -0.732   6.379  1.00  0.00     0.031 C 
ATOM     22  C   UNL     1       5.658   5.717   3.962  1.00  0.00     0.029 A 
ATOM     23  C   UNL     1       6.500   5.544   5.140  1.00  0.00     0.049 A 
ATOM     24  H   UNL     1       6.866   3.788   6.197  1.00  0.00     0.167 HD
ATOM     25  C   UNL     1       7.620  -0.022   8.229  1.00  0.00     0.037 A 
ATOM     26  C   UNL     1       7.185   6.524   5.756  1.00  0.00     0.037 A 
ATOM     27  C   UNL     1       8.393   0.956   8.950  1.00  0.00     0.049 A 
ATOM     28  C   UNL     1       8.009   6.188   6.964  1.00  0.00     0.074 A 
ATOM     29  C   UNL     1       9.217   0.770  10.047  1.00  0.00     0.029 A 
ATOM     30  N   UNL     1       8.438   2.309   8.643  1.00  0.00    -0.354 N 
ATOM     31  N   UNL     1       8.207   5.022   7.530  1.00  0.00    -0.248 NA
ATOM     32  C   UNL     1       8.698   7.304   7.623  1.00  0.00     0.031 C 
ATOM     33  C   UNL     1       9.732   2.015  10.426  1.00  0.00     0.029 A 
ATOM     34  C   UNL     1       9.260   2.971   9.541  1.00  0.00     0.049 A 
ATOM     35  H   UNL     1       7.957   2.735   7.898  1.00  0.00     0.167 HD
ATOM     36  C   UNL     1       9.052   5.261   8.604  1.00  0.00     0.074 A 
ATOM     37  C   UNL     1       9.345   6.680   8.597  1.00  0.00     0.031 C 
ATOM     38  C   UNL     1       9.536   4.384   9.517  1.00  0.00     0.037 A 
BRANCH  25  39
ATOM     39  C   UNL     1       7.620  -1.434   8.737  1.00  0.00     0.064 A 
ATOM     40  C   UNL     1       8.312  -2.458   8.075  1.00  0.00     0.173 A 
ATOM     41  C   UNL     1       6.953  -1.756   9.929  1.00  0.00     0.173 A 
ATOM     42  F   UNL     1       8.954  -2.206   6.925  1.00  0.00    -0.203 F 
ATOM     43  C   UNL     1       8.321  -3.758   8.578  1.00  0.00     0.198 A 
ATOM     44  C   UNL     1       6.983  -3.051  10.441  1.00  0.00     0.198 A 
ATOM     45  F   UNL     1       6.279  -0.812  10.602  1.00  0.00    -0.203 F 
ATOM     46  F   UNL     1       8.958  -4.729   7.910  1.00  0.00    -0.200 F 
ATOM     47  C   UNL     1       7.662  -4.051   9.763  1.00  0.00     0.200 A 
ATOM     48  F   UNL     1       6.354  -3.330  11.591  1.00  0.00    -0.200 F 
ATOM     49  F   UNL     1       7.677  -5.300  10.248  1.00  0.00    -0.200 F 
ENDBRANCH  25  39
BRANCH  26  50
ATOM     50  C   UNL     1       7.130   7.906   5.220  1.00  0.00     0.064 A 
ATOM     51  C   UNL     1       8.244   8.476   4.590  1.00  0.00     0.173 A 
ATOM     52  C   UNL     1       5.957   8.671   5.296  1.00  0.00     0.173 A 
ATOM     53  F   UNL     1       9.392   7.787   4.508  1.00  0.00    -0.203 F 
ATOM     54  C   UNL     1       8.189   9.763   4.062  1.00  0.00     0.198 A 
ATOM     55  C   UNL     1       5.896   9.948   4.745  1.00  0.00     0.198 A 
ATOM     56  F   UNL     1       4.863   8.165   5.884  1.00  0.00    -0.203 F 
ATOM     57  F   UNL     1       9.277  10.297   3.490  1.00  0.00    -0.200 F 
ATOM     58  C   UNL     1       7.013  10.495   4.132  1.00  0.00     0.200 A 
ATOM     59  F   UNL     1       4.753  10.644   4.800  1.00  0.00    -0.200 F 
ATOM     60  F   UNL     1       6.957  11.728   3.612  1.00  0.00    -0.200 F 
ENDBRANCH  26  50
BRANCH  38  61
ATOM     61  C   UNL     1      10.448   4.940  10.568  1.00  0.00     0.064 A 
ATOM     62  C   UNL     1       9.955   5.714  11.629  1.00  0.00     0.173 A 
ATOM     63  C   UNL     1      11.826   4.685  10.521  1.00  0.00     0.173 A 
ATOM     64  F   UNL     1       8.646   5.999  11.704  1.00  0.00    -0.203 F 
ATOM     65  C   UNL     1      10.814   6.235  12.591  1.00  0.00     0.198 A 
ATOM     66  C   UNL     1      12.679   5.188  11.499  1.00  0.00     0.198 A 
ATOM     67  F   UNL     1      12.344   3.947   9.528  1.00  0.00    -0.203 F 
ATOM     68  F   UNL     1      10.329   7.012  13.569  1.00  0.00    -0.200 F 
ATOM     69  C   UNL     1      12.174   5.968  12.528  1.00  0.00     0.200 A 
ATOM     70  F   UNL     1      13.992   4.923  11.441  1.00  0.00    -0.200 F 
ATOM     71  F   UNL     1      13.000   6.473  13.455  1.00  0.00    -0.200 F 
ENDBRANCH  38  61
ENDBRANCH  12  13
ENDBRANCH   5   7
ENDBRANCH   2   3
ENDBRANCH   1   2
BRANCH   1  72
ATOM     72  C   UNL     1       4.388  -2.540  -2.757  1.00  0.00     0.023 C 
BRANCH  72  73
ATOM     73  C   UNL     1       5.112  -1.466  -3.568  1.00  0.00     0.116 C 
BRANCH  73  74
ATOM     74  N   UNL     1       6.486  -1.823  -3.822  1.00  0.00    -0.356 N 
ATOM     75  C   UNL     1       7.053  -2.707  -4.672  1.00  0.00     0.227 C 
ATOM     76  H   UNL     1       7.135  -1.328  -3.272  1.00  0.00     0.163 HD
ATOM     77  O   UNL     1       8.287  -2.792  -4.602  1.00  0.00    -0.274 OA
BRANCH  75  78
ATOM     78  C   UNL     1       6.310  -3.625  -5.653  1.00  0.00     0.103 C 
ATOM     79  C   UNL     1       6.346  -5.053  -5.184  1.00  0.00    -0.016 C 
ATOM     80  C   UNL     1       4.860  -3.453  -6.114  1.00  0.00     0.047 C 
ATOM     81  C   UNL     1       5.254  -5.731  -5.556  1.00  0.00    -0.006 C 
ATOM     82  C   UNL     1       4.284  -4.867  -6.274  1.00  0.00     0.106 C 
BRANCH  82  83
ATOM     83  N   UNL     1       4.018  -5.295  -7.635  1.00  0.00    -0.346 N 
ATOM     84  C   UNL     1       4.787  -5.439  -8.758  1.00  0.00     0.253 C 
ATOM     85  H   UNL     1       3.075  -5.534  -7.784  1.00  0.00     0.164 HD
ATOM     86  O   UNL     1       4.259  -5.637  -9.848  1.00  0.00    -0.269 OA
BRANCH  84  87
ATOM     87  C   UNL     1       6.246  -5.319  -8.707  1.00  0.00     0.061 A 
ATOM     88  C   UNL     1       6.814  -4.119  -9.151  1.00  0.00     0.056 A 
ATOM     89  C   UNL     1       7.061  -6.388  -8.315  1.00  0.00     0.055 A 
ATOM     90  C   UNL     1       8.196  -3.966  -9.104  1.00  0.00     0.142 A 
ATOM     91  C   UNL     1       8.447  -6.216  -8.258  1.00  0.00     0.045 A 
ATOM     92  Cl  UNL     1       6.423  -7.944  -7.923  1.00  0.00    -0.083 Cl
ATOM     93  F   UNL     1       8.725  -2.797  -9.493  1.00  0.00    -0.205 F 
ATOM     94  C   UNL     1       9.011  -4.998  -8.640  1.00  0.00     0.078 A 
ATOM     95  Cl  UNL     1      10.717  -4.792  -8.544  1.00  0.00    -0.081 Cl
ENDBRANCH  84  87
ENDBRANCH  82  83
ENDBRANCH  75  78
ENDBRANCH  73  74
ENDBRANCH  72  73
ENDBRANCH   1  72
TORSDOF 13
