REMARK SMILES Cc1ccc(NC(=O)C[C@@H](C(=O)NCCCCNC(=O)c2ccc(-c3c4nc(c(-c5c(F)c(F)c(F)c(F)c5F)c5ccc([nH]5)c(-c5c(F)c(F)c(F)c(F)c5F)c5nc(c(-c6c(F)c(F)c(F)c(F)c6F)c6ccc3[nH]6)C=C5)C=C4)cc2)[NH+](C)C)cc1Cl
REMARK SMILES IDX 15 1 14 2 13 3 11 4 12 5 10 7 9 8 7 9 6 10 8 12 5 13 1 14
REMARK SMILES IDX 2 15 3 16 88 17 4 18 87 19 89 20 84 21 85 22 86 23 16 25
REMARK SMILES IDX 17 26 18 27 19 28 20 30 21 31 22 32 83 33 23 34 82 35 24 36
REMARK SMILES IDX 25 37 26 38 76 39 27 40 81 41 75 42 77 43 28 44 80 45 74 46
REMARK SMILES IDX 73 47 29 49 61 50 41 51 60 52 42 53 45 54 59 55 78 56 43 57
REMARK SMILES IDX 44 58 58 60 79 61 46 62 30 63 31 64 39 65 32 66 33 67 37 68
REMARK SMILES IDX 40 69 34 70 35 71 38 72 36 73 62 74 63 75 71 76 64 77 65 78
REMARK SMILES IDX 69 79 72 80 66 81 67 82 70 83 68 84 47 85 48 86 56 87 49 88
REMARK SMILES IDX 50 89 54 90 57 91 51 92 52 93 55 94 53 95
REMARK H PARENT 13 6 6 11 84 24 18 29 77 48 45 59
REMARK Flexibility Score: inf
ROOT
ATOM      1  C   UNL     1      -4.121  -2.905  -0.726  1.00  0.00     0.023 C 
ENDROOT
BRANCH   1   2
ATOM      2  C   UNL     1      -2.989  -3.105  -1.741  1.00  0.00     0.116 C 
BRANCH   2   3
ATOM      3  N   UNL     1      -1.941  -2.100  -1.662  1.00  0.00    -0.351 N 
ATOM      4  C   UNL     1      -0.594  -2.199  -1.443  1.00  0.00     0.278 C 
ATOM      5  O   UNL     1       0.052  -1.160  -1.603  1.00  0.00    -0.268 OA
ATOM      6  H   UNL     1      -2.259  -1.177  -1.789  1.00  0.00     0.163 HD
BRANCH   4   7
ATOM      7  C   UNL     1       0.060  -3.550  -1.052  1.00  0.00     0.283 C 
BRANCH   7   8
ATOM      8  C   UNL     1      -0.068  -3.955   0.432  1.00  0.00     0.175 C 
BRANCH   8   9
ATOM      9  C   UNL     1      -1.325  -3.611   1.191  1.00  0.00     0.230 C 
ATOM     10  N   UNL     1      -1.634  -2.355   1.629  1.00  0.00    -0.326 N 
ATOM     11  H   UNL     1      -2.473  -2.313   2.141  1.00  0.00     0.169 HD
ATOM     12  O   UNL     1      -2.148  -4.506   1.420  1.00  0.00    -0.274 OA
BRANCH  10  13
ATOM     13  C   UNL     1      -0.995  -1.111   1.496  1.00  0.00     0.042 A 
ATOM     14  C   UNL     1       0.589   2.703   0.245  1.00  0.00     0.046 C 
ATOM     15  C   UNL     1       0.063   1.407   0.790  1.00  0.00    -0.032 A 
ATOM     16  C   UNL     1      -1.312   1.245   0.992  1.00  0.00     0.007 A 
ATOM     17  C   UNL     1       0.907   0.325   1.072  1.00  0.00     0.046 A 
ATOM     18  C   UNL     1      -1.830   0.005   1.374  1.00  0.00     0.026 A 
ATOM     19  C   UNL     1       0.380  -0.926   1.423  1.00  0.00     0.047 A 
ATOM     20  Cl  UNL     1       2.627   0.480   0.972  1.00  0.00    -0.084 Cl
ENDBRANCH  10  13
ENDBRANCH   8   9
ENDBRANCH   7   8
BRANCH   7  21
ATOM     21  N   UNL     1       1.476  -3.715  -1.549  1.00  0.00    -0.329 N 
ATOM     22  C   UNL     1       1.668  -3.284  -2.937  1.00  0.00     0.333 C 
ATOM     23  C   UNL     1       2.512  -3.102  -0.717  1.00  0.00     0.333 C 
ATOM     24  H   UNL     1       1.599  -4.726  -1.489  1.00  0.00     0.348 HD
ENDBRANCH   7  21
ENDBRANCH   4   7
ENDBRANCH   2   3
ENDBRANCH   1   2
BRANCH   1  25
ATOM     25  C   UNL     1      -4.714  -1.501  -0.649  1.00  0.00     0.023 C 
BRANCH  25  26
ATOM     26  C   UNL     1      -5.547  -1.112  -1.857  1.00  0.00     0.116 C 
BRANCH  26  27
ATOM     27  N   UNL     1      -6.775  -1.890  -1.942  1.00  0.00    -0.352 N 
ATOM     28  C   UNL     1      -8.079  -1.504  -1.782  1.00  0.00     0.251 C 
ATOM     29  H   UNL     1      -6.648  -2.845  -2.147  1.00  0.00     0.163 HD
ATOM     30  O   UNL     1      -8.960  -2.364  -1.667  1.00  0.00    -0.269 OA
BRANCH  28  31
ATOM     31  C   UNL     1      -8.450  -0.074  -1.735  1.00  0.00     0.039 A 
ATOM     32  C   UNL     1      -9.468   0.342  -0.872  1.00  0.00     0.014 A 
ATOM     33  C   UNL     1      -7.822   0.856  -2.566  1.00  0.00     0.014 A 
ATOM     34  C   UNL     1      -9.818   1.693  -0.807  1.00  0.00     0.010 A 
ATOM     35  C   UNL     1      -8.092   2.211  -2.421  1.00  0.00     0.010 A 
ATOM     36  C   UNL     1      -9.111   2.643  -1.561  1.00  0.00    -0.014 A 
BRANCH  36  37
ATOM     37  C   UNL     1      -9.451   4.088  -1.517  1.00  0.00     0.031 A 
ATOM     38  C   UNL     1      -9.896   4.785  -2.776  1.00  0.00     0.074 A 
ATOM     39  C   UNL     1      -9.286   4.786  -0.377  1.00  0.00     0.049 A 
ATOM     40  N   UNL     1     -10.123   6.057  -2.987  1.00  0.00    -0.248 NA
ATOM     41  C   UNL     1     -10.066   3.943  -3.972  1.00  0.00     0.031 C 
ATOM     42  C   UNL     1      -8.810   4.235   0.892  1.00  0.00     0.029 A 
ATOM     43  N   UNL     1      -9.489   6.116  -0.106  1.00  0.00    -0.354 N 
ATOM     44  C   UNL     1     -10.426   6.166  -4.339  1.00  0.00     0.074 A 
ATOM     45  C   UNL     1     -10.294   4.846  -4.912  1.00  0.00     0.031 C 
ATOM     46  C   UNL     1      -8.784   5.212   1.813  1.00  0.00     0.029 A 
ATOM     47  C   UNL     1      -9.203   6.464   1.191  1.00  0.00     0.049 A 
ATOM     48  H   UNL     1      -9.810   6.760  -0.779  1.00  0.00     0.167 HD
ATOM     49  C   UNL     1     -10.809   7.264  -5.033  1.00  0.00     0.037 A 
ATOM     50  C   UNL     1      -9.269   7.661   1.805  1.00  0.00     0.037 A 
ATOM     51  C   UNL     1     -10.993   8.562  -4.443  1.00  0.00     0.049 A 
ATOM     52  C   UNL     1      -9.732   8.859   1.020  1.00  0.00     0.074 A 
ATOM     53  C   UNL     1     -11.448   9.725  -5.038  1.00  0.00     0.029 A 
ATOM     54  N   UNL     1     -10.739   8.864  -3.113  1.00  0.00    -0.354 N 
ATOM     55  N   UNL     1     -10.075   8.939  -0.243  1.00  0.00    -0.248 NA
ATOM     56  C   UNL     1      -9.825  10.132   1.748  1.00  0.00     0.031 C 
ATOM     57  C   UNL     1     -11.435  10.740  -4.076  1.00  0.00     0.029 A 
ATOM     58  C   UNL     1     -11.017  10.199  -2.871  1.00  0.00     0.049 A 
ATOM     59  H   UNL     1     -10.410   8.224  -2.441  1.00  0.00     0.167 HD
ATOM     60  C   UNL     1     -10.454  10.257  -0.453  1.00  0.00     0.074 A 
ATOM     61  C   UNL     1     -10.310  10.940   0.816  1.00  0.00     0.031 C 
ATOM     62  C   UNL     1     -10.883  10.851  -1.594  1.00  0.00     0.037 A 
BRANCH  49  63
ATOM     63  C   UNL     1     -11.070   7.101  -6.503  1.00  0.00     0.064 A 
ATOM     64  C   UNL     1     -12.165   6.365  -6.982  1.00  0.00     0.173 A 
ATOM     65  C   UNL     1     -10.228   7.709  -7.447  1.00  0.00     0.173 A 
ATOM     66  F   UNL     1     -12.993   5.752  -6.122  1.00  0.00    -0.203 F 
ATOM     67  C   UNL     1     -12.387   6.214  -8.348  1.00  0.00     0.198 A 
ATOM     68  C   UNL     1     -10.473   7.584  -8.813  1.00  0.00     0.198 A 
ATOM     69  F   UNL     1      -9.169   8.428  -7.046  1.00  0.00    -0.203 F 
ATOM     70  F   UNL     1     -13.406   5.458  -8.779  1.00  0.00    -0.200 F 
ATOM     71  C   UNL     1     -11.546   6.829  -9.262  1.00  0.00     0.200 A 
ATOM     72  F   UNL     1      -9.666   8.190  -9.695  1.00  0.00    -0.200 F 
ATOM     73  F   UNL     1     -11.764   6.688 -10.577  1.00  0.00    -0.200 F 
ENDBRANCH  49  63
BRANCH  50  74
ATOM     74  C   UNL     1      -8.927   7.777   3.246  1.00  0.00     0.064 A 
ATOM     75  C   UNL     1      -9.921   8.029   4.202  1.00  0.00     0.173 A 
ATOM     76  C   UNL     1      -7.607   7.637   3.701  1.00  0.00     0.173 A 
ATOM     77  F   UNL     1     -11.195   8.189   3.814  1.00  0.00    -0.203 F 
ATOM     78  C   UNL     1      -9.607   8.159   5.553  1.00  0.00     0.198 A 
ATOM     79  C   UNL     1      -7.298   7.738   5.056  1.00  0.00     0.198 A 
ATOM     80  F   UNL     1      -6.620   7.386   2.829  1.00  0.00    -0.203 F 
ATOM     81  F   UNL     1     -10.572   8.444   6.438  1.00  0.00    -0.200 F 
ATOM     82  C   UNL     1      -8.297   8.008   5.980  1.00  0.00     0.200 A 
ATOM     83  F   UNL     1      -6.033   7.576   5.466  1.00  0.00    -0.200 F 
ATOM     84  F   UNL     1      -7.995   8.127   7.280  1.00  0.00    -0.200 F 
ENDBRANCH  50  74
BRANCH  62  85
ATOM     85  C   UNL     1     -11.268  12.298  -1.514  1.00  0.00     0.064 A 
ATOM     86  C   UNL     1     -10.307  13.310  -1.384  1.00  0.00     0.173 A 
ATOM     87  C   UNL     1     -12.615  12.677  -1.621  1.00  0.00     0.173 A 
ATOM     88  F   UNL     1      -9.008  12.996  -1.264  1.00  0.00    -0.203 F 
ATOM     89  C   UNL     1     -10.682  14.650  -1.342  1.00  0.00     0.198 A 
ATOM     90  C   UNL     1     -12.984  14.019  -1.608  1.00  0.00     0.198 A 
ATOM     91  F   UNL     1     -13.572  11.746  -1.754  1.00  0.00    -0.203 F 
ATOM     92  F   UNL     1      -9.752  15.599  -1.175  1.00  0.00    -0.200 F 
ATOM     93  C   UNL     1     -12.019  15.003  -1.462  1.00  0.00     0.200 A 
ATOM     94  F   UNL     1     -14.274  14.359  -1.739  1.00  0.00    -0.200 F 
ATOM     95  F   UNL     1     -12.377  16.294  -1.432  1.00  0.00    -0.200 F 
ENDBRANCH  62  85
ENDBRANCH  36  37
ENDBRANCH  28  31
ENDBRANCH  26  27
ENDBRANCH  25  26
ENDBRANCH   1  25
TORSDOF 15
