REMARK SMILES CSc1nc(C2CC2)nc(C)c1C(=O)NCCCCNC(=O)c1ccc(-c2c3nc(c(-c4c(F)c(F)c(F)c(F)c4F)c4ccc([nH]4)c(-c4c(F)c(F)c(F)c(F)c4F)c4nc(c(-c5c(F)c(F)c(F)c(F)c5F)c5ccc2[nH]5)C=C4)C=C3)cc1
REMARK SMILES IDX 18 1 17 2 16 3 15 4 13 5 14 6 12 8 3 9 4 10 5 11 10 12 9 13
REMARK SMILES IDX 11 14 2 15 1 16 6 17 7 18 8 19 19 20 20 21 21 22 22 24 23 25
REMARK SMILES IDX 24 26 85 27 25 28 84 29 26 30 27 31 28 32 78 33 29 34 83 35
REMARK SMILES IDX 77 36 79 37 30 38 82 39 76 40 75 41 31 43 63 44 43 45 62 46
REMARK SMILES IDX 44 47 47 48 61 49 80 50 45 51 46 52 60 54 81 55 48 56 32 57
REMARK SMILES IDX 33 58 41 59 34 60 35 61 39 62 42 63 36 64 37 65 40 66 38 67
REMARK SMILES IDX 64 68 65 69 73 70 66 71 67 72 71 73 74 74 68 75 69 76 72 77
REMARK SMILES IDX 70 78 49 79 50 80 58 81 51 82 52 83 56 84 59 85 53 86 54 87
REMARK SMILES IDX 57 88 55 89
REMARK H PARENT 15 7 20 23 79 42 47 53
REMARK Flexibility Score: inf
ROOT
ATOM      1  C   UNL     1      -0.403   5.073  -4.522  1.00  0.00     0.023 C 
ENDROOT
BRANCH   1   2
ATOM      2  C   UNL     1       0.366   3.772  -4.745  1.00  0.00     0.023 C 
BRANCH   2   3
ATOM      3  C   UNL     1       1.274   3.343  -3.579  1.00  0.00     0.116 C 
BRANCH   3   4
ATOM      4  N   UNL     1       0.553   2.428  -2.722  1.00  0.00    -0.352 N 
ATOM      5  C   UNL     1       0.096   1.167  -3.042  1.00  0.00     0.255 C 
ATOM      6  O   UNL     1      -1.074   0.914  -2.761  1.00  0.00    -0.269 OA
ATOM      7  H   UNL     1       0.367   2.740  -1.807  1.00  0.00     0.163 HD
BRANCH   5   8
ATOM      8  C   UNL     1       0.965   0.078  -3.547  1.00  0.00     0.093 A 
ATOM      9  C   UNL     1       1.065  -1.091  -2.784  1.00  0.00     0.113 A 
ATOM     10  N   UNL     1       1.625  -2.240  -3.242  1.00  0.00    -0.225 NA
ATOM     11  C   UNL     1       2.078  -2.263  -4.498  1.00  0.00     0.133 A 
ATOM     12  C   UNL     1       1.512  -0.025  -4.820  1.00  0.00     0.055 A 
ATOM     13  N   UNL     1       2.084  -1.169  -5.268  1.00  0.00    -0.237 NA
ATOM     14  C   UNL     1       1.444   0.980  -5.920  1.00  0.00     0.068 C 
BRANCH   9  15
ATOM     15  S   UNL     1       0.391  -1.328  -1.136  1.00  0.00    -0.109 SA
ATOM     16  C   UNL     1       1.432  -0.201  -0.186  1.00  0.00     0.092 C 
ENDBRANCH   9  15
BRANCH  11  17
ATOM     17  C   UNL     1       2.475  -3.555  -5.165  1.00  0.00     0.058 C 
ATOM     18  C   UNL     1       2.236  -4.913  -4.556  1.00  0.00     0.012 C 
ATOM     19  C   UNL     1       1.359  -4.446  -5.679  1.00  0.00     0.012 C 
ENDBRANCH  11  17
ENDBRANCH   5   8
ENDBRANCH   3   4
ENDBRANCH   2   3
ENDBRANCH   1   2
BRANCH   1  20
ATOM     20  C   UNL     1       0.477   6.312  -4.584  1.00  0.00     0.116 C 
BRANCH  20  21
ATOM     21  N   UNL     1       1.203   6.448  -5.840  1.00  0.00    -0.352 N 
ATOM     22  C   UNL     1       1.706   7.585  -6.420  1.00  0.00     0.251 C 
ATOM     23  H   UNL     1       1.351   5.613  -6.340  1.00  0.00     0.163 HD
ATOM     24  O   UNL     1       2.235   7.538  -7.526  1.00  0.00    -0.269 OA
BRANCH  22  25
ATOM     25  C   UNL     1       1.546   8.874  -5.724  1.00  0.00     0.039 A 
ATOM     26  C   UNL     1       1.032   9.955  -6.441  1.00  0.00     0.014 A 
ATOM     27  C   UNL     1       1.840   8.996  -4.365  1.00  0.00     0.014 A 
ATOM     28  C   UNL     1       0.754  11.146  -5.775  1.00  0.00     0.010 A 
ATOM     29  C   UNL     1       1.478  10.151  -3.685  1.00  0.00     0.010 A 
ATOM     30  C   UNL     1       0.941  11.239  -4.385  1.00  0.00    -0.014 A 
BRANCH  30  31
ATOM     31  C   UNL     1       0.582  12.480  -3.660  1.00  0.00     0.031 A 
ATOM     32  C   UNL     1       1.647  13.293  -2.983  1.00  0.00     0.074 A 
ATOM     33  C   UNL     1      -0.711  12.848  -3.585  1.00  0.00     0.049 A 
ATOM     34  N   UNL     1       1.535  14.419  -2.326  1.00  0.00    -0.248 NA
ATOM     35  C   UNL     1       3.018  12.756  -3.021  1.00  0.00     0.031 C 
ATOM     36  C   UNL     1      -1.839  12.095  -4.137  1.00  0.00     0.029 A 
ATOM     37  N   UNL     1      -1.294  13.953  -3.020  1.00  0.00    -0.354 N 
ATOM     38  C   UNL     1       2.811  14.718  -1.870  1.00  0.00     0.074 A 
ATOM     39  C   UNL     1       3.671  13.624  -2.263  1.00  0.00     0.031 C 
ATOM     40  C   UNL     1      -2.973  12.780  -3.920  1.00  0.00     0.029 A 
ATOM     41  C   UNL     1      -2.655  14.006  -3.195  1.00  0.00     0.049 A 
ATOM     42  H   UNL     1      -0.785  14.642  -2.534  1.00  0.00     0.167 HD
ATOM     43  C   UNL     1       3.234  15.823  -1.213  1.00  0.00     0.037 A 
ATOM     44  C   UNL     1      -3.541  14.949  -2.825  1.00  0.00     0.037 A 
ATOM     45  C   UNL     1       2.377  16.920  -0.849  1.00  0.00     0.049 A 
ATOM     46  C   UNL     1      -3.039  16.183  -2.127  1.00  0.00     0.074 A 
ATOM     47  C   UNL     1       2.712  18.113  -0.234  1.00  0.00     0.029 A 
ATOM     48  N   UNL     1       1.007  16.954  -1.070  1.00  0.00    -0.354 N 
ATOM     49  N   UNL     1      -1.815  16.499  -1.779  1.00  0.00    -0.248 NA
ATOM     50  C   UNL     1      -4.042  17.201  -1.787  1.00  0.00     0.031 C 
ATOM     51  C   UNL     1       1.539  18.852  -0.047  1.00  0.00     0.029 A 
ATOM     52  C   UNL     1       0.480  18.142  -0.590  1.00  0.00     0.049 A 
ATOM     53  H   UNL     1       0.487  16.240  -1.504  1.00  0.00     0.167 HD
ATOM     54  C   UNL     1      -1.895  17.761  -1.206  1.00  0.00     0.074 A 
ATOM     55  C   UNL     1      -3.285  18.160  -1.273  1.00  0.00     0.031 C 
ATOM     56  C   UNL     1      -0.907  18.521  -0.672  1.00  0.00     0.037 A 
BRANCH  43  57
ATOM     57  C   UNL     1       4.691  15.901  -0.858  1.00  0.00     0.064 A 
ATOM     58  C   UNL     1       5.679  16.058  -1.843  1.00  0.00     0.173 A 
ATOM     59  C   UNL     1       5.104  15.843   0.481  1.00  0.00     0.173 A 
ATOM     60  F   UNL     1       5.339  16.102  -3.140  1.00  0.00    -0.203 F 
ATOM     61  C   UNL     1       7.028  16.121  -1.502  1.00  0.00     0.198 A 
ATOM     62  C   UNL     1       6.451  15.939   0.820  1.00  0.00     0.198 A 
ATOM     63  F   UNL     1       4.201  15.696   1.462  1.00  0.00    -0.203 F 
ATOM     64  F   UNL     1       7.957  16.214  -2.464  1.00  0.00    -0.200 F 
ATOM     65  C   UNL     1       7.412  16.069  -0.171  1.00  0.00     0.200 A 
ATOM     66  F   UNL     1       6.821  15.899   2.108  1.00  0.00    -0.200 F 
ATOM     67  F   UNL     1       8.710  16.136   0.156  1.00  0.00    -0.200 F 
ENDBRANCH  43  57
BRANCH  44  68
ATOM     68  C   UNL     1      -4.980  14.788  -3.158  1.00  0.00     0.064 A 
ATOM     69  C   UNL     1      -5.591  15.604  -4.121  1.00  0.00     0.173 A 
ATOM     70  C   UNL     1      -5.772  13.820  -2.525  1.00  0.00     0.173 A 
ATOM     71  F   UNL     1      -4.877  16.555  -4.742  1.00  0.00    -0.203 F 
ATOM     72  C   UNL     1      -6.945  15.475  -4.419  1.00  0.00     0.198 A 
ATOM     73  C   UNL     1      -7.121  13.674  -2.845  1.00  0.00     0.198 A 
ATOM     74  F   UNL     1      -5.234  13.009  -1.603  1.00  0.00    -0.203 F 
ATOM     75  F   UNL     1      -7.514  16.300  -5.309  1.00  0.00    -0.200 F 
ATOM     76  C   UNL     1      -7.708  14.507  -3.785  1.00  0.00     0.200 A 
ATOM     77  F   UNL     1      -7.851  12.726  -2.240  1.00  0.00    -0.200 F 
ATOM     78  F   UNL     1      -9.011  14.381  -4.074  1.00  0.00    -0.200 F 
ENDBRANCH  44  68
BRANCH  56  79
ATOM     79  C   UNL     1      -1.295  19.873  -0.150  1.00  0.00     0.064 A 
ATOM     80  C   UNL     1      -2.058  20.022   1.018  1.00  0.00     0.173 A 
ATOM     81  C   UNL     1      -0.881  21.036  -0.817  1.00  0.00     0.173 A 
ATOM     82  F   UNL     1      -2.490  18.940   1.684  1.00  0.00    -0.203 F 
ATOM     83  C   UNL     1      -2.424  21.284   1.477  1.00  0.00     0.198 A 
ATOM     84  C   UNL     1      -1.220  22.297  -0.337  1.00  0.00     0.198 A 
ATOM     85  F   UNL     1      -0.141  20.949  -1.933  1.00  0.00    -0.203 F 
ATOM     86  F   UNL     1      -3.203  21.400   2.561  1.00  0.00    -0.200 F 
ATOM     87  C   UNL     1      -2.000  22.420   0.803  1.00  0.00     0.200 A 
ATOM     88  F   UNL     1      -0.798  23.394  -0.981  1.00  0.00    -0.200 F 
ATOM     89  F   UNL     1      -2.353  23.634   1.248  1.00  0.00    -0.200 F 
ENDBRANCH  56  79
ENDBRANCH  30  31
ENDBRANCH  22  25
ENDBRANCH  20  21
ENDBRANCH   1  20
TORSDOF 13
