REMARK SMILES Cc1nn(C)cc1-c1ccnc2nc(CCC(=O)NCCCCNC(=O)c3ccc(-c4c5nc(c(-c6c(F)c(F)c(F)c(F)c6F)c6ccc([nH]6)c(-c6c(F)c(F)c(F)c(F)c6F)c6nc(c(-c7c(F)c(F)c(F)c(F)c7F)c7ccc4[nH]7)C=C6)C=C5)cc3)nn12
REMARK SMILES IDX 21 1 20 2 19 3 17 4 18 5 16 7 15 8 14 9 8 10 9 11 91 12
REMARK SMILES IDX 10 13 12 14 90 15 11 16 13 17 7 18 1 19 2 20 3 21 4 22 6 23
REMARK SMILES IDX 5 24 22 25 23 26 24 27 25 28 26 30 27 31 28 32 89 33 29 34
REMARK SMILES IDX 88 35 30 36 31 37 32 38 82 39 33 40 87 41 81 42 83 43 34 44
REMARK SMILES IDX 86 45 80 46 79 47 35 49 67 50 47 51 66 52 48 53 51 54 65 55
REMARK SMILES IDX 84 56 49 57 50 58 64 60 85 61 52 62 36 63 37 64 45 65 38 66
REMARK SMILES IDX 39 67 43 68 46 69 40 70 41 71 44 72 42 73 68 74 69 75 77 76
REMARK SMILES IDX 70 77 71 78 75 79 78 80 72 81 73 82 76 83 74 84 53 85 54 86
REMARK SMILES IDX 62 87 55 88 56 89 60 90 63 91 57 92 58 93 61 94 59 95
REMARK H PARENT 19 6 24 29 83 48 51 59
REMARK Flexibility Score: inf
ROOT
ATOM      1  C   UNL     1       0.694  -4.931   0.417  1.00  0.00     0.023 C 
ENDROOT
BRANCH   1   2
ATOM      2  C   UNL     1       1.819  -5.368   1.361  1.00  0.00     0.116 C 
BRANCH   2   3
ATOM      3  N   UNL     1       2.035  -4.459   2.474  1.00  0.00    -0.356 N 
ATOM      4  C   UNL     1       1.337  -4.296   3.630  1.00  0.00     0.220 C 
ATOM      5  O   UNL     1       1.734  -3.450   4.435  1.00  0.00    -0.275 OA
ATOM      6  H   UNL     1       2.813  -3.863   2.375  1.00  0.00     0.163 HD
BRANCH   4   7
ATOM      7  C   UNL     1       0.146  -5.172   3.932  1.00  0.00     0.108 C 
BRANCH   7   8
ATOM      8  C   UNL     1      -1.079  -4.328   4.277  1.00  0.00     0.089 C 
BRANCH   8   9
ATOM      9  C   UNL     1      -1.739  -3.761   3.069  1.00  0.00     0.153 A 
ATOM     10  C   UNL     1      -2.392  -1.501   0.462  1.00  0.00     0.081 A 
ATOM     11  C   UNL     1      -3.193  -1.774  -0.590  1.00  0.00     0.049 A 
ATOM     12  N   UNL     1      -2.263  -2.499   1.458  1.00  0.00    -0.196 N 
ATOM     13  C   UNL     1      -3.833  -3.109  -0.633  1.00  0.00     0.117 A 
ATOM     14  C   UNL     1      -2.928  -3.737   1.330  1.00  0.00     0.252 A 
ATOM     15  N   UNL     1      -1.503  -2.534   2.594  1.00  0.00    -0.149 NA
ATOM     16  N   UNL     1      -3.722  -4.037   0.262  1.00  0.00    -0.220 NA
ATOM     17  N   UNL     1      -2.598  -4.518   2.333  1.00  0.00    -0.194 NA
BRANCH  10  18
ATOM     18  C   UNL     1      -1.643  -0.275   0.476  1.00  0.00     0.041 A 
ATOM     19  C   UNL     1      -3.482   1.585   0.213  1.00  0.00     0.069 C 
ATOM     20  C   UNL     1      -2.096   1.062   0.294  1.00  0.00     0.069 A 
ATOM     21  N   UNL     1      -1.073   1.921   0.169  1.00  0.00    -0.178 NA
ATOM     22  N   UNL     1       0.019   1.151   0.306  1.00  0.00    -0.275 N 
ATOM     23  C   UNL     1      -0.271  -0.160   0.541  1.00  0.00     0.119 A 
ATOM     24  C   UNL     1       1.332   1.727   0.137  1.00  0.00     0.173 C 
ENDBRANCH  10  18
ENDBRANCH   8   9
ENDBRANCH   7   8
ENDBRANCH   4   7
ENDBRANCH   2   3
ENDBRANCH   1   2
BRANCH   1  25
ATOM     25  C   UNL     1       0.864  -3.493  -0.071  1.00  0.00     0.023 C 
BRANCH  25  26
ATOM     26  C   UNL     1       1.042  -3.315  -1.571  1.00  0.00     0.116 C 
BRANCH  26  27
ATOM     27  N   UNL     1      -0.220  -3.253  -2.293  1.00  0.00    -0.352 N 
ATOM     28  C   UNL     1      -0.847  -2.282  -3.039  1.00  0.00     0.251 C 
ATOM     29  H   UNL     1      -0.738  -4.088  -2.234  1.00  0.00     0.163 HD
ATOM     30  O   UNL     1      -1.988  -2.540  -3.436  1.00  0.00    -0.269 OA
BRANCH  28  31
ATOM     31  C   UNL     1      -0.275  -0.938  -3.364  1.00  0.00     0.039 A 
ATOM     32  C   UNL     1      -1.170   0.075  -3.757  1.00  0.00     0.014 A 
ATOM     33  C   UNL     1       1.084  -0.634  -3.377  1.00  0.00     0.014 A 
ATOM     34  C   UNL     1      -0.718   1.355  -4.120  1.00  0.00     0.010 A 
ATOM     35  C   UNL     1       1.529   0.669  -3.636  1.00  0.00     0.010 A 
ATOM     36  C   UNL     1       0.641   1.676  -4.041  1.00  0.00    -0.014 A 
BRANCH  36  37
ATOM     37  C   UNL     1       1.187   3.003  -4.457  1.00  0.00     0.031 A 
ATOM     38  C   UNL     1       2.229   3.068  -5.550  1.00  0.00     0.074 A 
ATOM     39  C   UNL     1       0.823   4.141  -3.832  1.00  0.00     0.049 A 
ATOM     40  N   UNL     1       3.004   4.062  -5.910  1.00  0.00    -0.248 NA
ATOM     41  C   UNL     1       2.450   1.832  -6.319  1.00  0.00     0.031 C 
ATOM     42  C   UNL     1      -0.172   4.248  -2.767  1.00  0.00     0.029 A 
ATOM     43  N   UNL     1       1.277   5.431  -3.992  1.00  0.00    -0.354 N 
ATOM     44  C   UNL     1       3.828   3.558  -6.910  1.00  0.00     0.074 A 
ATOM     45  C   UNL     1       3.490   2.160  -7.070  1.00  0.00     0.031 C 
ATOM     46  C   UNL     1      -0.262   5.531  -2.376  1.00  0.00     0.029 A 
ATOM     47  C   UNL     1       0.709   6.329  -3.120  1.00  0.00     0.049 A 
ATOM     48  H   UNL     1       1.946   5.686  -4.668  1.00  0.00     0.167 HD
ATOM     49  C   UNL     1       4.767   4.201  -7.646  1.00  0.00     0.037 A 
ATOM     50  C   UNL     1       0.962   7.638  -2.921  1.00  0.00     0.037 A 
ATOM     51  C   UNL     1       5.070   5.604  -7.534  1.00  0.00     0.049 A 
ATOM     52  C   UNL     1       2.031   8.325  -3.734  1.00  0.00     0.074 A 
ATOM     53  C   UNL     1       5.987   6.349  -8.257  1.00  0.00     0.029 A 
ATOM     54  N   UNL     1       4.449   6.478  -6.657  1.00  0.00    -0.354 N 
ATOM     55  N   UNL     1       2.804   7.838  -4.674  1.00  0.00    -0.248 NA
ATOM     56  C   UNL     1       2.266   9.751  -3.451  1.00  0.00     0.031 C 
ATOM     57  C   UNL     1       5.945   7.667  -7.794  1.00  0.00     0.029 A 
ATOM     58  C   UNL     1       4.967   7.754  -6.817  1.00  0.00     0.049 A 
ATOM     59  H   UNL     1       3.745   6.230  -6.014  1.00  0.00     0.167 HD
ATOM     60  C   UNL     1       3.579   8.901  -5.122  1.00  0.00     0.074 A 
ATOM     61  C   UNL     1       3.181  10.063  -4.357  1.00  0.00     0.031 C 
ATOM     62  C   UNL     1       4.536   8.912  -6.081  1.00  0.00     0.037 A 
BRANCH  49  63
ATOM     63  C   UNL     1       5.539   3.397  -8.653  1.00  0.00     0.064 A 
ATOM     64  C   UNL     1       4.939   2.917  -9.826  1.00  0.00     0.173 A 
ATOM     65  C   UNL     1       6.909   3.153  -8.470  1.00  0.00     0.173 A 
ATOM     66  F   UNL     1       3.630   3.113 -10.044  1.00  0.00    -0.203 F 
ATOM     67  C   UNL     1       5.675   2.200 -10.766  1.00  0.00     0.198 A 
ATOM     68  C   UNL     1       7.649   2.464  -9.428  1.00  0.00     0.198 A 
ATOM     69  F   UNL     1       7.535   3.596  -7.369  1.00  0.00    -0.203 F 
ATOM     70  F   UNL     1       5.069   1.710 -11.856  1.00  0.00    -0.200 F 
ATOM     71  C   UNL     1       7.030   1.983 -10.571  1.00  0.00     0.200 A 
ATOM     72  F   UNL     1       8.962   2.268  -9.245  1.00  0.00    -0.200 F 
ATOM     73  F   UNL     1       7.739   1.303 -11.483  1.00  0.00    -0.200 F 
ENDBRANCH  49  63
BRANCH  50  74
ATOM     74  C   UNL     1       0.196   8.407  -1.902  1.00  0.00     0.064 A 
ATOM     75  C   UNL     1      -0.680   9.433  -2.288  1.00  0.00     0.173 A 
ATOM     76  C   UNL     1       0.363   8.176  -0.529  1.00  0.00     0.173 A 
ATOM     77  F   UNL     1      -0.849   9.714  -3.589  1.00  0.00    -0.203 F 
ATOM     78  C   UNL     1      -1.334  10.217  -1.341  1.00  0.00     0.198 A 
ATOM     79  C   UNL     1      -0.318   8.940   0.417  1.00  0.00     0.198 A 
ATOM     80  F   UNL     1       1.195   7.213  -0.106  1.00  0.00    -0.203 F 
ATOM     81  F   UNL     1      -2.109  11.235  -1.738  1.00  0.00    -0.200 F 
ATOM     82  C   UNL     1      -1.155   9.968   0.011  1.00  0.00     0.200 A 
ATOM     83  F   UNL     1      -0.148   8.692   1.723  1.00  0.00    -0.200 F 
ATOM     84  F   UNL     1      -1.776  10.729   0.922  1.00  0.00    -0.200 F 
ENDBRANCH  50  74
BRANCH  62  85
ATOM     85  C   UNL     1       5.171  10.230  -6.420  1.00  0.00     0.064 A 
ATOM     86  C   UNL     1       6.074  10.864  -5.554  1.00  0.00     0.173 A 
ATOM     87  C   UNL     1       4.910  10.841  -7.657  1.00  0.00     0.173 A 
ATOM     88  F   UNL     1       6.349  10.328  -4.355  1.00  0.00    -0.203 F 
ATOM     89  C   UNL     1       6.675  12.071  -5.904  1.00  0.00     0.198 A 
ATOM     90  C   UNL     1       5.535  12.032  -8.016  1.00  0.00     0.198 A 
ATOM     91  F   UNL     1       4.061  10.272  -8.525  1.00  0.00    -0.203 F 
ATOM     92  F   UNL     1       7.502  12.680  -5.043  1.00  0.00    -0.200 F 
ATOM     93  C   UNL     1       6.411  12.649  -7.137  1.00  0.00     0.200 A 
ATOM     94  F   UNL     1       5.290  12.580  -9.214  1.00  0.00    -0.200 F 
ATOM     95  F   UNL     1       6.999  13.805  -7.476  1.00  0.00    -0.200 F 
ENDBRANCH  62  85
ENDBRANCH  36  37
ENDBRANCH  28  31
ENDBRANCH  26  27
ENDBRANCH  25  26
ENDBRANCH   1  25
TORSDOF 14
