REMARK SMILES Cc1ccccc1CSCC(=O)Nc1ccc(C)c(C(=O)NCCCCNC(=O)c2ccc(-c3c4nc(c(-c5c(F)c(F)c(F)c(F)c5F)c5ccc([nH]5)c(-c5c(F)c(F)c(F)c(F)c5F)c5nc(c(-c6c(F)c(F)c(F)c(F)c6F)c6ccc3[nH]6)C=C5)C=C4)cc2)c1
REMARK SMILES IDX 23 1 22 2 20 3 21 4 19 6 14 7 15 8 93 9 16 10 17 11 18 12
REMARK SMILES IDX 13 13 11 14 12 15 10 17 9 18 8 19 7 20 1 21 2 22 3 23 4 24
REMARK SMILES IDX 6 25 5 26 24 27 25 28 26 29 27 30 28 31 29 33 30 34 31 35
REMARK SMILES IDX 92 36 32 37 91 38 33 39 34 40 35 41 85 42 36 43 90 44 84 45
REMARK SMILES IDX 86 46 37 47 89 48 83 49 82 50 38 52 70 53 50 54 69 55 51 56
REMARK SMILES IDX 54 57 68 58 87 59 52 60 53 61 67 63 88 64 55 65 39 66 40 67
REMARK SMILES IDX 48 68 41 69 42 70 46 71 49 72 43 73 44 74 47 75 45 76 71 77
REMARK SMILES IDX 72 78 80 79 73 80 74 81 78 82 81 83 75 84 76 85 79 86 77 87
REMARK SMILES IDX 56 88 57 89 65 90 58 91 59 92 63 93 66 94 60 95 61 96 64 97
REMARK SMILES IDX 62 98
REMARK H PARENT 22 5 13 16 27 32 86 51 54 62
REMARK Flexibility Score: inf
ROOT
ATOM      1  C   UNL     1       2.514  10.409  -4.365  1.00  0.00     0.116 C 
ENDROOT
BRANCH   1   2
ATOM      2  N   UNL     1       3.339   9.331  -4.864  1.00  0.00    -0.352 N 
ATOM      3  C   UNL     1       3.378   7.968  -4.761  1.00  0.00     0.251 C 
ATOM      4  O   UNL     1       4.041   7.432  -5.660  1.00  0.00    -0.269 OA
ATOM      5  H   UNL     1       4.069   9.671  -5.430  1.00  0.00     0.163 HD
BRANCH   3   6
ATOM      6  C   UNL     1       2.842   7.086  -3.665  1.00  0.00     0.044 A 
ATOM      7  C   UNL     1       3.076   4.816  -2.740  1.00  0.00     0.042 A 
ATOM      8  C   UNL     1       2.396   5.212  -1.608  1.00  0.00     0.026 A 
ATOM      9  C   UNL     1       3.407   5.778  -3.689  1.00  0.00     0.040 A 
ATOM     10  C   UNL     1       1.781   6.451  -1.578  1.00  0.00     0.006 A 
ATOM     11  C   UNL     1       1.889   7.343  -2.662  1.00  0.00    -0.038 A 
ATOM     12  C   UNL     1       0.855   8.420  -2.658  1.00  0.00     0.045 C 
BRANCH   7  13
ATOM     13  N   UNL     1       3.486   3.490  -2.896  1.00  0.00    -0.325 N 
ATOM     14  C   UNL     1       2.737   2.350  -2.714  1.00  0.00     0.234 C 
ATOM     15  O   UNL     1       3.338   1.285  -2.542  1.00  0.00    -0.274 OA
ATOM     16  H   UNL     1       4.422   3.356  -3.169  1.00  0.00     0.169 HD
BRANCH  14  17
ATOM     17  C   UNL     1       1.231   2.352  -2.983  1.00  0.00     0.170 C 
BRANCH  17  18
ATOM     18  S   UNL     1       0.116   3.050  -1.742  1.00  0.00    -0.147 SA
BRANCH  18  19
ATOM     19  C   UNL     1       0.694   2.225  -0.224  1.00  0.00     0.105 C 
BRANCH  19  20
ATOM     20  C   UNL     1       0.106   0.850  -0.044  1.00  0.00    -0.035 A 
ATOM     21  C   UNL     1       2.381  -0.364  -0.008  1.00  0.00     0.044 C 
ATOM     22  C   UNL     1       0.878  -0.326   0.041  1.00  0.00    -0.047 A 
ATOM     23  C   UNL     1       0.218  -1.564   0.155  1.00  0.00     0.004 A 
ATOM     24  C   UNL     1      -1.172  -1.643   0.230  1.00  0.00     0.000 A 
ATOM     25  C   UNL     1      -1.298   0.749   0.068  1.00  0.00     0.005 A 
ATOM     26  C   UNL     1      -1.932  -0.484   0.200  1.00  0.00     0.000 A 
ENDBRANCH  19  20
ENDBRANCH  18  19
ENDBRANCH  17  18
ENDBRANCH  14  17
ENDBRANCH   7  13
ENDBRANCH   3   6
ENDBRANCH   1   2
BRANCH   1  27
ATOM     27  C   UNL     1       2.971  11.046  -3.046  1.00  0.00     0.023 C 
BRANCH  27  28
ATOM     28  C   UNL     1       3.921  12.241  -3.202  1.00  0.00     0.023 C 
BRANCH  28  29
ATOM     29  C   UNL     1       3.313  13.419  -3.964  1.00  0.00     0.116 C 
BRANCH  29  30
ATOM     30  N   UNL     1       2.739  14.497  -3.170  1.00  0.00    -0.352 N 
ATOM     31  C   UNL     1       1.906  15.520  -3.608  1.00  0.00     0.251 C 
ATOM     32  H   UNL     1       2.966  14.501  -2.212  1.00  0.00     0.163 HD
ATOM     33  O   UNL     1       1.562  16.419  -2.847  1.00  0.00    -0.269 OA
BRANCH  31  34
ATOM     34  C   UNL     1       1.327  15.442  -4.976  1.00  0.00     0.039 A 
ATOM     35  C   UNL     1      -0.064  15.499  -5.103  1.00  0.00     0.014 A 
ATOM     36  C   UNL     1       2.112  15.055  -6.060  1.00  0.00     0.014 A 
ATOM     37  C   UNL     1      -0.672  14.906  -6.210  1.00  0.00     0.010 A 
ATOM     38  C   UNL     1       1.511  14.381  -7.111  1.00  0.00     0.010 A 
ATOM     39  C   UNL     1       0.121  14.238  -7.147  1.00  0.00    -0.014 A 
BRANCH  39  40
ATOM     40  C   UNL     1      -0.429  13.271  -8.094  1.00  0.00     0.031 A 
ATOM     41  C   UNL     1      -0.573  13.594  -9.528  1.00  0.00     0.074 A 
ATOM     42  C   UNL     1      -0.840  12.047  -7.683  1.00  0.00     0.049 A 
ATOM     43  N   UNL     1      -1.572  13.193 -10.246  1.00  0.00    -0.248 NA
ATOM     44  C   UNL     1       0.392  14.399 -10.266  1.00  0.00     0.031 C 
ATOM     45  C   UNL     1      -1.224  10.925  -8.538  1.00  0.00     0.029 A 
ATOM     46  N   UNL     1      -1.169  11.624  -6.387  1.00  0.00    -0.354 N 
ATOM     47  C   UNL     1      -1.252  13.437 -11.558  1.00  0.00     0.074 A 
ATOM     48  C   UNL     1      -0.063  14.261 -11.517  1.00  0.00     0.031 C 
ATOM     49  C   UNL     1      -1.995  10.084  -7.835  1.00  0.00     0.029 A 
ATOM     50  C   UNL     1      -2.214  10.678  -6.532  1.00  0.00     0.049 A 
ATOM     51  H   UNL     1      -0.757  11.924  -5.545  1.00  0.00     0.167 HD
ATOM     52  C   UNL     1      -1.921  12.800 -12.561  1.00  0.00     0.037 A 
ATOM     53  C   UNL     1      -3.419  10.809  -5.908  1.00  0.00     0.037 A 
ATOM     54  C   UNL     1      -2.900  11.846 -12.059  1.00  0.00     0.049 A 
ATOM     55  C   UNL     1      -4.601  10.835  -6.843  1.00  0.00     0.074 A 
ATOM     56  C   UNL     1      -2.846  10.472 -11.884  1.00  0.00     0.029 A 
ATOM     57  N   UNL     1      -4.027  12.284 -11.374  1.00  0.00    -0.354 N 
ATOM     58  N   UNL     1      -4.495  11.007  -8.130  1.00  0.00    -0.248 NA
ATOM     59  C   UNL     1      -5.991  10.743  -6.407  1.00  0.00     0.031 C 
ATOM     60  C   UNL     1      -3.955  10.079 -11.103  1.00  0.00     0.029 A 
ATOM     61  C   UNL     1      -4.680  11.214 -10.790  1.00  0.00     0.049 A 
ATOM     62  H   UNL     1      -4.319  13.222 -11.313  1.00  0.00     0.167 HD
ATOM     63  C   UNL     1      -5.745  11.112  -8.685  1.00  0.00     0.074 A 
ATOM     64  C   UNL     1      -6.648  10.901  -7.571  1.00  0.00     0.031 C 
ATOM     65  C   UNL     1      -5.899  11.391 -10.015  1.00  0.00     0.037 A 
BRANCH  52  66
ATOM     66  C   UNL     1      -1.435  12.838 -13.987  1.00  0.00     0.064 A 
ATOM     67  C   UNL     1      -1.438  11.691 -14.806  1.00  0.00     0.173 A 
ATOM     68  C   UNL     1      -0.911  14.000 -14.582  1.00  0.00     0.173 A 
ATOM     69  F   UNL     1      -1.987  10.539 -14.403  1.00  0.00    -0.203 F 
ATOM     70  C   UNL     1      -0.855  11.678 -16.074  1.00  0.00     0.198 A 
ATOM     71  C   UNL     1      -0.284  13.976 -15.832  1.00  0.00     0.198 A 
ATOM     72  F   UNL     1      -0.998  15.187 -13.962  1.00  0.00    -0.203 F 
ATOM     73  F   UNL     1      -0.867  10.551 -16.800  1.00  0.00    -0.200 F 
ATOM     74  C   UNL     1      -0.244  12.810 -16.572  1.00  0.00     0.200 A 
ATOM     75  F   UNL     1       0.297  15.087 -16.306  1.00  0.00    -0.200 F 
ATOM     76  F   UNL     1       0.370  12.781 -17.762  1.00  0.00    -0.200 F 
ENDBRANCH  52  66
BRANCH  53  77
ATOM     77  C   UNL     1      -3.318  11.565  -4.635  1.00  0.00     0.064 A 
ATOM     78  C   UNL     1      -2.523  11.010  -3.614  1.00  0.00     0.173 A 
ATOM     79  C   UNL     1      -3.572  12.940  -4.596  1.00  0.00     0.173 A 
ATOM     80  F   UNL     1      -2.258   9.693  -3.610  1.00  0.00    -0.203 F 
ATOM     81  C   UNL     1      -1.861  11.823  -2.701  1.00  0.00     0.198 A 
ATOM     82  C   UNL     1      -2.930  13.747  -3.659  1.00  0.00     0.198 A 
ATOM     83  F   UNL     1      -4.324  13.519  -5.543  1.00  0.00    -0.203 F 
ATOM     84  F   UNL     1      -0.973  11.284  -1.853  1.00  0.00    -0.200 F 
ATOM     85  C   UNL     1      -2.038  13.195  -2.748  1.00  0.00     0.200 A 
ATOM     86  F   UNL     1      -3.088  15.078  -3.709  1.00  0.00    -0.200 F 
ATOM     87  F   UNL     1      -1.307  13.989  -1.954  1.00  0.00    -0.200 F 
ENDBRANCH  53  77
BRANCH  65  88
ATOM     88  C   UNL     1      -7.184  11.729 -10.743  1.00  0.00     0.064 A 
ATOM     89  C   UNL     1      -8.341  12.236 -10.129  1.00  0.00     0.173 A 
ATOM     90  C   UNL     1      -7.245  11.650 -12.159  1.00  0.00     0.173 A 
ATOM     91  F   UNL     1      -8.381  12.496  -8.817  1.00  0.00    -0.203 F 
ATOM     92  C   UNL     1      -9.492  12.557 -10.860  1.00  0.00     0.198 A 
ATOM     93  C   UNL     1      -8.372  12.028 -12.889  1.00  0.00     0.198 A 
ATOM     94  F   UNL     1      -6.201  11.226 -12.888  1.00  0.00    -0.203 F 
ATOM     95  F   UNL     1     -10.586  12.988 -10.215  1.00  0.00    -0.200 F 
ATOM     96  C   UNL     1      -9.505  12.461 -12.238  1.00  0.00     0.200 A 
ATOM     97  F   UNL     1      -8.342  11.983 -14.229  1.00  0.00    -0.200 F 
ATOM     98  F   UNL     1     -10.595  12.808 -12.934  1.00  0.00    -0.200 F 
ENDBRANCH  65  88
ENDBRANCH  39  40
ENDBRANCH  31  34
ENDBRANCH  29  30
ENDBRANCH  28  29
ENDBRANCH  27  28
ENDBRANCH   1  27
TORSDOF 16
