REMARK SMILES [NH3+][C@@]1(C(=O)NCCCCNC(=O)c2ccc(-c3c4nc(c(-c5c(F)c(F)c(F)c(F)c5F)c5ccc([nH]5)c(-c5c(F)c(F)c(F)c(F)c5F)c5nc(c(-c6c(F)c(F)c(F)c(F)c6F)c6ccc3[nH]6)C=C5)C=C4)cc2)CC[N@H+](Cc2ccc(OCC(=O)N3CCCCC3)cc2)C1
REMARK SMILES IDX 6 1 5 2 3 3 4 4 2 6 76 7 96 8 77 9 78 10 1 12 79 16 80 17
REMARK SMILES IDX 81 18 95 19 82 20 94 21 83 22 84 23 85 24 86 25 87 26 88 27
REMARK SMILES IDX 89 28 93 29 90 30 92 31 91 32 7 33 8 34 9 35 10 36 11 37
REMARK SMILES IDX 12 39 13 40 14 41 75 42 15 43 74 44 16 45 17 46 18 47 68 48
REMARK SMILES IDX 19 49 73 50 67 51 69 52 20 53 72 54 66 55 65 56 21 58 53 59
REMARK SMILES IDX 33 60 52 61 34 62 37 63 51 64 70 65 35 66 36 67 50 69 71 70
REMARK SMILES IDX 38 71 22 72 23 73 31 74 24 75 25 76 29 77 32 78 26 79 27 80
REMARK SMILES IDX 30 81 28 82 54 83 55 84 63 85 56 86 57 87 61 88 64 89 58 90
REMARK SMILES IDX 59 91 62 92 60 93 39 94 40 95 48 96 41 97 42 98 46 99 49 100
REMARK SMILES IDX 43 101 44 102 47 103 45 104
REMARK H PARENT 5 5 78 11 1 13 1 14 1 15 10 38 69 57 37 68
REMARK Flexibility Score: inf
ROOT
ATOM      1  C   UNL     1      -0.004   2.635  -2.669  1.00  0.00     0.116 C 
ENDROOT
BRANCH   1   2
ATOM      2  N   UNL     1       0.813   1.342  -2.344  1.00  0.00    -0.350 N 
ATOM      3  C   UNL     1       0.966   0.610  -1.211  1.00  0.00     0.287 C 
ATOM      4  O   UNL     1       1.357  -0.555  -1.403  1.00  0.00    -0.268 OA
ATOM      5  H   UNL     1       1.317   0.989  -3.113  1.00  0.00     0.163 HD
BRANCH   3   6
ATOM      6  C   UNL     1       0.722   1.107   0.269  1.00  0.00     0.228 C 
ATOM      7  C   UNL     1      -0.728   1.414   0.629  1.00  0.00     0.146 C 
ATOM      8  C   UNL     1       1.498   2.371   0.670  1.00  0.00     0.342 C 
ATOM      9  C   UNL     1      -0.800   2.909   0.940  1.00  0.00     0.270 C 
ATOM     10  N   UNL     1       0.544   3.471   0.851  1.00  0.00    -0.325 N 
ATOM     11  H   UNL     1       0.765   3.930   1.735  1.00  0.00     0.348 HD
BRANCH   6  12
ATOM     12  N   UNL     1       1.176  -0.033   1.140  1.00  0.00    -0.340 N 
ATOM     13  H   UNL     1       0.668  -0.880   0.884  1.00  0.00     0.345 HD
ATOM     14  H   UNL     1       0.991   0.192   2.117  1.00  0.00     0.345 HD
ATOM     15  H   UNL     1       2.176  -0.184   1.009  1.00  0.00     0.345 HD
ENDBRANCH   6  12
BRANCH  10  16
ATOM     16  C   UNL     1       0.696   4.623  -0.030  1.00  0.00     0.299 C 
BRANCH  16  17
ATOM     17  C   UNL     1       0.513   4.292  -1.485  1.00  0.00     0.006 A 
ATOM     18  C   UNL     1       1.894   3.516  -2.355  1.00  0.00     0.013 A 
ATOM     19  C   UNL     1      -1.141   4.360  -2.247  1.00  0.00     0.013 A 
ATOM     20  C   UNL     1       1.640   2.851  -4.007  1.00  0.00     0.047 A 
ATOM     21  C   UNL     1      -1.379   3.674  -3.895  1.00  0.00     0.047 A 
ATOM     22  C   UNL     1       0.002   2.871  -4.744  1.00  0.00     0.120 A 
BRANCH  22  23
ATOM     23  O   UNL     1      -0.055   2.277  -5.968  1.00  0.00    -0.484 OA
BRANCH  23  24
ATOM     24  C   UNL     1      -1.246   1.587  -6.266  1.00  0.00     0.329 C 
BRANCH  24  25
ATOM     25  C   UNL     1      -1.594   0.281  -5.523  1.00  0.00     0.260 C 
ATOM     26  O   UNL     1      -2.707   0.190  -4.992  1.00  0.00    -0.271 OA
ATOM     27  N   UNL     1      -0.712  -0.793  -5.567  1.00  0.00    -0.340 N 
ATOM     28  C   UNL     1      -1.208  -2.123  -5.214  1.00  0.00     0.119 C 
ATOM     29  C   UNL     1       0.684  -0.763  -6.010  1.00  0.00     0.119 C 
ATOM     30  C   UNL     1      -0.350  -2.772  -4.138  1.00  0.00     0.022 C 
ATOM     31  C   UNL     1       1.613  -1.443  -4.997  1.00  0.00     0.022 C 
ATOM     32  C   UNL     1       1.114  -2.821  -4.567  1.00  0.00     0.004 C 
ENDBRANCH  24  25
ENDBRANCH  23  24
ENDBRANCH  22  23
ENDBRANCH  16  17
ENDBRANCH  10  16
ENDBRANCH   3   6
ENDBRANCH   1   2
BRANCH   1  33
ATOM     33  C   UNL     1       0.515   4.558  -3.579  1.00  0.00     0.023 C 
BRANCH  33  34
ATOM     34  C   UNL     1       0.685   5.189  -5.162  1.00  0.00     0.023 C 
BRANCH  34  35
ATOM     35  C   UNL     1      -0.562   5.710  -5.877  1.00  0.00     0.116 C 
BRANCH  35  36
ATOM     36  N   UNL     1      -1.329   6.715  -5.144  1.00  0.00    -0.352 N 
ATOM     37  C   UNL     1      -2.347   7.490  -5.655  1.00  0.00     0.251 C 
ATOM     38  H   UNL     1      -1.098   6.850  -4.197  1.00  0.00     0.163 HD
ATOM     39  O   UNL     1      -2.921   8.348  -5.001  1.00  0.00    -0.269 OA
BRANCH  37  40
ATOM     40  C   UNL     1      -2.686   7.257  -7.068  1.00  0.00     0.039 A 
ATOM     41  C   UNL     1      -2.248   8.174  -8.024  1.00  0.00     0.014 A 
ATOM     42  C   UNL     1      -3.197   6.010  -7.431  1.00  0.00     0.014 A 
ATOM     43  C   UNL     1      -2.250   7.801  -9.366  1.00  0.00     0.010 A 
ATOM     44  C   UNL     1      -3.120   5.614  -8.759  1.00  0.00     0.010 A 
ATOM     45  C   UNL     1      -2.641   6.503  -9.736  1.00  0.00    -0.014 A 
BRANCH  45  46
ATOM     46  C   UNL     1      -2.573   6.059 -11.148  1.00  0.00     0.031 A 
ATOM     47  C   UNL     1      -3.844   5.717 -11.870  1.00  0.00     0.074 A 
ATOM     48  C   UNL     1      -1.380   5.902 -11.753  1.00  0.00     0.049 A 
ATOM     49  N   UNL     1      -4.009   5.261 -13.085  1.00  0.00    -0.248 NA
ATOM     50  C   UNL     1      -5.094   5.869 -11.109  1.00  0.00     0.031 C 
ATOM     51  C   UNL     1      -0.074   6.133 -11.132  1.00  0.00     0.029 A 
ATOM     52  N   UNL     1      -1.072   5.504 -13.030  1.00  0.00    -0.354 N 
ATOM     53  C   UNL     1      -5.374   5.054 -13.222  1.00  0.00     0.074 A 
ATOM     54  C   UNL     1      -5.984   5.367 -11.949  1.00  0.00     0.031 C 
ATOM     55  C   UNL     1       0.891   5.905 -12.038  1.00  0.00     0.029 A 
ATOM     56  C   UNL     1       0.276   5.491 -13.296  1.00  0.00     0.049 A 
ATOM     57  H   UNL     1      -1.754   5.251 -13.694  1.00  0.00     0.167 HD
ATOM     58  C   UNL     1      -6.063   4.673 -14.322  1.00  0.00     0.037 A 
ATOM     59  C   UNL     1       0.933   5.190 -14.433  1.00  0.00     0.037 A 
ATOM     60  C   UNL     1      -5.458   4.413 -15.598  1.00  0.00     0.049 A 
ATOM     61  C   UNL     1       0.141   4.811 -15.656  1.00  0.00     0.074 A 
ATOM     62  C   UNL     1      -6.070   4.089 -16.795  1.00  0.00     0.029 A 
ATOM     63  N   UNL     1      -4.093   4.459 -15.843  1.00  0.00    -0.354 N 
ATOM     64  N   UNL     1      -1.157   4.697 -15.799  1.00  0.00    -0.248 NA
ATOM     65  C   UNL     1       0.904   4.530 -16.881  1.00  0.00     0.031 C 
ATOM     66  C   UNL     1      -5.073   3.912 -17.760  1.00  0.00     0.029 A 
ATOM     67  C   UNL     1      -3.843   4.161 -17.171  1.00  0.00     0.049 A 
ATOM     68  H   UNL     1      -3.405   4.671 -15.171  1.00  0.00     0.167 HD
ATOM     69  C   UNL     1      -1.369   4.364 -17.130  1.00  0.00     0.074 A 
ATOM     70  C   UNL     1      -0.065   4.304 -17.757  1.00  0.00     0.031 C 
ATOM     71  C   UNL     1      -2.536   4.129 -17.776  1.00  0.00     0.037 A 
BRANCH  58  72
ATOM     72  C   UNL     1      -7.550   4.539 -14.186  1.00  0.00     0.064 A 
ATOM     73  C   UNL     1      -8.373   5.663 -14.016  1.00  0.00     0.173 A 
ATOM     74  C   UNL     1      -8.159   3.277 -14.224  1.00  0.00     0.173 A 
ATOM     75  F   UNL     1      -7.835   6.891 -13.955  1.00  0.00    -0.203 F 
ATOM     76  C   UNL     1      -9.748   5.525 -13.852  1.00  0.00     0.198 A 
ATOM     77  C   UNL     1      -9.539   3.145 -14.090  1.00  0.00     0.198 A 
ATOM     78  F   UNL     1      -7.417   2.172 -14.386  1.00  0.00    -0.203 F 
ATOM     79  F   UNL     1     -10.506   6.608 -13.630  1.00  0.00    -0.200 F 
ATOM     80  C   UNL     1     -10.330   4.268 -13.894  1.00  0.00     0.200 A 
ATOM     81  F   UNL     1     -10.102   1.930 -14.140  1.00  0.00    -0.200 F 
ATOM     82  F   UNL     1     -11.654   4.136 -13.735  1.00  0.00    -0.200 F 
ENDBRANCH  58  72
BRANCH  59  83
ATOM     83  C   UNL     1       2.415   5.287 -14.488  1.00  0.00     0.064 A 
ATOM     84  C   UNL     1       3.039   6.309 -15.218  1.00  0.00     0.173 A 
ATOM     85  C   UNL     1       3.236   4.359 -13.832  1.00  0.00     0.173 A 
ATOM     86  F   UNL     1       2.295   7.208 -15.879  1.00  0.00    -0.203 F 
ATOM     87  C   UNL     1       4.427   6.386 -15.308  1.00  0.00     0.198 A 
ATOM     88  C   UNL     1       4.625   4.451 -13.904  1.00  0.00     0.198 A 
ATOM     89  F   UNL     1       2.688   3.365 -13.117  1.00  0.00    -0.203 F 
ATOM     90  F   UNL     1       4.996   7.347 -16.049  1.00  0.00    -0.200 F 
ATOM     91  C   UNL     1       5.219   5.459 -14.648  1.00  0.00     0.200 A 
ATOM     92  F   UNL     1       5.388   3.560 -13.256  1.00  0.00    -0.200 F 
ATOM     93  F   UNL     1       6.554   5.532 -14.736  1.00  0.00    -0.200 F 
ENDBRANCH  59  83
BRANCH  71  94
ATOM     94  C   UNL     1      -2.465   3.822 -19.241  1.00  0.00     0.064 A 
ATOM     95  C   UNL     1      -2.022   2.578 -19.709  1.00  0.00     0.173 A 
ATOM     96  C   UNL     1      -2.908   4.763 -20.183  1.00  0.00     0.173 A 
ATOM     97  F   UNL     1      -1.576   1.652 -18.846  1.00  0.00    -0.203 F 
ATOM     98  C   UNL     1      -2.012   2.291 -21.071  1.00  0.00     0.198 A 
ATOM     99  C   UNL     1      -2.920   4.464 -21.542  1.00  0.00     0.198 A 
ATOM    100  F   UNL     1      -3.347   5.966 -19.782  1.00  0.00    -0.203 F 
ATOM    101  F   UNL     1      -1.554   1.107 -21.500  1.00  0.00    -0.200 F 
ATOM    102  C   UNL     1      -2.469   3.229 -21.985  1.00  0.00     0.200 A 
ATOM    103  F   UNL     1      -3.373   5.367 -22.422  1.00  0.00    -0.200 F 
ATOM    104  F   UNL     1      -2.470   2.946 -23.294  1.00  0.00    -0.200 F 
ENDBRANCH  71  94
ENDBRANCH  45  46
ENDBRANCH  37  40
ENDBRANCH  35  36
ENDBRANCH  34  35
ENDBRANCH  33  34
ENDBRANCH   1  33
TORSDOF 17
