REMARK SMILES CC[C@@H](C)[C@@H](NC(=O)Cn1ncc2ccccc2c1=O)C(=O)NCCCCNC(=O)c1ccc(-c2c3nc(c(-c4c(F)c(F)c(F)c(F)c4F)c4ccc([nH]4)c(-c4c(F)c(F)c(F)c(F)c4F)c4nc(c(-c5c(F)c(F)c(F)c(F)c5F)c5ccc2[nH]5)C=C4)C=C3)cc1
REMARK SMILES IDX 25 1 24 2 23 3 21 4 22 5 5 7 3 8 4 9 2 10 1 11 6 12 7 13
REMARK SMILES IDX 8 15 9 16 10 17 11 18 19 19 12 20 18 21 20 22 13 23 17 24
REMARK SMILES IDX 14 25 16 26 15 27 26 28 27 29 28 30 29 31 30 33 31 34 32 35
REMARK SMILES IDX 93 36 33 37 92 38 34 39 35 40 36 41 86 42 37 43 91 44 85 45
REMARK SMILES IDX 87 46 38 47 90 48 84 49 83 50 39 52 71 53 51 54 70 55 52 56
REMARK SMILES IDX 55 57 69 58 88 59 53 60 54 61 68 63 89 64 56 65 40 66 41 67
REMARK SMILES IDX 49 68 42 69 43 70 47 71 50 72 44 73 45 74 48 75 46 76 72 77
REMARK SMILES IDX 73 78 81 79 74 80 75 81 79 82 82 83 76 84 77 85 80 86 78 87
REMARK SMILES IDX 57 88 58 89 66 90 59 91 60 92 64 93 67 94 61 95 62 96 65 97
REMARK SMILES IDX 63 98
REMARK H PARENT 23 6 6 14 28 32 87 51 55 62
REMARK Flexibility Score: inf
ROOT
ATOM      1  C   UNL     1       5.264   3.138  -1.756  1.00  0.00     0.023 C 
ENDROOT
BRANCH   1   2
ATOM      2  C   UNL     1       4.137   4.434  -1.722  1.00  0.00     0.116 C 
BRANCH   2   3
ATOM      3  N   UNL     1       2.159   4.529  -2.329  1.00  0.00    -0.354 N 
ATOM      4  C   UNL     1       0.784   4.404  -1.947  1.00  0.00     0.242 C 
ATOM      5  O   UNL     1       0.025   4.827  -2.841  1.00  0.00    -0.273 OA
ATOM      6  H   UNL     1       2.167   4.755  -3.287  1.00  0.00     0.163 HD
BRANCH   4   7
ATOM      7  C   UNL     1       0.109   3.712  -0.664  1.00  0.00     0.174 C 
BRANCH   7   8
ATOM      8  C   UNL     1       0.161   2.138  -0.786  1.00  0.00     0.018 C 
ATOM      9  C   UNL     1      -0.446   1.657  -2.115  1.00  0.00     0.010 C 
BRANCH   8  10
ATOM     10  C   UNL     1      -0.364   1.298   0.397  1.00  0.00     0.002 C 
ATOM     11  C   UNL     1       0.265  -0.103   0.386  1.00  0.00     0.004 C 
ENDBRANCH   8  10
ENDBRANCH   7   8
BRANCH   7  12
ATOM     12  N   UNL     1       0.365   4.181   0.716  1.00  0.00    -0.342 N 
ATOM     13  C   UNL     1       1.122   5.188   1.231  1.00  0.00     0.242 C 
ATOM     14  H   UNL     1      -0.108   3.656   1.402  1.00  0.00     0.164 HD
ATOM     15  O   UNL     1       0.996   5.433   2.436  1.00  0.00    -0.273 OA
BRANCH  13  16
ATOM     16  C   UNL     1       1.929   6.102   0.346  1.00  0.00     0.248 C 
BRANCH  16  17
ATOM     17  N   UNL     1       2.659   5.386  -0.665  1.00  0.00    -0.220 N 
ATOM     18  N   UNL     1       2.669   3.526  -0.655  1.00  0.00    -0.177 NA
ATOM     19  C   UNL     1       3.103   6.298  -2.135  1.00  0.00     0.275 A 
ATOM     20  C   UNL     1       2.906   2.758  -1.970  1.00  0.00     0.142 A 
ATOM     21  C   UNL     1       3.612   5.266  -3.674  1.00  0.00     0.050 A 
ATOM     22  O   UNL     1       3.111   7.525  -2.128  1.00  0.00    -0.267 OA
ATOM     23  C   UNL     1       3.433   3.564  -3.620  1.00  0.00     0.007 A 
ATOM     24  C   UNL     1       4.193   5.854  -4.767  1.00  0.00     0.014 A 
ATOM     25  C   UNL     1       3.793   2.807  -4.703  1.00  0.00     0.010 A 
ATOM     26  C   UNL     1       4.584   4.962  -5.785  1.00  0.00     0.001 A 
ATOM     27  C   UNL     1       4.375   3.529  -5.764  1.00  0.00     0.001 A 
ENDBRANCH  16  17
ENDBRANCH  13  16
ENDBRANCH   7  12
ENDBRANCH   4   7
ENDBRANCH   2   3
ENDBRANCH   1   2
BRANCH   1  28
ATOM     28  C   UNL     1       6.533   3.453  -2.533  1.00  0.00     0.023 C 
BRANCH  28  29
ATOM     29  C   UNL     1       7.228   4.717  -2.093  1.00  0.00     0.116 C 
BRANCH  29  30
ATOM     30  N   UNL     1       8.268   4.494  -1.113  1.00  0.00    -0.352 N 
ATOM     31  C   UNL     1       9.529   5.046  -1.169  1.00  0.00     0.251 C 
ATOM     32  H   UNL     1       8.060   3.906  -0.351  1.00  0.00     0.163 HD
ATOM     33  O   UNL     1      10.402   4.788  -0.354  1.00  0.00    -0.269 OA
BRANCH  31  34
ATOM     34  C   UNL     1       9.779   5.941  -2.317  1.00  0.00     0.039 A 
ATOM     35  C   UNL     1       8.980   7.082  -2.453  1.00  0.00     0.014 A 
ATOM     36  C   UNL     1      10.535   5.453  -3.383  1.00  0.00     0.014 A 
ATOM     37  C   UNL     1       8.832   7.651  -3.712  1.00  0.00     0.010 A 
ATOM     38  C   UNL     1      10.473   6.107  -4.614  1.00  0.00     0.010 A 
ATOM     39  C   UNL     1       9.601   7.194  -4.798  1.00  0.00    -0.014 A 
BRANCH  39  40
ATOM     40  C   UNL     1       9.552   7.909  -6.100  1.00  0.00     0.031 A 
ATOM     41  C   UNL     1       9.169   7.216  -7.378  1.00  0.00     0.074 A 
ATOM     42  C   UNL     1       9.893   9.211  -6.119  1.00  0.00     0.049 A 
ATOM     43  N   UNL     1       9.207   7.671  -8.607  1.00  0.00    -0.248 NA
ATOM     44  C   UNL     1       8.687   5.831  -7.269  1.00  0.00     0.031 C 
ATOM     45  C   UNL     1      10.257  10.002  -4.941  1.00  0.00     0.029 A 
ATOM     46  N   UNL     1       9.983  10.102  -7.155  1.00  0.00    -0.354 N 
ATOM     47  C   UNL     1       8.777   6.629  -9.418  1.00  0.00     0.074 A 
ATOM     48  C   UNL     1       8.513   5.504  -8.543  1.00  0.00     0.031 C 
ATOM     49  C   UNL     1      10.473  11.268  -5.309  1.00  0.00     0.029 A 
ATOM     50  C   UNL     1      10.369  11.358  -6.759  1.00  0.00     0.049 A 
ATOM     51  H   UNL     1       9.789   9.866  -8.091  1.00  0.00     0.167 HD
ATOM     52  C   UNL     1       8.612   6.619 -10.765  1.00  0.00     0.037 A 
ATOM     53  C   UNL     1      10.650  12.457  -7.479  1.00  0.00     0.037 A 
ATOM     54  C   UNL     1       8.889   7.746 -11.625  1.00  0.00     0.049 A 
ATOM     55  C   UNL     1      10.558  12.390  -8.972  1.00  0.00     0.074 A 
ATOM     56  C   UNL     1       8.766   7.835 -13.002  1.00  0.00     0.029 A 
ATOM     57  N   UNL     1       9.350   8.983 -11.191  1.00  0.00    -0.354 N 
ATOM     58  N   UNL     1      10.178  11.393  -9.731  1.00  0.00    -0.248 NA
ATOM     59  C   UNL     1      10.949  13.598  -9.706  1.00  0.00     0.031 C 
ATOM     60  C   UNL     1       9.202   9.102 -13.403  1.00  0.00     0.029 A 
ATOM     61  C   UNL     1       9.538   9.830 -12.274  1.00  0.00     0.049 A 
ATOM     62  H   UNL     1       9.518   9.223 -10.251  1.00  0.00     0.167 HD
ATOM     63  C   UNL     1      10.264  11.856 -11.036  1.00  0.00     0.074 A 
ATOM     64  C   UNL     1      10.714  13.232 -10.958  1.00  0.00     0.031 C 
ATOM     65  C   UNL     1       9.997  11.196 -12.190  1.00  0.00     0.037 A 
BRANCH  52  66
ATOM     66  C   UNL     1       8.125   5.343 -11.400  1.00  0.00     0.064 A 
ATOM     67  C   UNL     1       6.824   4.861 -11.183  1.00  0.00     0.173 A 
ATOM     68  C   UNL     1       8.954   4.608 -12.263  1.00  0.00     0.173 A 
ATOM     69  F   UNL     1       5.992   5.512 -10.357  1.00  0.00    -0.203 F 
ATOM     70  C   UNL     1       6.386   3.678 -11.777  1.00  0.00     0.198 A 
ATOM     71  C   UNL     1       8.501   3.445 -12.883  1.00  0.00     0.198 A 
ATOM     72  F   UNL     1      10.205   5.021 -12.515  1.00  0.00    -0.203 F 
ATOM     73  F   UNL     1       5.161   3.209 -11.502  1.00  0.00    -0.200 F 
ATOM     74  C   UNL     1       7.221   2.975 -12.631  1.00  0.00     0.200 A 
ATOM     75  F   UNL     1       9.306   2.774 -13.719  1.00  0.00    -0.200 F 
ATOM     76  F   UNL     1       6.797   1.839 -13.201  1.00  0.00    -0.200 F 
ENDBRANCH  52  66
BRANCH  53  77
ATOM     77  C   UNL     1      11.024  13.705  -6.770  1.00  0.00     0.064 A 
ATOM     78  C   UNL     1      10.135  14.785  -6.726  1.00  0.00     0.173 A 
ATOM     79  C   UNL     1      12.225  13.813  -6.051  1.00  0.00     0.173 A 
ATOM     80  F   UNL     1       8.982  14.730  -7.410  1.00  0.00    -0.203 F 
ATOM     81  C   UNL     1      10.427  15.925  -5.982  1.00  0.00     0.198 A 
ATOM     82  C   UNL     1      12.502  14.941  -5.283  1.00  0.00     0.198 A 
ATOM     83  F   UNL     1      13.103  12.799  -6.053  1.00  0.00    -0.203 F 
ATOM     84  F   UNL     1       9.566  16.951  -5.968  1.00  0.00    -0.200 F 
ATOM     85  C   UNL     1      11.604  15.996  -5.250  1.00  0.00     0.200 A 
ATOM     86  F   UNL     1      13.627  14.994  -4.557  1.00  0.00    -0.200 F 
ATOM     87  F   UNL     1      11.869  17.081  -4.510  1.00  0.00    -0.200 F 
ENDBRANCH  53  77
BRANCH  65  88
ATOM     88  C   UNL     1      10.167  11.965 -13.469  1.00  0.00     0.064 A 
ATOM     89  C   UNL     1      11.434  12.339 -13.942  1.00  0.00     0.173 A 
ATOM     90  C   UNL     1       9.050  12.309 -14.247  1.00  0.00     0.173 A 
ATOM     91  F   UNL     1      12.533  12.051 -13.228  1.00  0.00    -0.203 F 
ATOM     92  C   UNL     1      11.574  13.054 -15.129  1.00  0.00     0.198 A 
ATOM     93  C   UNL     1       9.197  12.992 -15.451  1.00  0.00     0.198 A 
ATOM     94  F   UNL     1       7.815  11.973 -13.844  1.00  0.00    -0.203 F 
ATOM     95  F   UNL     1      12.790  13.448 -15.531  1.00  0.00    -0.200 F 
ATOM     96  C   UNL     1      10.457  13.371 -15.886  1.00  0.00     0.200 A 
ATOM     97  F   UNL     1       8.117  13.284 -16.189  1.00  0.00    -0.200 F 
ATOM     98  F   UNL     1      10.595  14.051 -17.033  1.00  0.00    -0.200 F 
ENDBRANCH  65  88
ENDBRANCH  39  40
ENDBRANCH  31  34
ENDBRANCH  29  30
ENDBRANCH  28  29
ENDBRANCH   1  28
TORSDOF 16
