REMARK SMILES C[C@]12CC[C@@H]3[C@@H](CCC4=C/C(=N\OCC(=O)N5CCC[C@@H]5C(=O)NCCCCNC(=O)c5ccc(-c6c7nc(c(-c8c(F)c(F)c(F)c(F)c8F)c8ccc([nH]8)c(-c8c(F)c(F)c(F)c(F)c8F)c8nc(c(-c9c(F)c(F)c(F)c(F)c9F)c9ccc6[nH]9)C=C8)C=C7)cc5)CC[C@@]43C)[C@@H]1CC[C@@H]2O
REMARK SMILES IDX 25 1 24 2 22 3 23 4 21 6 17 7 18 8 19 9 20 10 15 11 16 12
REMARK SMILES IDX 14 13 13 14 12 15 1 16 2 17 3 18 99 19 102 20 4 21 6 22
REMARK SMILES IDX 100 23 101 24 5 25 7 26 97 27 8 28 9 29 96 30 98 31 10 32
REMARK SMILES IDX 95 33 11 34 103 35 26 37 27 38 28 39 29 40 30 41 31 43 32 44
REMARK SMILES IDX 33 45 94 46 34 47 93 48 35 49 36 50 37 51 87 52 38 53 92 54
REMARK SMILES IDX 86 55 88 56 39 57 91 58 85 59 84 60 40 62 72 63 52 64 71 65
REMARK SMILES IDX 53 66 56 67 70 68 89 69 54 70 55 71 69 73 90 74 57 75 41 76
REMARK SMILES IDX 42 77 50 78 43 79 44 80 48 81 51 82 45 83 46 84 49 85 47 86
REMARK SMILES IDX 73 87 74 88 82 89 75 90 76 91 80 92 83 93 77 94 78 95 81 96
REMARK SMILES IDX 79 97 58 98 59 99 67 100 60 101 61 102 65 103 68 104 62 105
REMARK SMILES IDX 63 106 66 107 64 108
REMARK H PARENT 24 5 103 36 29 42 88 61 56 72
REMARK Flexibility Score: inf
ROOT
ATOM      1  C   UNL     1      -6.286   1.356  -5.323  1.00  0.00     0.116 C 
ENDROOT
BRANCH   1   2
ATOM      2  N   UNL     1      -6.059   2.403  -4.332  1.00  0.00    -0.354 N 
ATOM      3  C   UNL     1      -6.476   3.702  -4.168  1.00  0.00     0.242 C 
ATOM      4  O   UNL     1      -6.086   4.286  -3.151  1.00  0.00    -0.273 OA
ATOM      5  H   UNL     1      -5.464   2.107  -3.606  1.00  0.00     0.163 HD
BRANCH   3   6
ATOM      6  C   UNL     1      -7.407   4.392  -5.183  1.00  0.00     0.174 C 
ATOM      7  N   UNL     1      -6.970   5.609  -5.900  1.00  0.00    -0.328 N 
ATOM      8  C   UNL     1      -8.058   6.572  -5.960  1.00  0.00     0.120 C 
ATOM      9  C   UNL     1      -8.779   6.397  -4.651  1.00  0.00     0.024 C 
ATOM     10  C   UNL     1      -8.644   4.902  -4.367  1.00  0.00     0.037 C 
BRANCH   7  11
ATOM     11  C   UNL     1      -5.901   5.812  -6.746  1.00  0.00     0.264 C 
ATOM     12  O   UNL     1      -5.892   6.786  -7.513  1.00  0.00    -0.271 OA
BRANCH  11  13
ATOM     13  C   UNL     1      -4.748   4.809  -6.845  1.00  0.00     0.363 C 
BRANCH  13  14
ATOM     14  O   UNL     1      -4.311   4.094  -5.708  1.00  0.00    -0.385 OA
BRANCH  14  15
ATOM     15  N   UNL     1      -3.273   4.786  -5.088  1.00  0.00    -0.091 NA
ATOM     16  C   UNL     1       1.950   1.466   1.130  1.00  0.00     0.014 C 
ATOM     17  C   UNL     1       1.307   1.820  -0.242  1.00  0.00    -0.003 C 
ATOM     18  C   UNL     1       1.090   3.325  -0.238  1.00  0.00     0.010 C 
ATOM     19  C   UNL     1       0.024   1.041  -0.634  1.00  0.00     0.001 C 
ATOM     20  C   UNL     1       2.176   1.273  -1.385  1.00  0.00     0.120 C 
ATOM     21  C   UNL     1      -0.199   3.688   0.524  1.00  0.00     0.005 C 
ATOM     22  C   UNL     1      -1.238   1.398   0.127  1.00  0.00    -0.003 C 
ATOM     23  C   UNL     1       0.528  -0.395  -0.633  1.00  0.00     0.007 C 
ATOM     24  C   UNL     1       1.950  -0.239  -1.227  1.00  0.00     0.032 C 
ATOM     25  C   UNL     1      -1.467   2.927   0.066  1.00  0.00     0.002 C 
ATOM     26  C   UNL     1      -2.503   0.671  -0.352  1.00  0.00     0.008 C 
ATOM     27  C   UNL     1      -2.120   3.512  -1.259  1.00  0.00    -0.008 C 
ATOM     28  C   UNL     1      -3.007   1.071  -1.741  1.00  0.00     0.032 C 
ATOM     29  C   UNL     1      -2.783   2.499  -2.183  1.00  0.00    -0.062 C 
ATOM     30  C   UNL     1      -1.102   4.252  -2.171  1.00  0.00     0.018 C 
ATOM     31  C   UNL     1      -3.212   4.510  -0.785  1.00  0.00     0.016 C 
ATOM     32  C   UNL     1      -3.104   2.860  -3.447  1.00  0.00     0.027 C 
ATOM     33  C   UNL     1      -1.701   4.989  -3.352  1.00  0.00     0.061 C 
ATOM     34  C   UNL     1      -2.784   4.202  -4.038  1.00  0.00     0.080 C 
BRANCH  20  35
ATOM     35  O   UNL     1       3.528   1.654  -1.335  1.00  0.00    -0.393 OA
ATOM     36  H   UNL     1       3.916   1.361  -0.496  1.00  0.00     0.210 HD
ENDBRANCH  20  35
ENDBRANCH  14  15
ENDBRANCH  13  14
ENDBRANCH  11  13
ENDBRANCH   7  11
ENDBRANCH   3   6
ENDBRANCH   1   2
BRANCH   1  37
ATOM     37  C   UNL     1      -5.306   1.179  -6.513  1.00  0.00     0.023 C 
BRANCH  37  38
ATOM     38  C   UNL     1      -3.772   0.979  -6.375  1.00  0.00     0.023 C 
BRANCH  38  39
ATOM     39  C   UNL     1      -3.211  -0.152  -5.488  1.00  0.00     0.116 C 
BRANCH  39  40
ATOM     40  N   UNL     1      -3.130  -1.419  -6.206  1.00  0.00    -0.352 N 
ATOM     41  C   UNL     1      -2.097  -2.300  -6.422  1.00  0.00     0.251 C 
ATOM     42  H   UNL     1      -3.981  -1.698  -6.616  1.00  0.00     0.163 HD
ATOM     43  O   UNL     1      -2.263  -3.176  -7.289  1.00  0.00    -0.269 OA
BRANCH  41  44
ATOM     44  C   UNL     1      -0.806  -2.308  -5.680  1.00  0.00     0.039 A 
ATOM     45  C   UNL     1       0.382  -2.627  -6.361  1.00  0.00     0.014 A 
ATOM     46  C   UNL     1      -0.751  -2.223  -4.295  1.00  0.00     0.014 A 
ATOM     47  C   UNL     1       1.614  -2.787  -5.680  1.00  0.00     0.010 A 
ATOM     48  C   UNL     1       0.484  -2.385  -3.631  1.00  0.00     0.010 A 
ATOM     49  C   UNL     1       1.708  -2.618  -4.292  1.00  0.00    -0.014 A 
BRANCH  49  50
ATOM     50  C   UNL     1       3.036  -2.572  -3.540  1.00  0.00     0.031 A 
ATOM     51  C   UNL     1       3.247  -3.262  -2.191  1.00  0.00     0.074 A 
ATOM     52  C   UNL     1       3.989  -1.673  -3.897  1.00  0.00     0.049 A 
ATOM     53  N   UNL     1       4.210  -3.098  -1.305  1.00  0.00    -0.248 NA
ATOM     54  C   UNL     1       2.199  -4.186  -1.744  1.00  0.00     0.031 C 
ATOM     55  C   UNL     1       3.916  -0.759  -5.037  1.00  0.00     0.029 A 
ATOM     56  N   UNL     1       5.177  -1.319  -3.280  1.00  0.00    -0.354 N 
ATOM     57  C   UNL     1       3.836  -3.822  -0.174  1.00  0.00     0.074 A 
ATOM     58  C   UNL     1       2.542  -4.400  -0.480  1.00  0.00     0.031 C 
ATOM     59  C   UNL     1       4.992   0.044  -5.038  1.00  0.00     0.029 A 
ATOM     60  C   UNL     1       5.830  -0.268  -3.884  1.00  0.00     0.049 A 
ATOM     61  H   UNL     1       5.524  -1.778  -2.481  1.00  0.00     0.167 HD
ATOM     62  C   UNL     1       4.499  -4.014   1.000  1.00  0.00     0.037 A 
ATOM     63  C   UNL     1       6.960   0.399  -3.564  1.00  0.00     0.037 A 
ATOM     64  C   UNL     1       5.835  -3.547   1.297  1.00  0.00     0.049 A 
ATOM     65  C   UNL     1       7.774   0.034  -2.353  1.00  0.00     0.074 A 
ATOM     66  C   UNL     1       6.656  -3.904   2.358  1.00  0.00     0.029 A 
ATOM     67  N   UNL     1       6.543  -2.622   0.551  1.00  0.00    -0.354 N 
ATOM     68  N   UNL     1       7.494  -0.805  -1.392  1.00  0.00    -0.248 NA
ATOM     69  C   UNL     1       9.080   0.700  -2.200  1.00  0.00     0.031 C 
ATOM     70  C   UNL     1       7.846  -3.173   2.273  1.00  0.00     0.029 A 
ATOM     71  C   UNL     1       7.789  -2.401   1.128  1.00  0.00     0.049 A 
ATOM     72  H   UNL     1       6.214  -2.184  -0.267  1.00  0.00     0.167 HD
ATOM     73  C   UNL     1       8.598  -0.799  -0.547  1.00  0.00     0.074 A 
ATOM     74  C   UNL     1       9.557   0.125  -1.105  1.00  0.00     0.031 C 
ATOM     75  C   UNL     1       8.786  -1.517   0.585  1.00  0.00     0.037 A 
BRANCH  62  76
ATOM     76  C   UNL     1       3.827  -4.830   2.078  1.00  0.00     0.064 A 
ATOM     77  C   UNL     1       3.580  -6.202   1.917  1.00  0.00     0.173 A 
ATOM     78  C   UNL     1       3.532  -4.261   3.330  1.00  0.00     0.173 A 
ATOM     79  F   UNL     1       3.861  -6.806   0.752  1.00  0.00    -0.203 F 
ATOM     80  C   UNL     1       3.021  -6.960   2.943  1.00  0.00     0.198 A 
ATOM     81  C   UNL     1       3.013  -5.033   4.369  1.00  0.00     0.198 A 
ATOM     82  F   UNL     1       3.777  -2.962   3.561  1.00  0.00    -0.203 F 
ATOM     83  F   UNL     1       2.745  -8.256   2.740  1.00  0.00    -0.200 F 
ATOM     84  C   UNL     1       2.746  -6.378   4.170  1.00  0.00     0.200 A 
ATOM     85  F   UNL     1       2.778  -4.476   5.566  1.00  0.00    -0.200 F 
ATOM     86  F   UNL     1       2.226  -7.115   5.162  1.00  0.00    -0.200 F 
ENDBRANCH  62  76
BRANCH  63  87
ATOM     87  C   UNL     1       7.448   1.481  -4.458  1.00  0.00     0.064 A 
ATOM     88  C   UNL     1       8.526   1.248  -5.325  1.00  0.00     0.173 A 
ATOM     89  C   UNL     1       6.880   2.760  -4.441  1.00  0.00     0.173 A 
ATOM     90  F   UNL     1       9.114   0.043  -5.352  1.00  0.00    -0.203 F 
ATOM     91  C   UNL     1       9.038   2.266  -6.124  1.00  0.00     0.198 A 
ATOM     92  C   UNL     1       7.381   3.773  -5.257  1.00  0.00     0.198 A 
ATOM     93  F   UNL     1       5.837   3.023  -3.639  1.00  0.00    -0.203 F 
ATOM     94  F   UNL     1      10.099   2.030  -6.906  1.00  0.00    -0.200 F 
ATOM     95  C   UNL     1       8.464   3.528  -6.090  1.00  0.00     0.200 A 
ATOM     96  F   UNL     1       6.819   4.989  -5.232  1.00  0.00    -0.200 F 
ATOM     97  F   UNL     1       8.960   4.510  -6.855  1.00  0.00    -0.200 F 
ENDBRANCH  63  87
BRANCH  75  98
ATOM     98  C   UNL     1      10.123  -1.427   1.266  1.00  0.00     0.064 A 
ATOM     99  C   UNL     1      10.536  -0.284   1.966  1.00  0.00     0.173 A 
ATOM    100  C   UNL     1      11.001  -2.522   1.231  1.00  0.00     0.173 A 
ATOM    101  F   UNL     1       9.747   0.799   2.018  1.00  0.00    -0.203 F 
ATOM    102  C   UNL     1      11.786  -0.233   2.584  1.00  0.00     0.198 A 
ATOM    103  C   UNL     1      12.238  -2.477   1.871  1.00  0.00     0.198 A 
ATOM    104  F   UNL     1      10.659  -3.642   0.576  1.00  0.00    -0.203 F 
ATOM    105  F   UNL     1      12.178   0.887   3.209  1.00  0.00    -0.200 F 
ATOM    106  C   UNL     1      12.632  -1.330   2.542  1.00  0.00     0.200 A 
ATOM    107  F   UNL     1      13.050  -3.543   1.834  1.00  0.00    -0.200 F 
ATOM    108  F   UNL     1      13.831  -1.280   3.138  1.00  0.00    -0.200 F 
ENDBRANCH  75  98
ENDBRANCH  49  50
ENDBRANCH  41  44
ENDBRANCH  39  40
ENDBRANCH  38  39
ENDBRANCH  37  38
ENDBRANCH   1  37
TORSDOF 16
