REMARK SMILES CC(C)[C@H](NC(=O)CC[NH3+])C(=O)NCCCCNC(=O)c1ccc(-c2c3nc(c(-c4c(F)c(F)c(F)c(F)c4F)c4ccc([nH]4)c(-c4c(F)c(F)c(F)c(F)c4F)c4nc(c(-c5c(F)c(F)c(F)c(F)c5F)c5ccc2[nH]5)C=C4)C=C3)cc1
REMARK SMILES IDX 14 1 13 2 11 3 12 4 4 6 2 7 1 8 3 9 5 10 6 11 7 13 8 14 9 15
REMARK SMILES IDX 10 16 15 20 16 21 17 22 18 23 19 24 20 26 21 27 22 28 83 29
REMARK SMILES IDX 23 30 82 31 24 32 25 33 26 34 76 35 27 36 81 37 75 38 77 39
REMARK SMILES IDX 28 40 80 41 74 42 73 43 29 45 61 46 41 47 60 48 42 49 45 50
REMARK SMILES IDX 59 51 78 52 43 53 44 54 58 56 79 57 46 58 30 59 31 60 39 61
REMARK SMILES IDX 32 62 33 63 37 64 40 65 34 66 35 67 38 68 36 69 62 70 63 71
REMARK SMILES IDX 71 72 64 73 65 74 69 75 72 76 66 77 67 78 70 79 68 80 47 81
REMARK SMILES IDX 48 82 56 83 49 84 50 85 54 86 57 87 51 88 52 89 55 90 53 91
REMARK H PARENT 13 5 5 12 10 17 10 18 10 19 18 25 77 44 45 55
REMARK Flexibility Score: inf
ROOT
ATOM      1  C   UNL     1       0.278  -4.144  -0.006  1.00  0.00     0.116 C 
ENDROOT
BRANCH   1   2
ATOM      2  N   UNL     1      -0.712  -3.823   0.997  1.00  0.00    -0.354 N 
ATOM      3  C   UNL     1      -1.383  -2.671   1.263  1.00  0.00     0.242 C 
ATOM      4  O   UNL     1      -2.315  -2.761   2.071  1.00  0.00    -0.273 OA
ATOM      5  H   UNL     1      -0.940  -4.572   1.594  1.00  0.00     0.163 HD
BRANCH   3   6
ATOM      6  C   UNL     1      -1.113  -1.333   0.530  1.00  0.00     0.173 C 
BRANCH   6   7
ATOM      7  C   UNL     1      -1.785  -1.183  -0.859  1.00  0.00     0.015 C 
ATOM      8  C   UNL     1      -1.306  -2.129  -1.956  1.00  0.00     0.010 C 
ATOM      9  C   UNL     1      -3.310  -1.269  -0.743  1.00  0.00     0.010 C 
ENDBRANCH   6   7
BRANCH   6  10
ATOM     10  N   UNL     1       0.304  -0.953   0.508  1.00  0.00    -0.344 N 
ATOM     11  C   UNL     1       0.975  -0.106   1.337  1.00  0.00     0.226 C 
ATOM     12  H   UNL     1       0.844  -1.368  -0.204  1.00  0.00     0.164 HD
ATOM     13  O   UNL     1       2.200  -0.031   1.221  1.00  0.00    -0.275 OA
BRANCH  11  14
ATOM     14  C   UNL     1       0.227   0.763   2.321  1.00  0.00     0.161 C 
BRANCH  14  15
ATOM     15  C   UNL     1      -0.189   2.096   1.702  1.00  0.00     0.268 C 
BRANCH  15  16
ATOM     16  N   UNL     1      -1.256   1.978   0.708  1.00  0.00    -0.357 N 
ATOM     17  H   UNL     1      -0.933   1.403  -0.071  1.00  0.00     0.344 HD
ATOM     18  H   UNL     1      -1.506   2.905   0.365  1.00  0.00     0.344 HD
ATOM     19  H   UNL     1      -2.073   1.542   1.136  1.00  0.00     0.344 HD
ENDBRANCH  15  16
ENDBRANCH  14  15
ENDBRANCH  11  14
ENDBRANCH   6  10
ENDBRANCH   3   6
ENDBRANCH   1   2
BRANCH   1  20
ATOM     20  C   UNL     1       1.441  -4.954   0.547  1.00  0.00     0.023 C 
BRANCH  20  21
ATOM     21  C   UNL     1       1.067  -6.349   1.042  1.00  0.00     0.023 C 
BRANCH  21  22
ATOM     22  C   UNL     1       0.224  -7.175   0.079  1.00  0.00     0.116 C 
BRANCH  22  23
ATOM     23  N   UNL     1       0.835  -7.327  -1.233  1.00  0.00    -0.352 N 
ATOM     24  C   UNL     1       1.008  -8.469  -1.979  1.00  0.00     0.251 C 
ATOM     25  H   UNL     1       1.170  -6.497  -1.644  1.00  0.00     0.163 HD
ATOM     26  O   UNL     1       1.652  -8.445  -3.016  1.00  0.00    -0.269 OA
BRANCH  24  27
ATOM     27  C   UNL     1       0.426  -9.736  -1.491  1.00  0.00     0.039 A 
ATOM     28  C   UNL     1       1.225 -10.880  -1.467  1.00  0.00     0.014 A 
ATOM     29  C   UNL     1      -0.893  -9.780  -1.033  1.00  0.00     0.014 A 
ATOM     30  C   UNL     1       0.711 -12.064  -0.937  1.00  0.00     0.010 A 
ATOM     31  C   UNL     1      -1.369 -10.931  -0.419  1.00  0.00     0.010 A 
ATOM     32  C   UNL     1      -0.582 -12.092  -0.388  1.00  0.00    -0.014 A 
BRANCH  32  33
ATOM     33  C   UNL     1      -1.153 -13.344   0.167  1.00  0.00     0.031 A 
ATOM     34  C   UNL     1      -2.366 -13.956  -0.480  1.00  0.00     0.074 A 
ATOM     35  C   UNL     1      -0.617 -13.902   1.269  1.00  0.00     0.049 A 
ATOM     36  N   UNL     1      -3.051 -15.014  -0.127  1.00  0.00    -0.248 NA
ATOM     37  C   UNL     1      -2.903 -13.265  -1.665  1.00  0.00     0.031 C 
ATOM     38  C   UNL     1       0.527 -13.376   2.015  1.00  0.00     0.029 A 
ATOM     39  N   UNL     1      -0.968 -15.037   1.956  1.00  0.00    -0.354 N 
ATOM     40  C   UNL     1      -4.102 -15.100  -1.032  1.00  0.00     0.074 A 
ATOM     41  C   UNL     1      -4.008 -13.952  -1.904  1.00  0.00     0.031 C 
ATOM     42  C   UNL     1       0.802 -14.201   3.038  1.00  0.00     0.029 A 
ATOM     43  C   UNL     1      -0.166 -15.294   3.041  1.00  0.00     0.049 A 
ATOM     44  H   UNL     1      -1.724 -15.612   1.697  1.00  0.00     0.167 HD
ATOM     45  C   UNL     1      -5.041 -16.068  -1.148  1.00  0.00     0.037 A 
ATOM     46  C   UNL     1      -0.210 -16.301   3.934  1.00  0.00     0.037 A 
ATOM     47  C   UNL     1      -5.110 -17.226  -0.297  1.00  0.00     0.049 A 
ATOM     48  C   UNL     1      -1.261 -17.369   3.781  1.00  0.00     0.074 A 
ATOM     49  C   UNL     1      -5.987 -18.293  -0.361  1.00  0.00     0.029 A 
ATOM     50  N   UNL     1      -4.262 -17.467   0.774  1.00  0.00    -0.354 N 
ATOM     51  N   UNL     1      -2.207 -17.479   2.879  1.00  0.00    -0.248 NA
ATOM     52  C   UNL     1      -1.241 -18.462   4.763  1.00  0.00     0.031 C 
ATOM     53  C   UNL     1      -5.702 -19.156   0.702  1.00  0.00     0.029 A 
ATOM     54  C   UNL     1      -4.607 -18.658   1.390  1.00  0.00     0.049 A 
ATOM     55  H   UNL     1      -3.525 -16.878   1.055  1.00  0.00     0.167 HD
ATOM     56  C   UNL     1      -2.867 -18.668   3.160  1.00  0.00     0.074 A 
ATOM     57  C   UNL     1      -2.205 -19.249   4.310  1.00  0.00     0.031 C 
ATOM     58  C   UNL     1      -3.923 -19.230   2.522  1.00  0.00     0.037 A 
BRANCH  45  59
ATOM     59  C   UNL     1      -6.063 -15.916  -2.238  1.00  0.00     0.064 A 
ATOM     60  C   UNL     1      -5.715 -16.011  -3.595  1.00  0.00     0.173 A 
ATOM     61  C   UNL     1      -7.412 -15.691  -1.924  1.00  0.00     0.173 A 
ATOM     62  F   UNL     1      -4.437 -16.210  -3.952  1.00  0.00    -0.203 F 
ATOM     63  C   UNL     1      -6.670 -15.851  -4.595  1.00  0.00     0.198 A 
ATOM     64  C   UNL     1      -8.371 -15.568  -2.926  1.00  0.00     0.198 A 
ATOM     65  F   UNL     1      -7.802 -15.595  -0.644  1.00  0.00    -0.203 F 
ATOM     66  F   UNL     1      -6.302 -15.886  -5.883  1.00  0.00    -0.200 F 
ATOM     67  C   UNL     1      -7.999 -15.638  -4.260  1.00  0.00     0.200 A 
ATOM     68  F   UNL     1      -9.657 -15.376  -2.600  1.00  0.00    -0.200 F 
ATOM     69  F   UNL     1      -8.919 -15.491  -5.223  1.00  0.00    -0.200 F 
ENDBRANCH  45  59
BRANCH  46  70
ATOM     70  C   UNL     1       0.793 -16.371   5.030  1.00  0.00     0.064 A 
ATOM     71  C   UNL     1       1.764 -17.383   5.055  1.00  0.00     0.173 A 
ATOM     72  C   UNL     1       0.794 -15.443   6.081  1.00  0.00     0.173 A 
ATOM     73  F   UNL     1       1.794 -18.306   4.083  1.00  0.00    -0.203 F 
ATOM     74  C   UNL     1       2.679 -17.479   6.102  1.00  0.00     0.198 A 
ATOM     75  C   UNL     1       1.729 -15.521   7.111  1.00  0.00     0.198 A 
ATOM     76  F   UNL     1      -0.109 -14.451   6.103  1.00  0.00    -0.203 F 
ATOM     77  F   UNL     1       3.561 -18.488   6.127  1.00  0.00    -0.200 F 
ATOM     78  C   UNL     1       2.664 -16.546   7.127  1.00  0.00     0.200 A 
ATOM     79  F   UNL     1       1.721 -14.608   8.092  1.00  0.00    -0.200 F 
ATOM     80  F   UNL     1       3.544 -16.638   8.133  1.00  0.00    -0.200 F 
ENDBRANCH  46  70
BRANCH  58  81
ATOM     81  C   UNL     1      -4.393 -20.570   3.014  1.00  0.00     0.064 A 
ATOM     82  C   UNL     1      -5.046 -20.721   4.245  1.00  0.00     0.173 A 
ATOM     83  C   UNL     1      -4.220 -21.713   2.217  1.00  0.00     0.173 A 
ATOM     84  F   UNL     1      -5.227 -19.662   5.049  1.00  0.00    -0.203 F 
ATOM     85  C   UNL     1      -5.479 -21.973   4.676  1.00  0.00     0.198 A 
ATOM     86  C   UNL     1      -4.684 -22.956   2.635  1.00  0.00     0.198 A 
ATOM     87  F   UNL     1      -3.610 -21.621   1.026  1.00  0.00    -0.203 F 
ATOM     88  F   UNL     1      -6.050 -22.103   5.881  1.00  0.00    -0.200 F 
ATOM     89  C   UNL     1      -5.304 -23.087   3.868  1.00  0.00     0.200 A 
ATOM     90  F   UNL     1      -4.531 -24.027   1.845  1.00  0.00    -0.200 F 
ATOM     91  F   UNL     1      -5.728 -24.289   4.282  1.00  0.00    -0.200 F 
ENDBRANCH  58  81
ENDBRANCH  32  33
ENDBRANCH  24  27
ENDBRANCH  22  23
ENDBRANCH  21  22
ENDBRANCH  20  21
ENDBRANCH   1  20
TORSDOF 16
