REMARK SMILES N#CCNC(=O)Cn1ccc(C(=O)NCCCCNC(=O)c2ccc(-c3c4nc(c(-c5c(F)c(F)c(F)c(F)c5F)c5ccc([nH]5)c(-c5c(F)c(F)c(F)c(F)c5F)c5nc(c(-c6c(F)c(F)c(F)c(F)c6F)c6ccc3[nH]6)C=C5)C=C4)cc2)c1
REMARK SMILES IDX 15 1 14 2 12 3 13 4 11 6 8 7 9 8 85 9 10 10 7 11 5 12 4 13
REMARK SMILES IDX 6 15 3 16 2 17 1 18 16 19 17 20 18 21 19 22 20 23 21 25
REMARK SMILES IDX 22 26 23 27 84 28 24 29 83 30 25 31 26 32 27 33 77 34 28 35
REMARK SMILES IDX 82 36 76 37 78 38 29 39 81 40 75 41 74 42 30 44 62 45 42 46
REMARK SMILES IDX 61 47 43 48 46 49 60 50 79 51 44 52 45 53 59 55 80 56 47 57
REMARK SMILES IDX 31 58 32 59 40 60 33 61 34 62 38 63 41 64 35 65 36 66 39 67
REMARK SMILES IDX 37 68 63 69 64 70 72 71 65 72 66 73 70 74 73 75 67 76 68 77
REMARK SMILES IDX 71 78 69 79 48 80 49 81 57 82 50 83 51 84 55 85 58 86 52 87
REMARK SMILES IDX 53 88 56 89 54 90
REMARK H PARENT 14 5 4 14 19 24 78 43 46 54
REMARK Flexibility Score: inf
ROOT
ATOM      1  C   UNL     1       4.852   7.040  -1.055  1.00  0.00     0.116 C 
ENDROOT
BRANCH   1   2
ATOM      2  N   UNL     1       3.498   6.955  -0.544  1.00  0.00    -0.352 N 
ATOM      3  C   UNL     1       2.626   5.903  -0.453  1.00  0.00     0.252 C 
ATOM      4  O   UNL     1       1.482   6.151  -0.040  1.00  0.00    -0.269 OA
ATOM      5  H   UNL     1       3.141   7.806  -0.202  1.00  0.00     0.163 HD
BRANCH   3   6
ATOM      6  C   UNL     1       2.991   4.564  -0.894  1.00  0.00     0.057 A 
ATOM      7  N   UNL     1       4.114   2.722  -1.526  1.00  0.00    -0.344 N 
ATOM      8  C   UNL     1       2.808   2.512  -1.858  1.00  0.00     0.087 A 
ATOM      9  C   UNL     1       4.221   3.927  -0.873  1.00  0.00     0.100 A 
ATOM     10  C   UNL     1       2.080   3.585  -1.395  1.00  0.00     0.033 A 
BRANCH   7  11
ATOM     11  C   UNL     1       5.259   1.848  -1.754  1.00  0.00     0.221 C 
BRANCH  11  12
ATOM     12  C   UNL     1       4.930   0.417  -2.104  1.00  0.00     0.240 C 
ATOM     13  N   UNL     1       4.280  -0.373  -1.202  1.00  0.00    -0.341 N 
ATOM     14  H   UNL     1       4.166  -1.316  -1.459  1.00  0.00     0.164 HD
ATOM     15  O   UNL     1       5.300  -0.087  -3.165  1.00  0.00    -0.273 OA
BRANCH  13  16
ATOM     16  C   UNL     1       3.737   0.004   0.089  1.00  0.00     0.236 C 
BRANCH  16  17
ATOM     17  C   UNL     1       2.217   0.004   0.089  1.00  0.00     0.084 C 
ATOM     18  N   UNL     1       0.956   0.004   0.089  1.00  0.00    -0.196 NA
ENDBRANCH  16  17
ENDBRANCH  13  16
ENDBRANCH  11  12
ENDBRANCH   7  11
ENDBRANCH   3   6
ENDBRANCH   1   2
BRANCH   1  19
ATOM     19  C   UNL     1       4.922   7.471  -2.516  1.00  0.00     0.023 C 
BRANCH  19  20
ATOM     20  C   UNL     1       4.660   8.964  -2.753  1.00  0.00     0.023 C 
BRANCH  20  21
ATOM     21  C   UNL     1       5.553   9.909  -1.941  1.00  0.00     0.116 C 
BRANCH  21  22
ATOM     22  N   UNL     1       6.962   9.683  -2.219  1.00  0.00    -0.352 N 
ATOM     23  C   UNL     1       8.060  10.310  -1.691  1.00  0.00     0.251 C 
ATOM     24  H   UNL     1       7.155   8.981  -2.881  1.00  0.00     0.163 HD
ATOM     25  O   UNL     1       9.108  10.329  -2.332  1.00  0.00    -0.269 OA
BRANCH  23  26
ATOM     26  C   UNL     1       8.023  10.948  -0.360  1.00  0.00     0.039 A 
ATOM     27  C   UNL     1       8.726  12.147  -0.182  1.00  0.00     0.014 A 
ATOM     28  C   UNL     1       7.416  10.316   0.732  1.00  0.00     0.014 A 
ATOM     29  C   UNL     1       8.779  12.738   1.076  1.00  0.00     0.010 A 
ATOM     30  C   UNL     1       7.456  10.909   1.991  1.00  0.00     0.010 A 
ATOM     31  C   UNL     1       8.123  12.129   2.155  1.00  0.00    -0.014 A 
BRANCH  31  32
ATOM     32  C   UNL     1       7.915  12.926   3.386  1.00  0.00     0.031 A 
ATOM     33  C   UNL     1       6.757  13.950   3.152  1.00  0.00     0.074 A 
ATOM     34  C   UNL     1       8.744  12.658   4.450  1.00  0.00     0.049 A 
ATOM     35  N   UNL     1       6.523  15.098   3.708  1.00  0.00    -0.248 NA
ATOM     36  C   UNL     1       5.732  13.678   2.096  1.00  0.00     0.031 C 
ATOM     37  C   UNL     1       9.742  11.560   4.497  1.00  0.00     0.029 A 
ATOM     38  N   UNL     1       8.936  13.226   5.699  1.00  0.00    -0.354 N 
ATOM     39  C   UNL     1       5.259  15.562   3.255  1.00  0.00     0.074 A 
ATOM     40  C   UNL     1       4.886  14.709   2.173  1.00  0.00     0.031 C 
ATOM     41  C   UNL     1      10.477  11.604   5.634  1.00  0.00     0.029 A 
ATOM     42  C   UNL     1      10.041  12.716   6.455  1.00  0.00     0.049 A 
ATOM     43  H   UNL     1       8.349  13.936   6.047  1.00  0.00     0.167 HD
ATOM     44  C   UNL     1       4.541  16.519   3.922  1.00  0.00     0.037 A 
ATOM     45  C   UNL     1      10.584  13.195   7.627  1.00  0.00     0.037 A 
ATOM     46  C   UNL     1       5.309  16.979   5.026  1.00  0.00     0.049 A 
ATOM     47  C   UNL     1       9.630  14.216   8.060  1.00  0.00     0.074 A 
ATOM     48  C   UNL     1       6.448  17.735   5.086  1.00  0.00     0.029 A 
ATOM     49  N   UNL     1       5.145  16.291   6.203  1.00  0.00    -0.354 N 
ATOM     50  N   UNL     1       8.463  13.954   8.565  1.00  0.00    -0.248 NA
ATOM     51  C   UNL     1       9.952  15.627   7.820  1.00  0.00     0.031 C 
ATOM     52  C   UNL     1       7.204  17.052   6.056  1.00  0.00     0.029 A 
ATOM     53  C   UNL     1       6.386  16.160   6.762  1.00  0.00     0.049 A 
ATOM     54  H   UNL     1       4.296  15.957   6.574  1.00  0.00     0.167 HD
ATOM     55  C   UNL     1       7.802  15.136   8.354  1.00  0.00     0.074 A 
ATOM     56  C   UNL     1       8.812  16.169   8.237  1.00  0.00     0.031 C 
ATOM     57  C   UNL     1       6.601  15.112   7.723  1.00  0.00     0.037 A 
BRANCH  44  58
ATOM     58  C   UNL     1       3.093  16.945   3.914  1.00  0.00     0.064 A 
ATOM     59  C   UNL     1       2.751  18.129   4.625  1.00  0.00     0.173 A 
ATOM     60  C   UNL     1       2.036  16.074   3.632  1.00  0.00     0.173 A 
ATOM     61  F   UNL     1       3.676  19.066   4.888  1.00  0.00    -0.203 F 
ATOM     62  C   UNL     1       1.488  18.324   5.179  1.00  0.00     0.198 A 
ATOM     63  C   UNL     1       0.751  16.304   4.142  1.00  0.00     0.198 A 
ATOM     64  F   UNL     1       2.237  14.937   2.955  1.00  0.00    -0.203 F 
ATOM     65  F   UNL     1       1.268  19.366   5.994  1.00  0.00    -0.200 F 
ATOM     66  C   UNL     1       0.493  17.396   4.956  1.00  0.00     0.200 A 
ATOM     67  F   UNL     1      -0.221  15.411   3.911  1.00  0.00    -0.200 F 
ATOM     68  F   UNL     1      -0.700  17.532   5.552  1.00  0.00    -0.200 F 
ENDBRANCH  44  58
BRANCH  45  69
ATOM     69  C   UNL     1      11.813  13.054   8.517  1.00  0.00     0.064 A 
ATOM     70  C   UNL     1      12.813  12.083   8.416  1.00  0.00     0.173 A 
ATOM     71  C   UNL     1      12.080  14.044   9.520  1.00  0.00     0.173 A 
ATOM     72  F   UNL     1      12.650  11.014   7.628  1.00  0.00    -0.203 F 
ATOM     73  C   UNL     1      14.023  12.176   9.145  1.00  0.00     0.198 A 
ATOM     74  C   UNL     1      13.298  14.176  10.187  1.00  0.00     0.198 A 
ATOM     75  F   UNL     1      11.157  14.937   9.898  1.00  0.00    -0.203 F 
ATOM     76  F   UNL     1      14.955  11.221   9.015  1.00  0.00    -0.200 F 
ATOM     77  C   UNL     1      14.285  13.248   9.984  1.00  0.00     0.200 A 
ATOM     78  F   UNL     1      13.499  15.222  11.004  1.00  0.00    -0.200 F 
ATOM     79  F   UNL     1      15.466  13.379  10.602  1.00  0.00    -0.200 F 
ENDBRANCH  45  69
BRANCH  57  80
ATOM     80  C   UNL     1       5.847  13.795   7.837  1.00  0.00     0.064 A 
ATOM     81  C   UNL     1       5.538  13.281   9.108  1.00  0.00     0.173 A 
ATOM     82  C   UNL     1       5.519  12.965   6.752  1.00  0.00     0.173 A 
ATOM     83  F   UNL     1       5.781  14.019  10.202  1.00  0.00    -0.203 F 
ATOM     84  C   UNL     1       4.975  12.012   9.279  1.00  0.00     0.198 A 
ATOM     85  C   UNL     1       4.956  11.694   6.917  1.00  0.00     0.198 A 
ATOM     86  F   UNL     1       5.726  13.366   5.500  1.00  0.00    -0.203 F 
ATOM     87  F   UNL     1       4.703  11.565  10.513  1.00  0.00    -0.200 F 
ATOM     88  C   UNL     1       4.690  11.215   8.184  1.00  0.00     0.200 A 
ATOM     89  F   UNL     1       4.668  10.941   5.843  1.00  0.00    -0.200 F 
ATOM     90  F   UNL     1       4.142  10.003   8.348  1.00  0.00    -0.200 F 
ENDBRANCH  57  80
ENDBRANCH  31  32
ENDBRANCH  23  26
ENDBRANCH  21  22
ENDBRANCH  20  21
ENDBRANCH  19  20
ENDBRANCH   1  19
TORSDOF 15
