REMARK SMILES C[C@@H]1[C@H](C(=O)NCCCCNC(=O)c2ccc(-c3c4nc(c(-c5c(F)c(F)c(F)c(F)c5F)c5ccc([nH]5)c(-c5c(F)c(F)c(F)c(F)c5F)c5nc(c(-c6c(F)c(F)c(F)c(F)c6F)c6ccc3[nH]6)C=C5)C=C4)cc2)CC[N@@H+]1Cc1ccc2c(c1)CCN2C
REMARK SMILES IDX 8 1 7 2 6 3 4 4 5 5 3 7 1 8 2 9 79 10 77 11 78 12 80 14
REMARK SMILES IDX 81 15 82 16 86 17 83 18 85 19 84 20 87 21 89 22 88 23 90 24
REMARK SMILES IDX 9 25 10 26 11 27 12 28 13 30 14 31 15 32 76 33 16 34 75 35
REMARK SMILES IDX 17 36 18 37 19 38 69 39 20 40 74 41 68 42 70 43 21 44 73 45
REMARK SMILES IDX 67 46 66 47 22 49 54 50 34 51 53 52 35 53 38 54 52 55 71 56
REMARK SMILES IDX 36 57 37 58 51 60 72 61 39 62 23 63 24 64 32 65 25 66 26 67
REMARK SMILES IDX 30 68 33 69 27 70 28 71 31 72 29 73 55 74 56 75 64 76 57 77
REMARK SMILES IDX 58 78 62 79 65 80 59 81 60 82 63 83 61 84 40 85 41 86 49 87
REMARK SMILES IDX 42 88 43 89 47 90 50 91 44 92 45 93 48 94 46 95
REMARK H PARENT 6 6 79 13 11 29 70 48 38 59
REMARK Flexibility Score: inf
ROOT
ATOM      1  C   UNL     1       2.964   1.367   2.220  1.00  0.00     0.023 C 
ENDROOT
BRANCH   1   2
ATOM      2  C   UNL     1       1.491   1.683   1.954  1.00  0.00     0.116 C 
BRANCH   2   3
ATOM      3  N   UNL     1       1.346   2.569   0.824  1.00  0.00    -0.356 N 
ATOM      4  C   UNL     1       0.837   2.343  -0.411  1.00  0.00     0.229 C 
ATOM      5  O   UNL     1       0.948   3.269  -1.222  1.00  0.00    -0.275 OA
ATOM      6  H   UNL     1       1.669   3.487   0.975  1.00  0.00     0.163 HD
BRANCH   4   7
ATOM      7  C   UNL     1       0.105   1.071  -0.820  1.00  0.00     0.142 C 
ATOM      8  C   UNL     1       2.266  -0.435  -0.529  1.00  0.00     0.076 C 
ATOM      9  C   UNL     1       0.806  -0.301  -0.915  1.00  0.00     0.193 C 
ATOM     10  N   UNL     1      -0.153  -1.277  -0.372  1.00  0.00    -0.328 N 
ATOM     11  C   UNL     1      -1.205   0.799  -0.084  1.00  0.00     0.081 C 
ATOM     12  C   UNL     1      -1.470  -0.660  -0.421  1.00  0.00     0.263 C 
ATOM     13  H   UNL     1      -0.091  -2.090  -0.985  1.00  0.00     0.348 HD
BRANCH  10  14
ATOM     14  C   UNL     1       0.165  -2.177   0.737  1.00  0.00     0.299 C 
BRANCH  14  15
ATOM     15  C   UNL     1       0.106  -1.682   2.177  1.00  0.00     0.007 A 
ATOM     16  C   UNL     1       1.242  -1.770   3.020  1.00  0.00     0.012 A 
ATOM     17  C   UNL     1      -1.096  -1.242   2.749  1.00  0.00     0.015 A 
ATOM     18  C   UNL     1       1.194  -1.393   4.378  1.00  0.00     0.026 A 
ATOM     19  C   UNL     1      -1.126  -0.874   4.083  1.00  0.00    -0.022 A 
ATOM     20  C   UNL     1      -0.003  -0.950   4.905  1.00  0.00     0.040 A 
ATOM     21  C   UNL     1      -2.264  -0.292   4.855  1.00  0.00     0.059 C 
ATOM     22  N   UNL     1      -0.299  -0.578   6.217  1.00  0.00    -0.374 N 
ATOM     23  C   UNL     1      -1.764  -0.527   6.286  1.00  0.00     0.121 C 
ATOM     24  C   UNL     1       0.502   0.418   6.888  1.00  0.00     0.143 C 
ENDBRANCH  14  15
ENDBRANCH  10  14
ENDBRANCH   4   7
ENDBRANCH   2   3
ENDBRANCH   1   2
BRANCH   1  25
ATOM     25  C   UNL     1       3.768   2.492   2.852  1.00  0.00     0.023 C 
BRANCH  25  26
ATOM     26  C   UNL     1       3.267   2.941   4.212  1.00  0.00     0.116 C 
BRANCH  26  27
ATOM     27  N   UNL     1       3.239   1.867   5.195  1.00  0.00    -0.352 N 
ATOM     28  C   UNL     1       3.771   1.833   6.463  1.00  0.00     0.251 C 
ATOM     29  H   UNL     1       2.772   1.047   4.912  1.00  0.00     0.163 HD
ATOM     30  O   UNL     1       3.814   0.789   7.098  1.00  0.00    -0.269 OA
BRANCH  28  31
ATOM     31  C   UNL     1       4.329   3.067   7.048  1.00  0.00     0.039 A 
ATOM     32  C   UNL     1       5.534   2.986   7.749  1.00  0.00     0.014 A 
ATOM     33  C   UNL     1       3.703   4.299   6.855  1.00  0.00     0.014 A 
ATOM     34  C   UNL     1       6.167   4.157   8.159  1.00  0.00     0.010 A 
ATOM     35  C   UNL     1       4.388   5.465   7.158  1.00  0.00     0.010 A 
ATOM     36  C   UNL     1       5.627   5.405   7.812  1.00  0.00    -0.014 A 
BRANCH  36  37
ATOM     37  C   UNL     1       6.339   6.666   8.122  1.00  0.00     0.031 A 
ATOM     38  C   UNL     1       5.691   7.685   9.014  1.00  0.00     0.074 A 
ATOM     39  C   UNL     1       7.523   6.921   7.534  1.00  0.00     0.049 A 
ATOM     40  N   UNL     1       6.098   8.886   9.331  1.00  0.00    -0.248 NA
ATOM     41  C   UNL     1       4.386   7.322   9.592  1.00  0.00     0.031 C 
ATOM     42  C   UNL     1       8.214   6.033   6.596  1.00  0.00     0.029 A 
ATOM     43  N   UNL     1       8.353   8.007   7.632  1.00  0.00    -0.354 N 
ATOM     44  C   UNL     1       5.091   9.427  10.118  1.00  0.00     0.074 A 
ATOM     45  C   UNL     1       4.025   8.452  10.177  1.00  0.00     0.031 C 
ATOM     46  C   UNL     1       9.379   6.594   6.234  1.00  0.00     0.029 A 
ATOM     47  C   UNL     1       9.499   7.895   6.882  1.00  0.00     0.049 A 
ATOM     48  H   UNL     1       8.147   8.794   8.187  1.00  0.00     0.167 HD
ATOM     49  C   UNL     1       5.072  10.617  10.762  1.00  0.00     0.037 A 
ATOM     50  C   UNL     1      10.529   8.750   6.740  1.00  0.00     0.037 A 
ATOM     51  C   UNL     1       6.158  11.559  10.732  1.00  0.00     0.049 A 
ATOM     52  C   UNL     1      10.500  10.050   7.494  1.00  0.00     0.074 A 
ATOM     53  C   UNL     1       6.273  12.767  11.396  1.00  0.00     0.029 A 
ATOM     54  N   UNL     1       7.325  11.389  10.001  1.00  0.00    -0.354 N 
ATOM     55  N   UNL     1       9.573  10.525   8.290  1.00  0.00    -0.248 NA
ATOM     56  C   UNL     1      11.667  10.930   7.339  1.00  0.00     0.031 C 
ATOM     57  C   UNL     1       7.496  13.344  11.039  1.00  0.00     0.029 A 
ATOM     58  C   UNL     1       8.163  12.475  10.190  1.00  0.00     0.049 A 
ATOM     59  H   UNL     1       7.527  10.612   9.431  1.00  0.00     0.167 HD
ATOM     60  C   UNL     1      10.055  11.740   8.756  1.00  0.00     0.074 A 
ATOM     61  C   UNL     1      11.363  11.924   8.161  1.00  0.00     0.031 C 
ATOM     62  C   UNL     1       9.469  12.624   9.600  1.00  0.00     0.037 A 
BRANCH  49  63
ATOM     63  C   UNL     1       3.844  10.952  11.556  1.00  0.00     0.064 A 
ATOM     64  C   UNL     1       3.513  10.254  12.729  1.00  0.00     0.173 A 
ATOM     65  C   UNL     1       2.988  11.984  11.146  1.00  0.00     0.173 A 
ATOM     66  F   UNL     1       4.289   9.245  13.156  1.00  0.00    -0.203 F 
ATOM     67  C   UNL     1       2.352  10.550  13.437  1.00  0.00     0.198 A 
ATOM     68  C   UNL     1       1.845  12.300  11.876  1.00  0.00     0.198 A 
ATOM     69  F   UNL     1       3.257  12.685  10.034  1.00  0.00    -0.203 F 
ATOM     70  F   UNL     1       2.025   9.826  14.517  1.00  0.00    -0.200 F 
ATOM     71  C   UNL     1       1.522  11.577  13.014  1.00  0.00     0.200 A 
ATOM     72  F   UNL     1       1.048  13.300  11.471  1.00  0.00    -0.200 F 
ATOM     73  F   UNL     1       0.405  11.862  13.697  1.00  0.00    -0.200 F 
ENDBRANCH  49  63
BRANCH  50  74
ATOM     74  C   UNL     1      11.690   8.380   5.889  1.00  0.00     0.064 A 
ATOM     75  C   UNL     1      12.931   8.076   6.467  1.00  0.00     0.173 A 
ATOM     76  C   UNL     1      11.587   8.316   4.493  1.00  0.00     0.173 A 
ATOM     77  F   UNL     1      13.083   8.138   7.798  1.00  0.00    -0.203 F 
ATOM     78  C   UNL     1      14.030   7.744   5.678  1.00  0.00     0.198 A 
ATOM     79  C   UNL     1      12.681   7.958   3.707  1.00  0.00     0.198 A 
ATOM     80  F   UNL     1      10.420   8.589   3.892  1.00  0.00    -0.203 F 
ATOM     81  F   UNL     1      15.216   7.500   6.255  1.00  0.00    -0.200 F 
ATOM     82  C   UNL     1      13.904   7.680   4.299  1.00  0.00     0.200 A 
ATOM     83  F   UNL     1      12.551   7.884   2.375  1.00  0.00    -0.200 F 
ATOM     84  F   UNL     1      14.960   7.358   3.542  1.00  0.00    -0.200 F 
ENDBRANCH  50  74
BRANCH  62  85
ATOM     85  C   UNL     1      10.258  13.846   9.967  1.00  0.00     0.064 A 
ATOM     86  C   UNL     1      10.463  14.891   9.056  1.00  0.00     0.173 A 
ATOM     87  C   UNL     1      10.776  13.987  11.263  1.00  0.00     0.173 A 
ATOM     88  F   UNL     1       9.999  14.795   7.801  1.00  0.00    -0.203 F 
ATOM     89  C   UNL     1      11.181  16.026   9.423  1.00  0.00     0.198 A 
ATOM     90  C   UNL     1      11.468  15.136  11.635  1.00  0.00     0.198 A 
ATOM     91  F   UNL     1      10.600  13.016  12.172  1.00  0.00    -0.203 F 
ATOM     92  F   UNL     1      11.405  16.994   8.524  1.00  0.00    -0.200 F 
ATOM     93  C   UNL     1      11.675  16.151  10.713  1.00  0.00     0.200 A 
ATOM     94  F   UNL     1      11.933  15.260  12.886  1.00  0.00    -0.200 F 
ATOM     95  F   UNL     1      12.359  17.248  11.067  1.00  0.00    -0.200 F 
ENDBRANCH  62  85
ENDBRANCH  36  37
ENDBRANCH  28  31
ENDBRANCH  26  27
ENDBRANCH  25  26
ENDBRANCH   1  25
TORSDOF 13
