REMARK SMILES C[C@@](O)(CC1(C(=O)NCCCCNC(=O)c2ccc(-c3c4nc(c(-c5c(F)c(F)c(F)c(F)c5F)c5ccc([nH]5)c(-c5c(F)c(F)c(F)c(F)c5F)c5nc(c(-c6c(F)c(F)c(F)c(F)c6F)c6ccc3[nH]6)C=C5)C=C4)cc2)CC1)c1ccccc1
REMARK SMILES IDX 10 1 9 2 8 3 6 4 7 5 5 7 79 8 80 9 4 10 2 11 1 12 3 13 81 15
REMARK SMILES IDX 82 16 86 17 83 18 85 19 84 20 11 21 12 22 13 23 14 24 15 26
REMARK SMILES IDX 16 27 17 28 78 29 18 30 77 31 19 32 20 33 21 34 71 35 22 36
REMARK SMILES IDX 76 37 70 38 72 39 23 40 75 41 69 42 68 43 24 45 56 46 36 47
REMARK SMILES IDX 55 48 37 49 40 50 54 51 73 52 38 53 39 54 53 56 74 57 41 58
REMARK SMILES IDX 25 59 26 60 34 61 27 62 28 63 32 64 35 65 29 66 30 67 33 68
REMARK SMILES IDX 31 69 57 70 58 71 66 72 59 73 60 74 64 75 67 76 61 77 62 78
REMARK SMILES IDX 65 79 63 80 42 81 43 82 51 83 44 84 45 85 49 86 52 87 46 88
REMARK SMILES IDX 47 89 50 90 48 91
REMARK H PARENT 8 6 3 14 13 25 72 44 40 55
REMARK Flexibility Score: inf
ROOT
ATOM      1  C   UNL     1      -3.529  -1.514  -4.582  1.00  0.00     0.023 C 
ENDROOT
BRANCH   1   2
ATOM      2  C   UNL     1      -3.778  -0.597  -3.386  1.00  0.00     0.116 C 
BRANCH   2   3
ATOM      3  N   UNL     1      -3.807  -1.350  -2.147  1.00  0.00    -0.356 N 
ATOM      4  C   UNL     1      -2.934  -1.528  -1.105  1.00  0.00     0.226 C 
ATOM      5  O   UNL     1      -3.303  -2.314  -0.235  1.00  0.00    -0.274 OA
ATOM      6  H   UNL     1      -4.647  -1.847  -2.027  1.00  0.00     0.163 HD
BRANCH   4   7
ATOM      7  C   UNL     1      -1.603  -0.797  -0.944  1.00  0.00     0.052 C 
ATOM      8  C   UNL     1      -1.612   0.699  -1.260  1.00  0.00     0.018 C 
ATOM      9  C   UNL     1      -0.861  -0.239  -2.153  1.00  0.00     0.018 C 
BRANCH   7  10
ATOM     10  C   UNL     1      -0.815  -1.182   0.338  1.00  0.00     0.056 C 
BRANCH  10  11
ATOM     11  C   UNL     1       0.729  -1.339   0.282  1.00  0.00     0.088 C 
ATOM     12  C   UNL     1       1.424   0.033   0.343  1.00  0.00     0.047 C 
BRANCH  11  13
ATOM     13  O   UNL     1       1.110  -1.961   1.532  1.00  0.00    -0.385 OA
ATOM     14  H   UNL     1       0.837  -1.396   2.271  1.00  0.00     0.211 HD
ENDBRANCH  11  13
BRANCH  11  15
ATOM     15  C   UNL     1       1.193  -2.286  -0.826  1.00  0.00    -0.017 A 
ATOM     16  C   UNL     1       0.664  -3.590  -0.889  1.00  0.00     0.007 A 
ATOM     17  C   UNL     1       2.119  -1.912  -1.814  1.00  0.00     0.007 A 
ATOM     18  C   UNL     1       1.006  -4.463  -1.924  1.00  0.00     0.000 A 
ATOM     19  C   UNL     1       2.450  -2.780  -2.858  1.00  0.00     0.000 A 
ATOM     20  C   UNL     1       1.889  -4.052  -2.917  1.00  0.00     0.000 A 
ENDBRANCH  11  15
ENDBRANCH  10  11
ENDBRANCH   7  10
ENDBRANCH   4   7
ENDBRANCH   2   3
ENDBRANCH   1   2
BRANCH   1  21
ATOM     21  C   UNL     1      -4.688  -2.463  -4.891  1.00  0.00     0.023 C 
BRANCH  21  22
ATOM     22  C   UNL     1      -6.048  -1.789  -5.035  1.00  0.00     0.116 C 
BRANCH  22  23
ATOM     23  N   UNL     1      -6.055  -0.727  -6.030  1.00  0.00    -0.352 N 
ATOM     24  C   UNL     1      -7.013  -0.439  -6.971  1.00  0.00     0.251 C 
ATOM     25  H   UNL     1      -5.267  -0.137  -6.030  1.00  0.00     0.163 HD
ATOM     26  O   UNL     1      -6.811   0.413  -7.829  1.00  0.00    -0.269 OA
BRANCH  24  27
ATOM     27  C   UNL     1      -8.279  -1.196  -6.958  1.00  0.00     0.039 A 
ATOM     28  C   UNL     1      -8.737  -1.763  -8.148  1.00  0.00     0.014 A 
ATOM     29  C   UNL     1      -8.982  -1.382  -5.764  1.00  0.00     0.014 A 
ATOM     30  C   UNL     1      -9.870  -2.577  -8.127  1.00  0.00     0.010 A 
ATOM     31  C   UNL     1     -10.060  -2.257  -5.732  1.00  0.00     0.010 A 
ATOM     32  C   UNL     1     -10.516  -2.862  -6.913  1.00  0.00    -0.014 A 
BRANCH  32  33
ATOM     33  C   UNL     1     -11.672  -3.791  -6.859  1.00  0.00     0.031 A 
ATOM     34  C   UNL     1     -13.021  -3.290  -6.427  1.00  0.00     0.074 A 
ATOM     35  C   UNL     1     -11.492  -5.095  -7.142  1.00  0.00     0.049 A 
ATOM     36  N   UNL     1     -14.138  -3.953  -6.263  1.00  0.00    -0.248 NA
ATOM     37  C   UNL     1     -13.122  -1.857  -6.110  1.00  0.00     0.031 C 
ATOM     38  C   UNL     1     -10.221  -5.709  -7.531  1.00  0.00     0.029 A 
ATOM     39  N   UNL     1     -12.379  -6.142  -7.142  1.00  0.00    -0.354 N 
ATOM     40  C   UNL     1     -15.067  -3.022  -5.820  1.00  0.00     0.074 A 
ATOM     41  C   UNL     1     -14.369  -1.763  -5.674  1.00  0.00     0.031 C 
ATOM     42  C   UNL     1     -10.417  -7.017  -7.763  1.00  0.00     0.029 A 
ATOM     43  C   UNL     1     -11.815  -7.343  -7.497  1.00  0.00     0.049 A 
ATOM     44  H   UNL     1     -13.331  -6.042  -6.909  1.00  0.00     0.167 HD
ATOM     45  C   UNL     1     -16.389  -3.194  -5.583  1.00  0.00     0.037 A 
ATOM     46  C   UNL     1     -12.363  -8.569  -7.591  1.00  0.00     0.037 A 
ATOM     47  C   UNL     1     -17.080  -4.447  -5.739  1.00  0.00     0.049 A 
ATOM     48  C   UNL     1     -13.828  -8.741  -7.286  1.00  0.00     0.074 A 
ATOM     49  C   UNL     1     -18.426  -4.718  -5.568  1.00  0.00     0.029 A 
ATOM     50  N   UNL     1     -16.474  -5.643  -6.096  1.00  0.00    -0.354 N 
ATOM     51  N   UNL     1     -14.713  -7.840  -6.936  1.00  0.00    -0.248 NA
ATOM     52  C   UNL     1     -14.369 -10.102  -7.396  1.00  0.00     0.031 C 
ATOM     53  C   UNL     1     -18.625  -6.088  -5.766  1.00  0.00     0.029 A 
ATOM     54  C   UNL     1     -17.415  -6.661  -6.124  1.00  0.00     0.049 A 
ATOM     55  H   UNL     1     -15.517  -5.753  -6.300  1.00  0.00     0.167 HD
ATOM     56  C   UNL     1     -15.920  -8.516  -6.816  1.00  0.00     0.074 A 
ATOM     57  C   UNL     1     -15.655  -9.901  -7.147  1.00  0.00     0.031 C 
ATOM     58  C   UNL     1     -17.138  -8.034  -6.465  1.00  0.00     0.037 A 
BRANCH  45  59
ATOM     59  C   UNL     1     -17.172  -1.994  -5.129  1.00  0.00     0.064 A 
ATOM     60  C   UNL     1     -17.404  -0.901  -5.979  1.00  0.00     0.173 A 
ATOM     61  C   UNL     1     -17.717  -1.944  -3.837  1.00  0.00     0.173 A 
ATOM     62  F   UNL     1     -16.896  -0.891  -7.221  1.00  0.00    -0.203 F 
ATOM     63  C   UNL     1     -18.117   0.212  -5.540  1.00  0.00     0.198 A 
ATOM     64  C   UNL     1     -18.461  -0.845  -3.414  1.00  0.00     0.198 A 
ATOM     65  F   UNL     1     -17.533  -2.963  -2.984  1.00  0.00    -0.203 F 
ATOM     66  F   UNL     1     -18.271   1.268  -6.350  1.00  0.00    -0.200 F 
ATOM     67  C   UNL     1     -18.651   0.236  -4.261  1.00  0.00     0.200 A 
ATOM     68  F   UNL     1     -18.989  -0.830  -2.182  1.00  0.00    -0.200 F 
ATOM     69  F   UNL     1     -19.342   1.305  -3.842  1.00  0.00    -0.200 F 
ENDBRANCH  45  59
BRANCH  46  70
ATOM     70  C   UNL     1     -11.534  -9.726  -8.019  1.00  0.00     0.064 A 
ATOM     71  C   UNL     1     -11.759 -10.353  -9.254  1.00  0.00     0.173 A 
ATOM     72  C   UNL     1     -10.511 -10.237  -7.207  1.00  0.00     0.173 A 
ATOM     73  F   UNL     1     -12.739  -9.914 -10.058  1.00  0.00    -0.203 F 
ATOM     74  C   UNL     1     -11.010 -11.460  -9.647  1.00  0.00     0.198 A 
ATOM     75  C   UNL     1      -9.742 -11.324  -7.616  1.00  0.00     0.198 A 
ATOM     76  F   UNL     1     -10.251  -9.672  -6.019  1.00  0.00    -0.203 F 
ATOM     77  F   UNL     1     -11.281 -12.070 -10.809  1.00  0.00    -0.200 F 
ATOM     78  C   UNL     1      -9.998 -11.941  -8.831  1.00  0.00     0.200 A 
ATOM     79  F   UNL     1      -8.754 -11.776  -6.831  1.00  0.00    -0.200 F 
ATOM     80  F   UNL     1      -9.276 -13.004  -9.211  1.00  0.00    -0.200 F 
ENDBRANCH  46  70
BRANCH  58  81
ATOM     81  C   UNL     1     -18.288  -9.001  -6.462  1.00  0.00     0.064 A 
ATOM     82  C   UNL     1     -18.398 -10.017  -5.502  1.00  0.00     0.173 A 
ATOM     83  C   UNL     1     -19.313  -8.883  -7.414  1.00  0.00     0.173 A 
ATOM     84  F   UNL     1     -17.438 -10.182  -4.579  1.00  0.00    -0.203 F 
ATOM     85  C   UNL     1     -19.477 -10.898  -5.512  1.00  0.00     0.198 A 
ATOM     86  C   UNL     1     -20.407  -9.743  -7.399  1.00  0.00     0.198 A 
ATOM     87  F   UNL     1     -19.261  -7.924  -8.350  1.00  0.00    -0.203 F 
ATOM     88  F   UNL     1     -19.533 -11.895  -4.619  1.00  0.00    -0.200 F 
ATOM     89  C   UNL     1     -20.484 -10.755  -6.455  1.00  0.00     0.200 A 
ATOM     90  F   UNL     1     -21.388  -9.592  -8.301  1.00  0.00    -0.200 F 
ATOM     91  F   UNL     1     -21.526 -11.598  -6.458  1.00  0.00    -0.200 F 
ENDBRANCH  58  81
ENDBRANCH  32  33
ENDBRANCH  24  27
ENDBRANCH  22  23
ENDBRANCH  21  22
ENDBRANCH   1  21
TORSDOF 15
