REMARK SMILES CC(=O)Nc1cnc(N(C)CCc2cn[nH]c2)c(C(=O)NCCCCNC(=O)c2ccc(-c3c4nc(c(-c5c(F)c(F)c(F)c(F)c5F)c5ccc([nH]5)c(-c5c(F)c(F)c(F)c(F)c5F)c5nc(c(-c6c(F)c(F)c(F)c(F)c6F)c6ccc3[nH]6)C=C5)C=C4)cc2)c1
REMARK SMILES IDX 22 1 21 2 19 3 20 4 18 6 5 7 6 8 92 9 7 10 8 11 4 12 1 13
REMARK SMILES IDX 2 14 3 15 9 17 10 18 11 19 12 20 13 21 14 22 17 23 15 24
REMARK SMILES IDX 16 25 23 27 24 28 25 29 26 30 27 31 28 33 29 34 30 35 91 36
REMARK SMILES IDX 31 37 90 38 32 39 33 40 34 41 84 42 35 43 89 44 83 45 85 46
REMARK SMILES IDX 36 47 88 48 82 49 81 50 37 52 69 53 49 54 68 55 50 56 53 57
REMARK SMILES IDX 67 58 86 59 51 60 52 61 66 63 87 64 54 65 38 66 39 67 47 68
REMARK SMILES IDX 40 69 41 70 45 71 48 72 42 73 43 74 46 75 44 76 70 77 71 78
REMARK SMILES IDX 79 79 72 80 73 81 77 82 80 83 74 84 75 85 78 86 76 87 55 88
REMARK SMILES IDX 56 89 64 90 57 91 58 92 62 93 65 94 59 95 60 96 63 97 61 98
REMARK H PARENT 21 5 4 16 16 26 26 32 85 51 53 62
REMARK Flexibility Score: inf
ROOT
ATOM      1  C   UNL     1       4.885   0.124  -0.116  1.00  0.00     0.116 C 
ENDROOT
BRANCH   1   2
ATOM      2  N   UNL     1       5.694   1.325  -0.083  1.00  0.00    -0.352 N 
ATOM      3  C   UNL     1       5.389   2.635  -0.367  1.00  0.00     0.255 C 
ATOM      4  O   UNL     1       6.329   3.386  -0.628  1.00  0.00    -0.269 OA
ATOM      5  H   UNL     1       6.628   1.176   0.191  1.00  0.00     0.163 HD
BRANCH   3   6
ATOM      6  C   UNL     1       4.001   3.152  -0.354  1.00  0.00     0.084 A 
ATOM      7  C   UNL     1       1.741   2.972  -1.228  1.00  0.00     0.060 A 
ATOM      8  C   UNL     1       1.504   4.214  -0.688  1.00  0.00     0.139 A 
ATOM      9  C   UNL     1       3.034   2.482  -1.130  1.00  0.00     0.045 A 
ATOM     10  N   UNL     1       2.412   4.885   0.054  1.00  0.00    -0.236 NA
ATOM     11  C   UNL     1       3.653   4.362   0.282  1.00  0.00     0.141 A 
BRANCH   7  12
ATOM     12  N   UNL     1       0.732   2.280  -1.908  1.00  0.00    -0.325 N 
ATOM     13  C   UNL     1       0.754   0.291  -0.428  1.00  0.00     0.114 C 
ATOM     14  C   UNL     1       0.328   0.986  -1.698  1.00  0.00     0.221 C 
ATOM     15  O   UNL     1      -0.443   0.449  -2.492  1.00  0.00    -0.275 OA
ATOM     16  H   UNL     1       0.261   2.777  -2.616  1.00  0.00     0.169 HD
ENDBRANCH   7  12
BRANCH  11  17
ATOM     17  N   UNL     1       4.413   5.076   1.190  1.00  0.00    -0.359 N 
ATOM     18  C   UNL     1       4.136   6.504   1.340  1.00  0.00     0.145 C 
BRANCH  17  19
ATOM     19  C   UNL     1       5.450   4.529   2.077  1.00  0.00     0.122 C 
BRANCH  19  20
ATOM     20  C   UNL     1       4.904   3.880   3.356  1.00  0.00     0.060 C 
BRANCH  20  21
ATOM     21  C   UNL     1       4.141   2.612   3.166  1.00  0.00    -0.008 A 
ATOM     22  C   UNL     1       2.777   2.473   2.817  1.00  0.00     0.138 A 
ATOM     23  C   UNL     1       4.572   1.312   3.333  1.00  0.00     0.108 A 
ATOM     24  N   UNL     1       2.395   1.196   2.730  1.00  0.00    -0.184 NA
ATOM     25  N   UNL     1       3.490   0.515   3.097  1.00  0.00    -0.285 N 
ATOM     26  H   UNL     1       3.510  -0.465   3.187  1.00  0.00     0.189 HD
ENDBRANCH  20  21
ENDBRANCH  19  20
ENDBRANCH  17  19
ENDBRANCH  11  17
ENDBRANCH   3   6
ENDBRANCH   1   2
BRANCH   1  27
ATOM     27  C   UNL     1       5.328  -0.739  -1.299  1.00  0.00     0.023 C 
BRANCH  27  28
ATOM     28  C   UNL     1       6.525  -1.628  -0.953  1.00  0.00     0.023 C 
BRANCH  28  29
ATOM     29  C   UNL     1       6.231  -2.675   0.117  1.00  0.00     0.116 C 
BRANCH  29  30
ATOM     30  N   UNL     1       5.141  -3.564  -0.257  1.00  0.00    -0.352 N 
ATOM     31  C   UNL     1       5.107  -4.935  -0.219  1.00  0.00     0.251 C 
ATOM     32  H   UNL     1       4.321  -3.125  -0.578  1.00  0.00     0.163 HD
ATOM     33  O   UNL     1       4.181  -5.557  -0.728  1.00  0.00    -0.269 OA
BRANCH  31  34
ATOM     34  C   UNL     1       6.220  -5.651   0.428  1.00  0.00     0.039 A 
ATOM     35  C   UNL     1       6.864  -6.672  -0.270  1.00  0.00     0.014 A 
ATOM     36  C   UNL     1       6.654  -5.264   1.699  1.00  0.00     0.014 A 
ATOM     37  C   UNL     1       7.994  -7.269   0.287  1.00  0.00     0.010 A 
ATOM     38  C   UNL     1       7.824  -5.804   2.215  1.00  0.00     0.010 A 
ATOM     39  C   UNL     1       8.502  -6.815   1.516  1.00  0.00    -0.014 A 
BRANCH  39  40
ATOM     40  C   UNL     1       9.748  -7.384   2.082  1.00  0.00     0.031 A 
ATOM     41  C   UNL     1       9.712  -8.129   3.385  1.00  0.00     0.074 A 
ATOM     42  C   UNL     1      10.919  -7.169   1.453  1.00  0.00     0.049 A 
ATOM     43  N   UNL     1      10.697  -8.667   4.057  1.00  0.00    -0.248 NA
ATOM     44  C   UNL     1       8.399  -8.259   4.035  1.00  0.00     0.031 C 
ATOM     45  C   UNL     1      11.086  -6.401   0.218  1.00  0.00     0.029 A 
ATOM     46  N   UNL     1      12.192  -7.569   1.772  1.00  0.00    -0.354 N 
ATOM     47  C   UNL     1      10.126  -9.185   5.212  1.00  0.00     0.074 A 
ATOM     48  C   UNL     1       8.722  -8.841   5.180  1.00  0.00     0.031 C 
ATOM     49  C   UNL     1      12.382  -6.409  -0.131  1.00  0.00     0.029 A 
ATOM     50  C   UNL     1      13.140  -7.152   0.871  1.00  0.00     0.049 A 
ATOM     51  H   UNL     1      12.405  -8.105   2.570  1.00  0.00     0.167 HD
ATOM     52  C   UNL     1      10.716  -9.904   6.196  1.00  0.00     0.037 A 
ATOM     53  C   UNL     1      14.472  -7.346   0.857  1.00  0.00     0.037 A 
ATOM     54  C   UNL     1      12.111 -10.261   6.207  1.00  0.00     0.049 A 
ATOM     55  C   UNL     1      15.104  -8.159   1.954  1.00  0.00     0.074 A 
ATOM     56  C   UNL     1      12.792 -11.052   7.114  1.00  0.00     0.029 A 
ATOM     57  N   UNL     1      13.040  -9.839   5.266  1.00  0.00    -0.354 N 
ATOM     58  N   UNL     1      14.540  -8.722   2.995  1.00  0.00    -0.248 NA
ATOM     59  C   UNL     1      16.554  -8.372   1.868  1.00  0.00     0.031 C 
ATOM     60  C   UNL     1      14.144 -11.063   6.754  1.00  0.00     0.029 A 
ATOM     61  C   UNL     1      14.296 -10.328   5.589  1.00  0.00     0.049 A 
ATOM     62  H   UNL     1      12.837  -9.275   4.485  1.00  0.00     0.167 HD
ATOM     63  C   UNL     1      15.559  -9.373   3.676  1.00  0.00     0.074 A 
ATOM     64  C   UNL     1      16.774  -9.151   2.918  1.00  0.00     0.031 C 
ATOM     65  C   UNL     1      15.496 -10.090   4.826  1.00  0.00     0.037 A 
BRANCH  52  66
ATOM     66  C   UNL     1       9.851 -10.347   7.341  1.00  0.00     0.064 A 
ATOM     67  C   UNL     1       8.834 -11.300   7.175  1.00  0.00     0.173 A 
ATOM     68  C   UNL     1      10.050  -9.821   8.627  1.00  0.00     0.173 A 
ATOM     69  F   UNL     1       8.592 -11.826   5.964  1.00  0.00    -0.203 F 
ATOM     70  C   UNL     1       8.023 -11.678   8.242  1.00  0.00     0.198 A 
ATOM     71  C   UNL     1       9.260 -10.228   9.699  1.00  0.00     0.198 A 
ATOM     72  F   UNL     1      11.011  -8.911   8.844  1.00  0.00    -0.203 F 
ATOM     73  F   UNL     1       7.016 -12.541   8.043  1.00  0.00    -0.200 F 
ATOM     74  C   UNL     1       8.240 -11.147   9.504  1.00  0.00     0.200 A 
ATOM     75  F   UNL     1       9.480  -9.723  10.921  1.00  0.00    -0.200 F 
ATOM     76  F   UNL     1       7.460 -11.512  10.530  1.00  0.00    -0.200 F 
ENDBRANCH  52  66
BRANCH  53  77
ATOM     77  C   UNL     1      15.286  -6.786  -0.252  1.00  0.00     0.064 A 
ATOM     78  C   UNL     1      15.863  -7.623  -1.217  1.00  0.00     0.173 A 
ATOM     79  C   UNL     1      15.487  -5.404  -0.383  1.00  0.00     0.173 A 
ATOM     80  F   UNL     1      15.713  -8.953  -1.124  1.00  0.00    -0.203 F 
ATOM     81  C   UNL     1      16.621  -7.101  -2.263  1.00  0.00     0.198 A 
ATOM     82  C   UNL     1      16.222  -4.881  -1.445  1.00  0.00     0.198 A 
ATOM     83  F   UNL     1      14.950  -4.560   0.510  1.00  0.00    -0.203 F 
ATOM     84  F   UNL     1      17.192  -7.926  -3.151  1.00  0.00    -0.200 F 
ATOM     85  C   UNL     1      16.794  -5.730  -2.380  1.00  0.00     0.200 A 
ATOM     86  F   UNL     1      16.372  -3.555  -1.564  1.00  0.00    -0.200 F 
ATOM     87  F   UNL     1      17.514  -5.227  -3.392  1.00  0.00    -0.200 F 
ENDBRANCH  53  77
BRANCH  65  88
ATOM     88  C   UNL     1      16.774 -10.702   5.323  1.00  0.00     0.064 A 
ATOM     89  C   UNL     1      17.808  -9.918   5.856  1.00  0.00     0.173 A 
ATOM     90  C   UNL     1      16.953 -12.094   5.297  1.00  0.00     0.173 A 
ATOM     91  F   UNL     1      17.693  -8.581   5.890  1.00  0.00    -0.203 F 
ATOM     92  C   UNL     1      18.985 -10.502   6.317  1.00  0.00     0.198 A 
ATOM     93  C   UNL     1      18.117 -12.677   5.789  1.00  0.00     0.198 A 
ATOM     94  F   UNL     1      15.992 -12.890   4.805  1.00  0.00    -0.203 F 
ATOM     95  F   UNL     1      19.980  -9.729   6.772  1.00  0.00    -0.200 F 
ATOM     96  C   UNL     1      19.136 -11.880   6.290  1.00  0.00     0.200 A 
ATOM     97  F   UNL     1      18.254 -14.010   5.777  1.00  0.00    -0.200 F 
ATOM     98  F   UNL     1      20.266 -12.441   6.740  1.00  0.00    -0.200 F 
ENDBRANCH  65  88
ENDBRANCH  39  40
ENDBRANCH  31  34
ENDBRANCH  29  30
ENDBRANCH  28  29
ENDBRANCH  27  28
ENDBRANCH   1  27
TORSDOF 16
