REMARK SMILES C#CCN(CC(=O)NCCCCNC(=O)c1ccc(-c2c3nc(c(-c4c(F)c(F)c(F)c(F)c4F)c4ccc([nH]4)c(-c4c(F)c(F)c(F)c(F)c4F)c4nc(c(-c5c(F)c(F)c(F)c(F)c5F)c5ccc2[nH]5)C=C4)C=C3)cc1)C(=O)Nc1cccc(C#N)c1
REMARK SMILES IDX 9 1 8 2 6 3 7 4 5 6 4 7 3 8 2 9 1 10 79 11 80 12 81 13 82 15
REMARK SMILES IDX 83 16 89 17 84 18 86 19 85 20 87 21 88 22 10 23 11 24 12 25
REMARK SMILES IDX 13 26 14 27 15 29 16 30 17 31 78 32 18 33 77 34 19 35 20 36
REMARK SMILES IDX 21 37 71 38 22 39 76 40 70 41 72 42 23 43 75 44 69 45 68 46
REMARK SMILES IDX 24 48 56 49 36 50 55 51 37 52 40 53 54 54 73 55 38 56 39 57
REMARK SMILES IDX 53 59 74 60 41 61 25 62 26 63 34 64 27 65 28 66 32 67 35 68
REMARK SMILES IDX 29 69 30 70 33 71 31 72 57 73 58 74 66 75 59 76 60 77 64 78
REMARK SMILES IDX 67 79 61 80 62 81 65 82 63 83 42 84 43 85 51 86 44 87 45 88
REMARK SMILES IDX 49 89 52 90 46 91 47 92 50 93 48 94
REMARK H PARENT 8 5 81 14 13 28 72 47 40 58
REMARK Flexibility Score: inf
ROOT
ATOM      1  C   UNL     1      -4.683   1.167  -0.497  1.00  0.00     0.116 C 
ENDROOT
BRANCH   1   2
ATOM      2  N   UNL     1      -5.304   0.237   0.408  1.00  0.00    -0.355 N 
ATOM      3  C   UNL     1      -4.856  -0.830   1.103  1.00  0.00     0.239 C 
ATOM      4  O   UNL     1      -5.760  -1.495   1.622  1.00  0.00    -0.273 OA
ATOM      5  H   UNL     1      -6.261   0.418   0.552  1.00  0.00     0.163 HD
BRANCH   3   6
ATOM      6  C   UNL     1      -3.377  -1.133   1.440  1.00  0.00     0.222 C 
BRANCH   6   7
ATOM      7  N   UNL     1      -2.391  -1.233   0.364  1.00  0.00    -0.304 N 
BRANCH   7   8
ATOM      8  C   UNL     1      -1.734   0.028   0.034  1.00  0.00     0.211 C 
BRANCH   8   9
ATOM      9  C   UNL     1      -0.214   0.028   0.034  1.00  0.00    -0.085 C 
ATOM     10  C   UNL     1       1.090   0.028   0.034  1.00  0.00     0.006 C 
ENDBRANCH   8   9
ENDBRANCH   7   8
BRANCH   7  11
ATOM     11  C   UNL     1      -2.047  -2.329  -0.394  1.00  0.00     0.323 C 
ATOM     12  O   UNL     1      -1.385  -2.192  -1.432  1.00  0.00    -0.248 OA
ATOM     13  N   UNL     1      -2.205  -3.618   0.003  1.00  0.00    -0.308 N 
ATOM     14  H   UNL     1      -1.551  -4.207  -0.437  1.00  0.00     0.171 HD
BRANCH  13  15
ATOM     15  C   UNL     1      -3.038  -4.344   0.863  1.00  0.00     0.044 A 
ATOM     16  C   UNL     1      -2.496  -5.457   1.518  1.00  0.00     0.026 A 
ATOM     17  C   UNL     1      -4.385  -4.058   1.042  1.00  0.00     0.045 A 
ATOM     18  C   UNL     1      -3.244  -6.155   2.471  1.00  0.00     0.004 A 
ATOM     19  C   UNL     1      -5.122  -4.701   2.047  1.00  0.00     0.054 A 
ATOM     20  C   UNL     1      -4.541  -5.746   2.769  1.00  0.00     0.019 A 
BRANCH  19  21
ATOM     21  C   UNL     1      -6.449  -4.264   2.391  1.00  0.00     0.099 C 
ATOM     22  N   UNL     1      -7.506  -3.935   2.725  1.00  0.00    -0.192 NA
ENDBRANCH  19  21
ENDBRANCH  13  15
ENDBRANCH   7  11
ENDBRANCH   6   7
ENDBRANCH   3   6
ENDBRANCH   1   2
BRANCH   1  23
ATOM     23  C   UNL     1      -4.539   0.571  -1.897  1.00  0.00     0.023 C 
BRANCH  23  24
ATOM     24  C   UNL     1      -5.829   0.037  -2.523  1.00  0.00     0.023 C 
BRANCH  24  25
ATOM     25  C   UNL     1      -7.058   0.916  -2.364  1.00  0.00     0.116 C 
BRANCH  25  26
ATOM     26  N   UNL     1      -6.819   2.310  -2.698  1.00  0.00    -0.352 N 
ATOM     27  C   UNL     1      -7.679   3.224  -3.245  1.00  0.00     0.251 C 
ATOM     28  H   UNL     1      -5.914   2.644  -2.503  1.00  0.00     0.163 HD
ATOM     29  O   UNL     1      -7.301   4.367  -3.481  1.00  0.00    -0.269 OA
BRANCH  27  30
ATOM     30  C   UNL     1      -9.039   2.798  -3.613  1.00  0.00     0.039 A 
ATOM     31  C   UNL     1      -9.480   3.075  -4.908  1.00  0.00     0.014 A 
ATOM     32  C   UNL     1      -9.841   2.081  -2.721  1.00  0.00     0.014 A 
ATOM     33  C   UNL     1     -10.711   2.583  -5.331  1.00  0.00     0.010 A 
ATOM     34  C   UNL     1     -11.028   1.518  -3.172  1.00  0.00     0.010 A 
ATOM     35  C   UNL     1     -11.477   1.772  -4.478  1.00  0.00    -0.014 A 
BRANCH  35  36
ATOM     36  C   UNL     1     -12.760   1.193  -4.936  1.00  0.00     0.031 A 
ATOM     37  C   UNL     1     -14.043   1.603  -4.275  1.00  0.00     0.074 A 
ATOM     38  C   UNL     1     -12.761   0.273  -5.918  1.00  0.00     0.049 A 
ATOM     39  N   UNL     1     -15.264   1.194  -4.509  1.00  0.00    -0.248 NA
ATOM     40  C   UNL     1     -13.936   2.585  -3.185  1.00  0.00     0.031 C 
ATOM     41  C   UNL     1     -11.571  -0.226  -6.609  1.00  0.00     0.029 A 
ATOM     42  N   UNL     1     -13.797  -0.407  -6.504  1.00  0.00    -0.354 N 
ATOM     43  C   UNL     1     -16.064   1.861  -3.593  1.00  0.00     0.074 A 
ATOM     44  C   UNL     1     -15.185   2.643  -2.751  1.00  0.00     0.031 C 
ATOM     45  C   UNL     1     -11.948  -1.102  -7.553  1.00  0.00     0.029 A 
ATOM     46  C   UNL     1     -13.399  -1.260  -7.502  1.00  0.00     0.049 A 
ATOM     47  H   UNL     1     -14.738  -0.294  -6.235  1.00  0.00     0.167 HD
ATOM     48  C   UNL     1     -17.414   1.846  -3.482  1.00  0.00     0.037 A 
ATOM     49  C   UNL     1     -14.125  -2.079  -8.286  1.00  0.00     0.037 A 
ATOM     50  C   UNL     1     -18.279   1.062  -4.324  1.00  0.00     0.049 A 
ATOM     51  C   UNL     1     -15.619  -2.119  -8.111  1.00  0.00     0.074 A 
ATOM     52  C   UNL     1     -19.660   0.999  -4.325  1.00  0.00     0.029 A 
ATOM     53  N   UNL     1     -17.838   0.190  -5.311  1.00  0.00    -0.354 N 
ATOM     54  N   UNL     1     -16.376  -1.435  -7.288  1.00  0.00    -0.248 NA
ATOM     55  C   UNL     1     -16.358  -3.046  -8.977  1.00  0.00     0.031 C 
ATOM     56  C   UNL     1     -20.053   0.042  -5.267  1.00  0.00     0.029 A 
ATOM     57  C   UNL     1     -18.921  -0.440  -5.905  1.00  0.00     0.049 A 
ATOM     58  H   UNL     1     -16.895   0.040  -5.553  1.00  0.00     0.167 HD
ATOM     59  C   UNL     1     -17.682  -1.820  -7.559  1.00  0.00     0.074 A 
ATOM     60  C   UNL     1     -17.613  -2.792  -8.632  1.00  0.00     0.031 C 
ATOM     61  C   UNL     1     -18.834  -1.403  -6.976  1.00  0.00     0.037 A 
BRANCH  48  62
ATOM     62  C   UNL     1     -18.022   2.693  -2.399  1.00  0.00     0.064 A 
ATOM     63  C   UNL     1     -17.941   4.096  -2.423  1.00  0.00     0.173 A 
ATOM     64  C   UNL     1     -18.681   2.098  -1.313  1.00  0.00     0.173 A 
ATOM     65  F   UNL     1     -17.313   4.719  -3.431  1.00  0.00    -0.203 F 
ATOM     66  C   UNL     1     -18.445   4.863  -1.376  1.00  0.00     0.198 A 
ATOM     67  C   UNL     1     -19.221   2.871  -0.288  1.00  0.00     0.198 A 
ATOM     68  F   UNL     1     -18.797   0.763  -1.240  1.00  0.00    -0.203 F 
ATOM     69  F   UNL     1     -18.283   6.194  -1.384  1.00  0.00    -0.200 F 
ATOM     70  C   UNL     1     -19.089   4.251  -0.312  1.00  0.00     0.200 A 
ATOM     71  F   UNL     1     -19.858   2.279   0.732  1.00  0.00    -0.200 F 
ATOM     72  F   UNL     1     -19.570   4.990   0.697  1.00  0.00    -0.200 F 
ENDBRANCH  48  62
BRANCH  49  73
ATOM     73  C   UNL     1     -13.452  -2.889  -9.334  1.00  0.00     0.064 A 
ATOM     74  C   UNL     1     -13.643  -2.602 -10.693  1.00  0.00     0.173 A 
ATOM     75  C   UNL     1     -12.594  -3.949  -9.006  1.00  0.00     0.173 A 
ATOM     76  F   UNL     1     -14.468  -1.609 -11.057  1.00  0.00    -0.203 F 
ATOM     77  C   UNL     1     -13.014  -3.353 -11.683  1.00  0.00     0.198 A 
ATOM     78  C   UNL     1     -11.943  -4.680  -9.997  1.00  0.00     0.198 A 
ATOM     79  F   UNL     1     -12.372  -4.261  -7.721  1.00  0.00    -0.203 F 
ATOM     80  F   UNL     1     -13.246  -3.081 -12.975  1.00  0.00    -0.200 F 
ATOM     81  C   UNL     1     -12.159  -4.386 -11.335  1.00  0.00     0.200 A 
ATOM     82  F   UNL     1     -11.103  -5.668  -9.655  1.00  0.00    -0.200 F 
ATOM     83  F   UNL     1     -11.546  -5.102 -12.287  1.00  0.00    -0.200 F 
ENDBRANCH  49  73
BRANCH  61  84
ATOM     84  C   UNL     1     -20.120  -1.963  -7.514  1.00  0.00     0.064 A 
ATOM     85  C   UNL     1     -20.487  -3.303  -7.319  1.00  0.00     0.173 A 
ATOM     86  C   UNL     1     -21.020  -1.132  -8.201  1.00  0.00     0.173 A 
ATOM     87  F   UNL     1     -19.657  -4.144  -6.683  1.00  0.00    -0.203 F 
ATOM     88  C   UNL     1     -21.691  -3.796  -7.815  1.00  0.00     0.198 A 
ATOM     89  C   UNL     1     -22.239  -1.619  -8.663  1.00  0.00     0.198 A 
ATOM     90  F   UNL     1     -20.723   0.160  -8.410  1.00  0.00    -0.203 F 
ATOM     91  F   UNL     1     -21.995  -5.092  -7.663  1.00  0.00    -0.200 F 
ATOM     92  C   UNL     1     -22.570  -2.952  -8.477  1.00  0.00     0.200 A 
ATOM     93  F   UNL     1     -23.094  -0.797  -9.287  1.00  0.00    -0.200 F 
ATOM     94  F   UNL     1     -23.733  -3.426  -8.944  1.00  0.00    -0.200 F 
ENDBRANCH  61  84
ENDBRANCH  35  36
ENDBRANCH  27  30
ENDBRANCH  25  26
ENDBRANCH  24  25
ENDBRANCH  23  24
ENDBRANCH   1  23
TORSDOF 17
