REMARK SMILES C[C@@H](NC(=O)CCCN1C(=O)/C(=C/c2c3ccccc3cc3ccccc23)SC1=S)C(=O)NCCCCNC(=O)c1ccc(-c2c3nc(c(-c4c(F)c(F)c(F)c(F)c4F)c4ccc([nH]4)c(-c4c(F)c(F)c(F)c(F)c4F)c4nc(c(-c5c(F)c(F)c(F)c(F)c5F)c5ccc2[nH]5)C=C4)C=C3)cc1
REMARK SMILES IDX 31 1 32 2 33 3 2 5 1 6 3 7 4 8 5 10 6 11 7 12 8 13 9 14
REMARK SMILES IDX 10 15 29 16 11 17 12 18 28 19 30 20 13 21 14 22 15 23 27 24
REMARK SMILES IDX 16 25 20 26 22 27 26 28 17 29 19 30 21 31 23 32 25 33 18 34
REMARK SMILES IDX 24 35 34 36 35 37 36 38 37 39 38 40 39 41 40 43 41 44 42 45
REMARK SMILES IDX 103 46 43 47 102 48 44 49 45 50 46 51 96 52 47 53 101 54
REMARK SMILES IDX 95 55 97 56 48 57 100 58 94 59 93 60 49 62 81 63 61 64 80 65
REMARK SMILES IDX 62 66 65 67 79 68 98 69 63 70 64 71 78 73 99 74 66 75 50 76
REMARK SMILES IDX 51 77 59 78 52 79 53 80 57 81 60 82 54 83 55 84 58 85 56 86
REMARK SMILES IDX 82 87 83 88 91 89 84 90 85 91 89 92 92 93 86 94 87 95 90 96
REMARK SMILES IDX 88 97 67 98 68 99 76 100 69 101 70 102 74 103 77 104 71 105
REMARK SMILES IDX 72 106 75 107 73 108
REMARK H PARENT 33 4 3 9 38 42 97 61 65 72
REMARK Flexibility Score: inf
ROOT
ATOM      1  C   UNL     1      -1.249  -0.610  -2.720  1.00  0.00     0.242 C 
ATOM      2  O   UNL     1      -1.958  -0.197  -3.669  1.00  0.00    -0.273 OA
ATOM      3  N   UNL     1      -2.044  -1.342  -1.863  1.00  0.00    -0.354 N 
ATOM      4  H   UNL     1      -2.950  -1.060  -2.124  1.00  0.00     0.163 HD
ENDROOT
BRANCH   1   5
ATOM      5  C   UNL     1       0.367  -0.163  -2.899  1.00  0.00     0.168 C 
ATOM      6  C   UNL     1       1.449   0.566  -2.051  1.00  0.00     0.041 C 
BRANCH   5   7
ATOM      7  N   UNL     1       1.094  -1.167  -3.619  1.00  0.00    -0.345 N 
ATOM      8  C   UNL     1       1.356  -2.368  -3.053  1.00  0.00     0.220 C 
ATOM      9  H   UNL     1       1.405  -0.981  -4.534  1.00  0.00     0.164 HD
ATOM     10  O   UNL     1       2.161  -3.137  -3.564  1.00  0.00    -0.275 OA
BRANCH   8  11
ATOM     11  C   UNL     1       0.489  -2.716  -1.862  1.00  0.00     0.102 C 
BRANCH  11  12
ATOM     12  C   UNL     1       0.577  -1.841  -0.529  1.00  0.00     0.032 C 
BRANCH  12  13
ATOM     13  C   UNL     1      -0.105  -0.416   0.171  1.00  0.00     0.128 C 
BRANCH  13  14
ATOM     14  N   UNL     1      -0.787   0.934  -0.318  1.00  0.00    -0.293 N 
ATOM     15  C   UNL     1      -2.031   1.201  -0.912  1.00  0.00     0.266 C 
ATOM     16  C   UNL     1      -0.388   2.153   0.236  1.00  0.00     0.148 C 
ATOM     17  O   UNL     1      -3.101   0.625  -0.760  1.00  0.00    -0.268 OA
ATOM     18  C   UNL     1      -1.996   2.511  -1.666  1.00  0.00     0.081 C 
ATOM     19  S   UNL     1      -1.016   3.532  -0.705  1.00  0.00    -0.054 SA
ATOM     20  S   UNL     1       0.552   2.419   1.593  1.00  0.00    -0.052 S 
ATOM     21  C   UNL     1      -2.595   2.750  -2.858  1.00  0.00     0.030 C 
BRANCH  21  22
ATOM     22  C   UNL     1      -2.593   3.991  -3.726  1.00  0.00    -0.009 A 
ATOM     23  C   UNL     1      -1.367   4.631  -4.103  1.00  0.00    -0.010 A 
ATOM     24  C   UNL     1      -3.837   4.537  -4.219  1.00  0.00    -0.010 A 
ATOM     25  C   UNL     1      -0.084   4.048  -3.969  1.00  0.00     0.009 A 
ATOM     26  C   UNL     1      -1.407   5.920  -4.691  1.00  0.00    -0.017 A 
ATOM     27  C   UNL     1      -3.831   5.817  -4.839  1.00  0.00    -0.017 A 
ATOM     28  C   UNL     1      -5.100   3.889  -4.169  1.00  0.00     0.009 A 
ATOM     29  C   UNL     1       1.090   4.738  -4.286  1.00  0.00     0.001 A 
ATOM     30  C   UNL     1      -0.223   6.619  -4.980  1.00  0.00     0.009 A 
ATOM     31  C   UNL     1      -2.631   6.505  -5.013  1.00  0.00     0.017 A 
ATOM     32  C   UNL     1      -5.017   6.417  -5.301  1.00  0.00     0.009 A 
ATOM     33  C   UNL     1      -6.271   4.477  -4.675  1.00  0.00     0.001 A 
ATOM     34  C   UNL     1       1.021   6.037  -4.763  1.00  0.00     0.001 A 
ATOM     35  C   UNL     1      -6.233   5.751  -5.222  1.00  0.00     0.001 A 
ENDBRANCH  21  22
ENDBRANCH  13  14
ENDBRANCH  12  13
ENDBRANCH  11  12
ENDBRANCH   8  11
ENDBRANCH   5   7
ENDBRANCH   1   5
BRANCH   3  36
ATOM     36  C   UNL     1      -2.326  -2.360  -0.717  1.00  0.00     0.116 C 
BRANCH  36  37
ATOM     37  C   UNL     1      -2.596  -1.925   0.763  1.00  0.00     0.023 C 
BRANCH  37  38
ATOM     38  C   UNL     1      -3.798  -2.479   1.538  1.00  0.00     0.023 C 
BRANCH  38  39
ATOM     39  C   UNL     1      -4.157  -3.922   1.289  1.00  0.00     0.116 C 
BRANCH  39  40
ATOM     40  N   UNL     1      -3.133  -4.904   1.614  1.00  0.00    -0.352 N 
ATOM     41  C   UNL     1      -3.363  -6.257   1.850  1.00  0.00     0.251 C 
ATOM     42  H   UNL     1      -2.204  -4.586   1.672  1.00  0.00     0.163 HD
ATOM     43  O   UNL     1      -2.482  -7.025   2.157  1.00  0.00    -0.269 OA
BRANCH  41  44
ATOM     44  C   UNL     1      -4.778  -6.692   1.765  1.00  0.00     0.039 A 
ATOM     45  C   UNL     1      -5.437  -7.064   2.938  1.00  0.00     0.014 A 
ATOM     46  C   UNL     1      -5.484  -6.420   0.593  1.00  0.00     0.014 A 
ATOM     47  C   UNL     1      -6.833  -7.058   2.957  1.00  0.00     0.010 A 
ATOM     48  C   UNL     1      -6.862  -6.281   0.660  1.00  0.00     0.010 A 
ATOM     49  C   UNL     1      -7.553  -6.606   1.839  1.00  0.00    -0.014 A 
BRANCH  49  50
ATOM     50  C   UNL     1      -9.034  -6.492   1.865  1.00  0.00     0.031 A 
ATOM     51  C   UNL     1      -9.845  -7.294   0.884  1.00  0.00     0.074 A 
ATOM     52  C   UNL     1      -9.641  -5.641   2.717  1.00  0.00     0.049 A 
ATOM     53  N   UNL     1     -11.141  -7.317   0.703  1.00  0.00    -0.248 NA
ATOM     54  C   UNL     1      -9.098  -8.159  -0.044  1.00  0.00     0.031 C 
ATOM     55  C   UNL     1      -8.961  -4.765   3.673  1.00  0.00     0.029 A 
ATOM     56  N   UNL     1     -10.973  -5.373   2.917  1.00  0.00    -0.354 N 
ATOM     57  C   UNL     1     -11.352  -8.181  -0.363  1.00  0.00     0.074 A 
ATOM     58  C   UNL     1     -10.056  -8.596  -0.843  1.00  0.00     0.031 C 
ATOM     59  C   UNL     1      -9.879  -4.093   4.387  1.00  0.00     0.029 A 
ATOM     60  C   UNL     1     -11.211  -4.455   3.912  1.00  0.00     0.049 A 
ATOM     61  H   UNL     1     -11.691  -5.800   2.396  1.00  0.00     0.167 HD
ATOM     62  C   UNL     1     -12.525  -8.622  -0.873  1.00  0.00     0.037 A 
ATOM     63  C   UNL     1     -12.374  -3.964   4.383  1.00  0.00     0.037 A 
ATOM     64  C   UNL     1     -13.812  -8.229  -0.370  1.00  0.00     0.049 A 
ATOM     65  C   UNL     1     -13.667  -4.458   3.786  1.00  0.00     0.074 A 
ATOM     66  C   UNL     1     -15.062  -8.664  -0.770  1.00  0.00     0.029 A 
ATOM     67  N   UNL     1     -14.013  -7.300   0.641  1.00  0.00    -0.354 N 
ATOM     68  N   UNL     1     -13.858  -5.343   2.837  1.00  0.00    -0.248 NA
ATOM     69  C   UNL     1     -14.908  -3.890   4.331  1.00  0.00     0.031 C 
ATOM     70  C   UNL     1     -16.021  -7.950  -0.047  1.00  0.00     0.029 A 
ATOM     71  C   UNL     1     -15.369  -7.124   0.855  1.00  0.00     0.049 A 
ATOM     72  H   UNL     1     -13.297  -6.836   1.133  1.00  0.00     0.167 HD
ATOM     73  C   UNL     1     -15.234  -5.464   2.696  1.00  0.00     0.074 A 
ATOM     74  C   UNL     1     -15.831  -4.574   3.670  1.00  0.00     0.031 C 
ATOM     75  C   UNL     1     -15.942  -6.241   1.839  1.00  0.00     0.037 A 
BRANCH  62  76
ATOM     76  C   UNL     1     -12.464  -9.577  -2.029  1.00  0.00     0.064 A 
ATOM     77  C   UNL     1     -11.961 -10.881  -1.888  1.00  0.00     0.173 A 
ATOM     78  C   UNL     1     -12.934  -9.191  -3.293  1.00  0.00     0.173 A 
ATOM     79  F   UNL     1     -11.481 -11.296  -0.706  1.00  0.00    -0.203 F 
ATOM     80  C   UNL     1     -11.902 -11.748  -2.975  1.00  0.00     0.198 A 
ATOM     81  C   UNL     1     -12.909 -10.074  -4.369  1.00  0.00     0.198 A 
ATOM     82  F   UNL     1     -13.424  -7.956  -3.484  1.00  0.00    -0.203 F 
ATOM     83  F   UNL     1     -11.361 -12.966  -2.829  1.00  0.00    -0.200 F 
ATOM     84  C   UNL     1     -12.384 -11.348  -4.212  1.00  0.00     0.200 A 
ATOM     85  F   UNL     1     -13.388  -9.689  -5.559  1.00  0.00    -0.200 F 
ATOM     86  F   UNL     1     -12.336 -12.187  -5.255  1.00  0.00    -0.200 F 
ENDBRANCH  62  76
BRANCH  63  87
ATOM     87  C   UNL     1     -12.381  -2.970   5.493  1.00  0.00     0.064 A 
ATOM     88  C   UNL     1     -12.914  -3.295   6.750  1.00  0.00     0.173 A 
ATOM     89  C   UNL     1     -11.884  -1.671   5.317  1.00  0.00     0.173 A 
ATOM     90  F   UNL     1     -13.422  -4.517   6.967  1.00  0.00    -0.203 F 
ATOM     91  C   UNL     1     -12.977  -2.351   7.775  1.00  0.00     0.198 A 
ATOM     92  C   UNL     1     -11.916  -0.738   6.353  1.00  0.00     0.198 A 
ATOM     93  F   UNL     1     -11.359  -1.306   4.138  1.00  0.00    -0.203 F 
ATOM     94  F   UNL     1     -13.546  -2.673   8.945  1.00  0.00    -0.200 F 
ATOM     95  C   UNL     1     -12.473  -1.075   7.577  1.00  0.00     0.200 A 
ATOM     96  F   UNL     1     -11.413   0.489   6.162  1.00  0.00    -0.200 F 
ATOM     97  F   UNL     1     -12.534  -0.168   8.561  1.00  0.00    -0.200 F 
ENDBRANCH  63  87
BRANCH  75  98
ATOM     98  C   UNL     1     -17.440  -6.202   1.945  1.00  0.00     0.064 A 
ATOM     99  C   UNL     1     -18.181  -5.073   1.564  1.00  0.00     0.173 A 
ATOM    100  C   UNL     1     -18.146  -7.331   2.389  1.00  0.00     0.173 A 
ATOM    101  F   UNL     1     -17.554  -3.964   1.143  1.00  0.00    -0.203 F 
ATOM    102  C   UNL     1     -19.570  -5.066   1.653  1.00  0.00     0.198 A 
ATOM    103  C   UNL     1     -19.536  -7.334   2.439  1.00  0.00     0.198 A 
ATOM    104  F   UNL     1     -17.487  -8.441   2.755  1.00  0.00    -0.203 F 
ATOM    105  F   UNL     1     -20.254  -3.958   1.337  1.00  0.00    -0.200 F 
ATOM    106  C   UNL     1     -20.247  -6.199   2.082  1.00  0.00     0.200 A 
ATOM    107  F   UNL     1     -20.188  -8.437   2.833  1.00  0.00    -0.200 F 
ATOM    108  F   UNL     1     -21.585  -6.194   2.156  1.00  0.00    -0.200 F 
ENDBRANCH  75  98
ENDBRANCH  49  50
ENDBRANCH  41  44
ENDBRANCH  39  40
ENDBRANCH  38  39
ENDBRANCH  37  38
ENDBRANCH  36  37
ENDBRANCH   3  36
TORSDOF 17
