REMARK SMILES O=C(N/N=C/c1ccc(C(=O)NCCCCNC(=O)c2ccc(-c3c4nc(c(-c5c(F)c(F)c(F)c(F)c5F)c5ccc([nH]5)c(-c5c(F)c(F)c(F)c(F)c5F)c5nc(c(-c6c(F)c(F)c(F)c(F)c6F)c6ccc3[nH]6)C=C5)C=C4)cc2)cc1)C(=O)Nc1ccc2c(c1)OCO2
REMARK SMILES IDX 13 1 12 2 10 3 11 4 9 6 6 7 7 8 84 9 8 10 83 11 5 12 4 13
REMARK SMILES IDX 3 14 1 15 2 16 85 18 86 19 87 20 88 22 89 23 93 24 90 25
REMARK SMILES IDX 92 26 91 27 94 28 96 29 95 30 14 31 15 32 16 33 17 34 18 35
REMARK SMILES IDX 19 37 20 38 21 39 82 40 22 41 81 42 23 43 24 44 25 45 75 46
REMARK SMILES IDX 26 47 80 48 74 49 76 50 27 51 79 52 73 53 72 54 28 56 60 57
REMARK SMILES IDX 40 58 59 59 41 60 44 61 58 62 77 63 42 64 43 65 57 67 78 68
REMARK SMILES IDX 45 69 29 70 30 71 38 72 31 73 32 74 36 75 39 76 33 77 34 78
REMARK SMILES IDX 37 79 35 80 61 81 62 82 70 83 63 84 64 85 68 86 71 87 65 88
REMARK SMILES IDX 66 89 69 90 67 91 46 92 47 93 55 94 48 95 49 96 53 97 56 98
REMARK SMILES IDX 50 99 51 100 54 101 52 102
REMARK H PARENT 12 5 3 17 87 21 17 36 76 55 44 66
REMARK Flexibility Score: inf
ROOT
ATOM      1  C   UNL     1      11.510  -1.006  -2.244  1.00  0.00     0.116 C 
ENDROOT
BRANCH   1   2
ATOM      2  N   UNL     1      11.927  -0.207  -1.107  1.00  0.00    -0.352 N 
ATOM      3  C   UNL     1      11.181   0.576  -0.256  1.00  0.00     0.251 C 
ATOM      4  O   UNL     1      11.750   1.189   0.643  1.00  0.00    -0.269 OA
ATOM      5  H   UNL     1      12.892  -0.229  -0.914  1.00  0.00     0.163 HD
BRANCH   3   6
ATOM      6  C   UNL     1       9.699   0.586  -0.339  1.00  0.00     0.039 A 
ATOM      7  C   UNL     1       6.685  -0.156  -0.326  1.00  0.00    -0.005 A 
ATOM      8  C   UNL     1       7.561   0.414   0.788  1.00  0.00     0.010 A 
ATOM      9  C   UNL     1       7.609   0.086  -1.486  1.00  0.00     0.010 A 
ATOM     10  C   UNL     1       8.956   0.706   0.805  1.00  0.00     0.014 A 
ATOM     11  C   UNL     1       8.978   0.455  -1.496  1.00  0.00     0.014 A 
BRANCH   7  12
ATOM     12  C   UNL     1       4.728  -0.999  -0.228  1.00  0.00     0.141 C 
ATOM     13  N   UNL     1       3.559  -0.893  -0.952  1.00  0.00    -0.180 NA
BRANCH  13  14
ATOM     14  N   UNL     1       2.433  -1.040  -0.228  1.00  0.00    -0.239 N 
ATOM     15  O   UNL     1       0.672  -0.104   0.819  1.00  0.00    -0.262 OA
ATOM     16  C   UNL     1       1.846   0.017   0.462  1.00  0.00     0.329 C 
ATOM     17  H   UNL     1       2.010  -1.928  -0.184  1.00  0.00     0.194 HD
BRANCH  16  18
ATOM     18  C   UNL     1       2.568   1.367   0.775  1.00  0.00     0.315 C 
ATOM     19  O   UNL     1       1.891   2.397   0.803  1.00  0.00    -0.263 OA
ATOM     20  N   UNL     1       3.885   1.448   1.223  1.00  0.00    -0.318 N 
ATOM     21  H   UNL     1       4.074   1.997   2.018  1.00  0.00     0.170 HD
BRANCH  20  22
ATOM     22  C   UNL     1       4.954   0.789   0.603  1.00  0.00     0.045 A 
ATOM     23  C   UNL     1       5.611  -0.658   1.539  1.00  0.00     0.030 A 
ATOM     24  C   UNL     1       4.972   0.799  -1.232  1.00  0.00     0.076 A 
ATOM     25  C   UNL     1       6.279  -2.094   0.607  1.00  0.00     0.053 A 
ATOM     26  C   UNL     1       5.483  -0.723  -2.091  1.00  0.00     0.167 A 
ATOM     27  C   UNL     1       6.143  -2.107  -1.181  1.00  0.00     0.165 A 
ATOM     28  O   UNL     1       5.272  -1.160  -3.361  1.00  0.00    -0.454 OA
ATOM     29  O   UNL     1       6.206  -3.141  -2.060  1.00  0.00    -0.454 OA
ATOM     30  C   UNL     1       5.390  -2.620  -3.179  1.00  0.00     0.468 C 
ENDBRANCH  20  22
ENDBRANCH  16  18
ENDBRANCH  13  14
ENDBRANCH   7  12
ENDBRANCH   3   6
ENDBRANCH   1   2
BRANCH   1  31
ATOM     31  C   UNL     1      11.582  -0.170  -3.525  1.00  0.00     0.023 C 
BRANCH  31  32
ATOM     32  C   UNL     1      12.996   0.028  -4.049  1.00  0.00     0.023 C 
BRANCH  32  33
ATOM     33  C   UNL     1      13.709  -1.268  -4.376  1.00  0.00     0.116 C 
BRANCH  33  34
ATOM     34  N   UNL     1      12.980  -2.082  -5.338  1.00  0.00    -0.352 N 
ATOM     35  C   UNL     1      13.490  -2.813  -6.379  1.00  0.00     0.251 C 
ATOM     36  H   UNL     1      12.002  -2.110  -5.227  1.00  0.00     0.163 HD
ATOM     37  O   UNL     1      12.750  -3.315  -7.217  1.00  0.00    -0.269 OA
BRANCH  35  38
ATOM     38  C   UNL     1      14.953  -2.946  -6.489  1.00  0.00     0.039 A 
ATOM     39  C   UNL     1      15.559  -2.679  -7.714  1.00  0.00     0.014 A 
ATOM     40  C   UNL     1      15.721  -3.248  -5.359  1.00  0.00     0.014 A 
ATOM     41  C   UNL     1      16.948  -2.661  -7.792  1.00  0.00     0.010 A 
ATOM     42  C   UNL     1      17.102  -3.121  -5.415  1.00  0.00     0.010 A 
ATOM     43  C   UNL     1      17.729  -2.836  -6.634  1.00  0.00    -0.014 A 
BRANCH  43  44
ATOM     44  C   UNL     1      19.204  -2.703  -6.700  1.00  0.00     0.031 A 
ATOM     45  C   UNL     1      20.091  -3.868  -6.369  1.00  0.00     0.074 A 
ATOM     46  C   UNL     1      19.738  -1.515  -7.045  1.00  0.00     0.049 A 
ATOM     47  N   UNL     1      21.397  -3.950  -6.418  1.00  0.00    -0.248 NA
ATOM     48  C   UNL     1      19.432  -5.097  -5.899  1.00  0.00     0.031 C 
ATOM     49  C   UNL     1      18.976  -0.296  -7.323  1.00  0.00     0.029 A 
ATOM     50  N   UNL     1      21.043  -1.140  -7.232  1.00  0.00    -0.354 N 
ATOM     51  C   UNL     1      21.711  -5.233  -5.992  1.00  0.00     0.074 A 
ATOM     52  C   UNL     1      20.468  -5.871  -5.617  1.00  0.00     0.031 C 
ATOM     53  C   UNL     1      19.822   0.675  -7.699  1.00  0.00     0.029 A 
ATOM     54  C   UNL     1      21.186   0.164  -7.639  1.00  0.00     0.049 A 
ATOM     55  H   UNL     1      21.805  -1.748  -7.090  1.00  0.00     0.167 HD
ATOM     56  C   UNL     1      22.924  -5.833  -5.946  1.00  0.00     0.037 A 
ATOM     57  C   UNL     1      22.296   0.868  -7.930  1.00  0.00     0.037 A 
ATOM     58  C   UNL     1      24.156  -5.188  -6.320  1.00  0.00     0.049 A 
ATOM     59  C   UNL     1      23.632   0.182  -7.844  1.00  0.00     0.074 A 
ATOM     60  C   UNL     1      25.432  -5.721  -6.356  1.00  0.00     0.029 A 
ATOM     61  N   UNL     1      24.267  -3.860  -6.708  1.00  0.00    -0.354 N 
ATOM     62  N   UNL     1      23.910  -1.060  -7.526  1.00  0.00    -0.248 NA
ATOM     63  C   UNL     1      24.809   0.996  -8.170  1.00  0.00     0.031 C 
ATOM     64  C   UNL     1      26.324  -4.697  -6.691  1.00  0.00     0.029 A 
ATOM     65  C   UNL     1      25.597  -3.546  -6.947  1.00  0.00     0.049 A 
ATOM     66  H   UNL     1      23.514  -3.233  -6.800  1.00  0.00     0.167 HD
ATOM     67  C   UNL     1      25.289  -1.182  -7.636  1.00  0.00     0.074 A 
ATOM     68  C   UNL     1      25.783   0.103  -8.087  1.00  0.00     0.031 C 
ATOM     69  C   UNL     1      26.077  -2.258  -7.382  1.00  0.00     0.037 A 
BRANCH  56  70
ATOM     70  C   UNL     1      22.978  -7.257  -5.465  1.00  0.00     0.064 A 
ATOM     71  C   UNL     1      22.409  -8.310  -6.200  1.00  0.00     0.173 A 
ATOM     72  C   UNL     1      23.641  -7.579  -4.271  1.00  0.00     0.173 A 
ATOM     73  F   UNL     1      21.752  -8.059  -7.343  1.00  0.00    -0.203 F 
ATOM     74  C   UNL     1      22.473  -9.623  -5.741  1.00  0.00     0.198 A 
ATOM     75  C   UNL     1      23.736  -8.898  -3.835  1.00  0.00     0.198 A 
ATOM     76  F   UNL     1      24.206  -6.615  -3.529  1.00  0.00    -0.203 F 
ATOM     77  F   UNL     1      21.871 -10.602  -6.431  1.00  0.00    -0.200 F 
ATOM     78  C   UNL     1      23.144  -9.918  -4.565  1.00  0.00     0.200 A 
ATOM     79  F   UNL     1      24.401  -9.182  -2.707  1.00  0.00    -0.200 F 
ATOM     80  F   UNL     1      23.215 -11.183  -4.130  1.00  0.00    -0.200 F 
ENDBRANCH  56  70
BRANCH  57  81
ATOM     81  C   UNL     1      22.190   2.293  -8.340  1.00  0.00     0.064 A 
ATOM     82  C   UNL     1      22.555   2.707  -9.630  1.00  0.00     0.173 A 
ATOM     83  C   UNL     1      21.738   3.276  -7.446  1.00  0.00     0.173 A 
ATOM     84  F   UNL     1      23.010   1.810 -10.517  1.00  0.00    -0.203 F 
ATOM     85  C   UNL     1      22.503   4.050  -9.997  1.00  0.00     0.198 A 
ATOM     86  C   UNL     1      21.649   4.612  -7.828  1.00  0.00     0.198 A 
ATOM     87  F   UNL     1      21.368   2.934  -6.203  1.00  0.00    -0.203 F 
ATOM     88  F   UNL     1      22.918   4.425 -11.215  1.00  0.00    -0.200 F 
ATOM     89  C   UNL     1      22.044   5.001  -9.098  1.00  0.00     0.200 A 
ATOM     90  F   UNL     1      21.184   5.523  -6.962  1.00  0.00    -0.200 F 
ATOM     91  F   UNL     1      21.991   6.292  -9.453  1.00  0.00    -0.200 F 
ENDBRANCH  57  81
BRANCH  69  92
ATOM     92  C   UNL     1      27.554  -2.090  -7.615  1.00  0.00     0.064 A 
ATOM     93  C   UNL     1      28.334  -1.223  -6.834  1.00  0.00     0.173 A 
ATOM     94  C   UNL     1      28.198  -2.802  -8.639  1.00  0.00     0.173 A 
ATOM     95  F   UNL     1      27.769  -0.510  -5.847  1.00  0.00    -0.203 F 
ATOM     96  C   UNL     1      29.686  -1.031  -7.107  1.00  0.00     0.198 A 
ATOM     97  C   UNL     1      29.560  -2.643  -8.879  1.00  0.00     0.198 A 
ATOM     98  F   UNL     1      27.506  -3.655  -9.410  1.00  0.00    -0.203 F 
ATOM     99  F   UNL     1      30.388  -0.133  -6.402  1.00  0.00    -0.200 F 
ATOM    100  C   UNL     1      30.298  -1.745  -8.125  1.00  0.00     0.200 A 
ATOM    101  F   UNL     1      30.154  -3.351  -9.849  1.00  0.00    -0.200 F 
ATOM    102  F   UNL     1      31.599  -1.556  -8.389  1.00  0.00    -0.200 F 
ENDBRANCH  69  92
ENDBRANCH  43  44
ENDBRANCH  35  38
ENDBRANCH  33  34
ENDBRANCH  32  33
ENDBRANCH  31  32
ENDBRANCH   1  31
TORSDOF 15
