REMARK SMILES O=C(NCCCCNC(=O)[C@H]1C=C[C@H](NS(=O)(=O)c2ccc3c(c2)CCO3)C1)c1ccc(-c2c3nc(c(-c4c(F)c(F)c(F)c(F)c4F)c4ccc([nH]4)c(-c4c(F)c(F)c(F)c(F)c4F)c4nc(c(-c5c(F)c(F)c(F)c(F)c5F)c5ccc2[nH]5)C=C4)C=C3)cc1
REMARK SMILES IDX 6 1 5 2 4 3 3 4 1 5 2 6 29 8 30 9 91 10 31 11 90 12 32 13
REMARK SMILES IDX 33 14 34 15 84 16 35 17 89 18 83 19 85 20 36 21 88 22 82 23
REMARK SMILES IDX 81 24 37 26 69 27 49 28 68 29 50 30 53 31 67 32 86 33 51 34
REMARK SMILES IDX 52 35 66 37 87 38 54 39 38 40 39 41 47 42 40 43 41 44 45 45
REMARK SMILES IDX 48 46 42 47 43 48 46 49 44 50 70 51 71 52 79 53 72 54 73 55
REMARK SMILES IDX 77 56 80 57 74 58 75 59 78 60 76 61 55 62 56 63 64 64 57 65
REMARK SMILES IDX 58 66 62 67 65 68 59 69 60 70 63 71 61 72 7 73 8 74 9 75
REMARK SMILES IDX 10 77 11 78 12 79 28 80 13 81 14 82 15 83 16 85 17 86 18 87
REMARK SMILES IDX 19 88 20 89 24 90 21 91 23 92 22 93 25 94 27 95 26 96
REMARK H PARENT 3 7 85 25 53 36 8 76 15 84
REMARK Flexibility Score: inf
ROOT
ATOM      1  C   UNL     1       4.420  -3.024  -1.645  1.00  0.00     0.023 C 
ENDROOT
BRANCH   1   2
ATOM      2  C   UNL     1       4.652  -2.404  -0.274  1.00  0.00     0.023 C 
BRANCH   2   3
ATOM      3  C   UNL     1       4.297  -0.934  -0.199  1.00  0.00     0.116 C 
BRANCH   3   4
ATOM      4  N   UNL     1       2.893  -0.656  -0.472  1.00  0.00    -0.352 N 
ATOM      5  O   UNL     1       0.922   0.430  -0.158  1.00  0.00    -0.269 OA
ATOM      6  C   UNL     1       2.119   0.338   0.082  1.00  0.00     0.251 C 
ATOM      7  H   UNL     1       2.449  -1.244  -1.125  1.00  0.00     0.163 HD
BRANCH   6   8
ATOM      8  C   UNL     1       2.773   1.262   1.027  1.00  0.00     0.039 A 
ATOM      9  C   UNL     1       3.966   1.885   0.657  1.00  0.00     0.014 A 
ATOM     10  C   UNL     1       2.276   1.373   2.326  1.00  0.00     0.014 A 
ATOM     11  C   UNL     1       4.758   2.461   1.637  1.00  0.00     0.010 A 
ATOM     12  C   UNL     1       3.028   2.051   3.288  1.00  0.00     0.010 A 
ATOM     13  C   UNL     1       4.297   2.555   2.962  1.00  0.00    -0.014 A 
BRANCH  13  14
ATOM     14  C   UNL     1       5.159   3.216   3.972  1.00  0.00     0.031 A 
ATOM     15  C   UNL     1       5.700   2.460   5.154  1.00  0.00     0.074 A 
ATOM     16  C   UNL     1       5.493   4.505   3.776  1.00  0.00     0.049 A 
ATOM     17  N   UNL     1       6.487   2.885   6.112  1.00  0.00    -0.248 NA
ATOM     18  C   UNL     1       5.304   1.050   5.289  1.00  0.00     0.031 C 
ATOM     19  C   UNL     1       5.021   5.335   2.665  1.00  0.00     0.029 A 
ATOM     20  N   UNL     1       6.329   5.333   4.477  1.00  0.00    -0.354 N 
ATOM     21  C   UNL     1       6.647   1.812   6.979  1.00  0.00     0.074 A 
ATOM     22  C   UNL     1       5.869   0.717   6.442  1.00  0.00     0.031 C 
ATOM     23  C   UNL     1       5.625   6.529   2.720  1.00  0.00     0.029 A 
ATOM     24  C   UNL     1       6.469   6.574   3.907  1.00  0.00     0.049 A 
ATOM     25  H   UNL     1       6.784   5.065   5.308  1.00  0.00     0.167 HD
ATOM     26  C   UNL     1       7.380   1.753   8.118  1.00  0.00     0.037 A 
ATOM     27  C   UNL     1       7.188   7.639   4.304  1.00  0.00     0.037 A 
ATOM     28  C   UNL     1       8.183   2.838   8.623  1.00  0.00     0.049 A 
ATOM     29  C   UNL     1       7.999   7.537   5.561  1.00  0.00     0.074 A 
ATOM     30  C   UNL     1       8.992   2.865   9.746  1.00  0.00     0.029 A 
ATOM     31  N   UNL     1       8.281   4.090   8.031  1.00  0.00    -0.354 N 
ATOM     32  N   UNL     1       8.153   6.512   6.363  1.00  0.00    -0.248 NA
ATOM     33  C   UNL     1       8.732   8.741   5.969  1.00  0.00     0.031 C 
ATOM     34  C   UNL     1       9.549   4.144   9.855  1.00  0.00     0.029 A 
ATOM     35  C   UNL     1       9.124   4.901   8.775  1.00  0.00     0.049 A 
ATOM     36  H   UNL     1       7.820   4.362   7.205  1.00  0.00     0.167 HD
ATOM     37  C   UNL     1       9.011   6.941   7.364  1.00  0.00     0.074 A 
ATOM     38  C   UNL     1       9.361   8.312   7.054  1.00  0.00     0.031 C 
ATOM     39  C   UNL     1       9.463   6.262   8.447  1.00  0.00     0.037 A 
BRANCH  26  40
ATOM     40  C   UNL     1       7.333   0.481   8.916  1.00  0.00     0.064 A 
ATOM     41  C   UNL     1       7.972  -0.691   8.485  1.00  0.00     0.173 A 
ATOM     42  C   UNL     1       6.680   0.451  10.158  1.00  0.00     0.173 A 
ATOM     43  F   UNL     1       8.601  -0.719   7.300  1.00  0.00    -0.203 F 
ATOM     44  C   UNL     1       7.941  -1.850   9.257  1.00  0.00     0.198 A 
ATOM     45  C   UNL     1       6.673  -0.702  10.940  1.00  0.00     0.198 A 
ATOM     46  F   UNL     1       6.058   1.546  10.621  1.00  0.00    -0.203 F 
ATOM     47  F   UNL     1       8.525  -2.969   8.806  1.00  0.00    -0.200 F 
ATOM     48  C   UNL     1       7.298  -1.853  10.486  1.00  0.00     0.200 A 
ATOM     49  F   UNL     1       6.061  -0.699  12.132  1.00  0.00    -0.200 F 
ATOM     50  F   UNL     1       7.276  -2.967  11.231  1.00  0.00    -0.200 F 
ENDBRANCH  26  40
BRANCH  27  51
ATOM     51  C   UNL     1       7.170   8.880   3.491  1.00  0.00     0.064 A 
ATOM     52  C   UNL     1       8.306   9.290   2.781  1.00  0.00     0.173 A 
ATOM     53  C   UNL     1       6.011   9.663   3.383  1.00  0.00     0.173 A 
ATOM     54  F   UNL     1       9.441   8.581   2.865  1.00  0.00    -0.203 F 
ATOM     55  C   UNL     1       8.286  10.445   2.002  1.00  0.00     0.198 A 
ATOM     56  C   UNL     1       5.984  10.800   2.580  1.00  0.00     0.198 A 
ATOM     57  F   UNL     1       4.896   9.306   4.037  1.00  0.00    -0.203 F 
ATOM     58  F   UNL     1       9.396  10.835   1.359  1.00  0.00    -0.200 F 
ATOM     59  C   UNL     1       7.124  11.194   1.895  1.00  0.00     0.200 A 
ATOM     60  F   UNL     1       4.853  11.508   2.464  1.00  0.00    -0.200 F 
ATOM     61  F   UNL     1       7.102  12.297   1.135  1.00  0.00    -0.200 F 
ENDBRANCH  27  51
BRANCH  39  62
ATOM     62  C   UNL     1      10.414   6.988   9.350  1.00  0.00     0.064 A 
ATOM     63  C   UNL     1       9.980   8.020  10.196  1.00  0.00     0.173 A 
ATOM     64  C   UNL     1      11.773   6.642   9.374  1.00  0.00     0.173 A 
ATOM     65  F   UNL     1       8.693   8.398  10.194  1.00  0.00    -0.203 F 
ATOM     66  C   UNL     1      10.880   8.700  11.011  1.00  0.00     0.198 A 
ATOM     67  C   UNL     1      12.665   7.306  10.211  1.00  0.00     0.198 A 
ATOM     68  F   UNL     1      12.235   5.660   8.586  1.00  0.00    -0.203 F 
ATOM     69  F   UNL     1      10.455   9.719  11.771  1.00  0.00    -0.200 F 
ATOM     70  C   UNL     1      12.220   8.340  11.021  1.00  0.00     0.200 A 
ATOM     71  F   UNL     1      13.957   6.951  10.227  1.00  0.00    -0.200 F 
ATOM     72  F   UNL     1      13.085   8.998  11.805  1.00  0.00    -0.200 F 
ENDBRANCH  39  62
ENDBRANCH  13  14
ENDBRANCH   6   8
ENDBRANCH   3   4
ENDBRANCH   2   3
ENDBRANCH   1   2
BRANCH   1  73
ATOM     73  C   UNL     1       5.374  -2.518  -2.730  1.00  0.00     0.116 C 
BRANCH  73  74
ATOM     74  N   UNL     1       6.651  -3.188  -2.622  1.00  0.00    -0.356 N 
ATOM     75  C   UNL     1       7.046  -4.408  -3.083  1.00  0.00     0.226 C 
ATOM     76  H   UNL     1       7.344  -2.684  -2.138  1.00  0.00     0.163 HD
ATOM     77  O   UNL     1       8.141  -4.812  -2.678  1.00  0.00    -0.274 OA
BRANCH  75  78
ATOM     78  C   UNL     1       6.263  -5.165  -4.172  1.00  0.00     0.103 C 
ATOM     79  C   UNL     1       6.587  -6.636  -4.173  1.00  0.00    -0.016 C 
ATOM     80  C   UNL     1       4.736  -5.225  -4.114  1.00  0.00     0.042 C 
ATOM     81  C   UNL     1       5.513  -7.390  -4.445  1.00  0.00    -0.011 C 
ATOM     82  C   UNL     1       4.289  -6.565  -4.690  1.00  0.00     0.093 C 
BRANCH  82  83
ATOM     83  N   UNL     1       4.032  -6.626  -6.124  1.00  0.00    -0.204 NA
ATOM     84  H   UNL     1       3.500  -7.483  -6.274  1.00  0.00     0.142 HD
BRANCH  83  85
ATOM     85  S   UNL     1       3.225  -5.434  -6.979  1.00  0.00     0.241 S 
ATOM     86  O   UNL     1       2.667  -6.084  -8.136  1.00  0.00    -0.207 OA
ATOM     87  O   UNL     1       2.403  -4.679  -6.052  1.00  0.00    -0.207 OA
BRANCH  85  88
ATOM     88  C   UNL     1       4.529  -4.376  -7.570  1.00  0.00     0.083 A 
ATOM     89  C   UNL     1       5.856  -4.847  -7.599  1.00  0.00     0.025 A 
ATOM     90  C   UNL     1       4.218  -3.070  -7.970  1.00  0.00     0.029 A 
ATOM     91  C   UNL     1       6.898  -3.996  -7.967  1.00  0.00     0.048 A 
ATOM     92  C   UNL     1       5.263  -2.262  -8.391  1.00  0.00    -0.001 A 
ATOM     93  C   UNL     1       6.573  -2.717  -8.363  1.00  0.00     0.122 A 
ATOM     94  C   UNL     1       5.252  -0.858  -8.863  1.00  0.00     0.081 C 
ATOM     95  O   UNL     1       7.494  -1.781  -8.752  1.00  0.00    -0.493 OA
ATOM     96  C   UNL     1       6.690  -0.758  -9.380  1.00  0.00     0.234 C 
ENDBRANCH  85  88
ENDBRANCH  83  85
ENDBRANCH  82  83
ENDBRANCH  75  78
ENDBRANCH  73  74
ENDBRANCH   1  73
TORSDOF 14
