REMARK SMILES O=C(NCCCCNC(=O)c1ccccc1NS(=O)(=O)c1cccc([N+](=O)[O-])c1)c1ccc(-c2c3nc(c(-c4c(F)c(F)c(F)c(F)c4F)c4ccc([nH]4)c(-c4c(F)c(F)c(F)c(F)c4F)c4nc(c(-c5c(F)c(F)c(F)c(F)c5F)c5ccc2[nH]5)C=C4)C=C3)cc1
REMARK SMILES IDX 6 1 5 2 4 3 3 4 1 5 2 6 30 8 31 9 92 10 32 11 91 12 33 13
REMARK SMILES IDX 34 14 35 15 85 16 36 17 90 18 84 19 86 20 37 21 89 22 83 23
REMARK SMILES IDX 82 24 38 26 70 27 50 28 69 29 51 30 54 31 68 32 87 33 52 34
REMARK SMILES IDX 53 35 67 37 88 38 55 39 39 40 40 41 48 42 41 43 42 44 46 45
REMARK SMILES IDX 49 46 43 47 44 48 47 49 45 50 71 51 72 52 80 53 73 54 74 55
REMARK SMILES IDX 78 56 81 57 75 58 76 59 79 60 77 61 56 62 57 63 65 64 58 65
REMARK SMILES IDX 59 66 63 67 66 68 60 69 61 70 64 71 62 72 7 73 8 74 9 75
REMARK SMILES IDX 10 77 11 78 12 79 16 80 13 81 15 82 14 83 17 84 18 86 19 87
REMARK SMILES IDX 20 88 21 89 22 90 29 91 23 92 25 93 24 94 26 95 27 96 28 97
REMARK H PARENT 3 7 86 25 54 36 8 76 17 85
REMARK Flexibility Score: inf
ROOT
ATOM      1  C   UNL     1       4.628  -3.716   0.182  1.00  0.00     0.023 C 
ENDROOT
BRANCH   1   2
ATOM      2  C   UNL     1       5.109  -2.367   0.706  1.00  0.00     0.023 C 
BRANCH   2   3
ATOM      3  C   UNL     1       4.753  -1.159  -0.152  1.00  0.00     0.116 C 
BRANCH   3   4
ATOM      4  N   UNL     1       3.322  -0.986  -0.355  1.00  0.00    -0.352 N 
ATOM      5  O   UNL     1       1.306   0.026  -0.246  1.00  0.00    -0.269 OA
ATOM      6  C   UNL     1       2.521   0.101  -0.093  1.00  0.00     0.251 C 
ATOM      7  H   UNL     1       2.857  -1.765  -0.737  1.00  0.00     0.163 HD
BRANCH   6   8
ATOM      8  C   UNL     1       3.118   1.351   0.423  1.00  0.00     0.039 A 
ATOM      9  C   UNL     1       4.271   1.889  -0.152  1.00  0.00     0.014 A 
ATOM     10  C   UNL     1       2.525   1.976   1.524  1.00  0.00     0.014 A 
ATOM     11  C   UNL     1       4.932   2.933   0.485  1.00  0.00     0.010 A 
ATOM     12  C   UNL     1       3.148   3.079   2.114  1.00  0.00     0.010 A 
ATOM     13  C   UNL     1       4.387   3.528   1.634  1.00  0.00    -0.014 A 
BRANCH  13  14
ATOM     14  C   UNL     1       5.144   4.603   2.323  1.00  0.00     0.031 A 
ATOM     15  C   UNL     1       5.723   4.380   3.694  1.00  0.00     0.074 A 
ATOM     16  C   UNL     1       5.366   5.764   1.680  1.00  0.00     0.049 A 
ATOM     17  N   UNL     1       6.465   5.183   4.417  1.00  0.00    -0.248 NA
ATOM     18  C   UNL     1       5.426   3.095   4.345  1.00  0.00     0.031 C 
ATOM     19  C   UNL     1       4.851   6.101   0.352  1.00  0.00     0.029 A 
ATOM     20  N   UNL     1       6.109   6.859   2.040  1.00  0.00    -0.354 N 
ATOM     21  C   UNL     1       6.691   4.517   5.614  1.00  0.00     0.074 A 
ATOM     22  C   UNL     1       6.004   3.247   5.528  1.00  0.00     0.031 C 
ATOM     23  C   UNL     1       5.347   7.291  -0.019  1.00  0.00     0.029 A 
ATOM     24  C   UNL     1       6.178   7.816   1.059  1.00  0.00     0.049 A 
ATOM     25  H   UNL     1       6.549   6.950   2.916  1.00  0.00     0.167 HD
ATOM     26  C   UNL     1       7.411   4.927   6.686  1.00  0.00     0.037 A 
ATOM     27  C   UNL     1       6.848   8.983   1.027  1.00  0.00     0.037 A 
ATOM     28  C   UNL     1       8.138   6.167   6.756  1.00  0.00     0.049 A 
ATOM     29  C   UNL     1       7.674   9.392   2.210  1.00  0.00     0.074 A 
ATOM     30  C   UNL     1       8.928   6.649   7.786  1.00  0.00     0.029 A 
ATOM     31  N   UNL     1       8.170   7.117   5.748  1.00  0.00    -0.354 N 
ATOM     32  N   UNL     1       7.889   8.747   3.329  1.00  0.00    -0.248 NA
ATOM     33  C   UNL     1       8.346  10.696   2.126  1.00  0.00     0.031 C 
ATOM     34  C   UNL     1       9.424   7.902   7.407  1.00  0.00     0.029 A 
ATOM     35  C   UNL     1       8.961   8.188   6.133  1.00  0.00     0.049 A 
ATOM     36  H   UNL     1       7.701   7.043   4.886  1.00  0.00     0.167 HD
ATOM     37  C   UNL     1       8.724   9.559   4.081  1.00  0.00     0.074 A 
ATOM     38  C   UNL     1       8.993  10.738   3.283  1.00  0.00     0.031 C 
ATOM     39  C   UNL     1       9.219   9.349   5.324  1.00  0.00     0.037 A 
BRANCH  26  40
ATOM     40  C   UNL     1       7.439   4.028   7.884  1.00  0.00     0.064 A 
ATOM     41  C   UNL     1       8.240   2.878   7.923  1.00  0.00     0.173 A 
ATOM     42  C   UNL     1       6.683   4.345   9.023  1.00  0.00     0.173 A 
ATOM     43  F   UNL     1       8.969   2.527   6.852  1.00  0.00    -0.203 F 
ATOM     44  C   UNL     1       8.272   2.068   9.055  1.00  0.00     0.198 A 
ATOM     45  C   UNL     1       6.731   3.542  10.159  1.00  0.00     0.198 A 
ATOM     46  F   UNL     1       5.903   5.436   9.034  1.00  0.00    -0.203 F 
ATOM     47  F   UNL     1       9.021   0.957   9.061  1.00  0.00    -0.200 F 
ATOM     48  C   UNL     1       7.523   2.404  10.174  1.00  0.00     0.200 A 
ATOM     49  F   UNL     1       6.010   3.870  11.241  1.00  0.00    -0.200 F 
ATOM     50  F   UNL     1       7.558   1.624  11.263  1.00  0.00    -0.200 F 
ENDBRANCH  26  40
BRANCH  27  51
ATOM     51  C   UNL     1       6.787   9.823  -0.192  1.00  0.00     0.064 A 
ATOM     52  C   UNL     1       7.879   9.889  -1.068  1.00  0.00     0.173 A 
ATOM     53  C   UNL     1       5.632  10.543  -0.524  1.00  0.00     0.173 A 
ATOM     54  F   UNL     1       9.010   9.228  -0.778  1.00  0.00    -0.203 F 
ATOM     55  C   UNL     1       7.818  10.648  -2.233  1.00  0.00     0.198 A 
ATOM     56  C   UNL     1       5.565  11.287  -1.699  1.00  0.00     0.198 A 
ATOM     57  F   UNL     1       4.562  10.505   0.283  1.00  0.00    -0.203 F 
ATOM     58  F   UNL     1       8.881  10.713  -3.045  1.00  0.00    -0.200 F 
ATOM     59  C   UNL     1       6.659  11.341  -2.551  1.00  0.00     0.200 A 
ATOM     60  F   UNL     1       4.441  11.946  -2.009  1.00  0.00    -0.200 F 
ATOM     61  F   UNL     1       6.596  12.063  -3.678  1.00  0.00    -0.200 F 
ENDBRANCH  27  51
BRANCH  39  62
ATOM     62  C   UNL     1      10.108  10.412   5.889  1.00  0.00     0.064 A 
ATOM     63  C   UNL     1       9.577  11.597   6.417  1.00  0.00     0.173 A 
ATOM     64  C   UNL     1      11.498  10.233   5.925  1.00  0.00     0.173 A 
ATOM     65  F   UNL     1       8.254  11.816   6.388  1.00  0.00    -0.203 F 
ATOM     66  C   UNL     1      10.411  12.577   6.947  1.00  0.00     0.198 A 
ATOM     67  C   UNL     1      12.327  11.208   6.470  1.00  0.00     0.198 A 
ATOM     68  F   UNL     1      12.048   9.115   5.431  1.00  0.00    -0.203 F 
ATOM     69  F   UNL     1       9.888  13.717   7.417  1.00  0.00    -0.200 F 
ATOM     70  C   UNL     1      11.784  12.380   6.977  1.00  0.00     0.200 A 
ATOM     71  F   UNL     1      13.653  11.017   6.501  1.00  0.00    -0.200 F 
ATOM     72  F   UNL     1      12.586  13.325   7.486  1.00  0.00    -0.200 F 
ENDBRANCH  39  62
ENDBRANCH  13  14
ENDBRANCH   6   8
ENDBRANCH   3   4
ENDBRANCH   2   3
ENDBRANCH   1   2
BRANCH   1  73
ATOM     73  C   UNL     1       4.892  -3.978  -1.296  1.00  0.00     0.116 C 
BRANCH  73  74
ATOM     74  N   UNL     1       6.306  -3.957  -1.653  1.00  0.00    -0.352 N 
ATOM     75  C   UNL     1       7.029  -4.927  -2.308  1.00  0.00     0.253 C 
ATOM     76  H   UNL     1       6.805  -3.149  -1.393  1.00  0.00     0.163 HD
ATOM     77  O   UNL     1       8.205  -4.760  -2.607  1.00  0.00    -0.269 OA
BRANCH  75  78
ATOM     78  C   UNL     1       6.359  -6.201  -2.616  1.00  0.00     0.063 A 
ATOM     79  C   UNL     1       6.717  -7.305  -1.834  1.00  0.00     0.016 A 
ATOM     80  C   UNL     1       5.296  -6.257  -3.531  1.00  0.00     0.062 A 
ATOM     81  C   UNL     1       5.961  -8.469  -1.908  1.00  0.00     0.001 A 
ATOM     82  C   UNL     1       4.496  -7.402  -3.518  1.00  0.00     0.027 A 
ATOM     83  C   UNL     1       4.830  -8.502  -2.720  1.00  0.00     0.002 A 
BRANCH  80  84
ATOM     84  N   UNL     1       5.150  -5.217  -4.508  1.00  0.00    -0.279 N 
ATOM     85  H   UNL     1       5.976  -4.824  -4.872  1.00  0.00     0.180 HD
BRANCH  84  86
ATOM     86  S   UNL     1       3.703  -4.616  -5.082  1.00  0.00     0.262 S 
ATOM     87  O   UNL     1       2.802  -4.480  -3.955  1.00  0.00    -0.201 OA
ATOM     88  O   UNL     1       4.032  -3.495  -5.930  1.00  0.00    -0.201 OA
BRANCH  86  89
ATOM     89  C   UNL     1       3.050  -5.882  -6.148  1.00  0.00     0.094 A 
ATOM     90  C   UNL     1       1.659  -5.971  -6.284  1.00  0.00     0.023 A 
ATOM     91  C   UNL     1       3.887  -6.874  -6.669  1.00  0.00     0.107 A 
ATOM     92  C   UNL     1       1.092  -7.085  -6.903  1.00  0.00     0.008 A 
ATOM     93  C   UNL     1       3.301  -8.018  -7.223  1.00  0.00     0.270 A 
ATOM     94  C   UNL     1       1.909  -8.126  -7.349  1.00  0.00     0.086 A 
BRANCH  93  95
ATOM     95  N   UNL     1       4.151  -9.163  -7.565  1.00  0.00     0.062 N 
ATOM     96  O   UNL     1       3.603 -10.268  -7.684  1.00  0.00    -0.258 OA
ATOM     97  O   UNL     1       5.368  -8.961  -7.677  1.00  0.00    -0.258 OA
ENDBRANCH  93  95
ENDBRANCH  86  89
ENDBRANCH  84  86
ENDBRANCH  80  84
ENDBRANCH  75  78
ENDBRANCH  73  74
ENDBRANCH   1  73
TORSDOF 15
