REMARK SMILES COc1ccc2c(C[NH2+]Cc3cccs3)c(C(=O)NCCCCNC(=O)c3ccc(-c4c5nc(c(-c6c(F)c(F)c(F)c(F)c6F)c6ccc([nH]6)c(-c6c(F)c(F)c(F)c(F)c6F)c6nc(c(-c7c(F)c(F)c(F)c(F)c7F)c7ccc4[nH]7)C=C6)C=C5)cc3)[nH]c2c1
REMARK SMILES IDX 20 1 19 2 17 3 18 4 16 6 3 7 4 8 92 9 5 10 91 11 6 12 90 13
REMARK SMILES IDX 7 14 2 16 1 17 8 18 9 19 10 22 11 23 12 24 15 25 13 26 14 27
REMARK SMILES IDX 21 28 22 29 23 30 24 31 25 32 26 34 27 35 28 36 89 37 29 38
REMARK SMILES IDX 88 39 30 40 31 41 32 42 82 43 33 44 87 45 81 46 83 47 34 48
REMARK SMILES IDX 86 49 80 50 79 51 35 53 67 54 47 55 66 56 48 57 51 58 65 59
REMARK SMILES IDX 84 60 49 61 50 62 64 64 85 65 52 66 36 67 37 68 45 69 38 70
REMARK SMILES IDX 39 71 43 72 46 73 40 74 41 75 44 76 42 77 68 78 69 79 77 80
REMARK SMILES IDX 70 81 71 82 75 83 78 84 72 85 73 86 76 87 74 88 53 89 54 90
REMARK SMILES IDX 62 91 55 92 56 93 60 94 63 95 57 96 58 97 61 98 59 99
REMARK H PARENT 19 5 90 15 9 20 9 21 24 33 83 52 51 63
REMARK Flexibility Score: inf
ROOT
ATOM      1  C   UNL     1      -2.232   5.929   5.629  1.00  0.00     0.116 C 
ENDROOT
BRANCH   1   2
ATOM      2  N   UNL     1      -1.011   5.979   6.397  1.00  0.00    -0.351 N 
ATOM      3  C   UNL     1       0.192   5.329   6.320  1.00  0.00     0.268 C 
ATOM      4  O   UNL     1       0.927   5.523   7.291  1.00  0.00    -0.268 OA
ATOM      5  H   UNL     1      -1.052   6.622   7.141  1.00  0.00     0.163 HD
BRANCH   3   6
ATOM      6  C   UNL     1       0.569   4.487   5.193  1.00  0.00     0.114 A 
ATOM      7  C   UNL     1       0.970   1.892   1.370  1.00  0.00     0.120 A 
ATOM      8  C   UNL     1       2.299   1.823   1.783  1.00  0.00     0.047 A 
ATOM      9  C   UNL     1       0.037   2.639   2.094  1.00  0.00     0.073 A 
ATOM     10  C   UNL     1       2.717   2.482   2.950  1.00  0.00     0.015 A 
ATOM     11  C   UNL     1       0.471   3.268   3.267  1.00  0.00     0.050 A 
ATOM     12  C   UNL     1       1.784   3.217   3.712  1.00  0.00     0.009 A 
ATOM     13  N   UNL     1      -0.236   3.992   4.194  1.00  0.00    -0.350 N 
ATOM     14  C   UNL     1       1.846   3.972   4.930  1.00  0.00     0.045 A 
ATOM     15  H   UNL     1      -1.208   4.141   4.149  1.00  0.00     0.167 HD
BRANCH   7  16
ATOM     16  O   UNL     1       0.492   1.302   0.229  1.00  0.00    -0.497 OA
ATOM     17  C   UNL     1       0.966  -0.025   0.018  1.00  0.00     0.278 C 
ENDBRANCH   7  16
BRANCH  14  18
ATOM     18  C   UNL     1       3.069   4.124   5.784  1.00  0.00     0.300 C 
BRANCH  18  19
ATOM     19  N   UNL     1       3.615   5.466   5.613  1.00  0.00    -0.338 N 
ATOM     20  H   UNL     1       2.895   6.150   5.846  1.00  0.00     0.346 HD
ATOM     21  H   UNL     1       3.914   5.572   4.644  1.00  0.00     0.346 HD
BRANCH  19  22
ATOM     22  C   UNL     1       4.776   5.683   6.480  1.00  0.00     0.308 C 
BRANCH  22  23
ATOM     23  C   UNL     1       6.035   5.118   5.882  1.00  0.00     0.059 A 
ATOM     24  C   UNL     1       6.920   5.745   5.025  1.00  0.00     0.021 A 
ATOM     25  S   UNL     1       6.544   3.518   6.238  1.00  0.00    -0.143 S 
ATOM     26  C   UNL     1       7.955   4.873   4.580  1.00  0.00     0.012 A 
ATOM     27  C   UNL     1       7.841   3.616   5.131  1.00  0.00     0.065 A 
ENDBRANCH  22  23
ENDBRANCH  19  22
ENDBRANCH  18  19
ENDBRANCH  14  18
ENDBRANCH   3   6
ENDBRANCH   1   2
BRANCH   1  28
ATOM     28  C   UNL     1      -3.210   4.938   6.262  1.00  0.00     0.023 C 
BRANCH  28  29
ATOM     29  C   UNL     1      -3.881   5.466   7.540  1.00  0.00     0.023 C 
BRANCH  29  30
ATOM     30  C   UNL     1      -4.628   6.788   7.379  1.00  0.00     0.116 C 
BRANCH  30  31
ATOM     31  N   UNL     1      -5.590   6.768   6.288  1.00  0.00    -0.352 N 
ATOM     32  C   UNL     1      -6.787   7.427   6.177  1.00  0.00     0.251 C 
ATOM     33  H   UNL     1      -5.347   6.201   5.521  1.00  0.00     0.163 HD
ATOM     34  O   UNL     1      -7.529   7.196   5.230  1.00  0.00    -0.269 OA
BRANCH  32  35
ATOM     35  C   UNL     1      -7.197   8.387   7.222  1.00  0.00     0.039 A 
ATOM     36  C   UNL     1      -8.507   8.325   7.702  1.00  0.00     0.014 A 
ATOM     37  C   UNL     1      -6.306   9.339   7.725  1.00  0.00     0.014 A 
ATOM     38  C   UNL     1      -8.907   9.186   8.724  1.00  0.00     0.010 A 
ATOM     39  C   UNL     1      -6.684  10.145   8.796  1.00  0.00     0.010 A 
ATOM     40  C   UNL     1      -7.990  10.082   9.301  1.00  0.00    -0.014 A 
BRANCH  40  41
ATOM     41  C   UNL     1      -8.401  10.946  10.436  1.00  0.00     0.031 A 
ATOM     42  C   UNL     1      -8.438  12.441  10.284  1.00  0.00     0.074 A 
ATOM     43  C   UNL     1      -8.716  10.375  11.615  1.00  0.00     0.049 A 
ATOM     44  N   UNL     1      -8.812  13.350  11.150  1.00  0.00    -0.248 NA
ATOM     45  C   UNL     1      -7.971  12.995   9.003  1.00  0.00     0.031 C 
ATOM     46  C   UNL     1      -8.649   8.941  11.905  1.00  0.00     0.029 A 
ATOM     47  N   UNL     1      -9.163  10.929  12.788  1.00  0.00    -0.354 N 
ATOM     48  C   UNL     1      -8.613  14.574  10.526  1.00  0.00     0.074 A 
ATOM     49  C   UNL     1      -8.037  14.300   9.229  1.00  0.00     0.031 C 
ATOM     50  C   UNL     1      -9.080   8.724  13.158  1.00  0.00     0.029 A 
ATOM     51  C   UNL     1      -9.427  10.003  13.768  1.00  0.00     0.049 A 
ATOM     52  H   UNL     1      -9.284  11.898  12.915  1.00  0.00     0.167 HD
ATOM     53  C   UNL     1      -8.908  15.814  10.985  1.00  0.00     0.037 A 
ATOM     54  C   UNL     1      -9.905  10.170  15.015  1.00  0.00     0.037 A 
ATOM     55  C   UNL     1      -9.516  16.079  12.264  1.00  0.00     0.049 A 
ATOM     56  C   UNL     1     -10.253  11.558  15.483  1.00  0.00     0.074 A 
ATOM     57  C   UNL     1      -9.935  17.291  12.785  1.00  0.00     0.029 A 
ATOM     58  N   UNL     1      -9.788  15.115  13.223  1.00  0.00    -0.354 N 
ATOM     59  N   UNL     1     -10.163  12.698  14.841  1.00  0.00    -0.248 NA
ATOM     60  C   UNL     1     -10.785  11.679  16.847  1.00  0.00     0.031 C 
ATOM     61  C   UNL     1     -10.411  17.068  14.082  1.00  0.00     0.029 A 
ATOM     62  C   UNL     1     -10.344  15.710  14.345  1.00  0.00     0.049 A 
ATOM     63  H   UNL     1      -9.612  14.152  13.123  1.00  0.00     0.167 HD
ATOM     64  C   UNL     1     -10.658  13.663  15.708  1.00  0.00     0.074 A 
ATOM     65  C   UNL     1     -11.072  12.970  16.910  1.00  0.00     0.031 C 
ATOM     66  C   UNL     1     -10.758  15.004  15.530  1.00  0.00     0.037 A 
BRANCH  53  67
ATOM     67  C   UNL     1      -8.588  16.985  10.102  1.00  0.00     0.064 A 
ATOM     68  C   UNL     1      -9.310  17.243   8.927  1.00  0.00     0.173 A 
ATOM     69  C   UNL     1      -7.591  17.900  10.472  1.00  0.00     0.173 A 
ATOM     70  F   UNL     1     -10.267  16.394   8.522  1.00  0.00    -0.203 F 
ATOM     71  C   UNL     1      -9.033  18.362   8.146  1.00  0.00     0.198 A 
ATOM     72  C   UNL     1      -7.336  19.034   9.705  1.00  0.00     0.198 A 
ATOM     73  F   UNL     1      -6.873  17.704  11.589  1.00  0.00    -0.203 F 
ATOM     74  F   UNL     1      -9.710  18.567   7.008  1.00  0.00    -0.200 F 
ATOM     75  C   UNL     1      -8.054  19.262   8.541  1.00  0.00     0.200 A 
ATOM     76  F   UNL     1      -6.400  19.910  10.095  1.00  0.00    -0.200 F 
ATOM     77  F   UNL     1      -7.800  20.348   7.797  1.00  0.00    -0.200 F 
ENDBRANCH  53  67
BRANCH  54  78
ATOM     78  C   UNL     1     -10.124   8.997  15.904  1.00  0.00     0.064 A 
ATOM     79  C   UNL     1     -11.418   8.619  16.293  1.00  0.00     0.173 A 
ATOM     80  C   UNL     1      -9.048   8.260  16.419  1.00  0.00     0.173 A 
ATOM     81  F   UNL     1     -12.479   9.304  15.842  1.00  0.00    -0.203 F 
ATOM     82  C   UNL     1     -11.624   7.577  17.194  1.00  0.00     0.198 A 
ATOM     83  C   UNL     1      -9.258   7.195  17.293  1.00  0.00     0.198 A 
ATOM     84  F   UNL     1      -7.791   8.573  16.073  1.00  0.00    -0.203 F 
ATOM     85  F   UNL     1     -12.867   7.283  17.602  1.00  0.00    -0.200 F 
ATOM     86  C   UNL     1     -10.544   6.864  17.692  1.00  0.00     0.200 A 
ATOM     87  F   UNL     1      -8.213   6.499  17.760  1.00  0.00    -0.200 F 
ATOM     88  F   UNL     1     -10.742   5.867  18.565  1.00  0.00    -0.200 F 
ENDBRANCH  54  78
BRANCH  66  89
ATOM     89  C   UNL     1     -11.375  15.795  16.648  1.00  0.00     0.064 A 
ATOM     90  C   UNL     1     -10.728  15.959  17.882  1.00  0.00     0.173 A 
ATOM     91  C   UNL     1     -12.633  16.393  16.482  1.00  0.00     0.173 A 
ATOM     92  F   UNL     1      -9.530  15.396  18.096  1.00  0.00    -0.203 F 
ATOM     93  C   UNL     1     -11.340  16.650  18.924  1.00  0.00     0.198 A 
ATOM     94  C   UNL     1     -13.225  17.116  17.514  1.00  0.00     0.198 A 
ATOM     95  F   UNL     1     -13.291  16.277  15.318  1.00  0.00    -0.203 F 
ATOM     96  F   UNL     1     -10.736  16.730  20.118  1.00  0.00    -0.200 F 
ATOM     97  C   UNL     1     -12.585  17.232  18.738  1.00  0.00     0.200 A 
ATOM     98  F   UNL     1     -14.421  17.691  17.327  1.00  0.00    -0.200 F 
ATOM     99  F   UNL     1     -13.175  17.892  19.744  1.00  0.00    -0.200 F 
ENDBRANCH  66  89
ENDBRANCH  40  41
ENDBRANCH  32  35
ENDBRANCH  30  31
ENDBRANCH  29  30
ENDBRANCH  28  29
ENDBRANCH   1  28
TORSDOF 16
