REMARK SMILES CC(C)[C@@H](ON1C(=O)c2ccccc2C1=O)C(=O)NCCCCNC(=O)c1ccc(-c2c3nc(c(-c4c(F)c(F)c(F)c(F)c4F)c4ccc([nH]4)c(-c4c(F)c(F)c(F)c(F)c4F)c4nc(c(-c5c(F)c(F)c(F)c(F)c5F)c5ccc2[nH]5)C=C4)C=C3)cc1
REMARK SMILES IDX 21 1 20 2 19 3 17 4 18 5 4 7 2 8 1 9 3 10 5 11 6 12 7 13
REMARK SMILES IDX 15 14 8 15 9 16 14 17 16 18 10 19 13 20 11 21 12 22 22 23
REMARK SMILES IDX 23 24 24 25 25 26 26 28 27 29 28 30 89 31 29 32 88 33 30 34
REMARK SMILES IDX 31 35 32 36 82 37 33 38 87 39 81 40 83 41 34 42 86 43 80 44
REMARK SMILES IDX 79 45 35 47 67 48 47 49 66 50 48 51 51 52 65 53 84 54 49 55
REMARK SMILES IDX 50 56 64 58 85 59 52 60 36 61 37 62 45 63 38 64 39 65 43 66
REMARK SMILES IDX 46 67 40 68 41 69 44 70 42 71 68 72 69 73 77 74 70 75 71 76
REMARK SMILES IDX 75 77 78 78 72 79 73 80 76 81 74 82 53 83 54 84 62 85 55 86
REMARK SMILES IDX 56 87 60 88 63 89 57 90 58 91 61 92 59 93
REMARK H PARENT 19 6 24 27 83 46 51 57
REMARK Flexibility Score: inf
ROOT
ATOM      1  C   UNL     1       0.912   4.302   1.721  1.00  0.00     0.023 C 
ENDROOT
BRANCH   1   2
ATOM      2  C   UNL     1      -0.365   3.477   1.845  1.00  0.00     0.116 C 
BRANCH   2   3
ATOM      3  N   UNL     1      -1.230   3.621   0.685  1.00  0.00    -0.354 N 
ATOM      4  C   UNL     1      -1.575   2.693  -0.263  1.00  0.00     0.252 C 
ATOM      5  O   UNL     1      -2.343   3.045  -1.162  1.00  0.00    -0.272 OA
ATOM      6  H   UNL     1      -1.626   4.514   0.563  1.00  0.00     0.163 HD
BRANCH   4   7
ATOM      7  C   UNL     1      -0.962   1.282  -0.244  1.00  0.00     0.241 C 
BRANCH   7   8
ATOM      8  C   UNL     1       0.558   1.315  -0.594  1.00  0.00     0.024 C 
ATOM      9  C   UNL     1       1.097  -0.031  -1.107  1.00  0.00     0.011 C 
ATOM     10  C   UNL     1       0.903   2.341  -1.688  1.00  0.00     0.011 C 
ENDBRANCH   7   8
BRANCH   7  11
ATOM     11  O   UNL     1      -1.302   0.812   1.081  1.00  0.00    -0.249 OA
BRANCH  11  12
ATOM     12  N   UNL     1      -0.955  -0.515   1.267  1.00  0.00    -0.144 N 
ATOM     13  C   UNL     1      -1.802  -1.549   1.030  1.00  0.00     0.285 C 
ATOM     14  C   UNL     1       0.192  -0.872   1.903  1.00  0.00     0.285 C 
ATOM     15  O   UNL     1      -2.946  -1.564   0.622  1.00  0.00    -0.266 OA
ATOM     16  C   UNL     1      -1.022  -2.747   1.349  1.00  0.00     0.055 A 
ATOM     17  C   UNL     1       0.204  -2.332   1.853  1.00  0.00     0.055 A 
ATOM     18  O   UNL     1       1.077  -0.189   2.384  1.00  0.00    -0.266 OA
ATOM     19  C   UNL     1      -1.298  -4.076   1.108  1.00  0.00     0.015 A 
ATOM     20  C   UNL     1       1.236  -3.214   2.096  1.00  0.00     0.015 A 
ATOM     21  C   UNL     1      -0.268  -4.990   1.348  1.00  0.00     0.001 A 
ATOM     22  C   UNL     1       0.990  -4.562   1.825  1.00  0.00     0.001 A 
ENDBRANCH  11  12
ENDBRANCH   7  11
ENDBRANCH   4   7
ENDBRANCH   2   3
ENDBRANCH   1   2
BRANCH   1  23
ATOM     23  C   UNL     1       0.699   5.813   1.751  1.00  0.00     0.023 C 
BRANCH  23  24
ATOM     24  C   UNL     1      -0.045   6.334   2.975  1.00  0.00     0.116 C 
BRANCH  24  25
ATOM     25  N   UNL     1       0.614   6.003   4.230  1.00  0.00    -0.352 N 
ATOM     26  C   UNL     1       0.871   6.809   5.313  1.00  0.00     0.251 C 
ATOM     27  H   UNL     1       0.919   5.071   4.314  1.00  0.00     0.163 HD
ATOM     28  O   UNL     1       1.556   6.399   6.244  1.00  0.00    -0.269 OA
BRANCH  26  29
ATOM     29  C   UNL     1       0.348   8.191   5.335  1.00  0.00     0.039 A 
ATOM     30  C   UNL     1       1.208   9.230   5.700  1.00  0.00     0.014 A 
ATOM     31  C   UNL     1      -0.972   8.465   4.969  1.00  0.00     0.014 A 
ATOM     32  C   UNL     1       0.764  10.551   5.625  1.00  0.00     0.010 A 
ATOM     33  C   UNL     1      -1.386   9.785   4.816  1.00  0.00     0.010 A 
ATOM     34  C   UNL     1      -0.522  10.842   5.139  1.00  0.00    -0.014 A 
BRANCH  34  35
ATOM     35  C   UNL     1      -0.972  12.244   4.946  1.00  0.00     0.031 A 
ATOM     36  C   UNL     1      -2.140  12.780   5.725  1.00  0.00     0.074 A 
ATOM     37  C   UNL     1      -0.368  13.014   4.020  1.00  0.00     0.049 A 
ATOM     38  N   UNL     1      -2.717  13.954   5.650  1.00  0.00    -0.248 NA
ATOM     39  C   UNL     1      -2.761  11.868   6.697  1.00  0.00     0.031 C 
ATOM     40  C   UNL     1       0.744  12.594   3.165  1.00  0.00     0.029 A 
ATOM     41  N   UNL     1      -0.610  14.309   3.634  1.00  0.00    -0.354 N 
ATOM     42  C   UNL     1      -3.769  13.915   6.554  1.00  0.00     0.074 A 
ATOM     43  C   UNL     1      -3.790  12.585   7.123  1.00  0.00     0.031 C 
ATOM     44  C   UNL     1       1.103  13.617   2.375  1.00  0.00     0.029 A 
ATOM     45  C   UNL     1       0.221  14.751   2.633  1.00  0.00     0.049 A 
ATOM     46  H   UNL     1      -1.313  14.869   4.036  1.00  0.00     0.167 HD
ATOM     47  C   UNL     1      -4.626  14.907   6.897  1.00  0.00     0.037 A 
ATOM     48  C   UNL     1       0.261  15.933   1.989  1.00  0.00     0.037 A 
ATOM     49  C   UNL     1      -4.592  16.234   6.338  1.00  0.00     0.049 A 
ATOM     50  C   UNL     1      -0.716  17.011   2.374  1.00  0.00     0.074 A 
ATOM     51  C   UNL     1      -5.379  17.326   6.661  1.00  0.00     0.029 A 
ATOM     52  N   UNL     1      -3.730  16.647   5.333  1.00  0.00    -0.354 N 
ATOM     53  N   UNL     1      -1.658  16.989   3.285  1.00  0.00    -0.248 NA
ATOM     54  C   UNL     1      -0.619  18.283   1.644  1.00  0.00     0.031 C 
ATOM     55  C   UNL     1      -5.034  18.381   5.811  1.00  0.00     0.029 A 
ATOM     56  C   UNL     1      -3.986  17.969   5.003  1.00  0.00     0.049 A 
ATOM     57  H   UNL     1      -3.038  16.084   4.915  1.00  0.00     0.167 HD
ATOM     58  C   UNL     1      -2.244  18.247   3.260  1.00  0.00     0.074 A 
ATOM     59  C   UNL     1      -1.539  19.015   2.255  1.00  0.00     0.031 C 
ATOM     60  C   UNL     1      -3.273  18.724   4.003  1.00  0.00     0.037 A 
BRANCH  47  61
ATOM     61  C   UNL     1      -5.677  14.594   7.924  1.00  0.00     0.064 A 
ATOM     62  C   UNL     1      -5.348  14.350   9.267  1.00  0.00     0.173 A 
ATOM     63  C   UNL     1      -7.035  14.575   7.571  1.00  0.00     0.173 A 
ATOM     64  F   UNL     1      -4.065  14.347   9.658  1.00  0.00    -0.203 F 
ATOM     65  C   UNL     1      -6.335  14.065  10.208  1.00  0.00     0.198 A 
ATOM     66  C   UNL     1      -8.021  14.325   8.521  1.00  0.00     0.198 A 
ATOM     67  F   UNL     1      -7.408  14.809   6.303  1.00  0.00    -0.203 F 
ATOM     68  F   UNL     1      -5.990  13.781  11.471  1.00  0.00    -0.200 F 
ATOM     69  C   UNL     1      -7.670  14.061   9.836  1.00  0.00     0.200 A 
ATOM     70  F   UNL     1      -9.313  14.337   8.164  1.00  0.00    -0.200 F 
ATOM     71  F   UNL     1      -8.619  13.796  10.745  1.00  0.00    -0.200 F 
ENDBRANCH  47  61
BRANCH  48  72
ATOM     72  C   UNL     1       1.273  16.166   0.925  1.00  0.00     0.064 A 
ATOM     73  C   UNL     1       2.316  17.085   1.110  1.00  0.00     0.173 A 
ATOM     74  C   UNL     1       1.218  15.483  -0.299  1.00  0.00     0.173 A 
ATOM     75  F   UNL     1       2.401  17.778   2.256  1.00  0.00    -0.203 F 
ATOM     76  C   UNL     1       3.248  17.330   0.104  1.00  0.00     0.198 A 
ATOM     77  C   UNL     1       2.170  15.705  -1.292  1.00  0.00     0.198 A 
ATOM     78  F   UNL     1       0.244  14.589  -0.527  1.00  0.00    -0.203 F 
ATOM     79  F   UNL     1       4.204  18.252   0.290  1.00  0.00    -0.200 F 
ATOM     80  C   UNL     1       3.179  16.635  -1.093  1.00  0.00     0.200 A 
ATOM     81  F   UNL     1       2.108  15.019  -2.442  1.00  0.00    -0.200 F 
ATOM     82  F   UNL     1       4.078  16.868  -2.059  1.00  0.00    -0.200 F 
ENDBRANCH  48  72
BRANCH  60  83
ATOM     83  C   UNL     1      -3.675  20.156   3.789  1.00  0.00     0.064 A 
ATOM     84  C   UNL     1      -4.312  20.578   2.612  1.00  0.00     0.173 A 
ATOM     85  C   UNL     1      -3.453  21.112   4.793  1.00  0.00     0.173 A 
ATOM     86  F   UNL     1      -4.534  19.707   1.615  1.00  0.00    -0.203 F 
ATOM     87  C   UNL     1      -4.685  21.908   2.437  1.00  0.00     0.198 A 
ATOM     88  C   UNL     1      -3.859  22.433   4.628  1.00  0.00     0.198 A 
ATOM     89  F   UNL     1      -2.855  20.761   5.941  1.00  0.00    -0.203 F 
ATOM     90  F   UNL     1      -5.242  22.299   1.283  1.00  0.00    -0.200 F 
ATOM     91  C   UNL     1      -4.466  22.832   3.448  1.00  0.00     0.200 A 
ATOM     92  F   UNL     1      -3.663  23.320   5.613  1.00  0.00    -0.200 F 
ATOM     93  F   UNL     1      -4.834  24.110   3.281  1.00  0.00    -0.200 F 
ENDBRANCH  60  83
ENDBRANCH  34  35
ENDBRANCH  26  29
ENDBRANCH  24  25
ENDBRANCH  23  24
ENDBRANCH   1  23
TORSDOF 14
