REMARK SMILES CC(C)(C)OC(=O)[C@H](C(=O)NCCCCNC(=O)c1ccc(-c2c3nc(c(-c4c(F)c(F)c(F)c(F)c4F)c4ccc([nH]4)c(-c4c(F)c(F)c(F)c(F)c4F)c4nc(c(-c5c(F)c(F)c(F)c(F)c5F)c5ccc2[nH]5)C=C4)C=C3)cc1)[C@@H]([NH3+])c1ccc(Br)cc1
REMARK SMILES IDX 13 1 12 2 11 3 9 4 10 5 8 7 6 8 7 9 5 10 2 11 1 12 3 13 4 14
REMARK SMILES IDX 82 15 83 16 84 20 85 21 90 22 86 23 89 24 87 25 88 26 14 27
REMARK SMILES IDX 15 28 16 29 17 30 18 32 19 33 20 34 81 35 21 36 80 37 22 38
REMARK SMILES IDX 23 39 24 40 74 41 25 42 79 43 73 44 75 45 26 46 78 47 72 48
REMARK SMILES IDX 71 49 27 51 59 52 39 53 58 54 40 55 43 56 57 57 76 58 41 59
REMARK SMILES IDX 42 60 56 62 77 63 44 64 28 65 29 66 37 67 30 68 31 69 35 70
REMARK SMILES IDX 38 71 32 72 33 73 36 74 34 75 60 76 61 77 69 78 62 79 63 80
REMARK SMILES IDX 67 81 70 82 64 83 65 84 68 85 66 86 45 87 46 88 54 89 47 90
REMARK SMILES IDX 48 91 52 92 55 93 49 94 50 95 53 96 51 97
REMARK H PARENT 11 6 83 17 83 18 83 19 16 31 75 50 43 61
REMARK Flexibility Score: inf
ROOT
ATOM      1  C   UNL     1       2.551  -0.602   0.434  1.00  0.00     0.023 C 
ENDROOT
BRANCH   1   2
ATOM      2  C   UNL     1       2.480  -1.239   1.819  1.00  0.00     0.116 C 
BRANCH   2   3
ATOM      3  N   UNL     1       1.127  -1.532   2.260  1.00  0.00    -0.355 N 
ATOM      4  C   UNL     1       0.486  -2.614   2.771  1.00  0.00     0.240 C 
ATOM      5  O   UNL     1      -0.701  -2.404   3.059  1.00  0.00    -0.274 OA
ATOM      6  H   UNL     1       0.528  -0.756   2.166  1.00  0.00     0.163 HD
BRANCH   4   7
ATOM      7  C   UNL     1       1.052  -4.027   2.955  1.00  0.00     0.250 C 
BRANCH   7   8
ATOM      8  C   UNL     1       0.461  -4.887   1.859  1.00  0.00     0.325 C 
ATOM      9  O   UNL     1      -0.332  -5.795   2.074  1.00  0.00    -0.251 OA
BRANCH   8  10
ATOM     10  O   UNL     1       0.941  -4.553   0.629  1.00  0.00    -0.459 OA
BRANCH  10  11
ATOM     11  C   UNL     1       0.537  -5.315  -0.548  1.00  0.00     0.104 C 
ATOM     12  C   UNL     1       1.169  -4.573  -1.735  1.00  0.00     0.056 C 
ATOM     13  C   UNL     1      -0.985  -5.337  -0.748  1.00  0.00     0.056 C 
ATOM     14  C   UNL     1       1.111  -6.736  -0.504  1.00  0.00     0.056 C 
ENDBRANCH  10  11
ENDBRANCH   8  10
ENDBRANCH   7   8
BRANCH   7  15
ATOM     15  C   UNL     1       2.572  -4.231   3.182  1.00  0.00     0.236 C 
BRANCH  15  16
ATOM     16  N   UNL     1       3.052  -3.260   4.196  1.00  0.00    -0.350 N 
ATOM     17  H   UNL     1       2.622  -3.469   5.097  1.00  0.00     0.345 HD
ATOM     18  H   UNL     1       2.797  -2.315   3.909  1.00  0.00     0.345 HD
ATOM     19  H   UNL     1       4.066  -3.328   4.279  1.00  0.00     0.345 HD
ENDBRANCH  15  16
BRANCH  15  20
ATOM     20  C   UNL     1       3.081  -5.644   3.570  1.00  0.00     0.011 A 
ATOM     21  C   UNL     1       2.631  -6.812   2.933  1.00  0.00     0.011 A 
ATOM     22  C   UNL     1       4.128  -5.817   4.503  1.00  0.00     0.011 A 
ATOM     23  C   UNL     1       3.158  -8.077   3.226  1.00  0.00     0.016 A 
ATOM     24  C   UNL     1       4.670  -7.077   4.794  1.00  0.00     0.016 A 
ATOM     25  C   UNL     1       4.178  -8.204   4.155  1.00  0.00     0.018 A 
ATOM     26  Br  UNL     1       4.905  -9.905   4.533  1.00  0.00    -0.051 Br
ENDBRANCH  15  20
ENDBRANCH   7  15
ENDBRANCH   4   7
ENDBRANCH   2   3
ENDBRANCH   1   2
BRANCH   1  27
ATOM     27  C   UNL     1       1.762   0.693   0.247  1.00  0.00     0.023 C 
BRANCH  27  28
ATOM     28  C   UNL     1       2.061   1.808   1.244  1.00  0.00     0.116 C 
BRANCH  28  29
ATOM     29  N   UNL     1       3.424   2.311   1.162  1.00  0.00    -0.352 N 
ATOM     30  C   UNL     1       3.867   3.602   0.980  1.00  0.00     0.251 C 
ATOM     31  H   UNL     1       4.131   1.631   1.248  1.00  0.00     0.163 HD
ATOM     32  O   UNL     1       5.063   3.832   0.829  1.00  0.00    -0.269 OA
BRANCH  30  33
ATOM     33  C   UNL     1       2.892   4.712   0.928  1.00  0.00     0.039 A 
ATOM     34  C   UNL     1       2.947   5.615  -0.139  1.00  0.00     0.014 A 
ATOM     35  C   UNL     1       1.902   4.836   1.904  1.00  0.00     0.014 A 
ATOM     36  C   UNL     1       1.946   6.580  -0.282  1.00  0.00     0.010 A 
ATOM     37  C   UNL     1       0.869   5.750   1.722  1.00  0.00     0.010 A 
ATOM     38  C   UNL     1       0.871   6.619   0.619  1.00  0.00    -0.014 A 
BRANCH  38  39
ATOM     39  C   UNL     1      -0.285   7.533   0.430  1.00  0.00     0.031 A 
ATOM     40  C   UNL     1      -0.593   8.573   1.468  1.00  0.00     0.074 A 
ATOM     41  C   UNL     1      -1.133   7.337  -0.597  1.00  0.00     0.049 A 
ATOM     42  N   UNL     1      -1.655   9.325   1.601  1.00  0.00    -0.248 NA
ATOM     43  C   UNL     1       0.415   8.761   2.521  1.00  0.00     0.031 C 
ATOM     44  C   UNL     1      -0.973   6.329  -1.646  1.00  0.00     0.029 A 
ATOM     45  N   UNL     1      -2.323   7.951  -0.905  1.00  0.00    -0.354 N 
ATOM     46  C   UNL     1      -1.461  10.046   2.771  1.00  0.00     0.074 A 
ATOM     47  C   UNL     1      -0.196   9.616   3.327  1.00  0.00     0.031 C 
ATOM     48  C   UNL     1      -2.026   6.388  -2.476  1.00  0.00     0.029 A 
ATOM     49  C   UNL     1      -2.956   7.404  -1.994  1.00  0.00     0.049 A 
ATOM     50  H   UNL     1      -2.686   8.710  -0.395  1.00  0.00     0.167 HD
ATOM     51  C   UNL     1      -2.262  10.988   3.324  1.00  0.00     0.037 A 
ATOM     52  C   UNL     1      -4.164   7.670  -2.529  1.00  0.00     0.037 A 
ATOM     53  C   UNL     1      -3.501  11.439   2.747  1.00  0.00     0.049 A 
ATOM     54  C   UNL     1      -5.027   8.737  -1.913  1.00  0.00     0.074 A 
ATOM     55  C   UNL     1      -4.340  12.449   3.184  1.00  0.00     0.029 A 
ATOM     56  N   UNL     1      -4.081  10.902   1.607  1.00  0.00    -0.354 N 
ATOM     57  N   UNL     1      -4.805   9.460  -0.843  1.00  0.00    -0.248 NA
ATOM     58  C   UNL     1      -6.304   9.027  -2.580  1.00  0.00     0.031 C 
ATOM     59  C   UNL     1      -5.449  12.495   2.333  1.00  0.00     0.029 A 
ATOM     60  C   UNL     1      -5.278  11.546   1.337  1.00  0.00     0.049 A 
ATOM     61  H   UNL     1      -3.698  10.172   1.068  1.00  0.00     0.167 HD
ATOM     62  C   UNL     1      -5.899  10.307  -0.721  1.00  0.00     0.074 A 
ATOM     63  C   UNL     1      -6.782  10.011  -1.830  1.00  0.00     0.031 C 
ATOM     64  C   UNL     1      -6.144  11.246   0.225  1.00  0.00     0.037 A 
BRANCH  51  65
ATOM     65  C   UNL     1      -1.823  11.583   4.631  1.00  0.00     0.064 A 
ATOM     66  C   UNL     1      -0.708  12.430   4.721  1.00  0.00     0.173 A 
ATOM     67  C   UNL     1      -2.531  11.304   5.810  1.00  0.00     0.173 A 
ATOM     68  F   UNL     1       0.010  12.719   3.626  1.00  0.00    -0.203 F 
ATOM     69  C   UNL     1      -0.293  12.940   5.949  1.00  0.00     0.198 A 
ATOM     70  C   UNL     1      -2.133  11.842   7.030  1.00  0.00     0.198 A 
ATOM     71  F   UNL     1      -3.609  10.505   5.779  1.00  0.00    -0.203 F 
ATOM     72  F   UNL     1       0.812  13.695   6.019  1.00  0.00    -0.200 F 
ATOM     73  C   UNL     1      -1.008  12.649   7.101  1.00  0.00     0.200 A 
ATOM     74  F   UNL     1      -2.831  11.569   8.141  1.00  0.00    -0.200 F 
ATOM     75  F   UNL     1      -0.605  13.138   8.282  1.00  0.00    -0.200 F 
ENDBRANCH  51  65
BRANCH  52  76
ATOM     76  C   UNL     1      -4.616   6.910  -3.722  1.00  0.00     0.064 A 
ATOM     77  C   UNL     1      -4.646   7.511  -4.987  1.00  0.00     0.173 A 
ATOM     78  C   UNL     1      -4.986   5.561  -3.628  1.00  0.00     0.173 A 
ATOM     79  F   UNL     1      -4.318   8.804  -5.122  1.00  0.00    -0.203 F 
ATOM     80  C   UNL     1      -5.034   6.791  -6.115  1.00  0.00     0.198 A 
ATOM     81  C   UNL     1      -5.351   4.835  -4.760  1.00  0.00     0.198 A 
ATOM     82  F   UNL     1      -4.966   4.940  -2.439  1.00  0.00    -0.203 F 
ATOM     83  F   UNL     1      -5.077   7.395  -7.310  1.00  0.00    -0.200 F 
ATOM     84  C   UNL     1      -5.378   5.452  -6.002  1.00  0.00     0.200 A 
ATOM     85  F   UNL     1      -5.667   3.538  -4.649  1.00  0.00    -0.200 F 
ATOM     86  F   UNL     1      -5.735   4.756  -7.090  1.00  0.00    -0.200 F 
ENDBRANCH  52  76
BRANCH  64  87
ATOM     87  C   UNL     1      -7.400  12.055   0.088  1.00  0.00     0.064 A 
ATOM     88  C   UNL     1      -8.658  11.516   0.391  1.00  0.00     0.173 A 
ATOM     89  C   UNL     1      -7.334  13.406  -0.285  1.00  0.00     0.173 A 
ATOM     90  F   UNL     1      -8.774  10.225   0.738  1.00  0.00    -0.203 F 
ATOM     91  C   UNL     1      -9.807  12.299   0.315  1.00  0.00     0.198 A 
ATOM     92  C   UNL     1      -8.481  14.192  -0.337  1.00  0.00     0.198 A 
ATOM     93  F   UNL     1      -6.152  13.968  -0.581  1.00  0.00    -0.203 F 
ATOM     94  F   UNL     1     -11.004  11.757   0.580  1.00  0.00    -0.200 F 
ATOM     95  C   UNL     1      -9.717  13.637  -0.039  1.00  0.00     0.200 A 
ATOM     96  F   UNL     1      -8.390  15.487  -0.668  1.00  0.00    -0.200 F 
ATOM     97  F   UNL     1     -10.822  14.393  -0.098  1.00  0.00    -0.200 F 
ENDBRANCH  64  87
ENDBRANCH  38  39
ENDBRANCH  30  33
ENDBRANCH  28  29
ENDBRANCH  27  28
ENDBRANCH   1  27
TORSDOF 17
