REMARK SMILES O=C(CC1(CSC[C@@H]2COc3ccccc32)CC1)NCCCCNC(=O)c1ccc(-c2c3nc(c(-c4c(F)c(F)c(F)c(F)c4F)c4ccc([nH]4)c(-c4c(F)c(F)c(F)c(F)c4F)c4nc(c(-c5c(F)c(F)c(F)c(F)c5F)c5ccc2[nH]5)C=C4)C=C3)cc1
REMARK SMILES IDX 20 1 19 2 1 3 2 4 3 6 4 7 17 8 18 9 5 10 6 11 7 12 8 13 9 14
REMARK SMILES IDX 16 15 10 16 11 17 15 18 12 19 14 20 13 21 21 22 22 23 23 24
REMARK SMILES IDX 24 25 25 26 26 28 27 29 28 30 89 31 29 32 88 33 30 34 31 35
REMARK SMILES IDX 32 36 82 37 33 38 87 39 81 40 83 41 34 42 86 43 80 44 79 45
REMARK SMILES IDX 35 47 67 48 47 49 66 50 48 51 51 52 65 53 84 54 49 55 50 56
REMARK SMILES IDX 64 58 85 59 52 60 36 61 37 62 45 63 38 64 39 65 43 66 46 67
REMARK SMILES IDX 40 68 41 69 44 70 42 71 68 72 69 73 77 74 70 75 71 76 75 77
REMARK SMILES IDX 78 78 72 79 73 80 76 81 74 82 53 83 54 84 62 85 55 86 56 87
REMARK SMILES IDX 60 88 63 89 57 90 58 91 61 92 59 93
REMARK H PARENT 19 5 24 27 83 46 51 57
REMARK Flexibility Score: inf
ROOT
ATOM      1  C   UNL     1      10.259   6.064  -1.089  1.00  0.00     0.116 C 
ENDROOT
BRANCH   1   2
ATOM      2  N   UNL     1       9.816   5.248   0.020  1.00  0.00    -0.356 N 
ATOM      3  O   UNL     1       9.165   6.987   1.375  1.00  0.00    -0.275 OA
ATOM      4  C   UNL     1       9.314   5.785   1.185  1.00  0.00     0.220 C 
ATOM      5  H   UNL     1       9.876   4.269  -0.061  1.00  0.00     0.163 HD
BRANCH   4   6
ATOM      6  C   UNL     1       8.967   4.740   2.227  1.00  0.00     0.107 C 
BRANCH   6   7
ATOM      7  C   UNL     1       7.580   4.104   2.119  1.00  0.00    -0.012 C 
ATOM      8  C   UNL     1       6.783   4.224   0.821  1.00  0.00     0.009 C 
ATOM      9  C   UNL     1       7.412   2.916   1.176  1.00  0.00     0.009 C 
BRANCH   7  10
ATOM     10  C   UNL     1       6.769   4.133   3.400  1.00  0.00     0.077 C 
BRANCH  10  11
ATOM     11  S   UNL     1       7.615   3.393   4.828  1.00  0.00    -0.161 SA
BRANCH  11  12
ATOM     12  C   UNL     1       7.706   1.637   4.338  1.00  0.00     0.081 C 
BRANCH  12  13
ATOM     13  C   UNL     1       6.352   0.936   4.336  1.00  0.00     0.071 C 
ATOM     14  C   UNL     1       5.709   0.839   5.730  1.00  0.00     0.238 C 
ATOM     15  C   UNL     1       6.393  -0.517   4.010  1.00  0.00     0.001 A 
ATOM     16  O   UNL     1       4.943  -0.387   5.805  1.00  0.00    -0.493 OA
ATOM     17  C   UNL     1       5.541  -1.193   4.872  1.00  0.00     0.122 A 
ATOM     18  C   UNL     1       7.047  -1.192   2.992  1.00  0.00     0.008 A 
ATOM     19  C   UNL     1       5.313  -2.549   4.765  1.00  0.00     0.047 A 
ATOM     20  C   UNL     1       6.840  -2.570   2.873  1.00  0.00     0.001 A 
ATOM     21  C   UNL     1       5.978  -3.245   3.754  1.00  0.00     0.004 A 
ENDBRANCH  12  13
ENDBRANCH  11  12
ENDBRANCH  10  11
ENDBRANCH   7  10
ENDBRANCH   6   7
ENDBRANCH   4   6
ENDBRANCH   1   2
BRANCH   1  22
ATOM     22  C   UNL     1      11.559   5.531  -1.689  1.00  0.00     0.023 C 
BRANCH  22  23
ATOM     23  C   UNL     1      11.485   4.097  -2.225  1.00  0.00     0.023 C 
BRANCH  23  24
ATOM     24  C   UNL     1      10.417   3.852  -3.285  1.00  0.00     0.116 C 
BRANCH  24  25
ATOM     25  N   UNL     1      10.649   4.618  -4.498  1.00  0.00    -0.352 N 
ATOM     26  C   UNL     1      10.763   4.190  -5.797  1.00  0.00     0.251 C 
ATOM     27  H   UNL     1      10.738   5.590  -4.369  1.00  0.00     0.163 HD
ATOM     28  O   UNL     1      11.130   4.973  -6.672  1.00  0.00    -0.269 OA
BRANCH  26  29
ATOM     29  C   UNL     1      10.473   2.784  -6.152  1.00  0.00     0.039 A 
ATOM     30  C   UNL     1      11.339   2.117  -7.024  1.00  0.00     0.014 A 
ATOM     31  C   UNL     1       9.348   2.125  -5.647  1.00  0.00     0.014 A 
ATOM     32  C   UNL     1      11.116   0.773  -7.333  1.00  0.00     0.010 A 
ATOM     33  C   UNL     1       9.169   0.765  -5.897  1.00  0.00     0.010 A 
ATOM     34  C   UNL     1      10.051   0.074  -6.742  1.00  0.00    -0.014 A 
BRANCH  34  35
ATOM     35  C   UNL     1       9.852  -1.378  -6.989  1.00  0.00     0.031 A 
ATOM     36  C   UNL     1       8.610  -1.870  -7.680  1.00  0.00     0.074 A 
ATOM     37  C   UNL     1      10.761  -2.262  -6.533  1.00  0.00     0.049 A 
ATOM     38  N   UNL     1       8.228  -3.099  -7.922  1.00  0.00    -0.248 NA
ATOM     39  C   UNL     1       7.659  -0.846  -8.138  1.00  0.00     0.031 C 
ATOM     40  C   UNL     1      11.987  -1.917  -5.812  1.00  0.00     0.029 A 
ATOM     41  N   UNL     1      10.791  -3.633  -6.599  1.00  0.00    -0.354 N 
ATOM     42  C   UNL     1       6.991  -2.996  -8.544  1.00  0.00     0.074 A 
ATOM     43  C   UNL     1       6.661  -1.588  -8.596  1.00  0.00     0.031 C 
ATOM     44  C   UNL     1      12.660  -3.042  -5.523  1.00  0.00     0.029 A 
ATOM     45  C   UNL     1      11.896  -4.190  -6.000  1.00  0.00     0.049 A 
ATOM     46  H   UNL     1      10.088  -4.167  -7.035  1.00  0.00     0.167 HD
ATOM     47  C   UNL     1       6.211  -3.983  -9.046  1.00  0.00     0.037 A 
ATOM     48  C   UNL     1      12.248  -5.481  -5.845  1.00  0.00     0.037 A 
ATOM     49  C   UNL     1       6.552  -5.382  -9.015  1.00  0.00     0.049 A 
ATOM     50  C   UNL     1      11.354  -6.559  -6.397  1.00  0.00     0.074 A 
ATOM     51  C   UNL     1       5.858  -6.452  -9.553  1.00  0.00     0.029 A 
ATOM     52  N   UNL     1       7.683  -5.907  -8.407  1.00  0.00    -0.354 N 
ATOM     53  N   UNL     1      10.221  -6.444  -7.045  1.00  0.00    -0.248 NA
ATOM     54  C   UNL     1      11.793  -7.948  -6.200  1.00  0.00     0.031 C 
ATOM     55  C   UNL     1       6.539  -7.628  -9.223  1.00  0.00     0.029 A 
ATOM     56  C   UNL     1       7.690  -7.287  -8.531  1.00  0.00     0.049 A 
ATOM     57  H   UNL     1       8.378  -5.377  -7.953  1.00  0.00     0.167 HD
ATOM     58  C   UNL     1       9.829  -7.739  -7.361  1.00  0.00     0.074 A 
ATOM     59  C   UNL     1      10.853  -8.622  -6.845  1.00  0.00     0.031 C 
ATOM     60  C   UNL     1       8.720  -8.156  -8.021  1.00  0.00     0.037 A 
BRANCH  47  61
ATOM     61  C   UNL     1       4.904  -3.588  -9.674  1.00  0.00     0.064 A 
ATOM     62  C   UNL     1       4.850  -2.887 -10.888  1.00  0.00     0.173 A 
ATOM     63  C   UNL     1       3.688  -3.952  -9.075  1.00  0.00     0.173 A 
ATOM     64  F   UNL     1       5.983  -2.506 -11.498  1.00  0.00    -0.203 F 
ATOM     65  C   UNL     1       3.630  -2.538 -11.462  1.00  0.00     0.198 A 
ATOM     66  C   UNL     1       2.470  -3.631  -9.668  1.00  0.00     0.198 A 
ATOM     67  F   UNL     1       3.681  -4.630  -7.917  1.00  0.00    -0.203 F 
ATOM     68  F   UNL     1       3.605  -1.823 -12.595  1.00  0.00    -0.200 F 
ATOM     69  C   UNL     1       2.442  -2.917 -10.856  1.00  0.00     0.200 A 
ATOM     70  F   UNL     1       1.323  -4.011  -9.089  1.00  0.00    -0.200 F 
ATOM     71  F   UNL     1       1.269  -2.588 -11.414  1.00  0.00    -0.200 F 
ENDBRANCH  47  61
BRANCH  48  72
ATOM     72  C   UNL     1      13.517  -5.828  -5.152  1.00  0.00     0.064 A 
ATOM     73  C   UNL     1      14.588  -6.395  -5.856  1.00  0.00     0.173 A 
ATOM     74  C   UNL     1      13.682  -5.613  -3.776  1.00  0.00     0.173 A 
ATOM     75  F   UNL     1      14.471  -6.640  -7.170  1.00  0.00    -0.203 F 
ATOM     76  C   UNL     1      15.767  -6.755  -5.207  1.00  0.00     0.198 A 
ATOM     77  C   UNL     1      14.873  -5.945  -3.134  1.00  0.00     0.198 A 
ATOM     78  F   UNL     1      12.689  -5.069  -3.057  1.00  0.00    -0.203 F 
ATOM     79  F   UNL     1      16.756  -7.342  -5.895  1.00  0.00    -0.200 F 
ATOM     80  C   UNL     1      15.911  -6.524  -3.847  1.00  0.00     0.200 A 
ATOM     81  F   UNL     1      15.012  -5.706  -1.822  1.00  0.00    -0.200 F 
ATOM     82  F   UNL     1      17.045  -6.868  -3.223  1.00  0.00    -0.200 F 
ENDBRANCH  48  72
BRANCH  60  83
ATOM     83  C   UNL     1       8.574  -9.632  -8.259  1.00  0.00     0.064 A 
ATOM     84  C   UNL     1       8.292 -10.525  -7.215  1.00  0.00     0.173 A 
ATOM     85  C   UNL     1       8.679 -10.154  -9.558  1.00  0.00     0.173 A 
ATOM     86  F   UNL     1       8.197 -10.080  -5.952  1.00  0.00    -0.203 F 
ATOM     87  C   UNL     1       8.149 -11.889  -7.458  1.00  0.00     0.198 A 
ATOM     88  C   UNL     1       8.502 -11.513  -9.802  1.00  0.00     0.198 A 
ATOM     89  F   UNL     1       8.940  -9.342 -10.594  1.00  0.00    -0.203 F 
ATOM     90  F   UNL     1       7.931 -12.730  -6.438  1.00  0.00    -0.200 F 
ATOM     91  C   UNL     1       8.245 -12.380  -8.751  1.00  0.00     0.200 A 
ATOM     92  F   UNL     1       8.580 -11.983 -11.055  1.00  0.00    -0.200 F 
ATOM     93  F   UNL     1       8.098 -13.692  -8.984  1.00  0.00    -0.200 F 
ENDBRANCH  60  83
ENDBRANCH  34  35
ENDBRANCH  26  29
ENDBRANCH  24  25
ENDBRANCH  23  24
ENDBRANCH  22  23
ENDBRANCH   1  22
TORSDOF 16
