REMARK SMILES CC[C@@H](C(=O)NCCCCNC(=O)c1ccc(-c2c3nc(c(-c4c(F)c(F)c(F)c(F)c4F)c4ccc([nH]4)c(-c4c(F)c(F)c(F)c(F)c4F)c4nc(c(-c5c(F)c(F)c(F)c(F)c5F)c5ccc2[nH]5)C=C4)C=C3)cc1)N1C(=O)/C(=C\c2ccc(C(=O)OC)cc2)SC1=S
REMARK SMILES IDX 7 1 6 2 4 3 5 4 3 6 2 7 1 8 77 9 78 10 93 11 79 12 80 13
REMARK SMILES IDX 92 14 94 15 81 16 82 17 83 18 91 19 84 20 90 21 85 22 86 23
REMARK SMILES IDX 87 24 88 25 89 26 8 27 9 28 10 29 11 30 12 31 13 33 14 34
REMARK SMILES IDX 15 35 76 36 16 37 75 38 17 39 18 40 19 41 69 42 20 43 74 44
REMARK SMILES IDX 68 45 70 46 21 47 73 48 67 49 66 50 22 52 54 53 34 54 53 55
REMARK SMILES IDX 35 56 38 57 52 58 71 59 36 60 37 61 51 63 72 64 39 65 23 66
REMARK SMILES IDX 24 67 32 68 25 69 26 70 30 71 33 72 27 73 28 74 31 75 29 76
REMARK SMILES IDX 55 77 56 78 64 79 57 80 58 81 62 82 65 83 59 84 60 85 63 86
REMARK SMILES IDX 61 87 40 88 41 89 49 90 42 91 43 92 47 93 50 94 44 95 45 96
REMARK SMILES IDX 48 97 46 98
REMARK H PARENT 6 5 11 32 70 51 38 62
REMARK Flexibility Score: inf
ROOT
ATOM      1  C   UNL     1       1.647   2.279  -0.135  1.00  0.00     0.116 C 
ENDROOT
BRANCH   1   2
ATOM      2  N   UNL     1       0.563   2.631   0.762  1.00  0.00    -0.354 N 
ATOM      3  C   UNL     1      -0.057   1.863   1.707  1.00  0.00     0.243 C 
ATOM      4  O   UNL     1      -1.195   2.186   2.057  1.00  0.00    -0.273 OA
ATOM      5  H   UNL     1       0.226   3.552   0.677  1.00  0.00     0.163 HD
BRANCH   3   6
ATOM      6  C   UNL     1       0.658   0.633   2.303  1.00  0.00     0.181 C 
BRANCH   6   7
ATOM      7  C   UNL     1       0.023  -0.616   1.603  1.00  0.00     0.032 C 
ATOM      8  C   UNL     1       0.536  -0.949   0.216  1.00  0.00     0.006 C 
ENDBRANCH   6   7
BRANCH   6   9
ATOM      9  N   UNL     1       0.437   0.524   3.777  1.00  0.00    -0.280 N 
ATOM     10  C   UNL     1       0.841  -0.656   4.369  1.00  0.00     0.266 C 
ATOM     11  C   UNL     1       0.327   1.521   4.718  1.00  0.00     0.149 C 
ATOM     12  O   UNL     1       1.667  -1.419   3.885  1.00  0.00    -0.268 OA
ATOM     13  C   UNL     1       0.274  -0.779   5.736  1.00  0.00     0.081 C 
ATOM     14  S   UNL     1      -0.170   0.797   6.263  1.00  0.00    -0.054 SA
ATOM     15  S   UNL     1       0.663   3.151   4.596  1.00  0.00    -0.052 S 
ATOM     16  C   UNL     1       0.092  -1.909   6.439  1.00  0.00     0.029 C 
BRANCH  16  17
ATOM     17  C   UNL     1       0.466  -3.249   5.965  1.00  0.00    -0.024 A 
ATOM     18  C   UNL     1      -0.512  -4.223   5.733  1.00  0.00     0.009 A 
ATOM     19  C   UNL     1       1.806  -3.560   5.707  1.00  0.00     0.009 A 
ATOM     20  C   UNL     1      -0.157  -5.461   5.180  1.00  0.00     0.016 A 
ATOM     21  C   UNL     1       2.160  -4.781   5.128  1.00  0.00     0.016 A 
ATOM     22  C   UNL     1       1.177  -5.733   4.845  1.00  0.00     0.060 A 
BRANCH  22  23
ATOM     23  C   UNL     1       1.500  -7.025   4.176  1.00  0.00     0.337 C 
ATOM     24  O   UNL     1       0.704  -7.934   4.037  1.00  0.00    -0.246 OA
BRANCH  23  25
ATOM     25  O   UNL     1       2.783  -7.010   3.726  1.00  0.00    -0.465 OA
ATOM     26  C   UNL     1       3.176  -8.190   3.027  1.00  0.00     0.282 C 
ENDBRANCH  23  25
ENDBRANCH  22  23
ENDBRANCH  16  17
ENDBRANCH   6   9
ENDBRANCH   3   6
ENDBRANCH   1   2
BRANCH   1  27
ATOM     27  C   UNL     1       1.084   1.928  -1.515  1.00  0.00     0.023 C 
BRANCH  27  28
ATOM     28  C   UNL     1       0.669   3.128  -2.357  1.00  0.00     0.023 C 
BRANCH  28  29
ATOM     29  C   UNL     1       1.822   4.014  -2.791  1.00  0.00     0.116 C 
BRANCH  29  30
ATOM     30  N   UNL     1       2.794   3.313  -3.621  1.00  0.00    -0.352 N 
ATOM     31  C   UNL     1       3.281   3.654  -4.860  1.00  0.00     0.251 C 
ATOM     32  H   UNL     1       3.151   2.478  -3.240  1.00  0.00     0.163 HD
ATOM     33  O   UNL     1       3.989   2.876  -5.489  1.00  0.00    -0.269 OA
BRANCH  31  34
ATOM     34  C   UNL     1       2.905   4.957  -5.443  1.00  0.00     0.039 A 
ATOM     35  C   UNL     1       2.437   5.002  -6.757  1.00  0.00     0.014 A 
ATOM     36  C   UNL     1       2.942   6.115  -4.663  1.00  0.00     0.014 A 
ATOM     37  C   UNL     1       1.912   6.194  -7.256  1.00  0.00     0.010 A 
ATOM     38  C   UNL     1       2.327   7.271  -5.125  1.00  0.00     0.010 A 
ATOM     39  C   UNL     1       1.800   7.320  -6.424  1.00  0.00    -0.014 A 
BRANCH  39  40
ATOM     40  C   UNL     1       1.112   8.553  -6.880  1.00  0.00     0.031 A 
ATOM     41  C   UNL     1       1.865   9.851  -6.953  1.00  0.00     0.074 A 
ATOM     42  C   UNL     1      -0.208   8.516  -7.147  1.00  0.00     0.049 A 
ATOM     43  N   UNL     1       1.424  11.048  -7.248  1.00  0.00    -0.248 NA
ATOM     44  C   UNL     1       3.297   9.806  -6.616  1.00  0.00     0.031 C 
ATOM     45  C   UNL     1      -1.059   7.328  -7.052  1.00  0.00     0.029 A 
ATOM     46  N   UNL     1      -1.071   9.508  -7.542  1.00  0.00    -0.354 N 
ATOM     47  C   UNL     1       2.518  11.893  -7.122  1.00  0.00     0.074 A 
ATOM     48  C   UNL     1       3.627  11.087  -6.661  1.00  0.00     0.031 C 
ATOM     49  C   UNL     1      -2.312   7.653  -7.406  1.00  0.00     0.029 A 
ATOM     50  C   UNL     1      -2.365   9.079  -7.709  1.00  0.00     0.049 A 
ATOM     51  H   UNL     1      -0.788  10.440  -7.691  1.00  0.00     0.167 HD
ATOM     52  C   UNL     1       2.596  13.217  -7.392  1.00  0.00     0.037 A 
ATOM     53  C   UNL     1      -3.472   9.763  -8.057  1.00  0.00     0.037 A 
ATOM     54  C   UNL     1       1.493  14.008  -7.870  1.00  0.00     0.049 A 
ATOM     55  C   UNL     1      -3.360  11.237  -8.337  1.00  0.00     0.074 A 
ATOM     56  C   UNL     1       1.484  15.341  -8.241  1.00  0.00     0.029 A 
ATOM     57  N   UNL     1       0.198  13.537  -8.037  1.00  0.00    -0.354 N 
ATOM     58  N   UNL     1      -2.302  12.010  -8.295  1.00  0.00    -0.248 NA
ATOM     59  C   UNL     1      -4.597  11.933  -8.716  1.00  0.00     0.031 C 
ATOM     60  C   UNL     1       0.173  15.691  -8.579  1.00  0.00     0.029 A 
ATOM     61  C   UNL     1      -0.625  14.562  -8.475  1.00  0.00     0.049 A 
ATOM     62  H   UNL     1      -0.092  12.611  -7.870  1.00  0.00     0.167 HD
ATOM     63  C   UNL     1      -2.739  13.276  -8.661  1.00  0.00     0.074 A 
ATOM     64  C   UNL     1      -4.155  13.162  -8.945  1.00  0.00     0.031 C 
ATOM     65  C   UNL     1      -2.033  14.430  -8.749  1.00  0.00     0.037 A 
BRANCH  52  66
ATOM     66  C   UNL     1       3.920  13.893  -7.181  1.00  0.00     0.064 A 
ATOM     67  C   UNL     1       5.027  13.617  -7.998  1.00  0.00     0.173 A 
ATOM     68  C   UNL     1       4.077  14.854  -6.171  1.00  0.00     0.173 A 
ATOM     69  F   UNL     1       4.936  12.697  -8.971  1.00  0.00    -0.203 F 
ATOM     70  C   UNL     1       6.248  14.254  -7.793  1.00  0.00     0.198 A 
ATOM     71  C   UNL     1       5.290  15.514  -5.990  1.00  0.00     0.198 A 
ATOM     72  F   UNL     1       3.051  15.159  -5.362  1.00  0.00    -0.203 F 
ATOM     73  F   UNL     1       7.305  13.935  -8.553  1.00  0.00    -0.200 F 
ATOM     74  C   UNL     1       6.376  15.208  -6.795  1.00  0.00     0.200 A 
ATOM     75  F   UNL     1       5.408  16.445  -5.033  1.00  0.00    -0.200 F 
ATOM     76  F   UNL     1       7.549  15.827  -6.605  1.00  0.00    -0.200 F 
ENDBRANCH  52  66
BRANCH  53  77
ATOM     77  C   UNL     1      -4.777   9.059  -8.175  1.00  0.00     0.064 A 
ATOM     78  C   UNL     1      -5.394   8.892  -9.423  1.00  0.00     0.173 A 
ATOM     79  C   UNL     1      -5.436   8.544  -7.049  1.00  0.00     0.173 A 
ATOM     80  F   UNL     1      -4.814   9.384 -10.527  1.00  0.00    -0.203 F 
ATOM     81  C   UNL     1      -6.630   8.258  -9.537  1.00  0.00     0.198 A 
ATOM     82  C   UNL     1      -6.656   7.883  -7.168  1.00  0.00     0.198 A 
ATOM     83  F   UNL     1      -4.886   8.672  -5.832  1.00  0.00    -0.203 F 
ATOM     84  F   UNL     1      -7.219   8.155 -10.736  1.00  0.00    -0.200 F 
ATOM     85  C   UNL     1      -7.257   7.748  -8.410  1.00  0.00     0.200 A 
ATOM     86  F   UNL     1      -7.251   7.378  -6.078  1.00  0.00    -0.200 F 
ATOM     87  F   UNL     1      -8.443   7.134  -8.520  1.00  0.00    -0.200 F 
ENDBRANCH  53  77
BRANCH  65  88
ATOM     88  C   UNL     1      -2.779  15.657  -9.188  1.00  0.00     0.064 A 
ATOM     89  C   UNL     1      -3.717  16.284  -8.355  1.00  0.00     0.173 A 
ATOM     90  C   UNL     1      -2.523  16.234 -10.441  1.00  0.00     0.173 A 
ATOM     91  F   UNL     1      -4.008  15.763  -7.154  1.00  0.00    -0.203 F 
ATOM     92  C   UNL     1      -4.392  17.428  -8.772  1.00  0.00     0.198 A 
ATOM     93  C   UNL     1      -3.176  17.397 -10.841  1.00  0.00     0.198 A 
ATOM     94  F   UNL     1      -1.630  15.678 -11.273  1.00  0.00    -0.203 F 
ATOM     95  F   UNL     1      -5.322  17.980  -7.981  1.00  0.00    -0.200 F 
ATOM     96  C   UNL     1      -4.115  17.988 -10.010  1.00  0.00     0.200 A 
ATOM     97  F   UNL     1      -2.895  17.945 -12.031  1.00  0.00    -0.200 F 
ATOM     98  F   UNL     1      -4.760  19.094 -10.406  1.00  0.00    -0.200 F 
ENDBRANCH  65  88
ENDBRANCH  39  40
ENDBRANCH  31  34
ENDBRANCH  29  30
ENDBRANCH  28  29
ENDBRANCH  27  28
ENDBRANCH   1  27
TORSDOF 16
