REMARK SMILES C/C(=C/C[NH+]1C[C@@H](C)[C@H](C)C1)C(=O)NCCCCNC(=O)c1ccc(-c2c3nc(c(-c4c(F)c(F)c(F)c(F)c4F)c4ccc([nH]4)c(-c4c(F)c(F)c(F)c(F)c4F)c4nc(c(-c5c(F)c(F)c(F)c(F)c5F)c5ccc2[nH]5)C=C4)C=C3)cc1
REMARK SMILES IDX 16 1 15 2 14 3 12 4 13 5 2 7 1 8 3 9 4 10 5 11 6 12 11 13
REMARK SMILES IDX 7 15 9 16 8 17 10 18 17 19 18 20 19 21 20 22 21 24 22 25
REMARK SMILES IDX 23 26 84 27 24 28 83 29 25 30 26 31 27 32 77 33 28 34 82 35
REMARK SMILES IDX 76 36 78 37 29 38 81 39 75 40 74 41 30 43 62 44 42 45 61 46
REMARK SMILES IDX 43 47 46 48 60 49 79 50 44 51 45 52 59 54 80 55 47 56 31 57
REMARK SMILES IDX 32 58 40 59 33 60 34 61 38 62 41 63 35 64 36 65 39 66 37 67
REMARK SMILES IDX 63 68 64 69 72 70 65 71 66 72 70 73 73 74 67 75 68 76 71 77
REMARK SMILES IDX 69 78 48 79 49 80 57 81 50 82 51 83 55 84 58 85 52 86 53 87
REMARK SMILES IDX 56 88 54 89
REMARK H PARENT 14 6 5 14 19 23 78 42 46 53
REMARK Flexibility Score: inf
ROOT
ATOM      1  C   UNL     1      -1.742   3.095   3.806  1.00  0.00     0.023 C 
ENDROOT
BRANCH   1   2
ATOM      2  C   UNL     1      -0.234   3.032   3.529  1.00  0.00     0.116 C 
BRANCH   2   3
ATOM      3  N   UNL     1       0.187   1.675   3.268  1.00  0.00    -0.352 N 
ATOM      4  C   UNL     1       0.449   0.899   2.199  1.00  0.00     0.246 C 
ATOM      5  O   UNL     1       0.785  -0.255   2.503  1.00  0.00    -0.270 OA
ATOM      6  H   UNL     1       0.320   1.178   4.108  1.00  0.00     0.163 HD
BRANCH   4   7
ATOM      7  C   UNL     1       0.456   1.276   0.735  1.00  0.00     0.015 C 
ATOM      8  C   UNL     1       1.204   0.207  -0.059  1.00  0.00     0.050 C 
ATOM      9  C   UNL     1      -0.071   2.276  -0.002  1.00  0.00     0.042 C 
BRANCH   9  10
ATOM     10  C   UNL     1      -0.936   3.446   0.312  1.00  0.00     0.291 C 
BRANCH  10  11
ATOM     11  N   UNL     1      -0.299   4.740   0.081  1.00  0.00    -0.331 N 
ATOM     12  C   UNL     1      -1.072   5.855   0.636  1.00  0.00     0.266 C 
ATOM     13  C   UNL     1       1.099   4.897   0.501  1.00  0.00     0.266 C 
ATOM     14  H   UNL     1      -0.284   4.763  -0.939  1.00  0.00     0.348 HD
ATOM     15  C   UNL     1      -0.066   6.999   0.668  1.00  0.00     0.049 C 
ATOM     16  C   UNL     1       1.205   6.289   1.134  1.00  0.00     0.049 C 
ATOM     17  C   UNL     1      -0.499   8.132   1.588  1.00  0.00     0.014 C 
ATOM     18  C   UNL     1       2.487   7.016   0.759  1.00  0.00     0.014 C 
ENDBRANCH  10  11
ENDBRANCH   9  10
ENDBRANCH   4   7
ENDBRANCH   2   3
ENDBRANCH   1   2
BRANCH   1  19
ATOM     19  C   UNL     1      -2.104   3.412   5.257  1.00  0.00     0.023 C 
BRANCH  19  20
ATOM     20  C   UNL     1      -1.628   4.774   5.749  1.00  0.00     0.116 C 
BRANCH  20  21
ATOM     21  N   UNL     1      -2.158   5.901   4.995  1.00  0.00    -0.352 N 
ATOM     22  C   UNL     1      -2.300   7.201   5.427  1.00  0.00     0.251 C 
ATOM     23  H   UNL     1      -2.447   5.713   4.073  1.00  0.00     0.163 HD
ATOM     24  O   UNL     1      -2.816   8.054   4.714  1.00  0.00    -0.269 OA
BRANCH  22  25
ATOM     25  C   UNL     1      -1.872   7.533   6.801  1.00  0.00     0.039 A 
ATOM     26  C   UNL     1      -2.813   8.055   7.691  1.00  0.00     0.014 A 
ATOM     27  C   UNL     1      -0.579   7.224   7.231  1.00  0.00     0.014 A 
ATOM     28  C   UNL     1      -2.483   8.182   9.041  1.00  0.00     0.010 A 
ATOM     29  C   UNL     1      -0.274   7.291   8.586  1.00  0.00     0.010 A 
ATOM     30  C   UNL     1      -1.228   7.754   9.505  1.00  0.00    -0.014 A 
BRANCH  30  31
ATOM     31  C   UNL     1      -0.906   7.751  10.954  1.00  0.00     0.031 A 
ATOM     32  C   UNL     1       0.175   8.644  11.489  1.00  0.00     0.074 A 
ATOM     33  C   UNL     1      -1.530   6.880  11.771  1.00  0.00     0.049 A 
ATOM     34  N   UNL     1       0.652   8.729  12.705  1.00  0.00    -0.248 NA
ATOM     35  C   UNL     1       0.828   9.540  10.522  1.00  0.00     0.031 C 
ATOM     36  C   UNL     1      -2.551   5.915  11.360  1.00  0.00     0.029 A 
ATOM     37  N   UNL     1      -1.385   6.656  13.118  1.00  0.00    -0.354 N 
ATOM     38  C   UNL     1       1.671   9.668  12.645  1.00  0.00     0.074 A 
ATOM     39  C   UNL     1       1.774  10.094  11.265  1.00  0.00     0.031 C 
ATOM     40  C   UNL     1      -2.954   5.216  12.434  1.00  0.00     0.029 A 
ATOM     41  C   UNL     1      -2.202   5.664  13.602  1.00  0.00     0.049 A 
ATOM     42  H   UNL     1      -0.754   7.159  13.683  1.00  0.00     0.167 HD
ATOM     43  C   UNL     1       2.437  10.148  13.653  1.00  0.00     0.037 A 
ATOM     44  C   UNL     1      -2.329   5.173  14.849  1.00  0.00     0.037 A 
ATOM     45  C   UNL     1       2.308   9.752  15.030  1.00  0.00     0.049 A 
ATOM     46  C   UNL     1      -1.492   5.749  15.958  1.00  0.00     0.074 A 
ATOM     47  C   UNL     1       2.988  10.234  16.134  1.00  0.00     0.029 A 
ATOM     48  N   UNL     1       1.436   8.777  15.491  1.00  0.00    -0.354 N 
ATOM     49  N   UNL     1      -0.583   6.691  15.902  1.00  0.00    -0.248 NA
ATOM     50  C   UNL     1      -1.704   5.198  17.304  1.00  0.00     0.031 C 
ATOM     51  C   UNL     1       2.548   9.531  17.261  1.00  0.00     0.029 A 
ATOM     52  C   UNL     1       1.569   8.634  16.862  1.00  0.00     0.049 A 
ATOM     53  H   UNL     1       0.815   8.262  14.926  1.00  0.00     0.167 HD
ATOM     54  C   UNL     1      -0.134   6.864  17.203  1.00  0.00     0.074 A 
ATOM     55  C   UNL     1      -0.877   5.937  18.030  1.00  0.00     0.031 C 
ATOM     56  C   UNL     1       0.812   7.715  17.670  1.00  0.00     0.037 A 
BRANCH  43  57
ATOM     57  C   UNL     1       3.479  11.167  13.301  1.00  0.00     0.064 A 
ATOM     58  C   UNL     1       3.129  12.480  12.950  1.00  0.00     0.173 A 
ATOM     59  C   UNL     1       4.841  10.836  13.339  1.00  0.00     0.173 A 
ATOM     60  F   UNL     1       1.838  12.840  12.886  1.00  0.00    -0.203 F 
ATOM     61  C   UNL     1       4.105  13.417  12.624  1.00  0.00     0.198 A 
ATOM     62  C   UNL     1       5.816  11.784  13.038  1.00  0.00     0.198 A 
ATOM     63  F   UNL     1       5.227   9.595  13.672  1.00  0.00    -0.203 F 
ATOM     64  F   UNL     1       3.746  14.652  12.247  1.00  0.00    -0.200 F 
ATOM     65  C   UNL     1       5.447  13.070  12.673  1.00  0.00     0.200 A 
ATOM     66  F   UNL     1       7.112  11.450  13.094  1.00  0.00    -0.200 F 
ATOM     67  F   UNL     1       6.385  13.975  12.361  1.00  0.00    -0.200 F 
ENDBRANCH  43  57
BRANCH  44  68
ATOM     68  C   UNL     1      -3.317   4.099  15.125  1.00  0.00     0.064 A 
ATOM     69  C   UNL     1      -4.495   4.374  15.833  1.00  0.00     0.173 A 
ATOM     70  C   UNL     1      -3.106   2.782  14.692  1.00  0.00     0.173 A 
ATOM     71  F   UNL     1      -4.729   5.616  16.284  1.00  0.00    -0.203 F 
ATOM     72  C   UNL     1      -5.417   3.369  16.114  1.00  0.00     0.198 A 
ATOM     73  C   UNL     1      -4.040   1.782  14.954  1.00  0.00     0.198 A 
ATOM     74  F   UNL     1      -1.996   2.470  14.007  1.00  0.00    -0.203 F 
ATOM     75  F   UNL     1      -6.516   3.652  16.826  1.00  0.00    -0.200 F 
ATOM     76  C   UNL     1      -5.191   2.075  15.670  1.00  0.00     0.200 A 
ATOM     77  F   UNL     1      -3.824   0.535  14.515  1.00  0.00    -0.200 F 
ATOM     78  F   UNL     1      -6.080   1.108  15.939  1.00  0.00    -0.200 F 
ENDBRANCH  44  68
BRANCH  56  79
ATOM     79  C   UNL     1       1.075   7.705  19.146  1.00  0.00     0.064 A 
ATOM     80  C   UNL     1       1.794   6.667  19.755  1.00  0.00     0.173 A 
ATOM     81  C   UNL     1       0.639   8.768  19.951  1.00  0.00     0.173 A 
ATOM     82  F   UNL     1       2.216   5.621  19.027  1.00  0.00    -0.203 F 
ATOM     83  C   UNL     1       2.053   6.684  21.122  1.00  0.00     0.198 A 
ATOM     84  C   UNL     1       0.920   8.793  21.314  1.00  0.00     0.198 A 
ATOM     85  F   UNL     1      -0.049   9.785  19.413  1.00  0.00    -0.203 F 
ATOM     86  F   UNL     1       2.710   5.665  21.691  1.00  0.00    -0.200 F 
ATOM     87  C   UNL     1       1.622   7.750  21.899  1.00  0.00     0.200 A 
ATOM     88  F   UNL     1       0.511   9.828  22.061  1.00  0.00    -0.200 F 
ATOM     89  F   UNL     1       1.878   7.769  23.214  1.00  0.00    -0.200 F 
ENDBRANCH  56  79
ENDBRANCH  30  31
ENDBRANCH  22  25
ENDBRANCH  20  21
ENDBRANCH  19  20
ENDBRANCH   1  19
TORSDOF 13
