REMARK SMILES Cc1[nH]c2ccccc2c1[C@H]([NH3+])CC(=O)NCCCCNC(=O)c1ccc(-c2c3nc(c(-c4c(F)c(F)c(F)c(F)c4F)c4ccc([nH]4)c(-c4c(F)c(F)c(F)c(F)c4F)c4nc(c(-c5c(F)c(F)c(F)c(F)c5F)c5ccc2[nH]5)C=C4)C=C3)cc1
REMARK SMILES IDX 18 1 17 2 16 3 14 4 15 5 13 7 11 8 10 9 1 10 2 11 3 12 4 13
REMARK SMILES IDX 9 15 5 16 8 17 6 18 7 19 12 20 19 24 20 25 21 26 22 27 23 29
REMARK SMILES IDX 24 30 25 31 86 32 26 33 85 34 27 35 28 36 29 37 79 38 30 39
REMARK SMILES IDX 84 40 78 41 80 42 31 43 83 44 77 45 76 46 32 48 64 49 44 50
REMARK SMILES IDX 63 51 45 52 48 53 62 54 81 55 46 56 47 57 61 59 82 60 49 61
REMARK SMILES IDX 33 62 34 63 42 64 35 65 36 66 40 67 43 68 37 69 38 70 41 71
REMARK SMILES IDX 39 72 65 73 66 74 74 75 67 76 68 77 72 78 75 79 69 80 70 81
REMARK SMILES IDX 73 82 71 83 50 84 51 85 59 86 52 87 53 88 57 89 60 90 54 91
REMARK SMILES IDX 55 92 58 93 56 94
REMARK H PARENT 16 6 3 14 12 21 12 22 12 23 21 28 80 47 48 58
REMARK Flexibility Score: inf
ROOT
ATOM      1  C   UNL     1      -1.324   0.823   1.366  1.00  0.00     0.023 C 
ENDROOT
BRANCH   1   2
ATOM      2  C   UNL     1      -0.468  -0.279   1.985  1.00  0.00     0.116 C 
BRANCH   2   3
ATOM      3  N   UNL     1      -1.274  -1.223   2.729  1.00  0.00    -0.356 N 
ATOM      4  C   UNL     1      -1.674  -2.472   2.350  1.00  0.00     0.226 C 
ATOM      5  O   UNL     1      -2.471  -3.083   3.064  1.00  0.00    -0.275 OA
ATOM      6  H   UNL     1      -1.572  -0.927   3.620  1.00  0.00     0.163 HD
BRANCH   4   7
ATOM      7  C   UNL     1      -1.093  -3.093   1.100  1.00  0.00     0.170 C 
BRANCH   7   8
ATOM      8  C   UNL     1      -1.985  -2.933  -0.136  1.00  0.00     0.223 C 
BRANCH   8   9
ATOM      9  C   UNL     1      -1.361  -3.613  -1.338  1.00  0.00     0.038 A 
ATOM     10  C   UNL     1      -0.037  -1.786  -2.764  1.00  0.00     0.065 C 
ATOM     11  C   UNL     1      -0.581  -3.122  -2.388  1.00  0.00     0.022 A 
ATOM     12  N   UNL     1      -0.315  -4.182  -3.226  1.00  0.00    -0.358 N 
ATOM     13  C   UNL     1      -0.842  -5.347  -2.736  1.00  0.00     0.046 A 
ATOM     14  H   UNL     1       0.189  -4.111  -4.068  1.00  0.00     0.166 HD
ATOM     15  C   UNL     1      -1.490  -5.031  -1.550  1.00  0.00     0.009 A 
ATOM     16  C   UNL     1      -0.791  -6.647  -3.251  1.00  0.00     0.027 A 
ATOM     17  C   UNL     1      -2.108  -6.070  -0.822  1.00  0.00     0.011 A 
ATOM     18  C   UNL     1      -1.413  -7.658  -2.512  1.00  0.00     0.002 A 
ATOM     19  C   UNL     1      -2.058  -7.377  -1.311  1.00  0.00     0.001 A 
ENDBRANCH   8   9
BRANCH   8  20
ATOM     20  N   UNL     1      -2.322  -1.562  -0.500  1.00  0.00    -0.351 N 
ATOM     21  H   UNL     1      -1.476  -1.068  -0.783  1.00  0.00     0.345 HD
ATOM     22  H   UNL     1      -2.740  -1.090   0.301  1.00  0.00     0.345 HD
ATOM     23  H   UNL     1      -2.986  -1.569  -1.275  1.00  0.00     0.345 HD
ENDBRANCH   8  20
ENDBRANCH   7   8
ENDBRANCH   4   7
ENDBRANCH   2   3
ENDBRANCH   1   2
BRANCH   1  24
ATOM     24  C   UNL     1      -1.809   1.882   2.344  1.00  0.00     0.023 C 
BRANCH  24  25
ATOM     25  C   UNL     1      -0.703   2.594   3.096  1.00  0.00     0.116 C 
BRANCH  25  26
ATOM     26  N   UNL     1       0.300   3.183   2.220  1.00  0.00    -0.352 N 
ATOM     27  C   UNL     1       0.888   4.422   2.293  1.00  0.00     0.251 C 
ATOM     28  H   UNL     1       0.597   2.615   1.473  1.00  0.00     0.163 HD
ATOM     29  O   UNL     1       1.617   4.817   1.395  1.00  0.00    -0.269 OA
BRANCH  27  30
ATOM     30  C   UNL     1       0.595   5.286   3.455  1.00  0.00     0.039 A 
ATOM     31  C   UNL     1       0.312   6.634   3.236  1.00  0.00     0.014 A 
ATOM     32  C   UNL     1       0.555   4.755   4.747  1.00  0.00     0.014 A 
ATOM     33  C   UNL     1      -0.068   7.435   4.311  1.00  0.00     0.010 A 
ATOM     34  C   UNL     1       0.066   5.524   5.794  1.00  0.00     0.010 A 
ATOM     35  C   UNL     1      -0.229   6.878   5.592  1.00  0.00    -0.014 A 
BRANCH  35  36
ATOM     36  C   UNL     1      -0.685   7.713   6.728  1.00  0.00     0.031 A 
ATOM     37  C   UNL     1       0.209   7.923   7.919  1.00  0.00     0.074 A 
ATOM     38  C   UNL     1      -1.915   8.261   6.694  1.00  0.00     0.049 A 
ATOM     39  N   UNL     1       0.007   8.656   8.985  1.00  0.00    -0.248 NA
ATOM     40  C   UNL     1       1.486   7.191   7.933  1.00  0.00     0.031 C 
ATOM     41  C   UNL     1      -2.901   8.060   5.630  1.00  0.00     0.029 A 
ATOM     42  N   UNL     1      -2.542   9.105   7.573  1.00  0.00    -0.354 N 
ATOM     43  C   UNL     1       1.123   8.467   9.790  1.00  0.00     0.074 A 
ATOM     44  C   UNL     1       1.962   7.493   9.130  1.00  0.00     0.031 C 
ATOM     45  C   UNL     1      -3.987   8.803   5.892  1.00  0.00     0.029 A 
ATOM     46  C   UNL     1      -3.787   9.507   7.154  1.00  0.00     0.049 A 
ATOM     47  H   UNL     1      -2.139   9.396   8.423  1.00  0.00     0.167 HD
ATOM     48  C   UNL     1       1.437   9.078  10.956  1.00  0.00     0.037 A 
ATOM     49  C   UNL     1      -4.660  10.361   7.721  1.00  0.00     0.037 A 
ATOM     50  C   UNL     1       0.605  10.061  11.597  1.00  0.00     0.049 A 
ATOM     51  C   UNL     1      -4.276  11.046   9.005  1.00  0.00     0.074 A 
ATOM     52  C   UNL     1       0.850  10.782  12.752  1.00  0.00     0.029 A 
ATOM     53  N   UNL     1      -0.642  10.459  11.133  1.00  0.00    -0.354 N 
ATOM     54  N   UNL     1      -3.178  10.928   9.712  1.00  0.00    -0.248 NA
ATOM     55  C   UNL     1      -5.247  11.998   9.557  1.00  0.00     0.031 C 
ATOM     56  C   UNL     1      -0.270  11.579  13.014  1.00  0.00     0.029 A 
ATOM     57  C   UNL     1      -1.186  11.402  11.990  1.00  0.00     0.049 A 
ATOM     58  H   UNL     1      -1.075  10.121  10.317  1.00  0.00     0.167 HD
ATOM     59  C   UNL     1      -3.312  11.811  10.775  1.00  0.00     0.074 A 
ATOM     60  C   UNL     1      -4.589  12.474  10.603  1.00  0.00     0.031 C 
ATOM     61  C   UNL     1      -2.459  12.052  11.801  1.00  0.00     0.037 A 
BRANCH  48  62
ATOM     62  C   UNL     1       2.740   8.704  11.604  1.00  0.00     0.064 A 
ATOM     63  C   UNL     1       3.975   9.038  11.025  1.00  0.00     0.173 A 
ATOM     64  C   UNL     1       2.757   8.022  12.830  1.00  0.00     0.173 A 
ATOM     65  F   UNL     1       4.017   9.677   9.845  1.00  0.00    -0.203 F 
ATOM     66  C   UNL     1       5.175   8.674  11.630  1.00  0.00     0.198 A 
ATOM     67  C   UNL     1       3.960   7.690  13.450  1.00  0.00     0.198 A 
ATOM     68  F   UNL     1       1.608   7.679  13.430  1.00  0.00    -0.203 F 
ATOM     69  F   UNL     1       6.339   8.952  11.027  1.00  0.00    -0.200 F 
ATOM     70  C   UNL     1       5.167   8.008  12.846  1.00  0.00     0.200 A 
ATOM     71  F   UNL     1       3.950   7.057  14.632  1.00  0.00    -0.200 F 
ATOM     72  F   UNL     1       6.322   7.664  13.431  1.00  0.00    -0.200 F 
ENDBRANCH  48  62
BRANCH  49  73
ATOM     73  C   UNL     1      -5.954  10.657   7.051  1.00  0.00     0.064 A 
ATOM     74  C   UNL     1      -6.207  11.920   6.498  1.00  0.00     0.173 A 
ATOM     75  C   UNL     1      -6.963   9.688   6.952  1.00  0.00     0.173 A 
ATOM     76  F   UNL     1      -5.280  12.886   6.580  1.00  0.00    -0.203 F 
ATOM     77  C   UNL     1      -7.431  12.212   5.897  1.00  0.00     0.198 A 
ATOM     78  C   UNL     1      -8.174   9.971   6.324  1.00  0.00     0.198 A 
ATOM     79  F   UNL     1      -6.768   8.461   7.457  1.00  0.00    -0.203 F 
ATOM     80  F   UNL     1      -7.665  13.444   5.424  1.00  0.00    -0.200 F 
ATOM     81  C   UNL     1      -8.411  11.236   5.806  1.00  0.00     0.200 A 
ATOM     82  F   UNL     1      -9.112   9.020   6.222  1.00  0.00    -0.200 F 
ATOM     83  F   UNL     1      -9.585  11.515   5.226  1.00  0.00    -0.200 F 
ENDBRANCH  49  73
BRANCH  61  84
ATOM     84  C   UNL     1      -2.865  13.105  12.792  1.00  0.00     0.064 A 
ATOM     85  C   UNL     1      -3.942  12.918  13.672  1.00  0.00     0.173 A 
ATOM     86  C   UNL     1      -2.163  14.319  12.863  1.00  0.00     0.173 A 
ATOM     87  F   UNL     1      -4.653  11.781  13.637  1.00  0.00    -0.203 F 
ATOM     88  C   UNL     1      -4.330  13.925  14.552  1.00  0.00     0.198 A 
ATOM     89  C   UNL     1      -2.531  15.308  13.770  1.00  0.00     0.198 A 
ATOM     90  F   UNL     1      -1.119  14.545  12.053  1.00  0.00    -0.203 F 
ATOM     91  F   UNL     1      -5.407  13.752  15.331  1.00  0.00    -0.200 F 
ATOM     92  C   UNL     1      -3.622  15.116  14.603  1.00  0.00     0.200 A 
ATOM     93  F   UNL     1      -1.835  16.451  13.831  1.00  0.00    -0.200 F 
ATOM     94  F   UNL     1      -4.000  16.085  15.448  1.00  0.00    -0.200 F 
ENDBRANCH  61  84
ENDBRANCH  35  36
ENDBRANCH  27  30
ENDBRANCH  25  26
ENDBRANCH  24  25
ENDBRANCH   1  24
TORSDOF 14
