REMARK SMILES O=C(NCCCCNC(=O)[C@@H]1CC[C@H](CNC(=O)C2CCOCC2)O1)c1ccc(-c2c3nc(c(-c4c(F)c(F)c(F)c(F)c4F)c4ccc([nH]4)c(-c4c(F)c(F)c(F)c(F)c4F)c4nc(c(-c5c(F)c(F)c(F)c(F)c5F)c5ccc2[nH]5)C=C4)C=C3)cc1
REMARK SMILES IDX 6 1 5 2 4 3 3 4 1 5 2 6 26 8 27 9 88 10 28 11 87 12 29 13
REMARK SMILES IDX 30 14 31 15 81 16 32 17 86 18 80 19 82 20 33 21 85 22 79 23
REMARK SMILES IDX 78 24 34 26 66 27 46 28 65 29 47 30 50 31 64 32 83 33 48 34
REMARK SMILES IDX 49 35 63 37 84 38 51 39 35 40 36 41 44 42 37 43 38 44 42 45
REMARK SMILES IDX 45 46 39 47 40 48 43 49 41 50 67 51 68 52 76 53 69 54 70 55
REMARK SMILES IDX 74 56 77 57 71 58 72 59 75 60 73 61 52 62 53 63 61 64 54 65
REMARK SMILES IDX 55 66 59 67 62 68 56 69 57 70 60 71 58 72 7 73 8 74 9 75
REMARK SMILES IDX 10 77 11 78 12 79 25 80 13 81 14 82 15 83 16 84 17 85 18 87
REMARK SMILES IDX 19 88 20 89 24 90 21 91 23 92 22 93
REMARK H PARENT 3 7 82 25 50 36 8 76 16 86
REMARK Flexibility Score: inf
ROOT
ATOM      1  C   UNL     1       4.472  -2.166   3.023  1.00  0.00     0.023 C 
ENDROOT
BRANCH   1   2
ATOM      2  C   UNL     1       4.999  -0.923   2.310  1.00  0.00     0.023 C 
BRANCH   2   3
ATOM      3  C   UNL     1       4.640  -0.811   0.833  1.00  0.00     0.116 C 
BRANCH   3   4
ATOM      4  N   UNL     1       3.206  -0.848   0.591  1.00  0.00    -0.352 N 
ATOM      5  O   UNL     1       1.179  -0.092  -0.034  1.00  0.00    -0.269 OA
ATOM      6  C   UNL     1       2.397   0.057  -0.051  1.00  0.00     0.251 C 
ATOM      7  H   UNL     1       2.745  -1.643   0.942  1.00  0.00     0.163 HD
BRANCH   6   8
ATOM      8  C   UNL     1       2.986   1.232  -0.727  1.00  0.00     0.039 A 
ATOM      9  C   UNL     1       4.100   1.104  -1.561  1.00  0.00     0.014 A 
ATOM     10  C   UNL     1       2.405   2.486  -0.518  1.00  0.00     0.014 A 
ATOM     11  C   UNL     1       4.718   2.244  -2.069  1.00  0.00     0.010 A 
ATOM     12  C   UNL     1       2.984   3.621  -1.087  1.00  0.00     0.010 A 
ATOM     13  C   UNL     1       4.166   3.513  -1.836  1.00  0.00    -0.014 A 
BRANCH  13  14
ATOM     14  C   UNL     1       4.814   4.724  -2.397  1.00  0.00     0.031 A 
ATOM     15  C   UNL     1       5.420   5.757  -1.492  1.00  0.00     0.074 A 
ATOM     16  C   UNL     1       4.839   4.895  -3.731  1.00  0.00     0.049 A 
ATOM     17  N   UNL     1       5.962   6.910  -1.797  1.00  0.00    -0.248 NA
ATOM     18  C   UNL     1       5.409   5.462  -0.051  1.00  0.00     0.031 C 
ATOM     19  C   UNL     1       4.284   3.960  -4.710  1.00  0.00     0.029 A 
ATOM     20  N   UNL     1       5.346   5.917  -4.493  1.00  0.00    -0.354 N 
ATOM     21  C   UNL     1       6.331   7.488  -0.590  1.00  0.00     0.074 A 
ATOM     22  C   UNL     1       5.936   6.568   0.456  1.00  0.00     0.031 C 
ATOM     23  C   UNL     1       4.490   4.443  -5.943  1.00  0.00     0.029 A 
ATOM     24  C   UNL     1       5.141   5.745  -5.839  1.00  0.00     0.049 A 
ATOM     25  H   UNL     1       5.810   6.696  -4.112  1.00  0.00     0.167 HD
ATOM     26  C   UNL     1       6.948   8.675  -0.377  1.00  0.00     0.037 A 
ATOM     27  C   UNL     1       5.421   6.558  -6.875  1.00  0.00     0.037 A 
ATOM     28  C   UNL     1       7.354   9.577  -1.424  1.00  0.00     0.049 A 
ATOM     29  C   UNL     1       6.083   7.880  -6.612  1.00  0.00     0.074 A 
ATOM     30  C   UNL     1       8.020  10.786  -1.313  1.00  0.00     0.029 A 
ATOM     31  N   UNL     1       7.127   9.369  -2.777  1.00  0.00    -0.354 N 
ATOM     32  N   UNL     1       6.450   8.406  -5.470  1.00  0.00    -0.248 NA
ATOM     33  C   UNL     1       6.367   8.722  -7.782  1.00  0.00     0.031 C 
ATOM     34  C   UNL     1       8.158  11.329  -2.596  1.00  0.00     0.029 A 
ATOM     35  C   UNL     1       7.621  10.437  -3.510  1.00  0.00     0.049 A 
ATOM     36  H   UNL     1       6.681   8.580  -3.160  1.00  0.00     0.167 HD
ATOM     37  C   UNL     1       7.028   9.628  -5.780  1.00  0.00     0.074 A 
ATOM     38  C   UNL     1       6.969   9.763  -7.222  1.00  0.00     0.031 C 
ATOM     39  C   UNL     1       7.561  10.553  -4.945  1.00  0.00     0.037 A 
BRANCH  26  40
ATOM     40  C   UNL     1       7.199   9.082   1.046  1.00  0.00     0.064 A 
ATOM     41  C   UNL     1       8.174   8.452   1.833  1.00  0.00     0.173 A 
ATOM     42  C   UNL     1       6.474  10.137   1.620  1.00  0.00     0.173 A 
ATOM     43  F   UNL     1       8.887   7.430   1.336  1.00  0.00    -0.203 F 
ATOM     44  C   UNL     1       8.394   8.844   3.152  1.00  0.00     0.198 A 
ATOM     45  C   UNL     1       6.715  10.545   2.930  1.00  0.00     0.198 A 
ATOM     46  F   UNL     1       5.535  10.778   0.908  1.00  0.00    -0.203 F 
ATOM     47  F   UNL     1       9.297   8.197   3.901  1.00  0.00    -0.200 F 
ATOM     48  C   UNL     1       7.668   9.893   3.697  1.00  0.00     0.200 A 
ATOM     49  F   UNL     1       6.020  11.566   3.451  1.00  0.00    -0.200 F 
ATOM     50  F   UNL     1       7.882  10.270   4.965  1.00  0.00    -0.200 F 
ENDBRANCH  26  40
BRANCH  27  51
ATOM     51  C   UNL     1       5.064   6.129  -8.249  1.00  0.00     0.064 A 
ATOM     52  C   UNL     1       6.053   5.738  -9.160  1.00  0.00     0.173 A 
ATOM     53  C   UNL     1       3.725   6.054  -8.661  1.00  0.00     0.173 A 
ATOM     54  F   UNL     1       7.347   5.810  -8.816  1.00  0.00    -0.203 F 
ATOM     55  C   UNL     1       5.716   5.289 -10.435  1.00  0.00     0.198 A 
ATOM     56  C   UNL     1       3.388   5.581  -9.926  1.00  0.00     0.198 A 
ATOM     57  F   UNL     1       2.744   6.412  -7.820  1.00  0.00    -0.203 F 
ATOM     58  F   UNL     1       6.681   4.942 -11.298  1.00  0.00    -0.200 F 
ATOM     59  C   UNL     1       4.384   5.202 -10.814  1.00  0.00     0.200 A 
ATOM     60  F   UNL     1       2.100   5.483 -10.282  1.00  0.00    -0.200 F 
ATOM     61  F   UNL     1       4.060   4.754 -12.034  1.00  0.00    -0.200 F 
ENDBRANCH  27  51
BRANCH  39  62
ATOM     62  C   UNL     1       8.158  11.778  -5.570  1.00  0.00     0.064 A 
ATOM     63  C   UNL     1       7.356  12.802  -6.092  1.00  0.00     0.173 A 
ATOM     64  C   UNL     1       9.550  11.950  -5.600  1.00  0.00     0.173 A 
ATOM     65  F   UNL     1       6.020  12.675  -6.101  1.00  0.00    -0.203 F 
ATOM     66  C   UNL     1       7.927  13.949  -6.637  1.00  0.00     0.198 A 
ATOM     67  C   UNL     1      10.117  13.108  -6.123  1.00  0.00     0.198 A 
ATOM     68  F   UNL     1      10.359  10.999  -5.108  1.00  0.00    -0.203 F 
ATOM     69  F   UNL     1       7.144  14.900  -7.163  1.00  0.00    -0.200 F 
ATOM     70  C   UNL     1       9.306  14.104  -6.645  1.00  0.00     0.200 A 
ATOM     71  F   UNL     1      11.448  13.261  -6.120  1.00  0.00    -0.200 F 
ATOM     72  F   UNL     1       9.853  15.213  -7.161  1.00  0.00    -0.200 F 
ENDBRANCH  39  62
ENDBRANCH  13  14
ENDBRANCH   6   8
ENDBRANCH   3   4
ENDBRANCH   2   3
ENDBRANCH   1   2
BRANCH   1  73
ATOM     73  C   UNL     1       4.794  -3.495   2.351  1.00  0.00     0.116 C 
BRANCH  73  74
ATOM     74  N   UNL     1       6.219  -3.753   2.268  1.00  0.00    -0.354 N 
ATOM     75  C   UNL     1       6.945  -4.846   2.641  1.00  0.00     0.249 C 
ATOM     76  H   UNL     1       6.749  -3.019   1.879  1.00  0.00     0.163 HD
ATOM     77  O   UNL     1       8.154  -4.827   2.390  1.00  0.00    -0.272 OA
BRANCH  75  78
ATOM     78  C   UNL     1       6.298  -6.025   3.409  1.00  0.00     0.207 C 
ATOM     79  C   UNL     1       7.049  -7.332   3.137  1.00  0.00     0.045 C 
ATOM     80  O   UNL     1       4.922  -6.286   3.121  1.00  0.00    -0.363 OA
ATOM     81  C   UNL     1       5.951  -8.365   3.015  1.00  0.00     0.037 C 
ATOM     82  C   UNL     1       4.792  -7.555   2.471  1.00  0.00     0.138 C 
BRANCH  82  83
ATOM     83  C   UNL     1       4.830  -7.345   0.946  1.00  0.00     0.147 C 
BRANCH  83  84
ATOM     84  N   UNL     1       4.019  -8.323   0.244  1.00  0.00    -0.353 N 
ATOM     85  C   UNL     1       2.850  -8.300  -0.428  1.00  0.00     0.223 C 
ATOM     86  H   UNL     1       4.420  -9.223   0.263  1.00  0.00     0.163 HD
ATOM     87  O   UNL     1       2.470  -9.410  -0.830  1.00  0.00    -0.275 OA
BRANCH  85  88
ATOM     88  C   UNL     1       1.964  -7.077  -0.697  1.00  0.00     0.083 C 
ATOM     89  C   UNL     1       1.559  -7.128  -2.187  1.00  0.00     0.042 C 
ATOM     90  C   UNL     1       2.461  -5.675  -0.359  1.00  0.00     0.042 C 
ATOM     91  C   UNL     1       0.668  -5.962  -2.583  1.00  0.00     0.161 C 
ATOM     92  C   UNL     1       1.488  -4.604  -0.843  1.00  0.00     0.161 C 
ATOM     93  O   UNL     1       1.286  -4.723  -2.247  1.00  0.00    -0.381 OA
ENDBRANCH  85  88
ENDBRANCH  83  84
ENDBRANCH  82  83
ENDBRANCH  75  78
ENDBRANCH  73  74
ENDBRANCH   1  73
TORSDOF 14
