REMARK SMILES C[C@]1(C(=O)NCc2ccc(C(=O)NCCCCNC(=O)c3ccc(-c4c5nc(c(-c6c(F)c(F)c(F)c(F)c6F)c6ccc([nH]6)c(-c6c(F)c(F)c(F)c(F)c6F)c6nc(c(-c7c(F)c(F)c(F)c(F)c7F)c7ccc4[nH]7)C=C6)C=C5)cc3)o2)CCC[NH2+]C1
REMARK SMILES IDX 15 1 14 2 13 3 11 4 12 5 10 7 7 8 8 9 84 10 9 11 6 12 5 13
REMARK SMILES IDX 3 14 4 15 2 17 1 18 85 19 89 20 86 21 88 22 87 23 16 26
REMARK SMILES IDX 17 27 18 28 19 29 20 31 21 32 22 33 83 34 23 35 82 36 24 37
REMARK SMILES IDX 25 38 26 39 76 40 27 41 81 42 75 43 77 44 28 45 80 46 74 47
REMARK SMILES IDX 73 48 29 50 61 51 41 52 60 53 42 54 45 55 59 56 78 57 43 58
REMARK SMILES IDX 44 59 58 61 79 62 46 63 30 64 31 65 39 66 32 67 33 68 37 69
REMARK SMILES IDX 40 70 34 71 35 72 38 73 36 74 62 75 63 76 71 77 64 78 65 79
REMARK SMILES IDX 69 80 72 81 66 82 67 83 70 84 68 85 47 86 48 87 56 88 49 89
REMARK SMILES IDX 50 90 54 91 57 92 51 93 52 94 55 95 53 96
REMARK H PARENT 13 6 5 16 88 24 88 25 18 30 77 49 45 60
REMARK Flexibility Score: inf
ROOT
ATOM      1  C   UNL     1       6.986  -5.847  -1.128  1.00  0.00     0.023 C 
ENDROOT
BRANCH   1   2
ATOM      2  C   UNL     1       6.559  -5.716   0.335  1.00  0.00     0.116 C 
BRANCH   2   3
ATOM      3  N   UNL     1       7.225  -4.610   0.987  1.00  0.00    -0.349 N 
ATOM      4  C   UNL     1       6.854  -3.294   1.159  1.00  0.00     0.286 C 
ATOM      5  O   UNL     1       7.649  -2.607   1.808  1.00  0.00    -0.266 OA
ATOM      6  H   UNL     1       8.099  -4.838   1.379  1.00  0.00     0.163 HD
BRANCH   4   7
ATOM      7  C   UNL     1       5.615  -2.760   0.616  1.00  0.00     0.191 A 
ATOM      8  C   UNL     1       4.127  -1.126   0.358  1.00  0.00     0.124 A 
ATOM      9  C   UNL     1       3.657  -2.204  -0.359  1.00  0.00     0.048 A 
ATOM     10  O   UNL     1       5.304  -1.458   0.958  1.00  0.00    -0.454 OA
ATOM     11  C   UNL     1       4.616  -3.231  -0.217  1.00  0.00     0.056 A 
BRANCH   8  12
ATOM     12  C   UNL     1       3.631   0.265   0.566  1.00  0.00     0.191 C 
BRANCH  12  13
ATOM     13  N   UNL     1       2.421   0.439  -0.215  1.00  0.00    -0.348 N 
ATOM     14  C   UNL     1       1.160  -0.022   0.020  1.00  0.00     0.232 C 
ATOM     15  O   UNL     1       0.568  -0.411  -0.992  1.00  0.00    -0.274 OA
ATOM     16  H   UNL     1       2.527   0.969  -1.038  1.00  0.00     0.163 HD
BRANCH  14  17
ATOM     17  C   UNL     1       0.484   0.035   1.415  1.00  0.00     0.095 C 
ATOM     18  C   UNL     1       1.313  -0.653   2.515  1.00  0.00     0.028 C 
ATOM     19  C   UNL     1       0.245   1.513   1.794  1.00  0.00     0.028 C 
ATOM     20  C   UNL     1      -0.884  -0.711   1.362  1.00  0.00     0.277 C 
ATOM     21  C   UNL     1      -0.869   2.146   0.957  1.00  0.00     0.063 C 
ATOM     22  N   UNL     1      -1.942  -0.038   0.607  1.00  0.00    -0.345 N 
ATOM     23  C   UNL     1      -2.157   1.333   1.042  1.00  0.00     0.260 C 
ATOM     24  H   UNL     1      -1.684  -0.031  -0.380  1.00  0.00     0.346 HD
ATOM     25  H   UNL     1      -2.809  -0.552   0.765  1.00  0.00     0.346 HD
ENDBRANCH  14  17
ENDBRANCH  12  13
ENDBRANCH   8  12
ENDBRANCH   4   7
ENDBRANCH   2   3
ENDBRANCH   1   2
BRANCH   1  26
ATOM     26  C   UNL     1       8.293  -6.622  -1.330  1.00  0.00     0.023 C 
BRANCH  26  27
ATOM     27  C   UNL     1       8.277  -8.066  -0.832  1.00  0.00     0.116 C 
BRANCH  27  28
ATOM     28  N   UNL     1       7.212  -8.871  -1.407  1.00  0.00    -0.352 N 
ATOM     29  C   UNL     1       7.194 -10.226  -1.648  1.00  0.00     0.251 C 
ATOM     30  H   UNL     1       6.395  -8.382  -1.658  1.00  0.00     0.163 HD
ATOM     31  O   UNL     1       6.251 -10.742  -2.227  1.00  0.00    -0.269 OA
BRANCH  29  32
ATOM     32  C   UNL     1       8.353 -11.047  -1.238  1.00  0.00     0.039 A 
ATOM     33  C   UNL     1       8.921 -11.918  -2.170  1.00  0.00     0.014 A 
ATOM     34  C   UNL     1       8.892 -10.938   0.047  1.00  0.00     0.014 A 
ATOM     35  C   UNL     1      10.072 -12.633  -1.835  1.00  0.00     0.010 A 
ATOM     36  C   UNL     1      10.077 -11.597   0.356  1.00  0.00     0.010 A 
ATOM     37  C   UNL     1      10.679 -12.450  -0.582  1.00  0.00    -0.014 A 
BRANCH  37  38
ATOM     38  C   UNL     1      11.945 -13.143  -0.236  1.00  0.00     0.031 A 
ATOM     39  C   UNL     1      11.972 -14.152   0.878  1.00  0.00     0.074 A 
ATOM     40  C   UNL     1      13.082 -12.815  -0.880  1.00  0.00     0.049 A 
ATOM     41  N   UNL     1      12.989 -14.814   1.372  1.00  0.00    -0.248 NA
ATOM     42  C   UNL     1      10.692 -14.433   1.547  1.00  0.00     0.031 C 
ATOM     43  C   UNL     1      13.194 -11.812  -1.940  1.00  0.00     0.029 A 
ATOM     44  N   UNL     1      14.363 -13.283  -0.730  1.00  0.00    -0.354 N 
ATOM     45  C   UNL     1      12.474 -15.573   2.414  1.00  0.00     0.074 A 
ATOM     46  C   UNL     1      11.067 -15.252   2.518  1.00  0.00     0.031 C 
ATOM     47  C   UNL     1      14.469 -11.754  -2.358  1.00  0.00     0.029 A 
ATOM     48  C   UNL     1      15.269 -12.691  -1.575  1.00  0.00     0.049 A 
ATOM     49  H   UNL     1      14.610 -13.978  -0.078  1.00  0.00     0.167 HD
ATOM     50  C   UNL     1      13.113 -16.474   3.198  1.00  0.00     0.037 A 
ATOM     51  C   UNL     1      16.597 -12.880  -1.701  1.00  0.00     0.037 A 
ATOM     52  C   UNL     1      14.505 -16.814   3.070  1.00  0.00     0.049 A 
ATOM     53  C   UNL     1      17.277 -13.901  -0.829  1.00  0.00     0.074 A 
ATOM     54  C   UNL     1      15.231 -17.760   3.773  1.00  0.00     0.029 A 
ATOM     55  N   UNL     1      15.384 -16.219   2.176  1.00  0.00    -0.354 N 
ATOM     56  N   UNL     1      16.765 -14.667   0.103  1.00  0.00    -0.248 NA
ATOM     57  C   UNL     1      18.719 -14.092  -1.036  1.00  0.00     0.031 C 
ATOM     58  C   UNL     1      16.558 -17.709   3.333  1.00  0.00     0.029 A 
ATOM     59  C   UNL     1      16.648 -16.767   2.321  1.00  0.00     0.049 A 
ATOM     60  H   UNL     1      15.144 -15.513   1.534  1.00  0.00     0.167 HD
ATOM     61  C   UNL     1      17.811 -15.451   0.570  1.00  0.00     0.074 A 
ATOM     62  C   UNL     1      18.985 -15.079  -0.192  1.00  0.00     0.031 C 
ATOM     63  C   UNL     1      17.801 -16.395   1.543  1.00  0.00     0.037 A 
BRANCH  50  64
ATOM     64  C   UNL     1      12.309 -17.165   4.261  1.00  0.00     0.064 A 
ATOM     65  C   UNL     1      11.328 -18.115   3.938  1.00  0.00     0.173 A 
ATOM     66  C   UNL     1      12.552 -16.908   5.618  1.00  0.00     0.173 A 
ATOM     67  F   UNL     1      11.048 -18.389   2.655  1.00  0.00    -0.203 F 
ATOM     68  C   UNL     1      10.602 -18.763   4.935  1.00  0.00     0.198 A 
ATOM     69  C   UNL     1      11.845 -17.579   6.613  1.00  0.00     0.198 A 
ATOM     70  F   UNL     1      13.482 -16.012   5.981  1.00  0.00    -0.203 F 
ATOM     71  F   UNL     1       9.638 -19.632   4.602  1.00  0.00    -0.200 F 
ATOM     72  C   UNL     1      10.867 -18.500   6.271  1.00  0.00     0.200 A 
ATOM     73  F   UNL     1      12.111 -17.334   7.903  1.00  0.00    -0.200 F 
ATOM     74  F   UNL     1      10.174 -19.131   7.229  1.00  0.00    -0.200 F 
ENDBRANCH  50  64
BRANCH  51  75
ATOM     75  C   UNL     1      17.368 -12.109  -2.711  1.00  0.00     0.064 A 
ATOM     76  C   UNL     1      17.909 -12.740  -3.840  1.00  0.00     0.173 A 
ATOM     77  C   UNL     1      17.595 -10.733  -2.562  1.00  0.00     0.173 A 
ATOM     78  F   UNL     1      17.735 -14.059  -4.016  1.00  0.00    -0.203 F 
ATOM     79  C   UNL     1      18.669 -12.031  -4.767  1.00  0.00     0.198 A 
ATOM     80  C   UNL     1      18.331 -10.019  -3.505  1.00  0.00     0.198 A 
ATOM     81  F   UNL     1      17.094 -10.080  -1.503  1.00  0.00    -0.203 F 
ATOM     82  F   UNL     1      19.218 -12.671  -5.809  1.00  0.00    -0.200 F 
ATOM     83  C   UNL     1      18.876 -10.670  -4.601  1.00  0.00     0.200 A 
ATOM     84  F   UNL     1      18.517  -8.701  -3.349  1.00  0.00    -0.200 F 
ATOM     85  F   UNL     1      19.608  -9.989  -5.493  1.00  0.00    -0.200 F 
ENDBRANCH  51  75
BRANCH  63  86
ATOM     86  C   UNL     1      19.087 -17.123   1.808  1.00  0.00     0.064 A 
ATOM     87  C   UNL     1      20.173 -16.498   2.439  1.00  0.00     0.173 A 
ATOM     88  C   UNL     1      19.220 -18.475   1.457  1.00  0.00     0.173 A 
ATOM     89  F   UNL     1      20.100 -15.202   2.781  1.00  0.00    -0.203 F 
ATOM     90  C   UNL     1      21.355 -17.192   2.682  1.00  0.00     0.198 A 
ATOM     91  C   UNL     1      20.392 -19.174   1.730  1.00  0.00     0.198 A 
ATOM     92  F   UNL     1      18.208 -19.121   0.858  1.00  0.00    -0.203 F 
ATOM     93  F   UNL     1      22.397 -16.561   3.240  1.00  0.00    -0.200 F 
ATOM     94  C   UNL     1      21.460 -18.531   2.334  1.00  0.00     0.200 A 
ATOM     95  F   UNL     1      20.487 -20.471   1.406  1.00  0.00    -0.200 F 
ATOM     96  F   UNL     1      22.597 -19.199   2.575  1.00  0.00    -0.200 F 
ENDBRANCH  63  86
ENDBRANCH  37  38
ENDBRANCH  29  32
ENDBRANCH  27  28
ENDBRANCH  26  27
ENDBRANCH   1  26
TORSDOF 14
