REMARK SMILES O=C(NCCCCNC(=O)c1ccccc1[C@@H]1SCC(=O)N1NC(=S)Nc1ccccc1)c1ccc(-c2c3nc(c(-c4c(F)c(F)c(F)c(F)c4F)c4ccc([nH]4)c(-c4c(F)c(F)c(F)c(F)c4F)c4nc(c(-c5c(F)c(F)c(F)c(F)c5F)c5ccc2[nH]5)C=C4)C=C3)cc1
REMARK SMILES IDX 7 1 6 2 5 3 4 4 3 5 1 6 2 7 33 9 34 10 95 11 35 12 94 13
REMARK SMILES IDX 36 14 37 15 38 16 88 17 39 18 93 19 87 20 89 21 40 22 92 23
REMARK SMILES IDX 86 24 85 25 41 27 73 28 53 29 72 30 54 31 57 32 71 33 90 34
REMARK SMILES IDX 55 35 56 36 70 38 91 39 58 40 42 41 43 42 51 43 44 44 45 45
REMARK SMILES IDX 49 46 52 47 46 48 47 49 50 50 48 51 74 52 75 53 83 54 76 55
REMARK SMILES IDX 77 56 81 57 84 58 78 59 79 60 82 61 80 62 59 63 60 64 68 65
REMARK SMILES IDX 61 66 62 67 66 68 69 69 63 70 64 71 67 72 65 73 8 74 9 75
REMARK SMILES IDX 10 77 11 78 12 79 16 80 13 81 15 82 14 83 17 84 18 85 22 86
REMARK SMILES IDX 19 87 20 88 21 89 23 90 24 92 25 93 26 94 27 96 28 97 32 98
REMARK SMILES IDX 29 99 31 100 30 101
REMARK H PARENT 3 8 89 26 57 37 8 76 23 91 26 95
REMARK Flexibility Score: inf
ROOT
ATOM      1  C   UNL     1       5.435   3.059   3.293  1.00  0.00     0.116 C 
ENDROOT
BRANCH   1   2
ATOM      2  C   UNL     1       5.324   3.730   1.911  1.00  0.00     0.023 C 
BRANCH   2   3
ATOM      3  C   UNL     1       5.811   2.883   0.722  1.00  0.00     0.023 C 
BRANCH   3   4
ATOM      4  C   UNL     1       4.846   2.160  -0.252  1.00  0.00     0.116 C 
BRANCH   4   5
ATOM      5  N   UNL     1       3.476   1.867   0.130  1.00  0.00    -0.352 N 
ATOM      6  O   UNL     1       1.387   1.110  -0.347  1.00  0.00    -0.269 OA
ATOM      7  C   UNL     1       2.580   1.081  -0.600  1.00  0.00     0.251 C 
ATOM      8  H   UNL     1       3.151   2.254   0.975  1.00  0.00     0.163 HD
BRANCH   7   9
ATOM      9  C   UNL     1       3.076   0.205  -1.697  1.00  0.00     0.039 A 
ATOM     10  C   UNL     1       3.963  -0.827  -1.415  1.00  0.00     0.014 A 
ATOM     11  C   UNL     1       2.651   0.380  -3.011  1.00  0.00     0.014 A 
ATOM     12  C   UNL     1       4.579  -1.562  -2.421  1.00  0.00     0.010 A 
ATOM     13  C   UNL     1       3.219  -0.402  -4.033  1.00  0.00     0.010 A 
ATOM     14  C   UNL     1       4.234  -1.339  -3.752  1.00  0.00    -0.014 A 
BRANCH  14  15
ATOM     15  C   UNL     1       5.001  -2.005  -4.840  1.00  0.00     0.031 A 
ATOM     16  C   UNL     1       5.810  -1.162  -5.789  1.00  0.00     0.074 A 
ATOM     17  C   UNL     1       5.021  -3.347  -4.964  1.00  0.00     0.049 A 
ATOM     18  N   UNL     1       6.418  -1.504  -6.897  1.00  0.00    -0.248 NA
ATOM     19  C   UNL     1       5.948   0.264  -5.449  1.00  0.00     0.031 C 
ATOM     20  C   UNL     1       4.348  -4.293  -4.074  1.00  0.00     0.029 A 
ATOM     21  N   UNL     1       5.627  -4.149  -5.903  1.00  0.00    -0.354 N 
ATOM     22  C   UNL     1       6.952  -0.331  -7.414  1.00  0.00     0.074 A 
ATOM     23  C   UNL     1       6.605   0.734  -6.499  1.00  0.00     0.031 C 
ATOM     24  C   UNL     1       4.572  -5.543  -4.510  1.00  0.00     0.029 A 
ATOM     25  C   UNL     1       5.343  -5.485  -5.749  1.00  0.00     0.049 A 
ATOM     26  H   UNL     1       6.209  -3.800  -6.616  1.00  0.00     0.167 HD
ATOM     27  C   UNL     1       7.665  -0.160  -8.552  1.00  0.00     0.037 A 
ATOM     28  C   UNL     1       5.622  -6.537  -6.543  1.00  0.00     0.037 A 
ATOM     29  C   UNL     1       8.067  -1.230  -9.426  1.00  0.00     0.049 A 
ATOM     30  C   UNL     1       6.375  -6.315  -7.827  1.00  0.00     0.074 A 
ATOM     31  C   UNL     1       8.846  -1.163 -10.568  1.00  0.00     0.029 A 
ATOM     32  N   UNL     1       7.726  -2.562  -9.250  1.00  0.00    -0.354 N 
ATOM     33  N   UNL     1       6.859  -5.201  -8.319  1.00  0.00    -0.248 NA
ATOM     34  C   UNL     1       6.605  -7.494  -8.675  1.00  0.00     0.031 C 
ATOM     35  C   UNL     1       8.938  -2.448 -11.110  1.00  0.00     0.029 A 
ATOM     36  C   UNL     1       8.252  -3.322 -10.282  1.00  0.00     0.049 A 
ATOM     37  H   UNL     1       7.190  -2.915  -8.503  1.00  0.00     0.167 HD
ATOM     38  C   UNL     1       7.455  -5.543  -9.525  1.00  0.00     0.074 A 
ATOM     39  C   UNL     1       7.291  -6.973  -9.682  1.00  0.00     0.031 C 
ATOM     40  C   UNL     1       8.077  -4.743 -10.424  1.00  0.00     0.037 A 
BRANCH  27  41
ATOM     41  C   UNL     1       8.030   1.240  -8.948  1.00  0.00     0.064 A 
ATOM     42  C   UNL     1       9.037   1.961  -8.293  1.00  0.00     0.173 A 
ATOM     43  C   UNL     1       7.396   1.843 -10.046  1.00  0.00     0.173 A 
ATOM     44  F   UNL     1       9.662   1.435  -7.229  1.00  0.00    -0.203 F 
ATOM     45  C   UNL     1       9.388   3.242  -8.714  1.00  0.00     0.198 A 
ATOM     46  C   UNL     1       7.766   3.112 -10.479  1.00  0.00     0.198 A 
ATOM     47  F   UNL     1       6.427   1.192 -10.707  1.00  0.00    -0.203 F 
ATOM     48  F   UNL     1      10.331   3.928  -8.054  1.00  0.00    -0.200 F 
ATOM     49  C   UNL     1       8.759   3.812  -9.811  1.00  0.00     0.200 A 
ATOM     50  F   UNL     1       7.164   3.657 -11.546  1.00  0.00    -0.200 F 
ATOM     51  F   UNL     1       9.107   5.039 -10.223  1.00  0.00    -0.200 F 
ENDBRANCH  27  41
BRANCH  28  52
ATOM     52  C   UNL     1       5.126  -7.891  -6.178  1.00  0.00     0.064 A 
ATOM     53  C   UNL     1       6.009  -8.913  -5.807  1.00  0.00     0.173 A 
ATOM     54  C   UNL     1       3.755  -8.189  -6.201  1.00  0.00     0.173 A 
ATOM     55  F   UNL     1       7.331  -8.686  -5.801  1.00  0.00    -0.203 F 
ATOM     56  C   UNL     1       5.540 -10.184  -5.479  1.00  0.00     0.198 A 
ATOM     57  C   UNL     1       3.285  -9.451  -5.845  1.00  0.00     0.198 A 
ATOM     58  F   UNL     1       2.868  -7.248  -6.557  1.00  0.00    -0.203 F 
ATOM     59  F   UNL     1       6.409 -11.156  -5.167  1.00  0.00    -0.200 F 
ATOM     60  C   UNL     1       4.179 -10.450  -5.490  1.00  0.00     0.200 A 
ATOM     61  F   UNL     1       1.969  -9.699  -5.846  1.00  0.00    -0.200 F 
ATOM     62  F   UNL     1       3.729 -11.670  -5.167  1.00  0.00    -0.200 F 
ENDBRANCH  28  52
BRANCH  40  63
ATOM     63  C   UNL     1       8.637  -5.395 -11.652  1.00  0.00     0.064 A 
ATOM     64  C   UNL     1       7.804  -5.821 -12.696  1.00  0.00     0.173 A 
ATOM     65  C   UNL     1      10.023  -5.549 -11.808  1.00  0.00     0.173 A 
ATOM     66  F   UNL     1       6.472  -5.708 -12.585  1.00  0.00    -0.203 F 
ATOM     67  C   UNL     1       8.338  -6.395 -13.847  1.00  0.00     0.198 A 
ATOM     68  C   UNL     1      10.554  -6.101 -12.970  1.00  0.00     0.198 A 
ATOM     69  F   UNL     1      10.861  -5.151 -10.840  1.00  0.00    -0.203 F 
ATOM     70  F   UNL     1       7.522  -6.830 -14.817  1.00  0.00    -0.200 F 
ATOM     71  C   UNL     1       9.712  -6.528 -13.986  1.00  0.00     0.200 A 
ATOM     72  F   UNL     1      11.882  -6.218 -13.108  1.00  0.00    -0.200 F 
ATOM     73  F   UNL     1      10.224  -7.073 -15.098  1.00  0.00    -0.200 F 
ENDBRANCH  40  63
ENDBRANCH  14  15
ENDBRANCH   7   9
ENDBRANCH   4   5
ENDBRANCH   3   4
ENDBRANCH   2   3
ENDBRANCH   1   2
BRANCH   1  74
ATOM     74  N   UNL     1       6.771   2.750   3.782  1.00  0.00    -0.352 N 
ATOM     75  C   UNL     1       7.100   2.277   5.043  1.00  0.00     0.251 C 
ATOM     76  H   UNL     1       7.516   2.891   3.154  1.00  0.00     0.163 HD
ATOM     77  O   UNL     1       8.095   1.571   5.201  1.00  0.00    -0.269 OA
BRANCH  75  78
ATOM     78  C   UNL     1       6.372   2.710   6.262  1.00  0.00     0.046 A 
ATOM     79  C   UNL     1       6.798   3.975   6.710  1.00  0.00     0.014 A 
ATOM     80  C   UNL     1       5.550   1.901   7.093  1.00  0.00    -0.001 A 
ATOM     81  C   UNL     1       6.409   4.466   7.954  1.00  0.00     0.001 A 
ATOM     82  C   UNL     1       5.157   2.443   8.342  1.00  0.00     0.007 A 
ATOM     83  C   UNL     1       5.582   3.703   8.767  1.00  0.00     0.000 A 
BRANCH  80  84
ATOM     84  C   UNL     1       5.055   0.479   6.820  1.00  0.00     0.197 C 
ATOM     85  S   UNL     1       6.260  -0.786   7.271  1.00  0.00    -0.120 SA
ATOM     86  N   UNL     1       4.669   0.230   5.452  1.00  0.00    -0.236 N 
ATOM     87  C   UNL     1       6.449  -1.334   5.559  1.00  0.00     0.174 C 
ATOM     88  C   UNL     1       5.724  -0.307   4.714  1.00  0.00     0.252 C 
ATOM     89  O   UNL     1       6.080  -0.016   3.580  1.00  0.00    -0.272 OA
BRANCH  86  90
ATOM     90  N   UNL     1       3.545   0.977   5.026  1.00  0.00    -0.270 N 
ATOM     91  H   UNL     1       3.198   1.596   5.708  1.00  0.00     0.191 HD
BRANCH  90  92
ATOM     92  C   UNL     1       2.854   1.004   3.862  1.00  0.00     0.189 C 
ATOM     93  S   UNL     1       1.734   2.244   3.688  1.00  0.00    -0.039 S 
BRANCH  92  94
ATOM     94  N   UNL     1       3.131   0.236   2.796  1.00  0.00    -0.331 N 
ATOM     95  H   UNL     1       2.975   0.668   1.925  1.00  0.00     0.169 HD
BRANCH  94  96
ATOM     96  C   UNL     1       3.602  -1.072   2.721  1.00  0.00     0.040 A 
ATOM     97  C   UNL     1       4.657  -1.331   1.846  1.00  0.00     0.026 A 
ATOM     98  C   UNL     1       3.038  -2.105   3.453  1.00  0.00     0.026 A 
ATOM     99  C   UNL     1       5.191  -2.608   1.720  1.00  0.00     0.002 A 
ATOM    100  C   UNL     1       3.530  -3.402   3.283  1.00  0.00     0.002 A 
ATOM    101  C   UNL     1       4.611  -3.651   2.429  1.00  0.00     0.000 A 
ENDBRANCH  94  96
ENDBRANCH  92  94
ENDBRANCH  90  92
ENDBRANCH  86  90
ENDBRANCH  80  84
ENDBRANCH  75  78
ENDBRANCH   1  74
TORSDOF 16
