REMARK SMILES C=C1C(=O)O[C@H]2[C@@H]1[C@@H](OC(=O)[C@]1(C)O[C@@H]1C)[C@@H](OC(C)=O)/C(C(=O)NCCCCNC(=O)c1ccc(-c3c4nc(c(-c5c(F)c(F)c(F)c(F)c5F)c5ccc([nH]5)c(-c5c(F)c(F)c(F)c(F)c5F)c5nc(c(-c6c(F)c(F)c(F)c(F)c6F)c6ccc3[nH]6)C=C5)C=C4)cc1)=C/[C@@H]1O[C@@H]1[C@]1(C)O[C@H]21
REMARK SMILES IDX 26 1 25 2 23 3 24 4 22 6 96 7 17 8 8 9 7 10 1 11 2 12 3 13
REMARK SMILES IDX 5 14 4 15 6 16 9 18 10 19 11 20 12 21 14 22 15 23 13 24
REMARK SMILES IDX 16 25 18 26 19 27 20 28 21 29 97 30 98 31 99 32 100 33
REMARK SMILES IDX 102 34 103 35 101 36 27 38 28 39 29 40 30 41 31 42 32 44
REMARK SMILES IDX 33 45 34 46 95 47 35 48 94 49 36 50 37 51 38 52 88 53 39 54
REMARK SMILES IDX 93 55 87 56 89 57 40 58 92 59 86 60 85 61 41 63 73 64 53 65
REMARK SMILES IDX 72 66 54 67 57 68 71 69 90 70 55 71 56 72 70 74 91 75 58 76
REMARK SMILES IDX 42 77 43 78 51 79 44 80 45 81 49 82 52 83 46 84 47 85 50 86
REMARK SMILES IDX 48 87 74 88 75 89 83 90 76 91 77 92 81 93 84 94 78 95 79 96
REMARK SMILES IDX 82 97 80 98 59 99 60 100 68 101 61 102 62 103 66 104 69 105
REMARK SMILES IDX 63 106 64 107 67 108 65 109
REMARK H PARENT 25 5 30 43 89 62 57 73
REMARK Flexibility Score: 90.00
ROOT
ATOM      1  C   UNL     1      -2.029  -2.619   0.815  1.00  0.00     0.116 C 
ENDROOT
BRANCH   1   2
ATOM      2  N   UNL     1      -1.537  -2.558   2.140  1.00  0.00    -0.352 N 
ATOM      3  C   UNL     1      -2.030  -3.081   3.283  1.00  0.00     0.250 C 
ATOM      4  O   UNL     1      -1.474  -2.559   4.255  1.00  0.00    -0.270 OA
ATOM      5  H   UNL     1      -0.700  -2.052   2.246  1.00  0.00     0.163 HD
BRANCH   3   6
ATOM      6  C   UNL     1      -3.239  -4.118   3.464  1.00  0.00     0.060 C 
ATOM      7  C   UNL     1      -3.120  -5.396   3.085  1.00  0.00     0.020 C 
BRANCH   6   8
ATOM      8  C   UNL     1      -4.395  -3.839   4.588  1.00  0.00     0.253 C 
BRANCH   8   9
ATOM      9  C   UNL     1      -3.903  -2.579   5.139  1.00  0.00     0.233 C 
BRANCH   9  10
ATOM     10  C   UNL     1      -2.772  -3.289   6.217  1.00  0.00     0.115 C 
ATOM     11  C   UNL     1      -1.350  -1.560   7.554  1.00  0.00     0.021 C 
ATOM     12  C   UNL     1      -1.925  -2.736   7.314  1.00  0.00     0.041 C 
ATOM     13  C   UNL     1      -1.624  -3.914   8.208  1.00  0.00     0.334 C 
ATOM     14  O   UNL     1      -1.739  -5.040   7.438  1.00  0.00    -0.455 OA
ATOM     15  O   UNL     1      -1.404  -3.892   9.390  1.00  0.00    -0.247 OA
ATOM     16  C   UNL     1      -1.960  -4.675   6.048  1.00  0.00     0.220 CG0
ATOM     17  G   UNL     1      -0.588  -4.649   5.397  1.00  0.00     0.000 G0
ENDBRANCH   9  10
BRANCH   9  18
ATOM     18  O   UNL     1      -4.033  -1.788   3.722  1.00  0.00    -0.455 OA
BRANCH  18  19
ATOM     19  C   UNL     1      -4.774  -1.931   2.408  1.00  0.00     0.341 C 
ATOM     20  O   UNL     1      -4.768  -0.939   1.677  1.00  0.00    -0.249 OA
BRANCH  19  21
ATOM     21  C   UNL     1      -5.546  -3.242   1.742  1.00  0.00     0.188 C 
ATOM     22  O   UNL     1      -4.776  -4.348   1.287  1.00  0.00    -0.354 OA
ATOM     23  C   UNL     1      -5.348  -3.695   0.167  1.00  0.00     0.160 C 
ATOM     24  C   UNL     1      -6.959  -3.675   2.111  1.00  0.00     0.058 C 
ATOM     25  C   UNL     1      -4.366  -3.668  -0.949  1.00  0.00     0.042 C 
ENDBRANCH  19  21
ENDBRANCH  18  19
ENDBRANCH   9  18
ENDBRANCH   8   9
BRANCH   8  26
ATOM     26  O   UNL     1      -5.826  -3.763   4.381  1.00  0.00    -0.453 OA
BRANCH  26  27
ATOM     27  C   UNL     1      -6.626  -2.768   4.911  1.00  0.00     0.303 C 
ATOM     28  C   UNL     1      -7.849  -3.340   5.543  1.00  0.00     0.139 C 
ATOM     29  O   UNL     1      -6.447  -1.562   4.817  1.00  0.00    -0.253 OA
ENDBRANCH  26  27
ENDBRANCH   8  26
ENDBRANCH   6   8
BRANCH   7  30
ATOM     30  C   UNL     1      -2.052  -6.114   2.432  1.00  0.00     0.174 C 
ATOM     31  O   UNL     1      -1.561  -7.253   3.173  1.00  0.00    -0.362 OA
ATOM     32  C   UNL     1      -0.627  -6.215   2.907  1.00  0.00     0.186 C 
BRANCH  32  33
ATOM     33  C   UNL     1      -0.169  -5.238   4.002  1.00  0.00     0.125 C 
ATOM     34  O   UNL     1       0.087  -5.896   5.257  1.00  0.00    -0.359 OA
ATOM     35  C   UNL     1      -0.588  -4.649   5.397  1.00  0.00     0.195 CG0
ATOM     36  C   UNL     1       1.010  -4.453   3.439  1.00  0.00     0.048 C 
ATOM     37  G   UNL     1      -1.960  -4.675   6.048  1.00  0.00     0.000 G0
ENDBRANCH  32  33
ENDBRANCH   7  30
ENDBRANCH   3   6
ENDBRANCH   1   2
BRANCH   1  38
ATOM     38  C   UNL     1      -2.078  -1.283   0.070  1.00  0.00     0.023 C 
BRANCH  38  39
ATOM     39  C   UNL     1      -0.816  -0.853  -0.661  1.00  0.00     0.023 C 
BRANCH  39  40
ATOM     40  C   UNL     1      -0.012  -1.965  -1.306  1.00  0.00     0.116 C 
BRANCH  40  41
ATOM     41  N   UNL     1      -0.748  -2.780  -2.265  1.00  0.00    -0.352 N 
ATOM     42  C   UNL     1      -0.297  -3.309  -3.455  1.00  0.00     0.251 C 
ATOM     43  H   UNL     1      -1.685  -2.976  -2.034  1.00  0.00     0.163 HD
ATOM     44  O   UNL     1      -1.039  -3.966  -4.175  1.00  0.00    -0.269 OA
BRANCH  42  45
ATOM     45  C   UNL     1       1.085  -3.007  -3.876  1.00  0.00     0.039 A 
ATOM     46  C   UNL     1       1.300  -2.445  -5.136  1.00  0.00     0.014 A 
ATOM     47  C   UNL     1       2.138  -3.144  -2.970  1.00  0.00     0.014 A 
ATOM     48  C   UNL     1       2.559  -1.932  -5.449  1.00  0.00     0.010 A 
ATOM     49  C   UNL     1       3.348  -2.519  -3.235  1.00  0.00     0.010 A 
ATOM     50  C   UNL     1       3.578  -1.917  -4.482  1.00  0.00    -0.014 A 
BRANCH  50  51
ATOM     51  C   UNL     1       4.903  -1.306  -4.761  1.00  0.00     0.031 A 
ATOM     52  C   UNL     1       6.144  -2.152  -4.677  1.00  0.00     0.074 A 
ATOM     53  C   UNL     1       5.000   0.013  -5.022  1.00  0.00     0.049 A 
ATOM     54  N   UNL     1       7.397  -1.806  -4.829  1.00  0.00    -0.248 NA
ATOM     55  C   UNL     1       5.955  -3.572  -4.334  1.00  0.00     0.031 C 
ATOM     56  C   UNL     1       3.880   0.956  -5.061  1.00  0.00     0.029 A 
ATOM     57  N   UNL     1       6.096   0.790  -5.301  1.00  0.00    -0.354 N 
ATOM     58  C   UNL     1       8.136  -2.955  -4.580  1.00  0.00     0.074 A 
ATOM     59  C   UNL     1       7.203  -3.985  -4.187  1.00  0.00     0.031 C 
ATOM     60  C   UNL     1       4.342   2.174  -5.385  1.00  0.00     0.029 A 
ATOM     61  C   UNL     1       5.792   2.109  -5.540  1.00  0.00     0.049 A 
ATOM     62  H   UNL     1       7.014   0.437  -5.328  1.00  0.00     0.167 HD
ATOM     63  C   UNL     1       9.470  -3.147  -4.705  1.00  0.00     0.037 A 
ATOM     64  C   UNL     1       6.594   3.146  -5.850  1.00  0.00     0.037 A 
ATOM     65  C   UNL     1      10.391  -2.128  -5.131  1.00  0.00     0.049 A 
ATOM     66  C   UNL     1       8.073   2.905  -5.998  1.00  0.00     0.074 A 
ATOM     67  C   UNL     1      11.752  -2.233  -5.356  1.00  0.00     0.029 A 
ATOM     68  N   UNL     1      10.041  -0.811  -5.393  1.00  0.00    -0.354 N 
ATOM     69  N   UNL     1       8.753   1.794  -5.843  1.00  0.00    -0.248 NA
ATOM     70  C   UNL     1       8.896   4.062  -6.378  1.00  0.00     0.031 C 
ATOM     71  C   UNL     1      12.235  -0.967  -5.700  1.00  0.00     0.029 A 
ATOM     72  C   UNL     1      11.165  -0.088  -5.756  1.00  0.00     0.049 A 
ATOM     73  H   UNL     1       9.129  -0.446  -5.331  1.00  0.00     0.167 HD
ATOM     74  C   UNL     1      10.073   2.108  -6.139  1.00  0.00     0.074 A 
ATOM     75  C   UNL     1      10.096   3.511  -6.497  1.00  0.00     0.031 C 
ATOM     76  C   UNL     1      11.168   1.307  -6.119  1.00  0.00     0.037 A 
BRANCH  63  77
ATOM     77  C   UNL     1      10.004  -4.514  -4.382  1.00  0.00     0.064 A 
ATOM     78  C   UNL     1       9.689  -5.637  -5.165  1.00  0.00     0.173 A 
ATOM     79  C   UNL     1      10.846  -4.706  -3.276  1.00  0.00     0.173 A 
ATOM     80  F   UNL     1       8.875  -5.514  -6.225  1.00  0.00    -0.203 F 
ATOM     81  C   UNL     1      10.160  -6.903  -4.829  1.00  0.00     0.198 A 
ATOM     82  C   UNL     1      11.348  -5.967  -2.966  1.00  0.00     0.198 A 
ATOM     83  F   UNL     1      11.183  -3.669  -2.494  1.00  0.00    -0.203 F 
ATOM     84  F   UNL     1       9.787  -7.968  -5.551  1.00  0.00    -0.200 F 
ATOM     85  C   UNL     1      10.995  -7.066  -3.734  1.00  0.00     0.200 A 
ATOM     86  F   UNL     1      12.166  -6.121  -1.915  1.00  0.00    -0.200 F 
ATOM     87  F   UNL     1      11.451  -8.285  -3.413  1.00  0.00    -0.200 F 
ENDBRANCH  63  77
BRANCH  64  88
ATOM     88  C   UNL     1       6.012   4.495  -6.083  1.00  0.00     0.064 A 
ATOM     89  C   UNL     1       6.007   5.067  -7.364  1.00  0.00     0.173 A 
ATOM     90  C   UNL     1       5.455   5.242  -5.035  1.00  0.00     0.173 A 
ATOM     91  F   UNL     1       6.545   4.401  -8.396  1.00  0.00    -0.203 F 
ATOM     92  C   UNL     1       5.489   6.342  -7.583  1.00  0.00     0.198 A 
ATOM     93  C   UNL     1       4.909   6.505  -5.261  1.00  0.00     0.198 A 
ATOM     94  F   UNL     1       5.429   4.740  -3.792  1.00  0.00    -0.203 F 
ATOM     95  F   UNL     1       5.542   6.883  -8.807  1.00  0.00    -0.200 F 
ATOM     96  C   UNL     1       4.935   7.057  -6.532  1.00  0.00     0.200 A 
ATOM     97  F   UNL     1       4.361   7.186  -4.246  1.00  0.00    -0.200 F 
ATOM     98  F   UNL     1       4.432   8.281  -6.744  1.00  0.00    -0.200 F 
ENDBRANCH  64  88
BRANCH  76  99
ATOM     99  C   UNL     1      12.475   1.915  -6.541  1.00  0.00     0.064 A 
ATOM    100  C   UNL     1      13.136   2.872  -5.758  1.00  0.00     0.173 A 
ATOM    101  C   UNL     1      13.091   1.504  -7.734  1.00  0.00     0.173 A 
ATOM    102  F   UNL     1      12.585   3.307  -4.615  1.00  0.00    -0.203 F 
ATOM    103  C   UNL     1      14.348   3.420  -6.170  1.00  0.00     0.198 A 
ATOM    104  C   UNL     1      14.320   2.027  -8.124  1.00  0.00     0.198 A 
ATOM    105  F   UNL     1      12.506   0.584  -8.516  1.00  0.00    -0.203 F 
ATOM    106  F   UNL     1      14.934   4.375  -5.434  1.00  0.00    -0.200 F 
ATOM    107  C   UNL     1      14.943   2.992  -7.347  1.00  0.00     0.200 A 
ATOM    108  F   UNL     1      14.901   1.598  -9.253  1.00  0.00    -0.200 F 
ATOM    109  F   UNL     1      16.113   3.515  -7.738  1.00  0.00    -0.200 F 
ENDBRANCH  76  99
ENDBRANCH  50  51
ENDBRANCH  42  45
ENDBRANCH  40  41
ENDBRANCH  39  40
ENDBRANCH  38  39
ENDBRANCH   1  38
TORSDOF 16
