REMARK SMILES [NH3+]CC(=O)N1C[C@H](O)C[C@H]1C(=O)NCCCCNC(=O)c1ccc(-c2c3nc(c(-c4c(F)c(F)c(F)c(F)c4F)c4ccc([nH]4)c(-c4c(F)c(F)c(F)c(F)c4F)c4nc(c(-c5c(F)c(F)c(F)c(F)c5F)c5ccc2[nH]5)C=C4)C=C3)cc1
REMARK SMILES IDX 15 1 14 2 13 3 11 4 12 5 10 7 5 8 6 9 7 10 9 11 3 12 4 13
REMARK SMILES IDX 2 14 1 15 8 19 16 21 17 22 18 23 19 24 20 26 21 27 22 28
REMARK SMILES IDX 83 29 23 30 82 31 24 32 25 33 26 34 76 35 27 36 81 37 75 38
REMARK SMILES IDX 77 39 28 40 80 41 74 42 73 43 29 45 61 46 41 47 60 48 42 49
REMARK SMILES IDX 45 50 59 51 78 52 43 53 44 54 58 56 79 57 46 58 30 59 31 60
REMARK SMILES IDX 39 61 32 62 33 63 37 64 40 65 34 66 35 67 38 68 36 69 62 70
REMARK SMILES IDX 63 71 71 72 64 73 65 74 69 75 72 76 66 77 67 78 70 79 68 80
REMARK SMILES IDX 47 81 48 82 56 83 49 84 50 85 54 86 57 87 51 88 52 89 55 90
REMARK SMILES IDX 53 91
REMARK H PARENT 13 6 1 16 1 17 1 18 8 20 18 25 77 44 45 55
REMARK Flexibility Score: inf
ROOT
ATOM      1  C   UNL     1       1.471   4.797  -0.726  1.00  0.00     0.023 C 
ENDROOT
BRANCH   1   2
ATOM      2  C   UNL     1       2.701   4.859   0.169  1.00  0.00     0.116 C 
BRANCH   2   3
ATOM      3  N   UNL     1       2.375   5.167   1.541  1.00  0.00    -0.354 N 
ATOM      4  C   UNL     1       2.508   4.413   2.668  1.00  0.00     0.242 C 
ATOM      5  O   UNL     1       2.376   5.002   3.747  1.00  0.00    -0.273 OA
ATOM      6  H   UNL     1       1.997   6.064   1.686  1.00  0.00     0.163 HD
BRANCH   4   7
ATOM      7  C   UNL     1       3.025   2.961   2.634  1.00  0.00     0.177 C 
ATOM      8  N   UNL     1       2.449   2.018   1.667  1.00  0.00    -0.323 N 
ATOM      9  C   UNL     1       3.480   1.293   0.938  1.00  0.00     0.152 C 
ATOM     10  C   UNL     1       4.786   1.619   1.659  1.00  0.00     0.136 C 
ATOM     11  C   UNL     1       4.535   2.949   2.356  1.00  0.00     0.069 C 
BRANCH   8  12
ATOM     12  C   UNL     1       1.104   1.710   1.743  1.00  0.00     0.278 C 
ATOM     13  O   UNL     1       0.326   2.434   2.368  1.00  0.00    -0.268 OA
BRANCH  12  14
ATOM     14  C   UNL     1       0.593   0.414   1.097  1.00  0.00     0.360 C 
BRANCH  14  15
ATOM     15  N   UNL     1       0.717   0.395  -0.363  1.00  0.00    -0.350 N 
ATOM     16  H   UNL     1       0.361  -0.490  -0.724  1.00  0.00     0.344 HD
ATOM     17  H   UNL     1       1.699   0.497  -0.622  1.00  0.00     0.344 HD
ATOM     18  H   UNL     1       0.179   1.165  -0.760  1.00  0.00     0.344 HD
ENDBRANCH  14  15
ENDBRANCH  12  14
ENDBRANCH   8  12
BRANCH  10  19
ATOM     19  O   UNL     1       5.093   0.613   2.619  1.00  0.00    -0.391 OA
ATOM     20  H   UNL     1       4.363   0.539   3.254  1.00  0.00     0.211 HD
ENDBRANCH  10  19
ENDBRANCH   4   7
ENDBRANCH   2   3
ENDBRANCH   1   2
BRANCH   1  21
ATOM     21  C   UNL     1       0.720   6.122  -0.872  1.00  0.00     0.023 C 
BRANCH  21  22
ATOM     22  C   UNL     1       1.571   7.320  -1.279  1.00  0.00     0.116 C 
BRANCH  22  23
ATOM     23  N   UNL     1       2.293   7.116  -2.526  1.00  0.00    -0.352 N 
ATOM     24  C   UNL     1       2.435   7.969  -3.594  1.00  0.00     0.251 C 
ATOM     25  H   UNL     1       2.744   6.246  -2.617  1.00  0.00     0.163 HD
ATOM     26  O   UNL     1       2.990   7.589  -4.620  1.00  0.00    -0.269 OA
BRANCH  24  27
ATOM     27  C   UNL     1       1.880   9.336  -3.516  1.00  0.00     0.039 A 
ATOM     28  C   UNL     1       1.096   9.806  -4.572  1.00  0.00     0.014 A 
ATOM     29  C   UNL     1       2.104  10.137  -2.393  1.00  0.00     0.014 A 
ATOM     30  C   UNL     1       0.470  11.049  -4.467  1.00  0.00     0.010 A 
ATOM     31  C   UNL     1       1.420  11.342  -2.258  1.00  0.00     0.010 A 
ATOM     32  C   UNL     1       0.592  11.808  -3.291  1.00  0.00    -0.014 A 
BRANCH  32  33
ATOM     33  C   UNL     1      -0.153  13.080  -3.118  1.00  0.00     0.031 A 
ATOM     34  C   UNL     1       0.589  14.378  -2.960  1.00  0.00     0.074 A 
ATOM     35  C   UNL     1      -1.498  13.057  -3.034  1.00  0.00     0.049 A 
ATOM     36  N   UNL     1       0.118  15.579  -2.737  1.00  0.00    -0.248 NA
ATOM     37  C   UNL     1       2.056  14.313  -3.035  1.00  0.00     0.031 C 
ATOM     38  C   UNL     1      -2.329  11.855  -3.118  1.00  0.00     0.029 A 
ATOM     39  N   UNL     1      -2.402  14.073  -2.848  1.00  0.00    -0.354 N 
ATOM     40  C   UNL     1       1.228  16.407  -2.634  1.00  0.00     0.074 A 
ATOM     41  C   UNL     1       2.397  15.564  -2.762  1.00  0.00     0.031 C 
ATOM     42  C   UNL     1      -3.621  12.205  -3.009  1.00  0.00     0.029 A 
ATOM     43  C   UNL     1      -3.708  13.648  -2.808  1.00  0.00     0.049 A 
ATOM     44  H   UNL     1      -2.140  15.017  -2.752  1.00  0.00     0.167 HD
ATOM     45  C   UNL     1       1.268  17.751  -2.473  1.00  0.00     0.037 A 
ATOM     46  C   UNL     1      -4.846  14.343  -2.623  1.00  0.00     0.037 A 
ATOM     47  C   UNL     1       0.102  18.588  -2.367  1.00  0.00     0.049 A 
ATOM     48  C   UNL     1      -4.774  15.835  -2.437  1.00  0.00     0.074 A 
ATOM     49  C   UNL     1       0.036  19.967  -2.263  1.00  0.00     0.029 A 
ATOM     50  N   UNL     1      -1.206  18.124  -2.347  1.00  0.00    -0.354 N 
ATOM     51  N   UNL     1      -3.721  16.616  -2.418  1.00  0.00    -0.248 NA
ATOM     52  C   UNL     1      -6.049  16.541  -2.254  1.00  0.00     0.031 C 
ATOM     53  C   UNL     1      -1.308  20.332  -2.129  1.00  0.00     0.029 A 
ATOM     54  C   UNL     1      -2.084  19.187  -2.207  1.00  0.00     0.049 A 
ATOM     55  H   UNL     1      -1.470  17.178  -2.421  1.00  0.00     0.167 HD
ATOM     56  C   UNL     1      -4.207  17.906  -2.251  1.00  0.00     0.074 A 
ATOM     57  C   UNL     1      -5.650  17.804  -2.190  1.00  0.00     0.031 C 
ATOM     58  C   UNL     1      -3.519  19.070  -2.156  1.00  0.00     0.037 A 
BRANCH  45  59
ATOM     59  C   UNL     1       2.619  18.402  -2.406  1.00  0.00     0.064 A 
ATOM     60  C   UNL     1       3.457  18.477  -3.530  1.00  0.00     0.173 A 
ATOM     61  C   UNL     1       3.068  18.992  -1.215  1.00  0.00     0.173 A 
ATOM     62  F   UNL     1       3.081  17.920  -4.691  1.00  0.00    -0.203 F 
ATOM     63  C   UNL     1       4.705  19.090  -3.455  1.00  0.00     0.198 A 
ATOM     64  C   UNL     1       4.303  19.633  -1.152  1.00  0.00     0.198 A 
ATOM     65  F   UNL     1       2.305  18.956  -0.112  1.00  0.00    -0.203 F 
ATOM     66  F   UNL     1       5.508  19.104  -4.528  1.00  0.00    -0.200 F 
ATOM     67  C   UNL     1       5.123  19.675  -2.269  1.00  0.00     0.200 A 
ATOM     68  F   UNL     1       4.700  20.210  -0.009  1.00  0.00    -0.200 F 
ATOM     69  F   UNL     1       6.321  20.272  -2.201  1.00  0.00    -0.200 F 
ENDBRANCH  45  59
BRANCH  46  70
ATOM     70  C   UNL     1      -6.157  13.640  -2.630  1.00  0.00     0.064 A 
ATOM     71  C   UNL     1      -7.072  13.836  -3.673  1.00  0.00     0.173 A 
ATOM     72  C   UNL     1      -6.524  12.768  -1.595  1.00  0.00     0.173 A 
ATOM     73  F   UNL     1      -6.776  14.677  -4.675  1.00  0.00    -0.203 F 
ATOM     74  C   UNL     1      -8.314  13.204  -3.670  1.00  0.00     0.198 A 
ATOM     75  C   UNL     1      -7.754  12.113  -1.608  1.00  0.00     0.198 A 
ATOM     76  F   UNL     1      -5.682  12.542  -0.576  1.00  0.00    -0.203 F 
ATOM     77  F   UNL     1      -9.190  13.447  -4.655  1.00  0.00    -0.200 F 
ATOM     78  C   UNL     1      -8.652  12.338  -2.640  1.00  0.00     0.200 A 
ATOM     79  F   UNL     1      -8.070  11.266  -0.619  1.00  0.00    -0.200 F 
ATOM     80  F   UNL     1      -9.845  11.728  -2.639  1.00  0.00    -0.200 F 
ENDBRANCH  46  70
BRANCH  58  81
ATOM     81  C   UNL     1      -4.319  20.334  -2.016  1.00  0.00     0.064 A 
ATOM     82  C   UNL     1      -5.004  20.645  -0.832  1.00  0.00     0.173 A 
ATOM     83  C   UNL     1      -4.366  21.262  -3.067  1.00  0.00     0.173 A 
ATOM     84  F   UNL     1      -5.002  19.783   0.196  1.00  0.00    -0.203 F 
ATOM     85  C   UNL     1      -5.730  21.828  -0.716  1.00  0.00     0.198 A 
ATOM     86  C   UNL     1      -5.066  22.458  -2.935  1.00  0.00     0.198 A 
ATOM     87  F   UNL     1      -3.722  21.016  -4.217  1.00  0.00    -0.203 F 
ATOM     88  F   UNL     1      -6.418  22.081   0.405  1.00  0.00    -0.200 F 
ATOM     89  C   UNL     1      -5.754  22.736  -1.764  1.00  0.00     0.200 A 
ATOM     90  F   UNL     1      -5.076  23.342  -3.943  1.00  0.00    -0.200 F 
ATOM     91  F   UNL     1      -6.446  23.878  -1.647  1.00  0.00    -0.200 F 
ENDBRANCH  58  81
ENDBRANCH  32  33
ENDBRANCH  24  27
ENDBRANCH  22  23
ENDBRANCH  21  22
ENDBRANCH   1  21
TORSDOF 15
