REMARK SMILES COc1ccccc1OC1CCN(c2cccc(C(=O)NCCCCNC(=O)c3ccc(-c4c5nc(c(-c6c(F)c(F)c(F)c(F)c6F)c6ccc([nH]6)c(-c6c(F)c(F)c(F)c(F)c6F)c6nc(c(-c7c(F)c(F)c(F)c(F)c7F)c7ccc4[nH]7)C=C6)C=C5)cc3)n2)CC1
REMARK SMILES IDX 22 1 21 2 19 3 20 4 18 6 14 7 15 8 92 9 16 10 17 11 13 12
REMARK SMILES IDX 10 13 11 14 94 15 12 16 93 17 9 18 8 19 3 20 4 21 5 22 7 23
REMARK SMILES IDX 6 24 2 25 1 26 23 27 24 28 25 29 26 30 27 31 28 33 29 34
REMARK SMILES IDX 30 35 91 36 31 37 90 38 32 39 33 40 34 41 84 42 35 43 89 44
REMARK SMILES IDX 83 45 85 46 36 47 88 48 82 49 81 50 37 52 69 53 49 54 68 55
REMARK SMILES IDX 50 56 53 57 67 58 86 59 51 60 52 61 66 63 87 64 54 65 38 66
REMARK SMILES IDX 39 67 47 68 40 69 41 70 45 71 48 72 42 73 43 74 46 75 44 76
REMARK SMILES IDX 70 77 71 78 79 79 72 80 73 81 77 82 80 83 74 84 75 85 78 86
REMARK SMILES IDX 76 87 55 88 56 89 64 90 57 91 58 92 62 93 65 94 59 95 60 96
REMARK SMILES IDX 63 97 61 98
REMARK H PARENT 21 5 26 32 85 51 53 62
REMARK Flexibility Score: inf
ROOT
ATOM      1  C   UNL     1      -5.642  -4.081   1.779  1.00  0.00     0.116 C 
ENDROOT
BRANCH   1   2
ATOM      2  N   UNL     1      -4.225  -4.328   1.815  1.00  0.00    -0.351 N 
ATOM      3  C   UNL     1      -3.159  -3.781   1.147  1.00  0.00     0.269 C 
ATOM      4  O   UNL     1      -2.074  -4.323   1.384  1.00  0.00    -0.268 OA
ATOM      5  H   UNL     1      -3.967  -5.035   2.449  1.00  0.00     0.163 HD
BRANCH   3   6
ATOM      6  C   UNL     1      -3.220  -2.585   0.225  1.00  0.00     0.130 A 
ATOM      7  C   UNL     1      -1.832  -1.041  -0.831  1.00  0.00     0.129 A 
ATOM      8  C   UNL     1      -2.910  -0.254  -1.190  1.00  0.00     0.047 A 
ATOM      9  N   UNL     1      -1.984  -2.185  -0.152  1.00  0.00    -0.226 NA
ATOM     10  C   UNL     1      -4.189  -0.696  -0.887  1.00  0.00     0.006 A 
ATOM     11  C   UNL     1      -4.349  -1.886  -0.179  1.00  0.00     0.034 A 
BRANCH   7  12
ATOM     12  N   UNL     1      -0.549  -0.651  -1.111  1.00  0.00    -0.356 N 
ATOM     13  C   UNL     1       3.159  -0.040  -0.642  1.00  0.00     0.177 C 
ATOM     14  C   UNL     1       2.506  -1.775  -1.232  1.00  0.00     0.066 C 
ATOM     15  C   UNL     1       1.845   1.256  -0.027  1.00  0.00     0.066 C 
ATOM     16  C   UNL     1       0.618  -1.975  -1.647  1.00  0.00     0.122 C 
ATOM     17  C   UNL     1      -0.021   0.996  -0.494  1.00  0.00     0.122 C 
BRANCH  13  18
ATOM     18  O   UNL     1       3.792   0.569  -1.807  1.00  0.00    -0.486 OA
BRANCH  18  19
ATOM     19  C   UNL     1       2.826   0.771  -2.772  1.00  0.00     0.161 A 
ATOM     20  C   UNL     1       1.508   0.353  -2.534  1.00  0.00     0.160 A 
ATOM     21  C   UNL     1       0.535   0.557  -3.509  1.00  0.00     0.050 A 
ATOM     22  C   UNL     1       0.874   1.212  -4.696  1.00  0.00     0.004 A 
ATOM     23  C   UNL     1       3.172   1.413  -3.954  1.00  0.00     0.050 A 
ATOM     24  C   UNL     1       2.186   1.644  -4.914  1.00  0.00     0.004 A 
BRANCH  20  25
ATOM     25  O   UNL     1       1.376  -0.181  -1.267  1.00  0.00    -0.493 OA
ATOM     26  C   UNL     1       1.081  -0.915   0.409  1.00  0.00     0.278 C 
ENDBRANCH  20  25
ENDBRANCH  18  19
ENDBRANCH  13  18
ENDBRANCH   7  12
ENDBRANCH   3   6
ENDBRANCH   1   2
BRANCH   1  27
ATOM     27  C   UNL     1      -6.300  -4.950   0.708  1.00  0.00     0.023 C 
BRANCH  27  28
ATOM     28  C   UNL     1      -6.755  -6.312   1.240  1.00  0.00     0.023 C 
BRANCH  28  29
ATOM     29  C   UNL     1      -7.705  -6.239   2.429  1.00  0.00     0.116 C 
BRANCH  29  30
ATOM     30  N   UNL     1      -8.831  -5.340   2.214  1.00  0.00    -0.352 N 
ATOM     31  C   UNL     1     -10.109  -5.451   2.700  1.00  0.00     0.251 C 
ATOM     32  H   UNL     1      -8.652  -4.554   1.648  1.00  0.00     0.163 HD
ATOM     33  O   UNL     1     -10.991  -4.682   2.337  1.00  0.00    -0.269 OA
BRANCH  31  34
ATOM     34  C   UNL     1     -10.405  -6.545   3.639  1.00  0.00     0.039 A 
ATOM     35  C   UNL     1     -11.476  -7.395   3.366  1.00  0.00     0.014 A 
ATOM     36  C   UNL     1      -9.572  -6.770   4.738  1.00  0.00     0.014 A 
ATOM     37  C   UNL     1     -11.681  -8.510   4.175  1.00  0.00     0.010 A 
ATOM     38  C   UNL     1      -9.718  -7.933   5.480  1.00  0.00     0.010 A 
ATOM     39  C   UNL     1     -10.784  -8.806   5.217  1.00  0.00    -0.014 A 
BRANCH  39  40
ATOM     40  C   UNL     1     -10.963 -10.020   6.047  1.00  0.00     0.031 A 
ATOM     41  C   UNL     1     -11.241  -9.893   7.518  1.00  0.00     0.074 A 
ATOM     42  C   UNL     1     -10.843 -11.235   5.480  1.00  0.00     0.049 A 
ATOM     43  N   UNL     1     -11.462 -10.832   8.403  1.00  0.00    -0.248 NA
ATOM     44  C   UNL     1     -11.241  -8.533   8.078  1.00  0.00     0.031 C 
ATOM     45  C   UNL     1     -10.514 -11.484   4.076  1.00  0.00     0.029 A 
ATOM     46  N   UNL     1     -10.995 -12.489   6.014  1.00  0.00    -0.354 N 
ATOM     47  C   UNL     1     -11.614 -10.177   9.618  1.00  0.00     0.074 A 
ATOM     48  C   UNL     1     -11.387  -8.771   9.371  1.00  0.00     0.031 C 
ATOM     49  C   UNL     1     -10.543 -12.806   3.846  1.00  0.00     0.029 A 
ATOM     50  C   UNL     1     -10.856 -13.498   5.093  1.00  0.00     0.049 A 
ATOM     51  H   UNL     1     -11.186 -12.651   6.966  1.00  0.00     0.167 HD
ATOM     52  C   UNL     1     -11.944 -10.696  10.824  1.00  0.00     0.037 A 
ATOM     53  C   UNL     1     -10.982 -14.829   5.238  1.00  0.00     0.037 A 
ATOM     54  C   UNL     1     -12.180 -12.097  11.057  1.00  0.00     0.049 A 
ATOM     55  C   UNL     1     -11.342 -15.384   6.590  1.00  0.00     0.074 A 
ATOM     56  C   UNL     1     -12.581 -12.724  12.223  1.00  0.00     0.029 A 
ATOM     57  N   UNL     1     -12.020 -13.093  10.103  1.00  0.00    -0.354 N 
ATOM     58  N   UNL     1     -11.577 -14.750   7.713  1.00  0.00    -0.248 NA
ATOM     59  C   UNL     1     -11.467 -16.843   6.687  1.00  0.00     0.031 C 
ATOM     60  C   UNL     1     -12.598 -14.104  11.993  1.00  0.00     0.029 A 
ATOM     61  C   UNL     1     -12.282 -14.334  10.663  1.00  0.00     0.049 A 
ATOM     62  H   UNL     1     -11.759 -12.941   9.166  1.00  0.00     0.167 HD
ATOM     63  C   UNL     1     -11.912 -15.727   8.642  1.00  0.00     0.074 A 
ATOM     64  C   UNL     1     -11.868 -16.994   7.941  1.00  0.00     0.031 C 
ATOM     65  C   UNL     1     -12.229 -15.589   9.954  1.00  0.00     0.037 A 
BRANCH  52  66
ATOM     66  C   UNL     1     -12.049  -9.740  11.980  1.00  0.00     0.064 A 
ATOM     67  C   UNL     1     -13.040  -8.746  12.037  1.00  0.00     0.173 A 
ATOM     68  C   UNL     1     -11.139  -9.814  13.046  1.00  0.00     0.173 A 
ATOM     69  F   UNL     1     -13.929  -8.621  11.039  1.00  0.00    -0.203 F 
ATOM     70  C   UNL     1     -13.085  -7.834  13.088  1.00  0.00     0.198 A 
ATOM     71  C   UNL     1     -11.213  -8.925  14.117  1.00  0.00     0.198 A 
ATOM     72  F   UNL     1     -10.174 -10.745  13.050  1.00  0.00    -0.203 F 
ATOM     73  F   UNL     1     -13.993  -6.848  13.079  1.00  0.00    -0.200 F 
ATOM     74  C   UNL     1     -12.175  -7.928  14.130  1.00  0.00     0.200 A 
ATOM     75  F   UNL     1     -10.342  -9.027  15.130  1.00  0.00    -0.200 F 
ATOM     76  F   UNL     1     -12.219  -7.048  15.140  1.00  0.00    -0.200 F 
ENDBRANCH  52  66
BRANCH  53  77
ATOM     77  C   UNL     1     -10.825 -15.724   4.061  1.00  0.00     0.064 A 
ATOM     78  C   UNL     1     -11.927 -16.413   3.533  1.00  0.00     0.173 A 
ATOM     79  C   UNL     1      -9.583 -15.907   3.439  1.00  0.00     0.173 A 
ATOM     80  F   UNL     1     -13.133 -16.285   4.104  1.00  0.00    -0.203 F 
ATOM     81  C   UNL     1     -11.787 -17.267   2.442  1.00  0.00     0.198 A 
ATOM     82  C   UNL     1      -9.450 -16.738   2.328  1.00  0.00     0.198 A 
ATOM     83  F   UNL     1      -8.499 -15.265   3.900  1.00  0.00    -0.203 F 
ATOM     84  F   UNL     1     -12.847 -17.949   1.987  1.00  0.00    -0.200 F 
ATOM     85  C   UNL     1     -10.550 -17.424   1.836  1.00  0.00     0.200 A 
ATOM     86  F   UNL     1      -8.256 -16.873   1.735  1.00  0.00    -0.200 F 
ATOM     87  F   UNL     1     -10.416 -18.240   0.781  1.00  0.00    -0.200 F 
ENDBRANCH  53  77
BRANCH  65  88
ATOM     88  C   UNL     1     -12.597 -16.840  10.703  1.00  0.00     0.064 A 
ATOM     89  C   UNL     1     -11.659 -17.850  10.971  1.00  0.00     0.173 A 
ATOM     90  C   UNL     1     -13.911 -17.031  11.160  1.00  0.00     0.173 A 
ATOM     91  F   UNL     1     -10.392 -17.725  10.547  1.00  0.00    -0.203 F 
ATOM     92  C   UNL     1     -12.035 -19.023  11.621  1.00  0.00     0.198 A 
ATOM     93  C   UNL     1     -14.272 -18.186  11.847  1.00  0.00     0.198 A 
ATOM     94  F   UNL     1     -14.846 -16.095  10.942  1.00  0.00    -0.203 F 
ATOM     95  F   UNL     1     -11.140 -20.005  11.796  1.00  0.00    -0.200 F 
ATOM     96  C   UNL     1     -13.339 -19.188  12.063  1.00  0.00     0.200 A 
ATOM     97  F   UNL     1     -15.528 -18.335  12.290  1.00  0.00    -0.200 F 
ATOM     98  F   UNL     1     -13.699 -20.318  12.686  1.00  0.00    -0.200 F 
ENDBRANCH  65  88
ENDBRANCH  39  40
ENDBRANCH  31  34
ENDBRANCH  29  30
ENDBRANCH  28  29
ENDBRANCH  27  28
ENDBRANCH   1  27
TORSDOF 15
