REMARK SMILES C#Cc1cc(Cl)c2c(c1)C=C(C(=O)NCCCCNC(=O)c1ccc(-c3c4nc(c(-c5c(F)c(F)c(F)c(F)c5F)c5ccc([nH]5)c(-c5c(F)c(F)c(F)c(F)c5F)c5nc(c(-c6c(F)c(F)c(F)c(F)c6F)c6ccc3[nH]6)C=C5)C=C4)cc1)[C@@H](C(F)(F)F)O2
REMARK SMILES IDX 17 1 16 2 15 3 14 4 12 5 13 6 11 8 3 9 4 10 9 11 5 12 8 13
REMARK SMILES IDX 6 14 7 15 10 16 90 17 85 18 2 19 1 20 86 21 87 22 88 23
REMARK SMILES IDX 89 24 18 25 19 26 20 27 21 29 22 30 23 31 84 32 24 33 83 34
REMARK SMILES IDX 25 35 26 36 27 37 77 38 28 39 82 40 76 41 78 42 29 43 81 44
REMARK SMILES IDX 75 45 74 46 30 48 62 49 42 50 61 51 43 52 46 53 60 54 79 55
REMARK SMILES IDX 44 56 45 57 59 59 80 60 47 61 31 62 32 63 40 64 33 65 34 66
REMARK SMILES IDX 38 67 41 68 35 69 36 70 39 71 37 72 63 73 64 74 72 75 65 76
REMARK SMILES IDX 66 77 70 78 73 79 67 80 68 81 71 82 69 83 48 84 49 85 57 86
REMARK SMILES IDX 50 87 51 88 55 89 58 90 52 91 53 92 56 93 54 94
REMARK H PARENT 14 7 19 28 78 47 46 58
REMARK Flexibility Score: inf
ROOT
ATOM      1  C   UNL     1     -10.842   3.592   1.676  1.00  0.00     0.023 C 
ENDROOT
BRANCH   1   2
ATOM      2  C   UNL     1      -9.784   2.505   1.543  1.00  0.00     0.023 C 
BRANCH   2   3
ATOM      3  C   UNL     1      -9.027   2.570   0.223  1.00  0.00     0.116 C 
BRANCH   3   4
ATOM      4  N   UNL     1      -7.929   3.521   0.266  1.00  0.00    -0.352 N 
ATOM      5  C   UNL     1      -6.576   3.470   0.190  1.00  0.00     0.251 C 
ATOM      6  O   UNL     1      -5.997   4.559   0.226  1.00  0.00    -0.270 OA
ATOM      7  H   UNL     1      -8.252   4.443   0.381  1.00  0.00     0.163 HD
BRANCH   5   8
ATOM      8  C   UNL     1      -5.780   2.211   0.075  1.00  0.00     0.067 C 
ATOM      9  C   UNL     1      -1.473   0.004   0.053  1.00  0.00     0.027 A 
ATOM     10  C   UNL     1      -2.101  -1.243   0.052  1.00  0.00     0.041 A 
ATOM     11  C   UNL     1      -2.232   1.180   0.078  1.00  0.00     0.029 A 
ATOM     12  C   UNL     1      -3.489  -1.312   0.075  1.00  0.00     0.084 A 
ATOM     13  C   UNL     1      -3.629   1.113   0.101  1.00  0.00     0.020 A 
ATOM     14  Cl  UNL     1      -4.241  -2.868   0.085  1.00  0.00    -0.080 Cl
ATOM     15  C   UNL     1      -4.251  -0.140   0.092  1.00  0.00     0.146 A 
ATOM     16  C   UNL     1      -4.444   2.322   0.189  1.00  0.00     0.025 C 
ATOM     17  O   UNL     1      -5.605  -0.278   0.152  1.00  0.00    -0.474 OA
ATOM     18  C   UNL     1      -6.407   0.874  -0.179  1.00  0.00     0.314 C 
BRANCH   9  19
ATOM     19  C   UNL     1      -0.046   0.060   0.046  1.00  0.00    -0.070 C 
ATOM     20  C   UNL     1       1.155   0.068   0.047  1.00  0.00     0.010 C 
ENDBRANCH   9  19
BRANCH  18  21
ATOM     21  C   UNL     1      -6.927   0.734  -1.624  1.00  0.00     0.429 C 
ATOM     22  F   UNL     1      -7.845  -0.261  -1.703  1.00  0.00    -0.167 F 
ATOM     23  F   UNL     1      -7.543   1.854  -2.071  1.00  0.00    -0.167 F 
ATOM     24  F   UNL     1      -5.940   0.454  -2.504  1.00  0.00    -0.167 F 
ENDBRANCH  18  21
ENDBRANCH   5   8
ENDBRANCH   3   4
ENDBRANCH   2   3
ENDBRANCH   1   2
BRANCH   1  25
ATOM     25  C   UNL     1     -11.831   3.650   0.518  1.00  0.00     0.116 C 
BRANCH  25  26
ATOM     26  N   UNL     1     -12.505   2.381   0.269  1.00  0.00    -0.352 N 
ATOM     27  C   UNL     1     -13.849   2.161   0.087  1.00  0.00     0.251 C 
ATOM     28  H   UNL     1     -11.927   1.585   0.225  1.00  0.00     0.163 HD
ATOM     29  O   UNL     1     -14.307   1.028   0.016  1.00  0.00    -0.269 OA
BRANCH  27  30
ATOM     30  C   UNL     1     -14.735   3.336   0.023  1.00  0.00     0.039 A 
ATOM     31  C   UNL     1     -15.812   3.418   0.903  1.00  0.00     0.014 A 
ATOM     32  C   UNL     1     -14.414   4.399  -0.827  1.00  0.00     0.014 A 
ATOM     33  C   UNL     1     -16.534   4.607   0.979  1.00  0.00     0.010 A 
ATOM     34  C   UNL     1     -15.067   5.612  -0.674  1.00  0.00     0.010 A 
ATOM     35  C   UNL     1     -16.141   5.724   0.222  1.00  0.00    -0.014 A 
BRANCH  35  36
ATOM     36  C   UNL     1     -16.866   7.012   0.331  1.00  0.00     0.031 A 
ATOM     37  C   UNL     1     -17.590   7.558  -0.866  1.00  0.00     0.074 A 
ATOM     38  C   UNL     1     -16.850   7.696   1.491  1.00  0.00     0.049 A 
ATOM     39  N   UNL     1     -18.267   8.671  -0.984  1.00  0.00    -0.248 NA
ATOM     40  C   UNL     1     -17.527   6.761  -2.102  1.00  0.00     0.031 C 
ATOM     41  C   UNL     1     -16.153   7.279   2.708  1.00  0.00     0.029 A 
ATOM     42  N   UNL     1     -17.443   8.884   1.838  1.00  0.00    -0.354 N 
ATOM     43  C   UNL     1     -18.711   8.700  -2.298  1.00  0.00     0.074 A 
ATOM     44  C   UNL     1     -18.163   7.541  -2.962  1.00  0.00     0.031 C 
ATOM     45  C   UNL     1     -16.395   8.173   3.680  1.00  0.00     0.029 A 
ATOM     46  C   UNL     1     -17.224   9.249   3.144  1.00  0.00     0.049 A 
ATOM     47  H   UNL     1     -17.975   9.424   1.210  1.00  0.00     0.167 HD
ATOM     48  C   UNL     1     -19.537   9.595  -2.887  1.00  0.00     0.037 A 
ATOM     49  C   UNL     1     -17.646  10.329   3.830  1.00  0.00     0.037 A 
ATOM     50  C   UNL     1     -20.090  10.740  -2.216  1.00  0.00     0.049 A 
ATOM     51  C   UNL     1     -18.517  11.341   3.134  1.00  0.00     0.074 A 
ATOM     52  C   UNL     1     -20.961  11.690  -2.716  1.00  0.00     0.029 A 
ATOM     53  N   UNL     1     -19.822  11.092  -0.901  1.00  0.00    -0.354 N 
ATOM     54  N   UNL     1     -18.983  11.328   1.909  1.00  0.00    -0.248 NA
ATOM     55  C   UNL     1     -18.924  12.517   3.916  1.00  0.00     0.031 C 
ATOM     56  C   UNL     1     -21.168  12.653  -1.726  1.00  0.00     0.029 A 
ATOM     57  C   UNL     1     -20.485  12.267  -0.584  1.00  0.00     0.049 A 
ATOM     58  H   UNL     1     -19.246  10.584  -0.285  1.00  0.00     0.167 HD
ATOM     59  C   UNL     1     -19.758  12.473   1.780  1.00  0.00     0.074 A 
ATOM     60  C   UNL     1     -19.715  13.149   3.060  1.00  0.00     0.031 C 
ATOM     61  C   UNL     1     -20.438  12.925   0.698  1.00  0.00     0.037 A 
BRANCH  48  62
ATOM     62  C   UNL     1     -19.906   9.365  -4.324  1.00  0.00     0.064 A 
ATOM     63  C   UNL     1     -20.718   8.287  -4.710  1.00  0.00     0.173 A 
ATOM     64  C   UNL     1     -19.495  10.264  -5.319  1.00  0.00     0.173 A 
ATOM     65  F   UNL     1     -21.126   7.388  -3.800  1.00  0.00    -0.203 F 
ATOM     66  C   UNL     1     -21.088   8.107  -6.040  1.00  0.00     0.198 A 
ATOM     67  C   UNL     1     -19.897  10.102  -6.642  1.00  0.00     0.198 A 
ATOM     68  F   UNL     1     -18.719  11.313  -5.005  1.00  0.00    -0.203 F 
ATOM     69  F   UNL     1     -21.826   7.045  -6.390  1.00  0.00    -0.200 F 
ATOM     70  C   UNL     1     -20.688   9.021  -7.002  1.00  0.00     0.200 A 
ATOM     71  F   UNL     1     -19.524  10.996  -7.568  1.00  0.00    -0.200 F 
ATOM     72  F   UNL     1     -21.062   8.859  -8.278  1.00  0.00    -0.200 F 
ENDBRANCH  48  62
BRANCH  49  73
ATOM     73  C   UNL     1     -17.279  10.484   5.263  1.00  0.00     0.064 A 
ATOM     74  C   UNL     1     -18.253  10.398   6.268  1.00  0.00     0.173 A 
ATOM     75  C   UNL     1     -15.950  10.697   5.662  1.00  0.00     0.173 A 
ATOM     76  F   UNL     1     -19.540  10.217   5.939  1.00  0.00    -0.203 F 
ATOM     77  C   UNL     1     -17.914  10.527   7.614  1.00  0.00     0.198 A 
ATOM     78  C   UNL     1     -15.608  10.793   7.009  1.00  0.00     0.198 A 
ATOM     79  F   UNL     1     -14.979  10.784   4.742  1.00  0.00    -0.203 F 
ATOM     80  F   UNL     1     -18.870  10.478   8.551  1.00  0.00    -0.200 F 
ATOM     81  C   UNL     1     -16.591  10.714   7.984  1.00  0.00     0.200 A 
ATOM     82  F   UNL     1     -14.325  10.953   7.362  1.00  0.00    -0.200 F 
ATOM     83  F   UNL     1     -16.263  10.820   9.279  1.00  0.00    -0.200 F 
ENDBRANCH  49  73
BRANCH  61  84
ATOM     84  C   UNL     1     -21.214  14.204   0.842  1.00  0.00     0.064 A 
ATOM     85  C   UNL     1     -20.571  15.444   0.965  1.00  0.00     0.173 A 
ATOM     86  C   UNL     1     -22.616  14.197   0.762  1.00  0.00     0.173 A 
ATOM     87  F   UNL     1     -19.233  15.505   1.055  1.00  0.00    -0.203 F 
ATOM     88  C   UNL     1     -21.302  16.627   1.019  1.00  0.00     0.198 A 
ATOM     89  C   UNL     1     -23.341  15.385   0.777  1.00  0.00     0.198 A 
ATOM     90  F   UNL     1     -23.282  13.040   0.631  1.00  0.00    -0.203 F 
ATOM     91  F   UNL     1     -20.667  17.797   1.176  1.00  0.00    -0.200 F 
ATOM     92  C   UNL     1     -22.684  16.599   0.912  1.00  0.00     0.200 A 
ATOM     93  F   UNL     1     -24.675  15.356   0.650  1.00  0.00    -0.200 F 
ATOM     94  F   UNL     1     -23.384  17.741   0.938  1.00  0.00    -0.200 F 
ENDBRANCH  61  84
ENDBRANCH  35  36
ENDBRANCH  27  30
ENDBRANCH  25  26
ENDBRANCH   1  25
TORSDOF 13
