REMARK SMILES N#Cc1ccc(C(=O)NCCCCNC(=O)c2ccc(-c3c4nc(c(-c5c(F)c(F)c(F)c(F)c5F)c5ccc([nH]5)c(-c5c(F)c(F)c(F)c(F)c5F)c5nc(c(-c6c(F)c(F)c(F)c(F)c6F)c6ccc3[nH]6)C=C5)C=C4)cc2)nc1/C=C/c1ccc(O)c(Cl)c1
REMARK SMILES IDX 11 1 10 2 9 3 7 4 8 5 6 7 3 8 4 9 81 10 5 11 80 12 2 13 1 14
REMARK SMILES IDX 82 15 83 16 84 17 85 18 91 19 86 20 89 21 87 22 90 23 88 24
REMARK SMILES IDX 12 26 13 27 14 28 15 29 16 31 17 32 18 33 79 34 19 35 78 36
REMARK SMILES IDX 20 37 21 38 22 39 72 40 23 41 77 42 71 43 73 44 24 45 76 46
REMARK SMILES IDX 70 47 69 48 25 50 57 51 37 52 56 53 38 54 41 55 55 56 74 57
REMARK SMILES IDX 39 58 40 59 54 61 75 62 42 63 26 64 27 65 35 66 28 67 29 68
REMARK SMILES IDX 33 69 36 70 30 71 31 72 34 73 32 74 58 75 59 76 67 77 60 78
REMARK SMILES IDX 61 79 65 80 68 81 62 82 63 83 66 84 64 85 43 86 44 87 52 88
REMARK SMILES IDX 45 89 46 90 50 91 53 92 47 93 48 94 51 95 49 96
REMARK H PARENT 9 6 88 25 14 30 73 49 41 60
REMARK Flexibility Score: inf
ROOT
ATOM      1  C   UNL     1      -4.117   3.406  -1.640  1.00  0.00     0.023 C 
ENDROOT
BRANCH   1   2
ATOM      2  C   UNL     1      -3.636   2.761  -0.349  1.00  0.00     0.116 C 
BRANCH   2   3
ATOM      3  N   UNL     1      -4.064   1.385  -0.176  1.00  0.00    -0.351 N 
ATOM      4  C   UNL     1      -3.375   0.207   0.049  1.00  0.00     0.269 C 
ATOM      5  O   UNL     1      -4.056  -0.817   0.133  1.00  0.00    -0.268 OA
ATOM      6  H   UNL     1      -5.040   1.267  -0.229  1.00  0.00     0.163 HD
BRANCH   4   7
ATOM      7  C   UNL     1      -1.872   0.120   0.157  1.00  0.00     0.128 A 
ATOM      8  C   UNL     1       0.872  -0.169   0.070  1.00  0.00     0.078 A 
ATOM      9  C   UNL     1       0.316   1.064   0.399  1.00  0.00     0.024 A 
ATOM     10  C   UNL     1       0.010  -1.256  -0.088  1.00  0.00     0.082 A 
ATOM     11  C   UNL     1      -1.064   1.183   0.527  1.00  0.00     0.035 A 
ATOM     12  N   UNL     1      -1.341  -1.107  -0.106  1.00  0.00    -0.242 NA
BRANCH   8  13
ATOM     13  C   UNL     1       2.293  -0.281  -0.021  1.00  0.00     0.101 C 
ATOM     14  N   UNL     1       3.451  -0.352  -0.094  1.00  0.00    -0.192 NA
ENDBRANCH   8  13
BRANCH  10  15
ATOM     15  C   UNL     1       0.520  -2.640  -0.090  1.00  0.00     0.030 C 
ATOM     16  C   UNL     1      -0.233  -3.742   0.064  1.00  0.00     0.010 C 
BRANCH  16  17
ATOM     17  C   UNL     1       0.390  -5.058   0.259  1.00  0.00    -0.024 A 
ATOM     18  C   UNL     1      -0.052  -6.162  -0.478  1.00  0.00     0.012 A 
ATOM     19  C   UNL     1       1.411  -5.234   1.209  1.00  0.00     0.032 A 
ATOM     20  C   UNL     1       0.547  -7.414  -0.305  1.00  0.00     0.048 A 
ATOM     21  C   UNL     1       2.008  -6.481   1.378  1.00  0.00     0.083 A 
ATOM     22  C   UNL     1       1.579  -7.566   0.614  1.00  0.00     0.134 A 
ATOM     23  Cl  UNL     1       3.277  -6.666   2.530  1.00  0.00    -0.080 Cl
BRANCH  22  24
ATOM     24  O   UNL     1       2.145  -8.805   0.734  1.00  0.00    -0.506 OA
ATOM     25  H   UNL     1       1.835  -9.515   0.207  1.00  0.00     0.293 HD
ENDBRANCH  22  24
ENDBRANCH  16  17
ENDBRANCH  10  15
ENDBRANCH   4   7
ENDBRANCH   2   3
ENDBRANCH   1   2
BRANCH   1  26
ATOM     26  C   UNL     1      -5.593   3.768  -1.689  1.00  0.00     0.023 C 
BRANCH  26  27
ATOM     27  C   UNL     1      -6.101   4.592  -0.513  1.00  0.00     0.116 C 
BRANCH  27  28
ATOM     28  N   UNL     1      -5.357   5.828  -0.299  1.00  0.00    -0.352 N 
ATOM     29  C   UNL     1      -5.835   7.109  -0.143  1.00  0.00     0.251 C 
ATOM     30  H   UNL     1      -4.378   5.733  -0.262  1.00  0.00     0.163 HD
ATOM     31  O   UNL     1      -5.065   8.061  -0.089  1.00  0.00    -0.269 OA
BRANCH  29  32
ATOM     32  C   UNL     1      -7.294   7.325  -0.080  1.00  0.00     0.039 A 
ATOM     33  C   UNL     1      -7.872   8.297  -0.898  1.00  0.00     0.014 A 
ATOM     34  C   UNL     1      -8.090   6.514   0.731  1.00  0.00     0.014 A 
ATOM     35  C   UNL     1      -9.262   8.396  -0.964  1.00  0.00     0.010 A 
ATOM     36  C   UNL     1      -9.471   6.543   0.582  1.00  0.00     0.010 A 
ATOM     37  C   UNL     1     -10.072   7.487  -0.263  1.00  0.00    -0.014 A 
BRANCH  37  38
ATOM     38  C   UNL     1     -11.550   7.506  -0.404  1.00  0.00     0.031 A 
ATOM     39  C   UNL     1     -12.418   7.761   0.797  1.00  0.00     0.074 A 
ATOM     40  C   UNL     1     -12.112   7.234  -1.598  1.00  0.00     0.049 A 
ATOM     41  N   UNL     1     -13.724   7.775   0.887  1.00  0.00    -0.248 NA
ATOM     42  C   UNL     1     -11.727   8.003   2.073  1.00  0.00     0.031 C 
ATOM     43  C   UNL     1     -11.379   6.923  -2.826  1.00  0.00     0.029 A 
ATOM     44  N   UNL     1     -13.430   7.171  -1.975  1.00  0.00    -0.354 N 
ATOM     45  C   UNL     1     -14.006   8.016   2.225  1.00  0.00     0.074 A 
ATOM     46  C   UNL     1     -12.740   8.070   2.922  1.00  0.00     0.031 C 
ATOM     47  C   UNL     1     -12.254   6.742  -3.827  1.00  0.00     0.029 A 
ATOM     48  C   UNL     1     -13.610   6.871  -3.303  1.00  0.00     0.049 A 
ATOM     49  H   UNL     1     -14.177   7.326  -1.352  1.00  0.00     0.167 HD
ATOM     50  C   UNL     1     -15.211   8.201   2.815  1.00  0.00     0.037 A 
ATOM     51  C   UNL     1     -14.741   6.710  -4.016  1.00  0.00     0.037 A 
ATOM     52  C   UNL     1     -16.466   8.150   2.114  1.00  0.00     0.049 A 
ATOM     53  C   UNL     1     -16.070   6.881  -3.329  1.00  0.00     0.074 A 
ATOM     54  C   UNL     1     -17.739   8.378   2.606  1.00  0.00     0.029 A 
ATOM     55  N   UNL     1     -16.610   7.831   0.770  1.00  0.00    -0.354 N 
ATOM     56  N   UNL     1     -16.324   7.189  -2.080  1.00  0.00    -0.248 NA
ATOM     57  C   UNL     1     -17.270   6.687  -4.154  1.00  0.00     0.031 C 
ATOM     58  C   UNL     1     -18.656   8.119   1.584  1.00  0.00     0.029 A 
ATOM     59  C   UNL     1     -17.953   7.816   0.428  1.00  0.00     0.049 A 
ATOM     60  H   UNL     1     -15.867   7.644   0.152  1.00  0.00     0.167 HD
ATOM     61  C   UNL     1     -17.707   7.260  -1.977  1.00  0.00     0.074 A 
ATOM     62  C   UNL     1     -18.236   6.978  -3.295  1.00  0.00     0.031 C 
ATOM     63  C   UNL     1     -18.469   7.536  -0.889  1.00  0.00     0.037 A 
BRANCH  50  64
ATOM     64  C   UNL     1     -15.226   8.456   4.297  1.00  0.00     0.064 A 
ATOM     65  C   UNL     1     -14.677   9.622   4.857  1.00  0.00     0.173 A 
ATOM     66  C   UNL     1     -15.812   7.528   5.171  1.00  0.00     0.173 A 
ATOM     67  F   UNL     1     -14.095  10.540   4.071  1.00  0.00    -0.203 F 
ATOM     68  C   UNL     1     -14.675   9.825   6.235  1.00  0.00     0.198 A 
ATOM     69  C   UNL     1     -15.846   7.754   6.545  1.00  0.00     0.198 A 
ATOM     70  F   UNL     1     -16.358   6.399   4.694  1.00  0.00    -0.203 F 
ATOM     71  F   UNL     1     -14.081  10.911   6.749  1.00  0.00    -0.200 F 
ATOM     72  C   UNL     1     -15.265   8.895   7.077  1.00  0.00     0.200 A 
ATOM     73  F   UNL     1     -16.435   6.863   7.354  1.00  0.00    -0.200 F 
ATOM     74  F   UNL     1     -15.266   9.094   8.402  1.00  0.00    -0.200 F 
ENDBRANCH  50  64
BRANCH  51  75
ATOM     75  C   UNL     1     -14.667   6.389  -5.467  1.00  0.00     0.064 A 
ATOM     76  C   UNL     1     -15.101   7.309  -6.432  1.00  0.00     0.173 A 
ATOM     77  C   UNL     1     -14.165   5.160  -5.920  1.00  0.00     0.173 A 
ATOM     78  F   UNL     1     -15.606   8.491  -6.051  1.00  0.00    -0.203 F 
ATOM     79  C   UNL     1     -15.058   7.003  -7.791  1.00  0.00     0.198 A 
ATOM     80  C   UNL     1     -14.089   4.869  -7.280  1.00  0.00     0.198 A 
ATOM     81  F   UNL     1     -13.731   4.245  -5.040  1.00  0.00    -0.203 F 
ATOM     82  F   UNL     1     -15.528   7.880  -8.688  1.00  0.00    -0.200 F 
ATOM     83  C   UNL     1     -14.545   5.786  -8.214  1.00  0.00     0.200 A 
ATOM     84  F   UNL     1     -13.575   3.699  -7.685  1.00  0.00    -0.200 F 
ATOM     85  F   UNL     1     -14.497   5.495  -9.521  1.00  0.00    -0.200 F 
ENDBRANCH  51  75
BRANCH  63  86
ATOM     86  C   UNL     1     -19.959   7.594  -1.083  1.00  0.00     0.064 A 
ATOM     87  C   UNL     1     -20.718   6.450  -1.372  1.00  0.00     0.173 A 
ATOM     88  C   UNL     1     -20.643   8.812  -0.938  1.00  0.00     0.173 A 
ATOM     89  F   UNL     1     -20.115   5.262  -1.534  1.00  0.00    -0.203 F 
ATOM     90  C   UNL     1     -22.098   6.529  -1.542  1.00  0.00     0.198 A 
ATOM     91  C   UNL     1     -22.027   8.880  -1.067  1.00  0.00     0.198 A 
ATOM     92  F   UNL     1     -19.970   9.937  -0.652  1.00  0.00    -0.203 F 
ATOM     93  F   UNL     1     -22.793   5.434  -1.879  1.00  0.00    -0.200 F 
ATOM     94  C   UNL     1     -22.752   7.741  -1.380  1.00  0.00     0.200 A 
ATOM     95  F   UNL     1     -22.659  10.048  -0.887  1.00  0.00    -0.200 F 
ATOM     96  F   UNL     1     -24.082   7.813  -1.533  1.00  0.00    -0.200 F 
ENDBRANCH  63  86
ENDBRANCH  37  38
ENDBRANCH  29  32
ENDBRANCH  27  28
ENDBRANCH  26  27
ENDBRANCH   1  26
TORSDOF 15
