REMARK SMILES C[C@@H](C(=O)NCCCCNC(=O)c1ccc(-c2c3nc(c(-c4c(F)c(F)c(F)c(F)c4F)c4ccc([nH]4)c(-c4c(F)c(F)c(F)c(F)c4F)c4nc(c(-c5c(F)c(F)c(F)c(F)c5F)c5ccc2[nH]5)C=C4)C=C3)cc1)[C@H]1CCOC2(CCCCC2)C1
REMARK SMILES IDX 8 1 7 2 6 3 5 4 3 5 4 6 2 8 1 9 76 10 77 11 86 12 78 13
REMARK SMILES IDX 80 14 79 15 81 16 85 17 82 18 84 19 83 20 9 21 10 22 11 23
REMARK SMILES IDX 12 25 13 26 14 27 75 28 15 29 74 30 16 31 17 32 18 33 68 34
REMARK SMILES IDX 19 35 73 36 67 37 69 38 20 39 72 40 66 41 65 42 21 44 53 45
REMARK SMILES IDX 33 46 52 47 34 48 37 49 51 50 70 51 35 52 36 53 50 55 71 56
REMARK SMILES IDX 38 57 22 58 23 59 31 60 24 61 25 62 29 63 32 64 26 65 27 66
REMARK SMILES IDX 30 67 28 68 54 69 55 70 63 71 56 72 57 73 61 74 64 75 58 76
REMARK SMILES IDX 59 77 62 78 60 79 39 80 40 81 48 82 41 83 42 84 46 85 49 86
REMARK SMILES IDX 43 87 44 88 47 89 45 90
REMARK H PARENT 5 7 10 24 69 43 37 54
REMARK Flexibility Score: inf
ROOT
ATOM      1  C   UNL     1      -4.477   3.031  -3.775  1.00  0.00     0.023 C 
ENDROOT
BRANCH   1   2
ATOM      2  C   UNL     1      -3.569   1.831  -4.054  1.00  0.00     0.023 C 
BRANCH   2   3
ATOM      3  C   UNL     1      -2.231   1.836  -3.306  1.00  0.00     0.116 C 
BRANCH   3   4
ATOM      4  N   UNL     1      -2.435   1.812  -1.873  1.00  0.00    -0.356 N 
ATOM      5  C   UNL     1      -2.384   0.781  -0.983  1.00  0.00     0.223 C 
ATOM      6  O   UNL     1      -2.840   1.027   0.133  1.00  0.00    -0.275 OA
ATOM      7  H   UNL     1      -2.644   2.687  -1.474  1.00  0.00     0.163 HD
BRANCH   5   8
ATOM      8  C   UNL     1      -1.817  -0.590  -1.405  1.00  0.00     0.078 C 
ATOM      9  C   UNL     1      -2.839  -1.299  -2.304  1.00  0.00     0.018 C 
BRANCH   8  10
ATOM     10  C   UNL     1      -1.247  -1.511  -0.254  1.00  0.00     0.006 C 
ATOM     11  C   UNL     1      -1.696  -1.186   1.178  1.00  0.00     0.033 C 
ATOM     12  C   UNL     1      -1.496  -3.014  -0.507  1.00  0.00     0.040 C 
ATOM     13  C   UNL     1      -1.136  -2.163   2.201  1.00  0.00     0.161 C 
ATOM     14  C   UNL     1      -0.978  -3.951   0.597  1.00  0.00     0.069 C 
ATOM     15  O   UNL     1      -1.454  -3.508   1.873  1.00  0.00    -0.375 OA
ATOM     16  C   UNL     1       0.560  -4.073   0.570  1.00  0.00     0.035 C 
ATOM     17  C   UNL     1      -1.593  -5.352   0.369  1.00  0.00     0.035 C 
ATOM     18  C   UNL     1       1.070  -5.088   1.593  1.00  0.00     0.003 C 
ATOM     19  C   UNL     1      -1.086  -6.385   1.375  1.00  0.00     0.003 C 
ATOM     20  C   UNL     1       0.436  -6.460   1.383  1.00  0.00     0.000 C 
ENDBRANCH   8  10
ENDBRANCH   5   8
ENDBRANCH   3   4
ENDBRANCH   2   3
ENDBRANCH   1   2
BRANCH   1  21
ATOM     21  C   UNL     1      -3.849   4.393  -4.030  1.00  0.00     0.116 C 
BRANCH  21  22
ATOM     22  N   UNL     1      -3.320   4.524  -5.377  1.00  0.00    -0.352 N 
ATOM     23  C   UNL     1      -3.376   5.587  -6.236  1.00  0.00     0.251 C 
ATOM     24  H   UNL     1      -2.851   3.730  -5.722  1.00  0.00     0.163 HD
ATOM     25  O   UNL     1      -2.974   5.457  -7.393  1.00  0.00    -0.269 OA
BRANCH  23  26
ATOM     26  C   UNL     1      -3.946   6.878  -5.799  1.00  0.00     0.039 A 
ATOM     27  C   UNL     1      -4.781   7.566  -6.683  1.00  0.00     0.014 A 
ATOM     28  C   UNL     1      -3.656   7.421  -4.543  1.00  0.00     0.014 A 
ATOM     29  C   UNL     1      -5.365   8.769  -6.289  1.00  0.00     0.010 A 
ATOM     30  C   UNL     1      -4.297   8.585  -4.123  1.00  0.00     0.010 A 
ATOM     31  C   UNL     1      -5.152   9.273  -4.995  1.00  0.00    -0.014 A 
BRANCH  31  32
ATOM     32  C   UNL     1      -5.832  10.517  -4.556  1.00  0.00     0.031 A 
ATOM     33  C   UNL     1      -5.042  11.758  -4.254  1.00  0.00     0.074 A 
ATOM     34  C   UNL     1      -7.172  10.516  -4.415  1.00  0.00     0.049 A 
ATOM     35  N   UNL     1      -5.469  12.943  -3.898  1.00  0.00    -0.248 NA
ATOM     36  C   UNL     1      -3.577  11.650  -4.337  1.00  0.00     0.031 C 
ATOM     37  C   UNL     1      -8.040   9.353  -4.609  1.00  0.00     0.029 A 
ATOM     38  N   UNL     1      -8.038  11.525  -4.079  1.00  0.00    -0.354 N 
ATOM     39  C   UNL     1      -4.332  13.719  -3.723  1.00  0.00     0.074 A 
ATOM     40  C   UNL     1      -3.192  12.855  -3.945  1.00  0.00     0.031 C 
ATOM     41  C   UNL     1      -9.317   9.722  -4.419  1.00  0.00     0.029 A 
ATOM     42  C   UNL     1      -9.355  11.139  -4.070  1.00  0.00     0.049 A 
ATOM     43  H   UNL     1      -7.743  12.440  -3.865  1.00  0.00     0.167 HD
ATOM     44  C   UNL     1      -4.245  15.040  -3.434  1.00  0.00     0.037 A 
ATOM     45  C   UNL     1     -10.470  11.850  -3.818  1.00  0.00     0.037 A 
ATOM     46  C   UNL     1      -5.381  15.899  -3.223  1.00  0.00     0.049 A 
ATOM     47  C   UNL     1     -10.347  13.320  -3.525  1.00  0.00     0.074 A 
ATOM     48  C   UNL     1      -5.402  17.258  -2.961  1.00  0.00     0.029 A 
ATOM     49  N   UNL     1      -6.703  15.479  -3.250  1.00  0.00    -0.354 N 
ATOM     50  N   UNL     1      -9.268  14.060  -3.437  1.00  0.00    -0.248 NA
ATOM     51  C   UNL     1     -11.599  14.058  -3.315  1.00  0.00     0.031 C 
ATOM     52  C   UNL     1      -6.734  17.653  -2.793  1.00  0.00     0.029 A 
ATOM     53  C   UNL     1      -7.546  16.550  -2.997  1.00  0.00     0.049 A 
ATOM     54  H   UNL     1      -6.999  14.556  -3.423  1.00  0.00     0.167 HD
ATOM     55  C   UNL     1      -9.710  15.350  -3.179  1.00  0.00     0.074 A 
ATOM     56  C   UNL     1     -11.157  15.297  -3.156  1.00  0.00     0.031 C 
ATOM     57  C   UNL     1      -8.985  16.476  -2.971  1.00  0.00     0.037 A 
BRANCH  44  58
ATOM     58  C   UNL     1      -2.872  15.642  -3.350  1.00  0.00     0.064 A 
ATOM     59  C   UNL     1      -2.080  15.814  -4.496  1.00  0.00     0.173 A 
ATOM     60  C   UNL     1      -2.358  16.088  -2.124  1.00  0.00     0.173 A 
ATOM     61  F   UNL     1      -2.520  15.393  -5.691  1.00  0.00    -0.203 F 
ATOM     62  C   UNL     1      -0.814  16.388  -4.413  1.00  0.00     0.198 A 
ATOM     63  C   UNL     1      -1.103  16.688  -2.050  1.00  0.00     0.198 A 
ATOM     64  F   UNL     1      -3.075  15.951  -0.999  1.00  0.00    -0.203 F 
ATOM     65  F   UNL     1      -0.058  16.501  -5.514  1.00  0.00    -0.200 F 
ATOM     66  C   UNL     1      -0.330  16.831  -3.192  1.00  0.00     0.200 A 
ATOM     67  F   UNL     1      -0.640  17.127  -0.871  1.00  0.00    -0.200 F 
ATOM     68  F   UNL     1       0.885  17.392  -3.115  1.00  0.00    -0.200 F 
ENDBRANCH  44  58
BRANCH  45  69
ATOM     69  C   UNL     1     -11.799  11.189  -3.866  1.00  0.00     0.064 A 
ATOM     70  C   UNL     1     -12.715  11.480  -4.887  1.00  0.00     0.173 A 
ATOM     71  C   UNL     1     -12.183  10.258  -2.891  1.00  0.00     0.173 A 
ATOM     72  F   UNL     1     -12.400  12.377  -5.833  1.00  0.00    -0.203 F 
ATOM     73  C   UNL     1     -13.975  10.885  -4.914  1.00  0.00     0.198 A 
ATOM     74  C   UNL     1     -13.431   9.641  -2.936  1.00  0.00     0.198 A 
ATOM     75  F   UNL     1     -11.339   9.938  -1.898  1.00  0.00    -0.203 F 
ATOM     76  F   UNL     1     -14.850  11.220  -5.872  1.00  0.00    -0.200 F 
ATOM     77  C   UNL     1     -14.330   9.963  -3.942  1.00  0.00     0.200 A 
ATOM     78  F   UNL     1     -13.764   8.739  -2.003  1.00  0.00    -0.200 F 
ATOM     79  F   UNL     1     -15.541   9.390  -3.970  1.00  0.00    -0.200 F 
ENDBRANCH  45  69
BRANCH  57  80
ATOM     80  C   UNL     1      -9.752  17.741  -2.716  1.00  0.00     0.064 A 
ATOM     81  C   UNL     1     -10.452  17.945  -1.517  1.00  0.00     0.173 A 
ATOM     82  C   UNL     1      -9.784  18.762  -3.678  1.00  0.00     0.173 A 
ATOM     83  F   UNL     1     -10.465  16.992  -0.573  1.00  0.00    -0.203 F 
ATOM     84  C   UNL     1     -11.187  19.108  -1.307  1.00  0.00     0.198 A 
ATOM     85  C   UNL     1     -10.495  19.937  -3.451  1.00  0.00     0.198 A 
ATOM     86  F   UNL     1      -9.126  18.620  -4.838  1.00  0.00    -0.203 F 
ATOM     87  F   UNL     1     -11.898  19.254  -0.180  1.00  0.00    -0.200 F 
ATOM     88  C   UNL     1     -11.204  20.105  -2.271  1.00  0.00     0.200 A 
ATOM     89  F   UNL     1     -10.501  20.904  -4.378  1.00  0.00    -0.200 F 
ATOM     90  F   UNL     1     -11.915  21.222  -2.069  1.00  0.00    -0.200 F 
ENDBRANCH  57  80
ENDBRANCH  31  32
ENDBRANCH  23  26
ENDBRANCH  21  22
ENDBRANCH   1  21
TORSDOF 12
