REMARK SMILES CC(C)[C@@H](NC(=O)N[C@H]1CCS(=O)(=O)C1)C(=O)NCCCCNC(=O)c1ccc(-c2c3nc(c(-c4c(F)c(F)c(F)c(F)c4F)c4ccc([nH]4)c(-c4c(F)c(F)c(F)c(F)c4F)c4nc(c(-c5c(F)c(F)c(F)c(F)c5F)c5ccc2[nH]5)C=C4)C=C3)cc1
REMARK SMILES IDX 20 1 19 2 18 3 16 4 17 5 4 7 2 8 1 9 3 10 5 11 6 12 7 14
REMARK SMILES IDX 8 15 9 17 10 18 15 19 11 20 12 21 13 22 14 23 21 24 22 25
REMARK SMILES IDX 23 26 24 27 25 29 26 30 27 31 88 32 28 33 87 34 29 35 30 36
REMARK SMILES IDX 31 37 81 38 32 39 86 40 80 41 82 42 33 43 85 44 79 45 78 46
REMARK SMILES IDX 34 48 66 49 46 50 65 51 47 52 50 53 64 54 83 55 48 56 49 57
REMARK SMILES IDX 63 59 84 60 51 61 35 62 36 63 44 64 37 65 38 66 42 67 45 68
REMARK SMILES IDX 39 69 40 70 43 71 41 72 67 73 68 74 76 75 69 76 70 77 74 78
REMARK SMILES IDX 77 79 71 80 72 81 75 82 73 83 52 84 53 85 61 86 54 87 55 88
REMARK SMILES IDX 59 89 62 90 56 91 57 92 60 93 58 94
REMARK H PARENT 18 6 5 13 8 16 23 28 82 47 50 58
REMARK Flexibility Score: inf
ROOT
ATOM      1  C   UNL     1      -3.082   6.782   3.724  1.00  0.00     0.023 C 
ENDROOT
BRANCH   1   2
ATOM      2  C   UNL     1      -2.213   6.547   2.489  1.00  0.00     0.116 C 
BRANCH   2   3
ATOM      3  N   UNL     1      -3.007   5.726   1.600  1.00  0.00    -0.354 N 
ATOM      4  C   UNL     1      -3.288   5.738   0.269  1.00  0.00     0.242 C 
ATOM      5  O   UNL     1      -4.285   5.166  -0.167  1.00  0.00    -0.273 OA
ATOM      6  H   UNL     1      -3.449   4.982   2.070  1.00  0.00     0.163 HD
BRANCH   4   7
ATOM      7  C   UNL     1      -2.424   6.497  -0.680  1.00  0.00     0.175 C 
BRANCH   7   8
ATOM      8  C   UNL     1      -2.873   7.989  -0.504  1.00  0.00     0.015 C 
ATOM      9  C   UNL     1      -2.254   9.003  -1.456  1.00  0.00     0.010 C 
ATOM     10  C   UNL     1      -4.416   8.088  -0.650  1.00  0.00     0.010 C 
ENDBRANCH   7   8
BRANCH   7  11
ATOM     11  N   UNL     1      -1.099   6.028  -0.284  1.00  0.00    -0.326 N 
ATOM     12  C   UNL     1      -0.628   4.812   0.049  1.00  0.00     0.315 C 
ATOM     13  H   UNL     1      -0.419   6.739  -0.256  1.00  0.00     0.166 HD
ATOM     14  O   UNL     1       0.596   4.757   0.240  1.00  0.00    -0.249 OA
ATOM     15  N   UNL     1      -1.266   3.657   0.296  1.00  0.00    -0.334 N 
ATOM     16  H   UNL     1      -0.607   3.150   0.823  1.00  0.00     0.165 HD
BRANCH  15  17
ATOM     17  C   UNL     1      -2.452   2.693   0.212  1.00  0.00     0.099 C 
ATOM     18  C   UNL     1      -3.861   2.731   0.905  1.00  0.00     0.042 C 
ATOM     19  C   UNL     1      -2.573   2.005  -1.149  1.00  0.00     0.161 C 
ATOM     20  C   UNL     1      -4.960   2.442  -0.119  1.00  0.00     0.139 C 
ATOM     21  S   UNL     1      -4.210   1.306  -1.233  1.00  0.00     0.152 S 
ATOM     22  O   UNL     1      -4.205   0.013  -0.598  1.00  0.00    -0.229 OA
ATOM     23  O   UNL     1      -4.752   1.515  -2.568  1.00  0.00    -0.229 OA
ENDBRANCH  15  17
ENDBRANCH   7  11
ENDBRANCH   4   7
ENDBRANCH   2   3
ENDBRANCH   1   2
BRANCH   1  24
ATOM     24  C   UNL     1      -3.427   5.486   4.484  1.00  0.00     0.023 C 
BRANCH  24  25
ATOM     25  C   UNL     1      -2.210   4.698   4.958  1.00  0.00     0.116 C 
BRANCH  25  26
ATOM     26  N   UNL     1      -1.367   5.511   5.814  1.00  0.00    -0.352 N 
ATOM     27  C   UNL     1      -1.122   5.404   7.157  1.00  0.00     0.251 C 
ATOM     28  H   UNL     1      -0.901   6.251   5.362  1.00  0.00     0.163 HD
ATOM     29  O   UNL     1      -0.630   6.351   7.763  1.00  0.00    -0.269 OA
BRANCH  27  30
ATOM     30  C   UNL     1      -1.450   4.157   7.877  1.00  0.00     0.039 A 
ATOM     31  C   UNL     1      -1.996   4.247   9.160  1.00  0.00     0.014 A 
ATOM     32  C   UNL     1      -1.177   2.905   7.317  1.00  0.00     0.014 A 
ATOM     33  C   UNL     1      -2.311   3.083   9.861  1.00  0.00     0.010 A 
ATOM     34  C   UNL     1      -1.562   1.746   7.987  1.00  0.00     0.010 A 
ATOM     35  C   UNL     1      -2.127   1.823   9.269  1.00  0.00    -0.014 A 
BRANCH  35  36
ATOM     36  C   UNL     1      -2.526   0.580   9.976  1.00  0.00     0.031 A 
ATOM     37  C   UNL     1      -1.494  -0.442  10.364  1.00  0.00     0.074 A 
ATOM     38  C   UNL     1      -3.830   0.346  10.220  1.00  0.00     0.049 A 
ATOM     39  N   UNL     1      -1.658  -1.610  10.932  1.00  0.00    -0.248 NA
ATOM     40  C   UNL     1      -0.093  -0.120  10.050  1.00  0.00     0.031 C 
ATOM     41  C   UNL     1      -4.929   1.242   9.857  1.00  0.00     0.029 A 
ATOM     42  N   UNL     1      -4.453  -0.719  10.821  1.00  0.00    -0.354 N 
ATOM     43  C   UNL     1      -0.389  -2.165  11.033  1.00  0.00     0.074 A 
ATOM     44  C   UNL     1       0.529  -1.230  10.418  1.00  0.00     0.031 C 
ATOM     45  C   UNL     1      -6.089   0.700  10.261  1.00  0.00     0.029 A 
ATOM     46  C   UNL     1      -5.820  -0.599  10.871  1.00  0.00     0.049 A 
ATOM     47  H   UNL     1      -3.966  -1.494  11.182  1.00  0.00     0.167 HD
ATOM     48  C   UNL     1      -0.021  -3.337  11.605  1.00  0.00     0.037 A 
ATOM     49  C   UNL     1      -6.754  -1.446  11.344  1.00  0.00     0.037 A 
ATOM     50  C   UNL     1      -0.937  -4.257  12.228  1.00  0.00     0.049 A 
ATOM     51  C   UNL     1      -6.321  -2.752  11.953  1.00  0.00     0.074 A 
ATOM     52  C   UNL     1      -0.655  -5.443  12.884  1.00  0.00     0.029 A 
ATOM     53  N   UNL     1      -2.315  -4.098  12.265  1.00  0.00    -0.354 N 
ATOM     54  N   UNL     1      -5.111  -3.233  12.106  1.00  0.00    -0.248 NA
ATOM     55  C   UNL     1      -7.384  -3.628  12.464  1.00  0.00     0.031 C 
ATOM     56  C   UNL     1      -1.866  -6.030  13.266  1.00  0.00     0.029 A 
ATOM     57  C   UNL     1      -2.899  -5.179  12.908  1.00  0.00     0.049 A 
ATOM     58  H   UNL     1      -2.805  -3.331  11.891  1.00  0.00     0.167 HD
ATOM     59  C   UNL     1      -5.264  -4.451  12.757  1.00  0.00     0.074 A 
ATOM     60  C   UNL     1      -6.683  -4.627  12.982  1.00  0.00     0.031 C 
ATOM     61  C   UNL     1      -4.313  -5.340  13.134  1.00  0.00     0.037 A 
BRANCH  48  62
ATOM     62  C   UNL     1       1.438  -3.697  11.578  1.00  0.00     0.064 A 
ATOM     63  C   UNL     1       2.389  -2.984  12.325  1.00  0.00     0.173 A 
ATOM     64  C   UNL     1       1.887  -4.793  10.825  1.00  0.00     0.173 A 
ATOM     65  F   UNL     1       2.017  -1.922  13.055  1.00  0.00    -0.203 F 
ATOM     66  C   UNL     1       3.737  -3.334  12.293  1.00  0.00     0.198 A 
ATOM     67  C   UNL     1       3.230  -5.161  10.823  1.00  0.00     0.198 A 
ATOM     68  F   UNL     1       1.021  -5.515  10.098  1.00  0.00    -0.203 F 
ATOM     69  F   UNL     1       4.633  -2.604  12.971  1.00  0.00    -0.200 F 
ATOM     70  C   UNL     1       4.155  -4.426  11.548  1.00  0.00     0.200 A 
ATOM     71  F   UNL     1       3.630  -6.227  10.115  1.00  0.00    -0.200 F 
ATOM     72  F   UNL     1       5.451  -4.766  11.524  1.00  0.00    -0.200 F 
ENDBRANCH  48  62
BRANCH  49  73
ATOM     73  C   UNL     1      -8.192  -1.076  11.274  1.00  0.00     0.064 A 
ATOM     74  C   UNL     1      -8.923  -0.801  12.439  1.00  0.00     0.173 A 
ATOM     75  C   UNL     1      -8.866  -0.992  10.047  1.00  0.00     0.173 A 
ATOM     76  F   UNL     1      -8.328  -0.886  13.638  1.00  0.00    -0.203 F 
ATOM     77  C   UNL     1     -10.277  -0.477  12.380  1.00  0.00     0.198 A 
ATOM     78  C   UNL     1     -10.212  -0.637   9.987  1.00  0.00     0.198 A 
ATOM     79  F   UNL     1      -8.212  -1.239   8.903  1.00  0.00    -0.203 F 
ATOM     80  F   UNL     1     -10.962  -0.266  13.512  1.00  0.00    -0.200 F 
ATOM     81  C   UNL     1     -10.919  -0.389  11.154  1.00  0.00     0.200 A 
ATOM     82  F   UNL     1     -10.824  -0.536   8.799  1.00  0.00    -0.200 F 
ATOM     83  F   UNL     1     -12.219  -0.072  11.098  1.00  0.00    -0.200 F 
ENDBRANCH  49  73
BRANCH  61  84
ATOM     84  C   UNL     1      -4.769  -6.568  13.871  1.00  0.00     0.064 A 
ATOM     85  C   UNL     1      -5.486  -7.592  13.234  1.00  0.00     0.173 A 
ATOM     86  C   UNL     1      -4.447  -6.739  15.227  1.00  0.00     0.173 A 
ATOM     87  F   UNL     1      -5.832  -7.471  11.944  1.00  0.00    -0.203 F 
ATOM     88  C   UNL     1      -5.888  -8.727  13.934  1.00  0.00     0.198 A 
ATOM     89  C   UNL     1      -4.821  -7.890  15.914  1.00  0.00     0.198 A 
ATOM     90  F   UNL     1      -3.757  -5.794  15.883  1.00  0.00    -0.203 F 
ATOM     91  F   UNL     1      -6.618  -9.667  13.319  1.00  0.00    -0.200 F 
ATOM     92  C   UNL     1      -5.548  -8.879  15.270  1.00  0.00     0.200 A 
ATOM     93  F   UNL     1      -4.476  -8.042  17.201  1.00  0.00    -0.200 F 
ATOM     94  F   UNL     1      -5.927  -9.976  15.939  1.00  0.00    -0.200 F 
ENDBRANCH  61  84
ENDBRANCH  35  36
ENDBRANCH  27  30
ENDBRANCH  25  26
ENDBRANCH  24  25
ENDBRANCH   1  24
TORSDOF 14
