REMARK SMILES O=C(NCCCCNC(=O)c1ccccc1-c1ccccc1C(=O)N1CC[NH+](Cc2ccc3c(c2)OCO3)CC1)c1ccc(-c2c3nc(c(-c4c(F)c(F)c(F)c(F)c4F)c4ccc([nH]4)c(-c4c(F)c(F)c(F)c(F)c4F)c4nc(c(-c5c(F)c(F)c(F)c(F)c5F)c5ccc2[nH]5)C=C4)C=C3)cc1
REMARK SMILES IDX 6 1 5 2 4 3 3 4 1 5 2 6 41 8 42 9 103 10 43 11 102 12 44 13
REMARK SMILES IDX 45 14 46 15 96 16 47 17 101 18 95 19 97 20 48 21 100 22
REMARK SMILES IDX 94 23 93 24 49 26 81 27 61 28 80 29 62 30 65 31 79 32 98 33
REMARK SMILES IDX 63 34 64 35 78 37 99 38 66 39 50 40 51 41 59 42 52 43 53 44
REMARK SMILES IDX 57 45 60 46 54 47 55 48 58 49 56 50 82 51 83 52 91 53 84 54
REMARK SMILES IDX 85 55 89 56 92 57 86 58 87 59 90 60 88 61 67 62 68 63 76 64
REMARK SMILES IDX 69 65 70 66 74 67 77 68 71 69 72 70 75 71 73 72 7 73 8 74
REMARK SMILES IDX 9 75 10 77 11 78 12 79 16 80 13 81 15 82 14 83 17 84 18 85
REMARK SMILES IDX 22 86 19 87 21 88 20 89 23 90 24 91 25 92 26 93 40 94 27 95
REMARK SMILES IDX 39 96 28 97 29 99 30 100 31 101 35 102 32 103 34 104 33 105
REMARK SMILES IDX 36 106 38 107 37 108
REMARK H PARENT 3 7 97 25 65 36 8 76 28 98
REMARK Flexibility Score: inf
ROOT
ATOM      1  C   UNL     1       3.877   0.512   3.554  1.00  0.00     0.023 C 
ENDROOT
BRANCH   1   2
ATOM      2  C   UNL     1       4.605   0.917   2.270  1.00  0.00     0.023 C 
BRANCH   2   3
ATOM      3  C   UNL     1       4.447  -0.074   1.123  1.00  0.00     0.116 C 
BRANCH   3   4
ATOM      4  N   UNL     1       3.049  -0.408   0.877  1.00  0.00    -0.352 N 
ATOM      5  O   UNL     1       1.054  -0.296  -0.172  1.00  0.00    -0.269 OA
ATOM      6  C   UNL     1       2.258  -0.111  -0.201  1.00  0.00     0.251 C 
ATOM      7  H   UNL     1       2.608  -0.922   1.592  1.00  0.00     0.163 HD
BRANCH   6   8
ATOM      8  C   UNL     1       2.904   0.455  -1.393  1.00  0.00     0.039 A 
ATOM      9  C   UNL     1       4.028  -0.177  -1.933  1.00  0.00     0.014 A 
ATOM     10  C   UNL     1       2.404   1.637  -1.935  1.00  0.00     0.014 A 
ATOM     11  C   UNL     1       4.735   0.447  -2.946  1.00  0.00     0.010 A 
ATOM     12  C   UNL     1       3.067   2.217  -3.012  1.00  0.00     0.010 A 
ATOM     13  C   UNL     1       4.246   1.636  -3.507  1.00  0.00    -0.014 A 
BRANCH  13  14
ATOM     14  C   UNL     1       4.930   2.220  -4.678  1.00  0.00     0.031 A 
ATOM     15  C   UNL     1       5.586   3.562  -4.593  1.00  0.00     0.074 A 
ATOM     16  C   UNL     1       4.912   1.525  -5.829  1.00  0.00     0.049 A 
ATOM     17  N   UNL     1       6.144   4.266  -5.544  1.00  0.00    -0.248 NA
ATOM     18  C   UNL     1       5.606   4.208  -3.272  1.00  0.00     0.031 C 
ATOM     19  C   UNL     1       4.285   0.213  -6.007  1.00  0.00     0.029 A 
ATOM     20  N   UNL     1       5.420   1.823  -7.064  1.00  0.00    -0.354 N 
ATOM     21  C   UNL     1       6.556   5.448  -4.946  1.00  0.00     0.074 A 
ATOM     22  C   UNL     1       6.170   5.375  -3.552  1.00  0.00     0.031 C 
ATOM     23  C   UNL     1       4.453  -0.186  -7.274  1.00  0.00     0.029 A 
ATOM     24  C   UNL     1       5.136   0.871  -8.010  1.00  0.00     0.049 A 
ATOM     25  H   UNL     1       5.936   2.639  -7.256  1.00  0.00     0.167 HD
ATOM     26  C   UNL     1       7.199   6.494  -5.519  1.00  0.00     0.037 A 
ATOM     27  C   UNL     1       5.363   0.867  -9.334  1.00  0.00     0.037 A 
ATOM     28  C   UNL     1       7.586   6.534  -6.906  1.00  0.00     0.049 A 
ATOM     29  C   UNL     1       6.061   2.043  -9.947  1.00  0.00     0.074 A 
ATOM     30  C   UNL     1       8.291   7.515  -7.578  1.00  0.00     0.029 A 
ATOM     31  N   UNL     1       7.288   5.546  -7.836  1.00  0.00    -0.354 N 
ATOM     32  N   UNL     1       6.483   3.141  -9.369  1.00  0.00    -0.248 NA
ATOM     33  C   UNL     1       6.313   1.983 -11.391  1.00  0.00     0.031 C 
ATOM     34  C   UNL     1       8.376   7.146  -8.925  1.00  0.00     0.029 A 
ATOM     35  C   UNL     1       7.770   5.910  -9.084  1.00  0.00     0.049 A 
ATOM     36  H   UNL     1       6.806   4.711  -7.639  1.00  0.00     0.167 HD
ATOM     37  C   UNL     1       7.063   3.901 -10.372  1.00  0.00     0.074 A 
ATOM     38  C   UNL     1       6.949   3.130 -11.595  1.00  0.00     0.031 C 
ATOM     39  C   UNL     1       7.638   5.125 -10.287  1.00  0.00     0.037 A 
BRANCH  26  40
ATOM     40  C   UNL     1       7.491   7.688  -4.657  1.00  0.00     0.064 A 
ATOM     41  C   UNL     1       8.450   7.650  -3.634  1.00  0.00     0.173 A 
ATOM     42  C   UNL     1       6.812   8.898  -4.872  1.00  0.00     0.173 A 
ATOM     43  F   UNL     1       9.119   6.516  -3.378  1.00  0.00    -0.203 F 
ATOM     44  C   UNL     1       8.695   8.767  -2.839  1.00  0.00     0.198 A 
ATOM     45  C   UNL     1       7.080  10.021  -4.094  1.00  0.00     0.198 A 
ATOM     46  F   UNL     1       5.889   8.992  -5.841  1.00  0.00    -0.203 F 
ATOM     47  F   UNL     1       9.579   8.692  -1.834  1.00  0.00    -0.200 F 
ATOM     48  C   UNL     1       8.014   9.953  -3.072  1.00  0.00     0.200 A 
ATOM     49  F   UNL     1       6.429  11.169  -4.330  1.00  0.00    -0.200 F 
ATOM     50  F   UNL     1       8.252  11.027  -2.307  1.00  0.00    -0.200 F 
ENDBRANCH  26  40
BRANCH  27  51
ATOM     51  C   UNL     1       4.898  -0.288 -10.139  1.00  0.00     0.064 A 
ATOM     52  C   UNL     1       5.804  -1.223 -10.652  1.00  0.00     0.173 A 
ATOM     53  C   UNL     1       3.528  -0.525 -10.336  1.00  0.00     0.173 A 
ATOM     54  F   UNL     1       7.122  -1.033 -10.495  1.00  0.00    -0.203 F 
ATOM     55  C   UNL     1       5.359  -2.353 -11.334  1.00  0.00     0.198 A 
ATOM     56  C   UNL     1       3.083  -1.668 -10.993  1.00  0.00     0.198 A 
ATOM     57  F   UNL     1       2.621   0.335  -9.849  1.00  0.00    -0.203 F 
ATOM     58  F   UNL     1       6.246  -3.226 -11.830  1.00  0.00    -0.200 F 
ATOM     59  C   UNL     1       3.999  -2.581 -11.494  1.00  0.00     0.200 A 
ATOM     60  F   UNL     1       1.769  -1.895 -11.125  1.00  0.00    -0.200 F 
ATOM     61  F   UNL     1       3.572  -3.681 -12.127  1.00  0.00    -0.200 F 
ENDBRANCH  27  51
BRANCH  39  62
ATOM     62  C   UNL     1       8.207   5.697 -11.550  1.00  0.00     0.064 A 
ATOM     63  C   UNL     1       7.380   6.214 -12.557  1.00  0.00     0.173 A 
ATOM     64  C   UNL     1       9.596   5.778 -11.727  1.00  0.00     0.173 A 
ATOM     65  F   UNL     1       6.046   6.141 -12.438  1.00  0.00    -0.203 F 
ATOM     66  C   UNL     1       7.925   6.782 -13.704  1.00  0.00     0.198 A 
ATOM     67  C   UNL     1      10.137   6.370 -12.864  1.00  0.00     0.198 A 
ATOM     68  F   UNL     1      10.427   5.299 -10.790  1.00  0.00    -0.203 F 
ATOM     69  F   UNL     1       7.118   7.240 -14.671  1.00  0.00    -0.200 F 
ATOM     70  C   UNL     1       9.302   6.868 -13.853  1.00  0.00     0.200 A 
ATOM     71  F   UNL     1      11.467   6.462 -13.001  1.00  0.00    -0.200 F 
ATOM     72  F   UNL     1       9.824   7.427 -14.953  1.00  0.00    -0.200 F 
ENDBRANCH  39  62
ENDBRANCH  13  14
ENDBRANCH   6   8
ENDBRANCH   3   4
ENDBRANCH   2   3
ENDBRANCH   1   2
BRANCH   1  73
ATOM     73  C   UNL     1       4.085  -0.948   3.941  1.00  0.00     0.116 C 
BRANCH  73  74
ATOM     74  N   UNL     1       5.484  -1.193   4.180  1.00  0.00    -0.352 N 
ATOM     75  C   UNL     1       6.025  -1.364   5.417  1.00  0.00     0.251 C 
ATOM     76  H   UNL     1       6.086  -1.239   3.402  1.00  0.00     0.163 HD
ATOM     77  O   UNL     1       7.080  -0.797   5.682  1.00  0.00    -0.269 OA
BRANCH  75  78
ATOM     78  C   UNL     1       5.321  -2.216   6.414  1.00  0.00     0.047 A 
ATOM     79  C   UNL     1       5.382  -1.748   7.739  1.00  0.00     0.014 A 
ATOM     80  C   UNL     1       4.681  -3.446   6.116  1.00  0.00    -0.005 A 
ATOM     81  C   UNL     1       4.789  -2.462   8.778  1.00  0.00     0.001 A 
ATOM     82  C   UNL     1       4.088  -4.141   7.198  1.00  0.00     0.009 A 
ATOM     83  C   UNL     1       4.136  -3.656   8.507  1.00  0.00     0.001 A 
BRANCH  80  84
ATOM     84  C   UNL     1       4.536  -4.052   4.766  1.00  0.00    -0.005 A 
ATOM     85  C   UNL     1       3.203  -4.237   4.305  1.00  0.00     0.009 A 
ATOM     86  C   UNL     1       5.581  -4.415   3.885  1.00  0.00     0.047 A 
ATOM     87  C   UNL     1       2.906  -4.708   3.025  1.00  0.00     0.001 A 
ATOM     88  C   UNL     1       5.259  -4.902   2.594  1.00  0.00     0.014 A 
ATOM     89  C   UNL     1       3.939  -5.039   2.164  1.00  0.00     0.001 A 
BRANCH  86  90
ATOM     90  C   UNL     1       7.036  -4.133   4.096  1.00  0.00     0.254 C 
ATOM     91  O   UNL     1       7.688  -3.796   3.103  1.00  0.00    -0.269 OA
ATOM     92  N   UNL     1       7.606  -4.151   5.363  1.00  0.00    -0.327 N 
ATOM     93  C   UNL     1       8.813  -3.359   5.552  1.00  0.00     0.181 C 
ATOM     94  C   UNL     1       7.465  -5.254   6.308  1.00  0.00     0.181 C 
ATOM     95  C   UNL     1       8.987  -2.880   7.008  1.00  0.00     0.284 C 
ATOM     96  C   UNL     1       7.738  -4.846   7.780  1.00  0.00     0.284 C 
ATOM     97  N   UNL     1       8.820  -3.890   8.063  1.00  0.00    -0.328 N 
ATOM     98  H   UNL     1       8.473  -3.381   8.877  1.00  0.00     0.348 HD
BRANCH  97  99
ATOM     99  C   UNL     1      10.062  -4.431   8.621  1.00  0.00     0.299 C 
BRANCH  99 100
ATOM    100  C   UNL     1      10.854  -5.254   7.634  1.00  0.00     0.010 A 
ATOM    101  C   UNL     1      10.540  -6.621   7.459  1.00  0.00     0.013 A 
ATOM    102  C   UNL     1      11.701  -4.600   6.726  1.00  0.00     0.060 A 
ATOM    103  C   UNL     1      10.898  -7.283   6.284  1.00  0.00     0.051 A 
ATOM    104  C   UNL     1      11.973  -5.256   5.551  1.00  0.00     0.166 A 
ATOM    105  C   UNL     1      11.549  -6.545   5.321  1.00  0.00     0.165 A 
ATOM    106  O   UNL     1      12.489  -4.674   4.433  1.00  0.00    -0.454 OA
ATOM    107  O   UNL     1      11.744  -6.920   4.026  1.00  0.00    -0.454 OA
ATOM    108  C   UNL     1      12.065  -5.636   3.446  1.00  0.00     0.468 C 
ENDBRANCH  99 100
ENDBRANCH  97  99
ENDBRANCH  86  90
ENDBRANCH  80  84
ENDBRANCH  75  78
ENDBRANCH  73  74
ENDBRANCH   1  73
TORSDOF 15
