REMARK SMILES [NH3+][C@]1(C(=O)NCCCCNC(=O)c2ccc(-c3c4nc(c(-c5c(F)c(F)c(F)c(F)c5F)c5ccc([nH]5)c(-c5c(F)c(F)c(F)c(F)c5F)c5nc(c(-c6c(F)c(F)c(F)c(F)c6F)c6ccc3[nH]6)C=C5)C=C4)cc2)CC[C@@H](Sc2ccc(Cl)c(Cl)c2)C1
REMARK SMILES IDX 7 1 6 2 5 3 3 4 4 5 2 7 76 8 88 9 77 10 78 11 1 12 79 16
REMARK SMILES IDX 80 17 81 18 87 19 82 20 85 21 83 22 86 23 84 24 8 25 9 26
REMARK SMILES IDX 10 27 11 28 12 30 13 31 14 32 75 33 15 34 74 35 16 36 17 37
REMARK SMILES IDX 18 38 68 39 19 40 73 41 67 42 69 43 20 44 72 45 66 46 65 47
REMARK SMILES IDX 21 49 53 50 33 51 52 52 34 53 37 54 51 55 70 56 35 57 36 58
REMARK SMILES IDX 50 60 71 61 38 62 22 63 23 64 31 65 24 66 25 67 29 68 32 69
REMARK SMILES IDX 26 70 27 71 30 72 28 73 54 74 55 75 63 76 56 77 57 78 61 79
REMARK SMILES IDX 64 80 58 81 59 82 62 83 60 84 39 85 40 86 48 87 41 88 42 89
REMARK SMILES IDX 46 90 49 91 43 92 44 93 47 94 45 95
REMARK H PARENT 5 6 1 13 1 14 1 15 10 29 69 48 37 59
REMARK Flexibility Score: inf
ROOT
ATOM      1  C   UNL     1       1.469   0.010  -3.567  1.00  0.00     0.023 C 
ENDROOT
BRANCH   1   2
ATOM      2  C   UNL     1       0.558  -0.702  -2.572  1.00  0.00     0.116 C 
BRANCH   2   3
ATOM      3  N   UNL     1       1.129  -0.748  -1.244  1.00  0.00    -0.351 N 
ATOM      4  C   UNL     1       0.993   0.052  -0.152  1.00  0.00     0.281 C 
ATOM      5  O   UNL     1       1.619  -0.324   0.848  1.00  0.00    -0.268 OA
ATOM      6  H   UNL     1       1.736  -1.509  -1.101  1.00  0.00     0.163 HD
BRANCH   4   7
ATOM      7  C   UNL     1       0.235   1.414  -0.151  1.00  0.00     0.175 C 
ATOM      8  C   UNL     1      -0.088   1.827   1.303  1.00  0.00     0.080 C 
ATOM      9  C   UNL     1       1.154   2.549  -0.646  1.00  0.00     0.094 C 
ATOM     10  C   UNL     1      -0.167   3.345   1.281  1.00  0.00     0.022 C 
ATOM     11  C   UNL     1       0.867   3.770   0.241  1.00  0.00     0.058 C 
BRANCH   7  12
ATOM     12  N   UNL     1      -1.026   1.383  -0.923  1.00  0.00    -0.345 N 
ATOM     13  H   UNL     1      -1.472   2.299  -0.884  1.00  0.00     0.345 HD
ATOM     14  H   UNL     1      -1.651   0.683  -0.525  1.00  0.00     0.345 HD
ATOM     15  H   UNL     1      -0.824   1.145  -1.894  1.00  0.00     0.345 HD
ENDBRANCH   7  12
BRANCH  11  16
ATOM     16  S   UNL     1       2.366   4.600   0.911  1.00  0.00    -0.122 SA
BRANCH  16  17
ATOM     17  C   UNL     1       2.998   3.469   2.138  1.00  0.00     0.009 A 
ATOM     18  C   UNL     1       2.924   3.819   3.491  1.00  0.00     0.017 A 
ATOM     19  C   UNL     1       3.705   2.318   1.777  1.00  0.00     0.037 A 
ATOM     20  C   UNL     1       3.527   3.018   4.468  1.00  0.00     0.023 A 
ATOM     21  C   UNL     1       4.300   1.507   2.752  1.00  0.00     0.060 A 
ATOM     22  C   UNL     1       4.215   1.860   4.101  1.00  0.00     0.059 A 
ATOM     23  Cl  UNL     1       5.161   0.108   2.212  1.00  0.00    -0.083 Cl
ATOM     24  Cl  UNL     1       4.966   0.935   5.352  1.00  0.00    -0.083 Cl
ENDBRANCH  16  17
ENDBRANCH  11  16
ENDBRANCH   4   7
ENDBRANCH   2   3
ENDBRANCH   1   2
BRANCH   1  25
ATOM     25  C   UNL     1       2.773  -0.733  -3.877  1.00  0.00     0.023 C 
BRANCH  25  26
ATOM     26  C   UNL     1       2.613  -2.158  -4.402  1.00  0.00     0.116 C 
BRANCH  26  27
ATOM     27  N   UNL     1       1.802  -2.241  -5.607  1.00  0.00    -0.352 N 
ATOM     28  C   UNL     1       1.982  -3.030  -6.717  1.00  0.00     0.251 C 
ATOM     29  H   UNL     1       1.014  -1.650  -5.630  1.00  0.00     0.163 HD
ATOM     30  O   UNL     1       1.258  -2.893  -7.699  1.00  0.00    -0.269 OA
BRANCH  28  31
ATOM     31  C   UNL     1       3.079  -4.020  -6.743  1.00  0.00     0.039 A 
ATOM     32  C   UNL     1       3.921  -4.064  -7.857  1.00  0.00     0.014 A 
ATOM     33  C   UNL     1       3.288  -4.886  -5.667  1.00  0.00     0.014 A 
ATOM     34  C   UNL     1       5.018  -4.927  -7.861  1.00  0.00     0.010 A 
ATOM     35  C   UNL     1       4.419  -5.698  -5.644  1.00  0.00     0.010 A 
ATOM     36  C   UNL     1       5.298  -5.722  -6.738  1.00  0.00    -0.014 A 
BRANCH  36  37
ATOM     37  C   UNL     1       6.512  -6.575  -6.681  1.00  0.00     0.031 A 
ATOM     38  C   UNL     1       6.382  -8.070  -6.606  1.00  0.00     0.074 A 
ATOM     39  C   UNL     1       7.728  -5.999  -6.620  1.00  0.00     0.049 A 
ATOM     40  N   UNL     1       7.316  -8.977  -6.466  1.00  0.00    -0.248 NA
ATOM     41  C   UNL     1       5.019  -8.618  -6.671  1.00  0.00     0.031 C 
ATOM     42  C   UNL     1       7.982  -4.558  -6.636  1.00  0.00     0.029 A 
ATOM     43  N   UNL     1       8.979  -6.555  -6.517  1.00  0.00    -0.354 N 
ATOM     44  C   UNL     1       6.654 -10.196  -6.410  1.00  0.00     0.074 A 
ATOM     45  C   UNL     1       5.237  -9.911  -6.481  1.00  0.00     0.031 C 
ATOM     46  C   UNL     1       9.305  -4.343  -6.564  1.00  0.00     0.029 A 
ATOM     47  C   UNL     1       9.991  -5.628  -6.457  1.00  0.00     0.049 A 
ATOM     48  H   UNL     1       9.136  -7.527  -6.488  1.00  0.00     0.167 HD
ATOM     49  C   UNL     1       7.181 -11.441  -6.329  1.00  0.00     0.037 A 
ATOM     50  C   UNL     1      11.320  -5.795  -6.321  1.00  0.00     0.037 A 
ATOM     51  C   UNL     1       8.592 -11.722  -6.283  1.00  0.00     0.049 A 
ATOM     52  C   UNL     1      11.879  -7.189  -6.226  1.00  0.00     0.074 A 
ATOM     53  C   UNL     1       9.227 -12.951  -6.263  1.00  0.00     0.029 A 
ATOM     54  N   UNL     1       9.588 -10.756  -6.245  1.00  0.00    -0.354 N 
ATOM     55  N   UNL     1      11.248  -8.337  -6.247  1.00  0.00    -0.248 NA
ATOM     56  C   UNL     1      13.338  -7.309  -6.095  1.00  0.00     0.031 C 
ATOM     57  C   UNL     1      10.605 -12.730  -6.168  1.00  0.00     0.029 A 
ATOM     58  C   UNL     1      10.832 -11.364  -6.181  1.00  0.00     0.049 A 
ATOM     59  H   UNL     1       9.434  -9.784  -6.262  1.00  0.00     0.167 HD
ATOM     60  C   UNL     1      12.230  -9.315  -6.161  1.00  0.00     0.074 A 
ATOM     61  C   UNL     1      13.502  -8.625  -6.102  1.00  0.00     0.031 C 
ATOM     62  C   UNL     1      12.090 -10.663  -6.134  1.00  0.00     0.037 A 
BRANCH  49  63
ATOM     63  C   UNL     1       6.225 -12.598  -6.288  1.00  0.00     0.064 A 
ATOM     64  C   UNL     1       5.468 -12.965  -7.411  1.00  0.00     0.173 A 
ATOM     65  C   UNL     1       6.092 -13.372  -5.126  1.00  0.00     0.173 A 
ATOM     66  F   UNL     1       5.550 -12.252  -8.544  1.00  0.00    -0.203 F 
ATOM     67  C   UNL     1       4.590 -14.045  -7.362  1.00  0.00     0.198 A 
ATOM     68  C   UNL     1       5.236 -14.470  -5.090  1.00  0.00     0.198 A 
ATOM     69  F   UNL     1       6.798 -13.069  -4.026  1.00  0.00    -0.203 F 
ATOM     70  F   UNL     1       3.840 -14.346  -8.431  1.00  0.00    -0.200 F 
ATOM     71  C   UNL     1       4.481 -14.801  -6.204  1.00  0.00     0.200 A 
ATOM     72  F   UNL     1       5.142 -15.208  -3.975  1.00  0.00    -0.200 F 
ATOM     73  F   UNL     1       3.641 -15.845  -6.161  1.00  0.00    -0.200 F 
ENDBRANCH  49  63
BRANCH  50  74
ATOM     74  C   UNL     1      12.218  -4.611  -6.289  1.00  0.00     0.064 A 
ATOM     75  C   UNL     1      13.091  -4.343  -7.353  1.00  0.00     0.173 A 
ATOM     76  C   UNL     1      12.229  -3.730  -5.199  1.00  0.00     0.173 A 
ATOM     77  F   UNL     1      13.132  -5.169  -8.409  1.00  0.00    -0.203 F 
ATOM     78  C   UNL     1      13.954  -3.250  -7.319  1.00  0.00     0.198 A 
ATOM     79  C   UNL     1      13.072  -2.621  -5.178  1.00  0.00     0.198 A 
ATOM     80  F   UNL     1      11.409  -3.939  -4.158  1.00  0.00    -0.203 F 
ATOM     81  F   UNL     1      14.810  -3.044  -8.329  1.00  0.00    -0.200 F 
ATOM     82  C   UNL     1      13.940  -2.387  -6.234  1.00  0.00     0.200 A 
ATOM     83  F   UNL     1      13.046  -1.781  -4.135  1.00  0.00    -0.200 F 
ATOM     84  F   UNL     1      14.768  -1.334  -6.203  1.00  0.00    -0.200 F 
ENDBRANCH  50  74
BRANCH  62  85
ATOM     85  C   UNL     1      13.345 -11.485  -6.075  1.00  0.00     0.064 A 
ATOM     86  C   UNL     1      14.122 -11.561  -4.910  1.00  0.00     0.173 A 
ATOM     87  C   UNL     1      13.748 -12.241  -7.186  1.00  0.00     0.173 A 
ATOM     88  F   UNL     1      13.787 -10.844  -3.827  1.00  0.00    -0.203 F 
ATOM     89  C   UNL     1      15.271 -12.347  -4.868  1.00  0.00     0.198 A 
ATOM     90  C   UNL     1      14.880 -13.049  -7.130  1.00  0.00     0.198 A 
ATOM     91  F   UNL     1      13.035 -12.208  -8.322  1.00  0.00    -0.203 F 
ATOM     92  F   UNL     1      16.024 -12.370  -3.760  1.00  0.00    -0.200 F 
ATOM     93  C   UNL     1      15.644 -13.096  -5.974  1.00  0.00     0.200 A 
ATOM     94  F   UNL     1      15.231 -13.783  -8.195  1.00  0.00    -0.200 F 
ATOM     95  F   UNL     1      16.744 -13.859  -5.928  1.00  0.00    -0.200 F 
ENDBRANCH  62  85
ENDBRANCH  36  37
ENDBRANCH  28  31
ENDBRANCH  26  27
ENDBRANCH  25  26
ENDBRANCH   1  25
TORSDOF 14
