REMARK SMILES Cc1cc(C(=O)N[C@@H]2C(=O)N3C(C(=O)NCCCCNC(=O)c4ccc(-c5c6nc(c(-c7c(F)c(F)c(F)c(F)c7F)c7ccc([nH]7)c(-c7c(F)c(F)c(F)c(F)c7F)c7nc(c(-c8c(F)c(F)c(F)c(F)c8F)c8ccc5[nH]8)C=C7)C=C6)cc4)=C(CSc4nnc(C)s4)CS[C@H]23)n(C)n1
REMARK SMILES IDX 17 1 16 2 15 3 13 4 14 5 12 7 8 8 9 9 97 10 10 11 11 12
REMARK SMILES IDX 96 13 95 14 86 15 7 16 5 17 6 18 4 20 1 21 2 22 3 23 100 24
REMARK SMILES IDX 98 25 99 26 87 27 88 28 89 29 90 30 94 31 91 32 92 33 93 34
REMARK SMILES IDX 18 35 19 36 20 37 21 38 22 40 23 41 24 42 85 43 25 44 84 45
REMARK SMILES IDX 26 46 27 47 28 48 78 49 29 50 83 51 77 52 79 53 30 54 82 55
REMARK SMILES IDX 76 56 75 57 31 59 63 60 43 61 62 62 44 63 47 64 61 65 80 66
REMARK SMILES IDX 45 67 46 68 60 70 81 71 48 72 32 73 33 74 41 75 34 76 35 77
REMARK SMILES IDX 39 78 42 79 36 80 37 81 40 82 38 83 64 84 65 85 73 86 66 87
REMARK SMILES IDX 67 88 71 89 74 90 68 91 69 92 72 93 70 94 49 95 50 96 58 97
REMARK SMILES IDX 51 98 52 99 56 100 59 101 53 102 54 103 57 104 55 105
REMARK H PARENT 15 6 7 19 20 39 79 58 47 69
REMARK Flexibility Score: inf
ROOT
ATOM      1  C   UNL     1      -5.802  -0.574  -3.865  1.00  0.00     0.023 C 
ENDROOT
BRANCH   1   2
ATOM      2  C   UNL     1      -4.344  -0.645  -4.333  1.00  0.00     0.116 C 
BRANCH   2   3
ATOM      3  N   UNL     1      -3.442  -0.438  -3.222  1.00  0.00    -0.351 N 
ATOM      4  C   UNL     1      -2.657  -1.199  -2.423  1.00  0.00     0.268 C 
ATOM      5  O   UNL     1      -1.891  -0.516  -1.731  1.00  0.00    -0.268 OA
ATOM      6  H   UNL     1      -3.381   0.514  -2.982  1.00  0.00     0.163 HD
BRANCH   4   7
ATOM      7  C   UNL     1      -2.498  -2.731  -2.444  1.00  0.00     0.111 C 
ATOM      8  C   UNL     1      -0.092  -4.079  -0.373  1.00  0.00     0.206 C 
ATOM      9  C   UNL     1      -1.078  -2.875  -0.387  1.00  0.00     0.253 C 
ATOM     10  C   UNL     1      -0.875  -4.493  -1.649  1.00  0.00     0.181 C 
ATOM     11  O   UNL     1      -1.495  -2.112   0.461  1.00  0.00    -0.272 OA
ATOM     12  N   UNL     1      -1.400  -3.142  -1.695  1.00  0.00    -0.290 N 
ATOM     13  S   UNL     1      -2.254  -5.663  -1.426  1.00  0.00    -0.129 SA
ATOM     14  C   UNL     1      -2.916  -5.165  -3.014  1.00  0.00     0.106 C 
ATOM     15  C   UNL     1      -3.333  -3.709  -2.923  1.00  0.00    -0.020 C 
BRANCH   8  16
ATOM     16  N   UNL     1      -0.086  -4.965   0.823  1.00  0.00    -0.336 N 
ATOM     17  C   UNL     1       0.244  -6.304   0.930  1.00  0.00     0.270 C 
ATOM     18  O   UNL     1       0.195  -6.814   2.048  1.00  0.00    -0.268 OA
ATOM     19  H   UNL     1      -0.359  -4.533   1.665  1.00  0.00     0.164 HD
BRANCH  17  20
ATOM     20  C   UNL     1       0.548  -7.051  -0.271  1.00  0.00     0.126 A 
ATOM     21  C   UNL     1       0.669  -7.421  -3.889  1.00  0.00     0.069 C 
ATOM     22  C   UNL     1       0.707  -7.587  -2.416  1.00  0.00     0.060 A 
ATOM     23  C   UNL     1       1.180  -6.675  -1.447  1.00  0.00     0.059 A 
ATOM     24  N   UNL     1       0.145  -8.649  -1.839  1.00  0.00    -0.178 NA
ATOM     25  N   UNL     1       0.155  -8.349  -0.519  1.00  0.00    -0.263 N 
ATOM     26  C   UNL     1      -0.312  -9.361   0.398  1.00  0.00     0.174 C 
ENDBRANCH  17  20
ENDBRANCH   8  16
BRANCH  15  27
ATOM     27  C   UNL     1      -4.836  -3.609  -3.044  1.00  0.00     0.111 C 
BRANCH  27  28
ATOM     28  S   UNL     1      -5.429  -2.826  -1.541  1.00  0.00    -0.089 SA
BRANCH  28  29
ATOM     29  C   UNL     1      -6.909  -3.615  -1.163  1.00  0.00     0.174 A 
ATOM     30  N   UNL     1      -6.979  -4.887  -0.844  1.00  0.00    -0.132 NA
ATOM     31  S   UNL     1      -8.236  -2.681  -0.614  1.00  0.00    -0.091 S 
ATOM     32  N   UNL     1      -7.877  -5.070   0.197  1.00  0.00    -0.143 NA
ATOM     33  C   UNL     1      -8.434  -3.927   0.550  1.00  0.00     0.115 A 
ATOM     34  C   UNL     1      -9.033  -3.618   1.867  1.00  0.00     0.081 C 
ENDBRANCH  28  29
ENDBRANCH  27  28
ENDBRANCH  15  27
ENDBRANCH   4   7
ENDBRANCH   2   3
ENDBRANCH   1   2
BRANCH   1  35
ATOM     35  C   UNL     1      -6.580   0.675  -4.219  1.00  0.00     0.023 C 
BRANCH  35  36
ATOM     36  C   UNL     1      -6.732   0.915  -5.702  1.00  0.00     0.116 C 
BRANCH  36  37
ATOM     37  N   UNL     1      -7.425  -0.147  -6.423  1.00  0.00    -0.352 N 
ATOM     38  C   UNL     1      -8.312   0.001  -7.468  1.00  0.00     0.251 C 
ATOM     39  H   UNL     1      -7.239  -1.069  -6.132  1.00  0.00     0.163 HD
ATOM     40  O   UNL     1      -8.876  -0.963  -7.970  1.00  0.00    -0.269 OA
BRANCH  38  41
ATOM     41  C   UNL     1      -8.609   1.375  -7.920  1.00  0.00     0.039 A 
ATOM     42  C   UNL     1      -9.927   1.828  -7.886  1.00  0.00     0.014 A 
ATOM     43  C   UNL     1      -7.554   2.254  -8.174  1.00  0.00     0.014 A 
ATOM     44  C   UNL     1     -10.178   3.195  -8.007  1.00  0.00     0.010 A 
ATOM     45  C   UNL     1      -7.796   3.619  -8.159  1.00  0.00     0.010 A 
ATOM     46  C   UNL     1      -9.111   4.106  -8.083  1.00  0.00    -0.014 A 
BRANCH  46  47
ATOM     47  C   UNL     1      -9.338   5.573  -8.103  1.00  0.00     0.031 A 
ATOM     48  C   UNL     1      -8.843   6.382  -9.271  1.00  0.00     0.074 A 
ATOM     49  C   UNL     1      -9.915   6.185  -7.049  1.00  0.00     0.049 A 
ATOM     50  N   UNL     1      -8.864   7.677  -9.452  1.00  0.00    -0.248 NA
ATOM     51  C   UNL     1      -8.197   5.637 -10.366  1.00  0.00     0.031 C 
ATOM     52  C   UNL     1     -10.374   5.523  -5.827  1.00  0.00     0.029 A 
ATOM     53  N   UNL     1     -10.207   7.510  -6.834  1.00  0.00    -0.354 N 
ATOM     54  C   UNL     1      -8.219   7.897 -10.661  1.00  0.00     0.074 A 
ATOM     55  C   UNL     1      -7.747   6.616 -11.133  1.00  0.00     0.031 C 
ATOM     56  C   UNL     1     -10.924   6.436  -5.010  1.00  0.00     0.029 A 
ATOM     57  C   UNL     1     -10.820   7.753  -5.628  1.00  0.00     0.049 A 
ATOM     58  H   UNL     1      -9.997   8.219  -7.484  1.00  0.00     0.167 HD
ATOM     59  C   UNL     1      -8.067   9.058 -11.340  1.00  0.00     0.037 A 
ATOM     60  C   UNL     1     -11.246   8.910  -5.086  1.00  0.00     0.037 A 
ATOM     61  C   UNL     1      -8.574  10.324 -10.886  1.00  0.00     0.049 A 
ATOM     62  C   UNL     1     -11.074  10.188  -5.864  1.00  0.00     0.074 A 
ATOM     63  C   UNL     1      -8.535  11.548 -11.527  1.00  0.00     0.029 A 
ATOM     64  N   UNL     1      -9.217  10.525  -9.673  1.00  0.00    -0.354 N 
ATOM     65  N   UNL     1     -10.534  10.372  -7.045  1.00  0.00    -0.248 NA
ATOM     66  C   UNL     1     -11.578  11.418  -5.238  1.00  0.00     0.031 C 
ATOM     67  C   UNL     1      -9.109  12.501 -10.680  1.00  0.00     0.029 A 
ATOM     68  C   UNL     1      -9.560  11.859  -9.537  1.00  0.00     0.049 A 
ATOM     69  H   UNL     1      -9.401   9.823  -9.008  1.00  0.00     0.167 HD
ATOM     70  C   UNL     1     -10.662  11.728  -7.317  1.00  0.00     0.074 A 
ATOM     71  C   UNL     1     -11.344  12.317  -6.184  1.00  0.00     0.031 C 
ATOM     72  C   UNL     1     -10.253  12.423  -8.407  1.00  0.00     0.037 A 
BRANCH  59  73
ATOM     73  C   UNL     1      -7.333   9.004 -12.649  1.00  0.00     0.064 A 
ATOM     74  C   UNL     1      -7.871   8.350 -13.769  1.00  0.00     0.173 A 
ATOM     75  C   UNL     1      -6.087   9.631 -12.793  1.00  0.00     0.173 A 
ATOM     76  F   UNL     1      -9.052   7.720 -13.681  1.00  0.00    -0.203 F 
ATOM     77  C   UNL     1      -7.172   8.295 -14.972  1.00  0.00     0.198 A 
ATOM     78  C   UNL     1      -5.407   9.605 -14.008  1.00  0.00     0.198 A 
ATOM     79  F   UNL     1      -5.527  10.271 -11.755  1.00  0.00    -0.203 F 
ATOM     80  F   UNL     1      -7.678   7.612 -16.008  1.00  0.00    -0.200 F 
ATOM     81  C   UNL     1      -5.945   8.930 -15.093  1.00  0.00     0.200 A 
ATOM     82  F   UNL     1      -4.227  10.229 -14.127  1.00  0.00    -0.200 F 
ATOM     83  F   UNL     1      -5.277   8.882 -16.253  1.00  0.00    -0.200 F 
ENDBRANCH  59  73
BRANCH  60  84
ATOM     84  C   UNL     1     -11.908   8.914  -3.753  1.00  0.00     0.064 A 
ATOM     85  C   UNL     1     -13.272   9.215  -3.627  1.00  0.00     0.173 A 
ATOM     86  C   UNL     1     -11.195   8.629  -2.580  1.00  0.00     0.173 A 
ATOM     87  F   UNL     1     -13.995   9.514  -4.716  1.00  0.00    -0.203 F 
ATOM     88  C   UNL     1     -13.890   9.257  -2.378  1.00  0.00     0.198 A 
ATOM     89  C   UNL     1     -11.821   8.641  -1.334  1.00  0.00     0.198 A 
ATOM     90  F   UNL     1      -9.889   8.328  -2.643  1.00  0.00    -0.203 F 
ATOM     91  F   UNL     1     -15.183   9.598  -2.284  1.00  0.00    -0.200 F 
ATOM     92  C   UNL     1     -13.165   8.964  -1.233  1.00  0.00     0.200 A 
ATOM     93  F   UNL     1     -11.120   8.342  -0.232  1.00  0.00    -0.200 F 
ATOM     94  F   UNL     1     -13.760   9.002  -0.033  1.00  0.00    -0.200 F 
ENDBRANCH  60  84
BRANCH  72  95
ATOM     95  C   UNL     1     -10.571  13.889  -8.451  1.00  0.00     0.064 A 
ATOM     96  C   UNL     1      -9.916  14.812  -7.623  1.00  0.00     0.173 A 
ATOM     97  C   UNL     1     -11.508  14.381  -9.373  1.00  0.00     0.173 A 
ATOM     98  F   UNL     1      -9.022  14.391  -6.717  1.00  0.00    -0.203 F 
ATOM     99  C   UNL     1     -10.208  16.172  -7.699  1.00  0.00     0.198 A 
ATOM    100  C   UNL     1     -11.772  15.744  -9.469  1.00  0.00     0.198 A 
ATOM    101  F   UNL     1     -12.155  13.540 -10.194  1.00  0.00    -0.203 F 
ATOM    102  F   UNL     1      -9.605  17.031  -6.865  1.00  0.00    -0.200 F 
ATOM    103  C   UNL     1     -11.127  16.637  -8.627  1.00  0.00     0.200 A 
ATOM    104  F   UNL     1     -12.648  16.192 -10.379  1.00  0.00    -0.200 F 
ATOM    105  F   UNL     1     -11.398  17.947  -8.706  1.00  0.00    -0.200 F 
ENDBRANCH  72  95
ENDBRANCH  46  47
ENDBRANCH  38  41
ENDBRANCH  36  37
ENDBRANCH  35  36
ENDBRANCH   1  35
TORSDOF 16
