REMARK SMILES Cc1cc(C)n(-c2ccccc2NS(=O)(=O)c2cc(C)c(C(=O)NCCCCNC(=O)c3ccc(-c4c5nc(c(-c6c(F)c(F)c(F)c(F)c6F)c6ccc([nH]6)c(-c6c(F)c(F)c(F)c(F)c6F)c6nc(c(-c7c(F)c(F)c(F)c(F)c7F)c7ccc4[nH]7)C=C6)C=C5)cc3)s2)n1
REMARK SMILES IDX 25 1 24 2 22 3 23 4 21 6 17 7 18 8 95 9 19 10 20 11 14 12
REMARK SMILES IDX 15 13 16 14 13 15 12 17 7 18 8 19 9 20 11 21 10 22 6 23 1 24
REMARK SMILES IDX 2 25 3 26 96 27 4 28 5 29 26 30 27 31 28 32 29 33 30 34
REMARK SMILES IDX 31 36 32 37 33 38 94 39 34 40 93 41 35 42 36 43 37 44 87 45
REMARK SMILES IDX 38 46 92 47 86 48 88 49 39 50 91 51 85 52 84 53 40 55 72 56
REMARK SMILES IDX 52 57 71 58 53 59 56 60 70 61 89 62 54 63 55 64 69 66 90 67
REMARK SMILES IDX 57 68 41 69 42 70 50 71 43 72 44 73 48 74 51 75 45 76 46 77
REMARK SMILES IDX 49 78 47 79 73 80 74 81 82 82 75 83 76 84 80 85 83 86 77 87
REMARK SMILES IDX 78 88 81 89 79 90 58 91 59 92 67 93 60 94 61 95 65 96 68 97
REMARK SMILES IDX 62 98 63 99 66 100 64 101
REMARK H PARENT 24 5 13 16 29 35 88 54 56 65
REMARK Flexibility Score: inf
ROOT
ATOM      1  C   UNL     1      -5.994   2.072   7.832  1.00  0.00     0.116 C 
ENDROOT
BRANCH   1   2
ATOM      2  N   UNL     1      -6.213   0.937   8.717  1.00  0.00    -0.351 N 
ATOM      3  C   UNL     1      -6.212  -0.429   8.527  1.00  0.00     0.261 C 
ATOM      4  O   UNL     1      -6.354  -1.086   9.563  1.00  0.00    -0.268 OA
ATOM      5  H   UNL     1      -6.401   1.200   9.648  1.00  0.00     0.163 HD
BRANCH   3   6
ATOM      6  C   UNL     1      -5.969  -1.070   7.234  1.00  0.00     0.096 A 
ATOM      7  C   UNL     1      -5.177  -1.376   4.942  1.00  0.00     0.141 A 
ATOM      8  C   UNL     1      -5.171  -2.580   5.620  1.00  0.00     0.038 A 
ATOM      9  S   UNL     1      -6.229  -0.297   5.730  1.00  0.00    -0.116 S 
ATOM     10  C   UNL     1      -5.568  -2.392   6.999  1.00  0.00    -0.026 A 
ATOM     11  C   UNL     1      -5.404  -3.446   8.050  1.00  0.00     0.046 C 
BRANCH   7  12
ATOM     12  S   UNL     1      -4.291  -0.713   3.552  1.00  0.00     0.271 S 
ATOM     13  O   UNL     1      -4.057   0.680   3.855  1.00  0.00    -0.200 OA
ATOM     14  O   UNL     1      -5.063  -1.121   2.397  1.00  0.00    -0.200 OA
BRANCH  12  15
ATOM     15  N   UNL     1      -2.794  -1.456   3.432  1.00  0.00    -0.277 N 
ATOM     16  H   UNL     1      -2.552  -1.836   2.557  1.00  0.00     0.180 HD
BRANCH  15  17
ATOM     17  C   UNL     1      -1.825  -1.589   4.498  1.00  0.00     0.075 A 
ATOM     18  C   UNL     1      -0.594  -2.193   4.176  1.00  0.00     0.089 A 
ATOM     19  C   UNL     1       0.222  -2.756   5.172  1.00  0.00     0.030 A 
ATOM     20  C   UNL     1      -0.175  -2.710   6.505  1.00  0.00     0.002 A 
ATOM     21  C   UNL     1      -2.151  -1.477   5.851  1.00  0.00     0.029 A 
ATOM     22  C   UNL     1      -1.349  -2.050   6.846  1.00  0.00     0.002 A 
BRANCH  18  23
ATOM     23  N   UNL     1      -0.124  -2.165   2.840  1.00  0.00    -0.236 N 
ATOM     24  C   UNL     1       0.796  -0.081   0.113  1.00  0.00     0.069 C 
ATOM     25  C   UNL     1       0.535  -1.194   1.059  1.00  0.00     0.060 A 
ATOM     26  C   UNL     1       1.047  -2.506   1.006  1.00  0.00     0.048 A 
ATOM     27  N   UNL     1      -0.295  -1.037   2.097  1.00  0.00    -0.173 NA
ATOM     28  C   UNL     1       0.558  -3.136   2.131  1.00  0.00     0.041 A 
ATOM     29  C   UNL     1       0.615  -4.564   2.526  1.00  0.00     0.067 C 
ENDBRANCH  18  23
ENDBRANCH  15  17
ENDBRANCH  12  15
ENDBRANCH   7  12
ENDBRANCH   3   6
ENDBRANCH   1   2
BRANCH   1  30
ATOM     30  C   UNL     1      -7.302   2.620   7.248  1.00  0.00     0.023 C 
BRANCH  30  31
ATOM     31  C   UNL     1      -8.212   3.365   8.236  1.00  0.00     0.023 C 
BRANCH  31  32
ATOM     32  C   UNL     1      -7.686   4.711   8.723  1.00  0.00     0.116 C 
BRANCH  32  33
ATOM     33  N   UNL     1      -7.459   5.672   7.640  1.00  0.00    -0.352 N 
ATOM     34  C   UNL     1      -6.712   6.836   7.657  1.00  0.00     0.251 C 
ATOM     35  H   UNL     1      -7.898   5.460   6.784  1.00  0.00     0.163 HD
ATOM     36  O   UNL     1      -6.900   7.727   6.837  1.00  0.00    -0.269 OA
BRANCH  34  37
ATOM     37  C   UNL     1      -5.663   6.984   8.678  1.00  0.00     0.039 A 
ATOM     38  C   UNL     1      -5.443   8.188   9.356  1.00  0.00     0.014 A 
ATOM     39  C   UNL     1      -4.916   5.854   8.977  1.00  0.00     0.014 A 
ATOM     40  C   UNL     1      -4.521   8.213  10.402  1.00  0.00     0.010 A 
ATOM     41  C   UNL     1      -4.160   5.830  10.115  1.00  0.00     0.010 A 
ATOM     42  C   UNL     1      -3.893   7.021  10.785  1.00  0.00    -0.014 A 
BRANCH  42  43
ATOM     43  C   UNL     1      -2.984   6.952  11.925  1.00  0.00     0.031 A 
ATOM     44  C   UNL     1      -3.573   7.281  13.255  1.00  0.00     0.074 A 
ATOM     45  C   UNL     1      -1.795   6.318  11.813  1.00  0.00     0.049 A 
ATOM     46  N   UNL     1      -3.174   8.159  14.117  1.00  0.00    -0.248 NA
ATOM     47  C   UNL     1      -4.810   6.586  13.650  1.00  0.00     0.031 C 
ATOM     48  C   UNL     1      -1.250   5.616  10.640  1.00  0.00     0.029 A 
ATOM     49  N   UNL     1      -0.883   6.027  12.777  1.00  0.00    -0.354 N 
ATOM     50  C   UNL     1      -4.000   8.015  15.234  1.00  0.00     0.074 A 
ATOM     51  C   UNL     1      -5.079   7.154  14.827  1.00  0.00     0.031 C 
ATOM     52  C   UNL     1      -0.264   4.782  11.029  1.00  0.00     0.029 A 
ATOM     53  C   UNL     1       0.016   5.028  12.430  1.00  0.00     0.049 A 
ATOM     54  H   UNL     1      -0.862   6.485  13.648  1.00  0.00     0.167 HD
ATOM     55  C   UNL     1      -3.606   8.432  16.471  1.00  0.00     0.037 A 
ATOM     56  C   UNL     1       0.903   4.414  13.248  1.00  0.00     0.037 A 
ATOM     57  C   UNL     1      -2.504   9.356  16.378  1.00  0.00     0.049 A 
ATOM     58  C   UNL     1       1.054   5.266  14.453  1.00  0.00     0.074 A 
ATOM     59  C   UNL     1      -2.314  10.581  15.768  1.00  0.00     0.029 A 
ATOM     60  N   UNL     1      -1.244   8.896  16.671  1.00  0.00    -0.354 N 
ATOM     61  N   UNL     1       1.601   6.451  14.445  1.00  0.00    -0.248 NA
ATOM     62  C   UNL     1       0.184   4.987  15.586  1.00  0.00     0.031 C 
ATOM     63  C   UNL     1      -0.976  10.540  15.273  1.00  0.00     0.029 A 
ATOM     64  C   UNL     1      -0.416   9.324  15.667  1.00  0.00     0.049 A 
ATOM     65  H   UNL     1      -0.985   8.359  17.455  1.00  0.00     0.167 HD
ATOM     66  C   UNL     1       0.829   7.202  15.319  1.00  0.00     0.074 A 
ATOM     67  C   UNL     1       0.036   6.226  16.062  1.00  0.00     0.031 C 
ATOM     68  C   UNL     1       0.690   8.550  15.156  1.00  0.00     0.037 A 
BRANCH  55  69
ATOM     69  C   UNL     1      -3.963   7.748  17.774  1.00  0.00     0.064 A 
ATOM     70  C   UNL     1      -3.551   8.335  18.991  1.00  0.00     0.173 A 
ATOM     71  C   UNL     1      -4.409   6.412  17.874  1.00  0.00     0.173 A 
ATOM     72  F   UNL     1      -3.101   9.599  19.024  1.00  0.00    -0.203 F 
ATOM     73  C   UNL     1      -3.494   7.609  20.185  1.00  0.00     0.198 A 
ATOM     74  C   UNL     1      -4.404   5.709  19.079  1.00  0.00     0.198 A 
ATOM     75  F   UNL     1      -4.760   5.693  16.803  1.00  0.00    -0.203 F 
ATOM     76  F   UNL     1      -2.961   8.169  21.279  1.00  0.00    -0.200 F 
ATOM     77  C   UNL     1      -3.911   6.293  20.225  1.00  0.00     0.200 A 
ATOM     78  F   UNL     1      -4.802   4.429  19.094  1.00  0.00    -0.200 F 
ATOM     79  F   UNL     1      -3.793   5.574  21.348  1.00  0.00    -0.200 F 
ENDBRANCH  55  69
BRANCH  56  80
ATOM     80  C   UNL     1       1.403   3.023  13.177  1.00  0.00     0.064 A 
ATOM     81  C   UNL     1       2.591   2.645  13.821  1.00  0.00     0.173 A 
ATOM     82  C   UNL     1       0.594   1.978  12.687  1.00  0.00     0.173 A 
ATOM     83  F   UNL     1       3.394   3.578  14.352  1.00  0.00    -0.203 F 
ATOM     84  C   UNL     1       2.939   1.300  13.984  1.00  0.00     0.198 A 
ATOM     85  C   UNL     1       0.947   0.637  12.842  1.00  0.00     0.198 A 
ATOM     86  F   UNL     1      -0.598   2.236  12.129  1.00  0.00    -0.203 F 
ATOM     87  F   UNL     1       4.053   0.975  14.654  1.00  0.00    -0.200 F 
ATOM     88  C   UNL     1       2.113   0.298  13.502  1.00  0.00     0.200 A 
ATOM     89  F   UNL     1       0.122  -0.324  12.400  1.00  0.00    -0.200 F 
ATOM     90  F   UNL     1       2.419  -0.991  13.707  1.00  0.00    -0.200 F 
ENDBRANCH  56  80
BRANCH  68  91
ATOM     91  C   UNL     1       1.594   9.243  14.175  1.00  0.00     0.064 A 
ATOM     92  C   UNL     1       1.583   9.000  12.790  1.00  0.00     0.173 A 
ATOM     93  C   UNL     1       2.375  10.312  14.633  1.00  0.00     0.173 A 
ATOM     94  F   UNL     1       0.788   8.065  12.260  1.00  0.00    -0.203 F 
ATOM     95  C   UNL     1       2.347   9.767  11.913  1.00  0.00     0.198 A 
ATOM     96  C   UNL     1       3.109  11.100  13.751  1.00  0.00     0.198 A 
ATOM     97  F   UNL     1       2.381  10.628  15.937  1.00  0.00    -0.203 F 
ATOM     98  F   UNL     1       2.321   9.508  10.597  1.00  0.00    -0.200 F 
ATOM     99  C   UNL     1       3.102  10.822  12.393  1.00  0.00     0.200 A 
ATOM    100  F   UNL     1       3.799  12.151  14.214  1.00  0.00    -0.200 F 
ATOM    101  F   UNL     1       3.800  11.591  11.545  1.00  0.00    -0.200 F 
ENDBRANCH  68  91
ENDBRANCH  42  43
ENDBRANCH  34  37
ENDBRANCH  32  33
ENDBRANCH  31  32
ENDBRANCH  30  31
ENDBRANCH   1  30
TORSDOF 15
