REMARK SMILES CC1(C)[C@@](C)(C(=O)NCCCCNC(=O)c2ccc(-c3c4nc(c(-c5c(F)c(F)c(F)c(F)c5F)c5ccc([nH]5)c(-c5c(F)c(F)c(F)c(F)c5F)c5nc(c(-c6c(F)c(F)c(F)c(F)c6F)c6ccc3[nH]6)C=C5)C=C4)cc2)[C@@]12CC[C@@H]2C(=O)NCc1ccco1
REMARK SMILES IDX 10 1 9 2 8 3 6 4 7 5 4 7 1 8 2 9 3 10 79 11 5 12 80 13 82 14
REMARK SMILES IDX 81 15 83 16 84 17 85 18 86 20 87 21 88 22 91 23 89 24 90 25
REMARK SMILES IDX 11 26 12 27 13 28 14 29 15 31 16 32 17 33 78 34 18 35 77 36
REMARK SMILES IDX 19 37 20 38 21 39 71 40 22 41 76 42 70 43 72 44 23 45 75 46
REMARK SMILES IDX 69 47 68 48 24 50 56 51 36 52 55 53 37 54 40 55 54 56 73 57
REMARK SMILES IDX 38 58 39 59 53 61 74 62 41 63 25 64 26 65 34 66 27 67 28 68
REMARK SMILES IDX 32 69 35 70 29 71 30 72 33 73 31 74 57 75 58 76 66 77 59 78
REMARK SMILES IDX 60 79 64 80 67 81 61 82 62 83 65 84 63 85 42 86 43 87 51 88
REMARK SMILES IDX 44 89 45 90 49 91 52 92 46 93 47 94 50 95 48 96
REMARK H PARENT 8 6 85 19 13 30 72 49 40 60
REMARK Flexibility Score: inf
ROOT
ATOM      1  C   UNL     1      -1.215   2.585  -1.225  1.00  0.00     0.023 C 
ENDROOT
BRANCH   1   2
ATOM      2  C   UNL     1      -1.110   2.645   0.304  1.00  0.00     0.116 C 
BRANCH   2   3
ATOM      3  N   UNL     1      -2.110   1.791   0.886  1.00  0.00    -0.356 N 
ATOM      4  C   UNL     1      -2.063   0.517   1.357  1.00  0.00     0.227 C 
ATOM      5  O   UNL     1      -3.152  -0.036   1.499  1.00  0.00    -0.274 OA
ATOM      6  H   UNL     1      -2.998   2.209   0.957  1.00  0.00     0.163 HD
BRANCH   4   7
ATOM      7  C   UNL     1      -0.833  -0.135   1.934  1.00  0.00     0.059 C 
ATOM      8  C   UNL     1       0.894   0.030  -0.103  1.00  0.00     0.013 C 
ATOM      9  C   UNL     1       0.520  -0.483   1.269  1.00  0.00    -0.013 C 
ATOM     10  C   UNL     1       1.774  -0.650   2.113  1.00  0.00     0.013 C 
ATOM     11  C   UNL     1      -0.565  -1.544   1.365  1.00  0.00     0.003 C 
ATOM     12  C   UNL     1      -0.783   0.078   3.448  1.00  0.00     0.023 C 
ATOM     13  C   UNL     1      -1.028  -2.208   0.104  1.00  0.00     0.010 C 
ATOM     14  C   UNL     1      -0.577  -2.835   2.135  1.00  0.00     0.086 C 
ATOM     15  C   UNL     1      -0.753  -3.545   0.791  1.00  0.00     0.015 C 
BRANCH  14  16
ATOM     16  C   UNL     1      -1.573  -3.083   3.292  1.00  0.00     0.224 C 
ATOM     17  O   UNL     1      -1.161  -3.290   4.448  1.00  0.00    -0.275 OA
ATOM     18  N   UNL     1      -2.937  -3.173   3.152  1.00  0.00    -0.349 N 
ATOM     19  H   UNL     1      -3.399  -3.554   3.933  1.00  0.00     0.163 HD
BRANCH  18  20
ATOM     20  C   UNL     1      -3.816  -2.808   2.064  1.00  0.00     0.191 C 
BRANCH  20  21
ATOM     21  C   UNL     1      -4.466  -3.985   1.443  1.00  0.00     0.122 A 
ATOM     22  C   UNL     1      -4.207  -5.340   1.402  1.00  0.00     0.047 A 
ATOM     23  O   UNL     1      -5.553  -3.704   0.662  1.00  0.00    -0.467 OA
ATOM     24  C   UNL     1      -5.181  -5.911   0.546  1.00  0.00     0.042 A 
ATOM     25  C   UNL     1      -5.978  -4.874   0.125  1.00  0.00     0.195 A 
ENDBRANCH  20  21
ENDBRANCH  18  20
ENDBRANCH  14  16
ENDBRANCH   4   7
ENDBRANCH   2   3
ENDBRANCH   1   2
BRANCH   1  26
ATOM     26  C   UNL     1      -2.577   3.004  -1.799  1.00  0.00     0.023 C 
BRANCH  26  27
ATOM     27  C   UNL     1      -2.970   4.449  -1.532  1.00  0.00     0.116 C 
BRANCH  27  28
ATOM     28  N   UNL     1      -2.066   5.386  -2.174  1.00  0.00    -0.352 N 
ATOM     29  C   UNL     1      -2.349   6.511  -2.912  1.00  0.00     0.251 C 
ATOM     30  H   UNL     1      -1.108   5.187  -2.064  1.00  0.00     0.163 HD
ATOM     31  O   UNL     1      -1.455   7.080  -3.518  1.00  0.00    -0.269 OA
BRANCH  29  32
ATOM     32  C   UNL     1      -3.738   7.020  -2.995  1.00  0.00     0.039 A 
ATOM     33  C   UNL     1      -4.203   7.479  -4.231  1.00  0.00     0.014 A 
ATOM     34  C   UNL     1      -4.569   7.076  -1.873  1.00  0.00     0.014 A 
ATOM     35  C   UNL     1      -5.514   7.947  -4.351  1.00  0.00     0.010 A 
ATOM     36  C   UNL     1      -5.897   7.477  -2.008  1.00  0.00     0.010 A 
ATOM     37  C   UNL     1      -6.382   7.922  -3.247  1.00  0.00    -0.014 A 
BRANCH  37  38
ATOM     38  C   UNL     1      -7.797   8.356  -3.381  1.00  0.00     0.031 A 
ATOM     39  C   UNL     1      -8.301   9.561  -2.635  1.00  0.00     0.074 A 
ATOM     40  C   UNL     1      -8.643   7.636  -4.144  1.00  0.00     0.049 A 
ATOM     41  N   UNL     1      -9.507  10.074  -2.608  1.00  0.00    -0.248 NA
ATOM     42  C   UNL     1      -7.330  10.271  -1.789  1.00  0.00     0.031 C 
ATOM     43  C   UNL     1      -8.290   6.420  -4.878  1.00  0.00     0.029 A 
ATOM     44  N   UNL     1      -9.975   7.818  -4.423  1.00  0.00    -0.354 N 
ATOM     45  C   UNL     1      -9.440  11.154  -1.738  1.00  0.00     0.074 A 
ATOM     46  C   UNL     1      -8.091  11.192  -1.216  1.00  0.00     0.031 C 
ATOM     47  C   UNL     1      -9.369   5.982  -5.546  1.00  0.00     0.029 A 
ATOM     48  C   UNL     1     -10.498   6.862  -5.259  1.00  0.00     0.049 A 
ATOM     49  H   UNL     1     -10.505   8.564  -4.059  1.00  0.00     0.167 HD
ATOM     50  C   UNL     1     -10.408  12.047  -1.420  1.00  0.00     0.037 A 
ATOM     51  C   UNL     1     -11.747   6.710  -5.737  1.00  0.00     0.037 A 
ATOM     52  C   UNL     1     -11.745  12.020  -1.957  1.00  0.00     0.049 A 
ATOM     53  C   UNL     1     -12.805   7.713  -5.364  1.00  0.00     0.074 A 
ATOM     54  C   UNL     1     -12.779  12.916  -1.743  1.00  0.00     0.029 A 
ATOM     55  N   UNL     1     -12.235  11.043  -2.810  1.00  0.00    -0.354 N 
ATOM     56  N   UNL     1     -12.709   8.775  -4.602  1.00  0.00    -0.248 NA
ATOM     57  C   UNL     1     -14.145   7.501  -5.930  1.00  0.00     0.031 C 
ATOM     58  C   UNL     1     -13.909  12.452  -2.425  1.00  0.00     0.029 A 
ATOM     59  C   UNL     1     -13.563  11.300  -3.112  1.00  0.00     0.049 A 
ATOM     60  H   UNL     1     -11.716  10.279  -3.151  1.00  0.00     0.167 HD
ATOM     61  C   UNL     1     -13.961   9.374  -4.622  1.00  0.00     0.074 A 
ATOM     62  C   UNL     1     -14.796   8.567  -5.487  1.00  0.00     0.031 C 
ATOM     63  C   UNL     1     -14.382  10.493  -3.981  1.00  0.00     0.037 A 
BRANCH  50  64
ATOM     64  C   UNL     1     -10.059  13.135  -0.444  1.00  0.00     0.064 A 
ATOM     65  C   UNL     1      -9.171  14.169  -0.779  1.00  0.00     0.173 A 
ATOM     66  C   UNL     1     -10.652  13.169   0.827  1.00  0.00     0.173 A 
ATOM     67  F   UNL     1      -8.569  14.180  -1.978  1.00  0.00    -0.203 F 
ATOM     68  C   UNL     1      -8.866  15.177   0.132  1.00  0.00     0.198 A 
ATOM     69  C   UNL     1     -10.370  14.197   1.724  1.00  0.00     0.198 A 
ATOM     70  F   UNL     1     -11.514  12.210   1.198  1.00  0.00    -0.203 F 
ATOM     71  F   UNL     1      -7.976  16.125  -0.193  1.00  0.00    -0.200 F 
ATOM     72  C   UNL     1      -9.472  15.195   1.379  1.00  0.00     0.200 A 
ATOM     73  F   UNL     1     -10.968  14.220   2.923  1.00  0.00    -0.200 F 
ATOM     74  F   UNL     1      -9.185  16.171   2.252  1.00  0.00    -0.200 F 
ENDBRANCH  50  64
BRANCH  51  75
ATOM     75  C   UNL     1     -12.064   5.577  -6.646  1.00  0.00     0.064 A 
ATOM     76  C   UNL     1     -12.373   5.801  -7.995  1.00  0.00     0.173 A 
ATOM     77  C   UNL     1     -12.079   4.252  -6.186  1.00  0.00     0.173 A 
ATOM     78  F   UNL     1     -12.392   7.053  -8.478  1.00  0.00    -0.203 F 
ATOM     79  C   UNL     1     -12.711   4.748  -8.842  1.00  0.00     0.198 A 
ATOM     80  C   UNL     1     -12.386   3.196  -7.042  1.00  0.00     0.198 A 
ATOM     81  F   UNL     1     -11.785   3.982  -4.906  1.00  0.00    -0.203 F 
ATOM     82  F   UNL     1     -13.055   4.997 -10.113  1.00  0.00    -0.200 F 
ATOM     83  C   UNL     1     -12.712   3.446  -8.366  1.00  0.00     0.200 A 
ATOM     84  F   UNL     1     -12.372   1.938  -6.582  1.00  0.00    -0.200 F 
ATOM     85  F   UNL     1     -13.036   2.433  -9.181  1.00  0.00    -0.200 F 
ENDBRANCH  51  75
BRANCH  63  86
ATOM     86  C   UNL     1     -15.797  10.935  -4.227  1.00  0.00     0.064 A 
ATOM     87  C   UNL     1     -16.894  10.215  -3.730  1.00  0.00     0.173 A 
ATOM     88  C   UNL     1     -16.057  12.108  -4.952  1.00  0.00     0.173 A 
ATOM     89  F   UNL     1     -16.701   9.079  -3.043  1.00  0.00    -0.203 F 
ATOM     90  C   UNL     1     -18.198  10.634  -3.980  1.00  0.00     0.198 A 
ATOM     91  C   UNL     1     -17.361  12.542  -5.171  1.00  0.00     0.198 A 
ATOM     92  F   UNL     1     -15.045  12.838  -5.443  1.00  0.00    -0.203 F 
ATOM     93  F   UNL     1     -19.231   9.898  -3.547  1.00  0.00    -0.200 F 
ATOM     94  C   UNL     1     -18.430  11.800  -4.694  1.00  0.00     0.200 A 
ATOM     95  F   UNL     1     -17.583  13.678  -5.848  1.00  0.00    -0.200 F 
ATOM     96  F   UNL     1     -19.686  12.203  -4.932  1.00  0.00    -0.200 F 
ENDBRANCH  63  86
ENDBRANCH  37  38
ENDBRANCH  29  32
ENDBRANCH  27  28
ENDBRANCH  26  27
ENDBRANCH   1  26
TORSDOF 14
