REMARK SMILES CCCc1noc(C2C[NH+](CC(=O)NCCCCNC(=O)c3ccc(-c4c5nc(c(-c6c(F)c(F)c(F)c(F)c6F)c6ccc([nH]6)c(-c6c(F)c(F)c(F)c(F)c6F)c6nc(c(-c7c(F)c(F)c(F)c(F)c7F)c7ccc4[nH]7)C=C6)C=C5)cc3)C2)n1
REMARK SMILES IDX 15 1 14 2 12 3 13 4 11 6 10 7 8 8 9 9 85 10 7 12 4 13 5 14
REMARK SMILES IDX 86 15 6 16 3 17 2 18 1 19 16 20 17 21 18 22 19 23 20 24
REMARK SMILES IDX 21 26 22 27 23 28 84 29 24 30 83 31 25 32 26 33 27 34 77 35
REMARK SMILES IDX 28 36 82 37 76 38 78 39 29 40 81 41 75 42 74 43 30 45 62 46
REMARK SMILES IDX 42 47 61 48 43 49 46 50 60 51 79 52 44 53 45 54 59 56 80 57
REMARK SMILES IDX 47 58 31 59 32 60 40 61 33 62 34 63 38 64 41 65 35 66 36 67
REMARK SMILES IDX 39 68 37 69 63 70 64 71 72 72 65 73 66 74 70 75 73 76 67 77
REMARK SMILES IDX 68 78 71 79 69 80 48 81 49 82 57 83 50 84 51 85 55 86 58 87
REMARK SMILES IDX 52 88 53 89 56 90 54 91
REMARK H PARENT 14 5 10 11 19 25 78 44 46 55
REMARK Flexibility Score: inf
ROOT
ATOM      1  C   UNL     1      -3.723   5.976   4.314  1.00  0.00     0.116 C 
ENDROOT
BRANCH   1   2
ATOM      2  N   UNL     1      -3.366   6.485   3.002  1.00  0.00    -0.351 N 
ATOM      3  C   UNL     1      -3.759   6.097   1.750  1.00  0.00     0.275 C 
ATOM      4  O   UNL     1      -3.255   6.698   0.796  1.00  0.00    -0.269 OA
ATOM      5  H   UNL     1      -2.734   7.239   3.015  1.00  0.00     0.163 HD
BRANCH   3   6
ATOM      6  C   UNL     1      -4.747   4.944   1.530  1.00  0.00     0.363 C 
BRANCH   6   7
ATOM      7  N   UNL     1      -4.207   3.583   1.253  1.00  0.00    -0.325 N 
ATOM      8  C   UNL     1      -2.166   3.604   1.854  1.00  0.00     0.188 C 
ATOM      9  C   UNL     1      -2.919   3.532   0.506  1.00  0.00     0.282 C 
ATOM     10  C   UNL     1      -3.493   3.001   2.405  1.00  0.00     0.282 C 
ATOM     11  H   UNL     1      -5.051   3.170   0.856  1.00  0.00     0.348 HD
BRANCH   8  12
ATOM     12  C   UNL     1      -0.941   2.757   2.062  1.00  0.00     0.241 A 
ATOM     13  C   UNL     1       0.414   1.202   2.400  1.00  0.00     0.171 A 
ATOM     14  N   UNL     1       1.153   2.293   2.629  1.00  0.00    -0.062 NA
ATOM     15  N   UNL     1      -0.893   1.446   2.058  1.00  0.00    -0.196 NA
ATOM     16  O   UNL     1       0.257   3.330   2.405  1.00  0.00    -0.339 OA
BRANCH  13  17
ATOM     17  C   UNL     1       0.987  -0.162   2.444  1.00  0.00     0.081 C 
BRANCH  17  18
ATOM     18  C   UNL     1       0.616  -0.995   1.216  1.00  0.00     0.005 C 
ATOM     19  C   UNL     1       1.099  -0.375  -0.090  1.00  0.00     0.004 C 
ENDBRANCH  17  18
ENDBRANCH  13  17
ENDBRANCH   8  12
ENDBRANCH   6   7
ENDBRANCH   3   6
ENDBRANCH   1   2
BRANCH   1  20
ATOM     20  C   UNL     1      -2.621   5.122   4.952  1.00  0.00     0.023 C 
BRANCH  20  21
ATOM     21  C   UNL     1      -1.325   5.848   5.293  1.00  0.00     0.023 C 
BRANCH  21  22
ATOM     22  C   UNL     1      -1.461   6.869   6.406  1.00  0.00     0.116 C 
BRANCH  22  23
ATOM     23  N   UNL     1      -1.970   6.293   7.643  1.00  0.00    -0.352 N 
ATOM     24  C   UNL     1      -1.515   6.453   8.931  1.00  0.00     0.251 C 
ATOM     25  H   UNL     1      -2.753   5.705   7.543  1.00  0.00     0.163 HD
ATOM     26  O   UNL     1      -1.979   5.786   9.841  1.00  0.00    -0.269 OA
BRANCH  24  27
ATOM     27  C   UNL     1      -0.433   7.424   9.192  1.00  0.00     0.039 A 
ATOM     28  C   UNL     1       0.634   7.046  10.008  1.00  0.00     0.014 A 
ATOM     29  C   UNL     1      -0.460   8.686   8.595  1.00  0.00     0.014 A 
ATOM     30  C   UNL     1       1.714   7.914  10.168  1.00  0.00     0.010 A 
ATOM     31  C   UNL     1       0.657   9.504   8.673  1.00  0.00     0.010 A 
ATOM     32  C   UNL     1       1.749   9.132   9.470  1.00  0.00    -0.014 A 
BRANCH  32  33
ATOM     33  C   UNL     1       2.903  10.054   9.575  1.00  0.00     0.031 A 
ATOM     34  C   UNL     1       2.703  11.428  10.150  1.00  0.00     0.074 A 
ATOM     35  C   UNL     1       4.102   9.685   9.086  1.00  0.00     0.049 A 
ATOM     36  N   UNL     1       3.552  12.419  10.245  1.00  0.00    -0.248 NA
ATOM     37  C   UNL     1       1.354  11.744  10.648  1.00  0.00     0.031 C 
ATOM     38  C   UNL     1       4.401   8.397   8.458  1.00  0.00     0.029 A 
ATOM     39  N   UNL     1       5.291  10.365   9.034  1.00  0.00    -0.354 N 
ATOM     40  C   UNL     1       2.835  13.475  10.793  1.00  0.00     0.074 A 
ATOM     41  C   UNL     1       1.468  13.029  10.944  1.00  0.00     0.031 C 
ATOM     42  C   UNL     1       5.699   8.367   8.116  1.00  0.00     0.029 A 
ATOM     43  C   UNL     1       6.312   9.645   8.464  1.00  0.00     0.049 A 
ATOM     44  H   UNL     1       5.403  11.283   9.373  1.00  0.00     0.167 HD
ATOM     45  C   UNL     1       3.284  14.696  11.168  1.00  0.00     0.037 A 
ATOM     46  C   UNL     1       7.597   9.982   8.251  1.00  0.00     0.037 A 
ATOM     47  C   UNL     1       4.652  15.119  11.045  1.00  0.00     0.049 A 
ATOM     48  C   UNL     1       8.072  11.346   8.675  1.00  0.00     0.074 A 
ATOM     49  C   UNL     1       5.228  16.312  11.443  1.00  0.00     0.029 A 
ATOM     50  N   UNL     1       5.664  14.354  10.480  1.00  0.00    -0.354 N 
ATOM     51  N   UNL     1       7.402  12.315   9.249  1.00  0.00    -0.248 NA
ATOM     52  C   UNL     1       9.485  11.659   8.422  1.00  0.00     0.031 C 
ATOM     53  C   UNL     1       6.580  16.285  11.085  1.00  0.00     0.029 A 
ATOM     54  C   UNL     1       6.857  15.056  10.505  1.00  0.00     0.049 A 
ATOM     55  H   UNL     1       5.549  13.447  10.116  1.00  0.00     0.167 HD
ATOM     56  C   UNL     1       8.315  13.340   9.456  1.00  0.00     0.074 A 
ATOM     57  C   UNL     1       9.590  12.869   8.955  1.00  0.00     0.031 C 
ATOM     58  C   UNL     1       8.117  14.561  10.010  1.00  0.00     0.037 A 
BRANCH  45  59
ATOM     59  C   UNL     1       2.281  15.647  11.753  1.00  0.00     0.064 A 
ATOM     60  C   UNL     1       1.692  15.414  13.007  1.00  0.00     0.173 A 
ATOM     61  C   UNL     1       1.901  16.803  11.057  1.00  0.00     0.173 A 
ATOM     62  F   UNL     1       2.008  14.314  13.708  1.00  0.00    -0.203 F 
ATOM     63  C   UNL     1       0.732  16.281  13.521  1.00  0.00     0.198 A 
ATOM     64  C   UNL     1       0.965  17.686  11.590  1.00  0.00     0.198 A 
ATOM     65  F   UNL     1       2.433  17.076   9.856  1.00  0.00    -0.203 F 
ATOM     66  F   UNL     1       0.137  16.002  14.689  1.00  0.00    -0.200 F 
ATOM     67  C   UNL     1       0.373  17.419  12.815  1.00  0.00     0.200 A 
ATOM     68  F   UNL     1       0.626  18.791  10.911  1.00  0.00    -0.200 F 
ATOM     69  F   UNL     1      -0.552  18.252  13.311  1.00  0.00    -0.200 F 
ENDBRANCH  45  59
BRANCH  46  70
ATOM     70  C   UNL     1       8.534   8.998   7.652  1.00  0.00     0.064 A 
ATOM     71  C   UNL     1       9.546   8.414   8.427  1.00  0.00     0.173 A 
ATOM     72  C   UNL     1       8.441   8.617   6.306  1.00  0.00     0.173 A 
ATOM     73  F   UNL     1       9.687   8.761   9.714  1.00  0.00    -0.203 F 
ATOM     74  C   UNL     1      10.440   7.499   7.874  1.00  0.00     0.198 A 
ATOM     75  C   UNL     1       9.319   7.683   5.760  1.00  0.00     0.198 A 
ATOM     76  F   UNL     1       7.487   9.143   5.524  1.00  0.00    -0.203 F 
ATOM     77  F   UNL     1      11.422   6.987   8.627  1.00  0.00    -0.200 F 
ATOM     78  C   UNL     1      10.322   7.130   6.542  1.00  0.00     0.200 A 
ATOM     79  F   UNL     1       9.195   7.319   4.476  1.00  0.00    -0.200 F 
ATOM     80  F   UNL     1      11.180   6.248   6.012  1.00  0.00    -0.200 F 
ENDBRANCH  46  70
BRANCH  58  81
ATOM     81  C   UNL     1       9.313  15.457  10.139  1.00  0.00     0.064 A 
ATOM     82  C   UNL     1       9.888  16.082   9.024  1.00  0.00     0.173 A 
ATOM     83  C   UNL     1       9.864  15.725  11.402  1.00  0.00     0.173 A 
ATOM     84  F   UNL     1       9.407  15.845   7.794  1.00  0.00    -0.203 F 
ATOM     85  C   UNL     1      10.987  16.924   9.165  1.00  0.00     0.198 A 
ATOM     86  C   UNL     1      10.944  16.591  11.543  1.00  0.00     0.198 A 
ATOM     87  F   UNL     1       9.345  15.156  12.501  1.00  0.00    -0.203 F 
ATOM     88  F   UNL     1      11.550  17.475   8.081  1.00  0.00    -0.200 F 
ATOM     89  C   UNL     1      11.509  17.184  10.424  1.00  0.00     0.200 A 
ATOM     90  F   UNL     1      11.438  16.851  12.761  1.00  0.00    -0.200 F 
ATOM     91  F   UNL     1      12.562  18.002  10.558  1.00  0.00    -0.200 F 
ENDBRANCH  58  81
ENDBRANCH  32  33
ENDBRANCH  24  27
ENDBRANCH  22  23
ENDBRANCH  21  22
ENDBRANCH  20  21
ENDBRANCH   1  20
TORSDOF 15
