REMARK SMILES CC1(C)CCCC[C@H]1[C@H](O)C(=O)NCCCCNC(=O)c1ccc(-c2c3nc(c(-c4c(F)c(F)c(F)c(F)c4F)c4ccc([nH]4)c(-c4c(F)c(F)c(F)c(F)c4F)c4nc(c(-c5c(F)c(F)c(F)c(F)c5F)c5ccc2[nH]5)C=C4)C=C3)cc1
REMARK SMILES IDX 16 1 15 2 14 3 13 4 11 5 12 6 9 8 8 9 1 10 2 11 3 12 4 13
REMARK SMILES IDX 5 14 7 15 6 16 10 17 17 19 18 20 19 21 20 23 21 24 22 25
REMARK SMILES IDX 83 26 23 27 82 28 24 29 25 30 26 31 76 32 27 33 81 34 75 35
REMARK SMILES IDX 77 36 28 37 80 38 74 39 73 40 29 42 61 43 41 44 60 45 42 46
REMARK SMILES IDX 45 47 59 48 78 49 43 50 44 51 58 53 79 54 46 55 30 56 31 57
REMARK SMILES IDX 39 58 32 59 33 60 37 61 40 62 34 63 35 64 38 65 36 66 62 67
REMARK SMILES IDX 63 68 71 69 64 70 65 71 69 72 72 73 66 74 67 75 70 76 68 77
REMARK SMILES IDX 47 78 48 79 56 80 49 81 50 82 54 83 57 84 51 85 52 86 55 87
REMARK SMILES IDX 53 88
REMARK H PARENT 13 7 10 18 18 22 77 41 45 52
REMARK Flexibility Score: inf
ROOT
ATOM      1  C   UNL     1      -5.021   3.349   2.882  1.00  0.00     0.023 C 
ENDROOT
BRANCH   1   2
ATOM      2  C   UNL     1      -3.527   3.028   2.840  1.00  0.00     0.023 C 
BRANCH   2   3
ATOM      3  C   UNL     1      -3.204   1.553   2.632  1.00  0.00     0.116 C 
BRANCH   3   4
ATOM      4  N   UNL     1      -3.604   1.101   1.316  1.00  0.00    -0.354 N 
ATOM      5  C   UNL     1      -2.963   0.314   0.407  1.00  0.00     0.249 C 
ATOM      6  O   UNL     1      -3.543   0.105  -0.663  1.00  0.00    -0.272 OA
ATOM      7  H   UNL     1      -4.492   1.415   1.029  1.00  0.00     0.163 HD
BRANCH   5   8
ATOM      8  C   UNL     1      -1.589  -0.316   0.701  1.00  0.00     0.206 C 
BRANCH   8   9
ATOM      9  C   UNL     1      -1.540  -1.263   1.938  1.00  0.00     0.033 C 
ATOM     10  C   UNL     1      -2.131  -3.385   0.585  1.00  0.00     0.011 C 
ATOM     11  C   UNL     1      -2.438  -2.558   1.850  1.00  0.00    -0.030 C 
ATOM     12  C   UNL     1      -3.949  -2.234   1.839  1.00  0.00     0.011 C 
ATOM     13  C   UNL     1      -2.205  -3.428   3.116  1.00  0.00     0.007 C 
ATOM     14  C   UNL     1      -0.743  -3.757   3.385  1.00  0.00     0.001 C 
ATOM     15  C   UNL     1      -0.062  -1.617   2.249  1.00  0.00     0.007 C 
ATOM     16  C   UNL     1       0.089  -2.491   3.487  1.00  0.00     0.000 C 
ENDBRANCH   8   9
BRANCH   8  17
ATOM     17  O   UNL     1      -0.591   0.710   0.771  1.00  0.00    -0.383 OA
ATOM     18  H   UNL     1      -0.784   1.298   1.518  1.00  0.00     0.211 HD
ENDBRANCH   8  17
ENDBRANCH   5   8
ENDBRANCH   3   4
ENDBRANCH   2   3
ENDBRANCH   1   2
BRANCH   1  19
ATOM     19  C   UNL     1      -5.807   2.594   3.948  1.00  0.00     0.116 C 
BRANCH  19  20
ATOM     20  N   UNL     1      -5.331   2.872   5.295  1.00  0.00    -0.352 N 
ATOM     21  C   UNL     1      -6.008   3.397   6.367  1.00  0.00     0.251 C 
ATOM     22  H   UNL     1      -4.386   2.651   5.461  1.00  0.00     0.163 HD
ATOM     23  O   UNL     1      -5.400   3.735   7.379  1.00  0.00    -0.269 OA
BRANCH  21  24
ATOM     24  C   UNL     1      -7.472   3.581   6.290  1.00  0.00     0.039 A 
ATOM     25  C   UNL     1      -8.027   4.789   6.718  1.00  0.00     0.014 A 
ATOM     26  C   UNL     1      -8.289   2.570   5.778  1.00  0.00     0.014 A 
ATOM     27  C   UNL     1      -9.397   5.010   6.564  1.00  0.00     0.010 A 
ATOM     28  C   UNL     1      -9.636   2.826   5.543  1.00  0.00     0.010 A 
ATOM     29  C   UNL     1     -10.205   4.046   5.937  1.00  0.00    -0.014 A 
BRANCH  29  30
ATOM     30  C   UNL     1     -11.645   4.300   5.679  1.00  0.00     0.031 A 
ATOM     31  C   UNL     1     -12.693   3.428   6.309  1.00  0.00     0.074 A 
ATOM     32  C   UNL     1     -12.005   5.268   4.815  1.00  0.00     0.049 A 
ATOM     33  N   UNL     1     -13.993   3.451   6.155  1.00  0.00    -0.248 NA
ATOM     34  C   UNL     1     -12.213   2.366   7.205  1.00  0.00     0.031 C 
ATOM     35  C   UNL     1     -11.080   6.138   4.088  1.00  0.00     0.029 A 
ATOM     36  N   UNL     1     -13.246   5.670   4.387  1.00  0.00    -0.354 N 
ATOM     37  C   UNL     1     -14.481   2.402   6.923  1.00  0.00     0.074 A 
ATOM     38  C   UNL     1     -13.335   1.722   7.484  1.00  0.00     0.031 C 
ATOM     39  C   UNL     1     -11.784   6.981   3.317  1.00  0.00     0.029 A 
ATOM     40  C   UNL     1     -13.206   6.685   3.463  1.00  0.00     0.049 A 
ATOM     41  H   UNL     1     -14.084   5.269   4.712  1.00  0.00     0.167 HD
ATOM     42  C   UNL     1     -15.769   2.053   7.158  1.00  0.00     0.037 A 
ATOM     43  C   UNL     1     -14.202   7.299   2.796  1.00  0.00     0.037 A 
ATOM     44  C   UNL     1     -16.905   2.740   6.600  1.00  0.00     0.049 A 
ATOM     45  C   UNL     1     -15.625   6.897   3.067  1.00  0.00     0.074 A 
ATOM     46  C   UNL     1     -18.250   2.512   6.829  1.00  0.00     0.029 A 
ATOM     47  N   UNL     1     -16.828   3.783   5.687  1.00  0.00    -0.354 N 
ATOM     48  N   UNL     1     -16.082   5.962   3.864  1.00  0.00    -0.248 NA
ATOM     49  C   UNL     1     -16.671   7.643   2.356  1.00  0.00     0.031 C 
ATOM     50  C   UNL     1     -18.986   3.371   6.006  1.00  0.00     0.029 A 
ATOM     51  C   UNL     1     -18.102   4.184   5.315  1.00  0.00     0.049 A 
ATOM     52  H   UNL     1     -15.991   4.179   5.352  1.00  0.00     0.167 HD
ATOM     53  C   UNL     1     -17.466   6.018   3.767  1.00  0.00     0.074 A 
ATOM     54  C   UNL     1     -17.773   7.093   2.846  1.00  0.00     0.031 C 
ATOM     55  C   UNL     1     -18.396   5.250   4.388  1.00  0.00     0.037 A 
BRANCH  42  56
ATOM     56  C   UNL     1     -16.007   0.863   8.047  1.00  0.00     0.064 A 
ATOM     57  C   UNL     1     -15.665   0.875   9.409  1.00  0.00     0.173 A 
ATOM     58  C   UNL     1     -16.578  -0.309   7.529  1.00  0.00     0.173 A 
ATOM     59  F   UNL     1     -15.108   1.966   9.957  1.00  0.00    -0.203 F 
ATOM     60  C   UNL     1     -15.833  -0.257  10.203  1.00  0.00     0.198 A 
ATOM     61  C   UNL     1     -16.782  -1.426   8.336  1.00  0.00     0.198 A 
ATOM     62  F   UNL     1     -16.934  -0.376   6.238  1.00  0.00    -0.203 F 
ATOM     63  F   UNL     1     -15.424  -0.245  11.479  1.00  0.00    -0.200 F 
ATOM     64  C   UNL     1     -16.395  -1.405   9.667  1.00  0.00     0.200 A 
ATOM     65  F   UNL     1     -17.341  -2.530   7.820  1.00  0.00    -0.200 F 
ATOM     66  F   UNL     1     -16.551  -2.496  10.430  1.00  0.00    -0.200 F 
ENDBRANCH  42  56
BRANCH  43  67
ATOM     67  C   UNL     1     -13.871   8.369   1.820  1.00  0.00     0.064 A 
ATOM     68  C   UNL     1     -14.161   9.713   2.092  1.00  0.00     0.173 A 
ATOM     69  C   UNL     1     -13.220   8.073   0.613  1.00  0.00     0.173 A 
ATOM     70  F   UNL     1     -14.798  10.044   3.225  1.00  0.00    -0.203 F 
ATOM     71  C   UNL     1     -13.819  10.720   1.191  1.00  0.00     0.198 A 
ATOM     72  C   UNL     1     -12.853   9.083  -0.274  1.00  0.00     0.198 A 
ATOM     73  F   UNL     1     -12.914   6.803   0.309  1.00  0.00    -0.203 F 
ATOM     74  F   UNL     1     -14.134  11.993   1.462  1.00  0.00    -0.200 F 
ATOM     75  C   UNL     1     -13.156  10.405   0.014  1.00  0.00     0.200 A 
ATOM     76  F   UNL     1     -12.195   8.776  -1.400  1.00  0.00    -0.200 F 
ATOM     77  F   UNL     1     -12.810  11.375  -0.843  1.00  0.00    -0.200 F 
ENDBRANCH  43  67
BRANCH  55  78
ATOM     78  C   UNL     1     -19.841   5.556   4.109  1.00  0.00     0.064 A 
ATOM     79  C   UNL     1     -20.427   5.287   2.863  1.00  0.00     0.173 A 
ATOM     80  C   UNL     1     -20.660   6.088   5.117  1.00  0.00     0.173 A 
ATOM     81  F   UNL     1     -19.686   4.792   1.860  1.00  0.00    -0.203 F 
ATOM     82  C   UNL     1     -21.772   5.565   2.629  1.00  0.00     0.198 A 
ATOM     83  C   UNL     1     -22.012   6.332   4.890  1.00  0.00     0.198 A 
ATOM     84  F   UNL     1     -20.153   6.358   6.329  1.00  0.00    -0.203 F 
ATOM     85  F   UNL     1     -22.297   5.348   1.415  1.00  0.00    -0.200 F 
ATOM     86  C   UNL     1     -22.565   6.078   3.644  1.00  0.00     0.200 A 
ATOM     87  F   UNL     1     -22.780   6.812   5.878  1.00  0.00    -0.200 F 
ATOM     88  F   UNL     1     -23.861   6.335   3.420  1.00  0.00    -0.200 F 
ENDBRANCH  55  78
ENDBRANCH  29  30
ENDBRANCH  21  24
ENDBRANCH  19  20
ENDBRANCH   1  19
TORSDOF 13
