REMARK SMILES COc1ccc(N[C@H](C)[C@@H](C)C(=O)NCCCCNC(=O)c2ccc(-c3c4nc(c(-c5c(F)c(F)c(F)c(F)c5F)c5ccc([nH]5)c(-c5c(F)c(F)c(F)c(F)c5F)c5nc(c(-c6c(F)c(F)c(F)c(F)c6F)c6ccc3[nH]6)C=C5)C=C4)cc2)cn1
REMARK SMILES IDX 15 1 14 2 12 3 13 4 10 6 11 7 8 8 9 9 7 10 6 12 3 13 4 14
REMARK SMILES IDX 86 15 5 16 85 17 2 18 1 19 16 20 17 21 18 22 19 23 20 24
REMARK SMILES IDX 21 26 22 27 23 28 84 29 24 30 83 31 25 32 26 33 27 34 77 35
REMARK SMILES IDX 28 36 82 37 76 38 78 39 29 40 81 41 75 42 74 43 30 45 62 46
REMARK SMILES IDX 42 47 61 48 43 49 46 50 60 51 79 52 44 53 45 54 59 56 80 57
REMARK SMILES IDX 47 58 31 59 32 60 40 61 33 62 34 63 38 64 41 65 35 66 36 67
REMARK SMILES IDX 39 68 37 69 63 70 64 71 72 72 65 73 66 74 70 75 73 76 67 77
REMARK SMILES IDX 68 78 71 79 69 80 48 81 49 82 57 83 50 84 51 85 55 86 58 87
REMARK SMILES IDX 52 88 53 89 56 90 54 91
REMARK H PARENT 14 5 7 11 19 25 78 44 46 55
REMARK Flexibility Score: inf
ROOT
ATOM      1  C   UNL     1      -1.259   6.727   3.453  1.00  0.00     0.116 C 
ENDROOT
BRANCH   1   2
ATOM      2  N   UNL     1      -0.673   7.817   4.204  1.00  0.00    -0.356 N 
ATOM      3  C   UNL     1       0.613   8.082   4.545  1.00  0.00     0.224 C 
ATOM      4  O   UNL     1       0.863   9.252   4.858  1.00  0.00    -0.275 OA
ATOM      5  H   UNL     1      -1.323   8.484   4.524  1.00  0.00     0.163 HD
BRANCH   3   6
ATOM      6  C   UNL     1       1.745   7.058   4.465  1.00  0.00     0.097 C 
ATOM      7  C   UNL     1       2.201   7.031   2.998  1.00  0.00     0.020 C 
BRANCH   6   8
ATOM      8  C   UNL     1       1.424   5.692   5.117  1.00  0.00     0.088 C 
ATOM      9  C   UNL     1       2.272   4.551   4.517  1.00  0.00     0.031 C 
BRANCH   8  10
ATOM     10  N   UNL     1       1.620   5.587   6.581  1.00  0.00    -0.381 N 
ATOM     11  H   UNL     1       2.152   4.812   6.873  1.00  0.00     0.160 HD
BRANCH  10  12
ATOM     12  C   UNL     1       1.173   6.404   7.603  1.00  0.00     0.053 A 
ATOM     13  C   UNL     1       0.271   7.956   9.716  1.00  0.00     0.213 A 
ATOM     14  C   UNL     1       0.143   6.586   9.808  1.00  0.00     0.070 A 
ATOM     15  N   UNL     1       0.813   8.585   8.663  1.00  0.00    -0.220 NA
ATOM     16  C   UNL     1       0.609   5.812   8.743  1.00  0.00     0.033 A 
ATOM     17  C   UNL     1       1.257   7.793   7.649  1.00  0.00     0.140 A 
BRANCH  13  18
ATOM     18  O   UNL     1      -0.251   8.736  10.716  1.00  0.00    -0.481 OA
ATOM     19  C   UNL     1       0.806   9.299  11.486  1.00  0.00     0.280 C 
ENDBRANCH  13  18
ENDBRANCH  10  12
ENDBRANCH   8  10
ENDBRANCH   6   8
ENDBRANCH   3   6
ENDBRANCH   1   2
BRANCH   1  20
ATOM     20  C   UNL     1      -2.281   5.923   4.254  1.00  0.00     0.023 C 
BRANCH  20  21
ATOM     21  C   UNL     1      -3.487   6.708   4.770  1.00  0.00     0.023 C 
BRANCH  21  22
ATOM     22  C   UNL     1      -4.186   7.597   3.748  1.00  0.00     0.116 C 
BRANCH  22  23
ATOM     23  N   UNL     1      -4.581   6.885   2.543  1.00  0.00    -0.352 N 
ATOM     24  C   UNL     1      -5.764   6.927   1.849  1.00  0.00     0.251 C 
ATOM     25  H   UNL     1      -3.898   6.283   2.169  1.00  0.00     0.163 HD
ATOM     26  O   UNL     1      -5.945   6.167   0.901  1.00  0.00    -0.269 OA
BRANCH  24  27
ATOM     27  C   UNL     1      -6.838   7.852   2.267  1.00  0.00     0.039 A 
ATOM     28  C   UNL     1      -8.145   7.365   2.337  1.00  0.00     0.014 A 
ATOM     29  C   UNL     1      -6.565   9.181   2.604  1.00  0.00     0.014 A 
ATOM     30  C   UNL     1      -9.165   8.189   2.814  1.00  0.00     0.010 A 
ATOM     31  C   UNL     1      -7.567   9.975   3.155  1.00  0.00     0.010 A 
ATOM     32  C   UNL     1      -8.877   9.487   3.269  1.00  0.00    -0.014 A 
BRANCH  32  33
ATOM     33  C   UNL     1      -9.934  10.326   3.888  1.00  0.00     0.031 A 
ATOM     34  C   UNL     1     -10.360  11.617   3.245  1.00  0.00     0.074 A 
ATOM     35  C   UNL     1     -10.479   9.943   5.060  1.00  0.00     0.049 A 
ATOM     36  N   UNL     1     -11.257  12.484   3.645  1.00  0.00    -0.248 NA
ATOM     37  C   UNL     1      -9.675  11.998   2.000  1.00  0.00     0.031 C 
ATOM     38  C   UNL     1     -10.111   8.740   5.810  1.00  0.00     0.029 A 
ATOM     39  N   UNL     1     -11.456  10.524   5.829  1.00  0.00    -0.354 N 
ATOM     40  C   UNL     1     -11.232  13.513   2.713  1.00  0.00     0.074 A 
ATOM     41  C   UNL     1     -10.199  13.190   1.754  1.00  0.00     0.031 C 
ATOM     42  C   UNL     1     -10.877   8.654   6.909  1.00  0.00     0.029 A 
ATOM     43  C   UNL     1     -11.759   9.814   6.966  1.00  0.00     0.049 A 
ATOM     44  H   UNL     1     -11.899  11.371   5.589  1.00  0.00     0.167 HD
ATOM     45  C   UNL     1     -12.015  14.616   2.654  1.00  0.00     0.037 A 
ATOM     46  C   UNL     1     -12.647  10.073   7.945  1.00  0.00     0.037 A 
ATOM     47  C   UNL     1     -13.060  14.920   3.598  1.00  0.00     0.049 A 
ATOM     48  C   UNL     1     -13.493  11.315   7.855  1.00  0.00     0.074 A 
ATOM     49  C   UNL     1     -13.960  15.970   3.577  1.00  0.00     0.029 A 
ATOM     50  N   UNL     1     -13.337  14.178   4.737  1.00  0.00    -0.354 N 
ATOM     51  N   UNL     1     -13.529  12.229   6.916  1.00  0.00    -0.248 NA
ATOM     52  C   UNL     1     -14.430  11.556   8.961  1.00  0.00     0.031 C 
ATOM     53  C   UNL     1     -14.740  15.901   4.736  1.00  0.00     0.029 A 
ATOM     54  C   UNL     1     -14.371  14.770   5.445  1.00  0.00     0.049 A 
ATOM     55  H   UNL     1     -12.869  13.354   5.002  1.00  0.00     0.167 HD
ATOM     56  C   UNL     1     -14.511  13.132   7.301  1.00  0.00     0.074 A 
ATOM     57  C   UNL     1     -15.063  12.643   8.546  1.00  0.00     0.031 C 
ATOM     58  C   UNL     1     -14.917  14.267   6.680  1.00  0.00     0.037 A 
BRANCH  45  59
ATOM     59  C   UNL     1     -11.779  15.586   1.531  1.00  0.00     0.064 A 
ATOM     60  C   UNL     1     -12.099  15.270   0.202  1.00  0.00     0.173 A 
ATOM     61  C   UNL     1     -11.289  16.873   1.798  1.00  0.00     0.173 A 
ATOM     62  F   UNL     1     -12.562  14.050  -0.110  1.00  0.00    -0.203 F 
ATOM     63  C   UNL     1     -11.916  16.198  -0.820  1.00  0.00     0.198 A 
ATOM     64  C   UNL     1     -11.137  17.810   0.779  1.00  0.00     0.198 A 
ATOM     65  F   UNL     1     -10.973  17.230   3.052  1.00  0.00    -0.203 F 
ATOM     66  F   UNL     1     -12.191  15.860  -2.087  1.00  0.00    -0.200 F 
ATOM     67  C   UNL     1     -11.446  17.470  -0.529  1.00  0.00     0.200 A 
ATOM     68  F   UNL     1     -10.698  19.043   1.064  1.00  0.00    -0.200 F 
ATOM     69  F   UNL     1     -11.287  18.368  -1.511  1.00  0.00    -0.200 F 
ENDBRANCH  45  59
BRANCH  46  70
ATOM     70  C   UNL     1     -12.802   9.134   9.090  1.00  0.00     0.064 A 
ATOM     71  C   UNL     1     -13.994   8.419   9.277  1.00  0.00     0.173 A 
ATOM     72  C   UNL     1     -11.784   8.961  10.039  1.00  0.00     0.173 A 
ATOM     73  F   UNL     1     -15.006   8.566   8.408  1.00  0.00    -0.203 F 
ATOM     74  C   UNL     1     -14.175   7.596  10.386  1.00  0.00     0.198 A 
ATOM     75  C   UNL     1     -11.953   8.110  11.129  1.00  0.00     0.198 A 
ATOM     76  F   UNL     1     -10.622   9.617   9.906  1.00  0.00    -0.203 F 
ATOM     77  F   UNL     1     -15.348   6.977  10.573  1.00  0.00    -0.200 F 
ATOM     78  C   UNL     1     -13.153   7.439  11.310  1.00  0.00     0.200 A 
ATOM     79  F   UNL     1     -10.957   7.949  12.011  1.00  0.00    -0.200 F 
ATOM     80  F   UNL     1     -13.329   6.651  12.379  1.00  0.00    -0.200 F 
ENDBRANCH  46  70
BRANCH  58  81
ATOM     81  C   UNL     1     -16.039  15.036   7.319  1.00  0.00     0.064 A 
ATOM     82  C   UNL     1     -15.870  15.721   8.531  1.00  0.00     0.173 A 
ATOM     83  C   UNL     1     -17.296  15.104   6.697  1.00  0.00     0.173 A 
ATOM     84  F   UNL     1     -14.693  15.675   9.174  1.00  0.00    -0.203 F 
ATOM     85  C   UNL     1     -16.927  16.414   9.116  1.00  0.00     0.198 A 
ATOM     86  C   UNL     1     -18.339  15.829   7.266  1.00  0.00     0.198 A 
ATOM     87  F   UNL     1     -17.510  14.475   5.532  1.00  0.00    -0.203 F 
ATOM     88  F   UNL     1     -16.759  17.007  10.306  1.00  0.00    -0.200 F 
ATOM     89  C   UNL     1     -18.157  16.473   8.480  1.00  0.00     0.200 A 
ATOM     90  F   UNL     1     -19.522  15.900   6.641  1.00  0.00    -0.200 F 
ATOM     91  F   UNL     1     -19.172  17.144   9.042  1.00  0.00    -0.200 F 
ENDBRANCH  58  81
ENDBRANCH  32  33
ENDBRANCH  24  27
ENDBRANCH  22  23
ENDBRANCH  21  22
ENDBRANCH  20  21
ENDBRANCH   1  20
TORSDOF 15
