REMARK SMILES CC(C)C[C@H](NC(=O)[C@H](Cc1ccccc1)NC(=O)CNC(=O)C[NH3+])C(=O)NCCCCNC(=O)c1ccc(-c2c3nc(c(-c4c(F)c(F)c(F)c(F)c4F)c4ccc([nH]4)c(-c4c(F)c(F)c(F)c(F)c4F)c4nc(c(-c5c(F)c(F)c(F)c(F)c5F)c5ccc2[nH]5)C=C4)C=C3)cc1
REMARK SMILES IDX 26 1 27 2 28 3 5 5 4 6 2 7 1 8 3 9 6 10 7 11 8 13 9 14 17 15
REMARK SMILES IDX 18 16 19 18 20 19 21 20 22 21 23 23 24 24 25 25 10 29 11 30
REMARK SMILES IDX 12 31 16 32 13 33 15 34 14 35 29 36 30 37 31 38 32 39 33 40
REMARK SMILES IDX 34 41 35 43 36 44 37 45 98 46 38 47 97 48 39 49 40 50 41 51
REMARK SMILES IDX 91 52 42 53 96 54 90 55 92 56 43 57 95 58 89 59 88 60 44 62
REMARK SMILES IDX 76 63 56 64 75 65 57 66 60 67 74 68 93 69 58 70 59 71 73 73
REMARK SMILES IDX 94 74 61 75 45 76 46 77 54 78 47 79 48 80 52 81 55 82 49 83
REMARK SMILES IDX 50 84 53 85 51 86 77 87 78 88 86 89 79 90 80 91 84 92 87 93
REMARK SMILES IDX 81 94 82 95 85 96 83 97 62 98 63 99 71 100 64 101 65 102
REMARK SMILES IDX 69 103 72 104 66 105 67 106 70 107 68 108
REMARK H PARENT 28 4 6 12 17 17 21 22 25 26 25 27 25 28 33 42 92 61 60 72
REMARK Flexibility Score: inf
ROOT
ATOM      1  C   UNL     1      -2.166   3.170   2.819  1.00  0.00     0.242 C 
ATOM      2  O   UNL     1      -2.507   3.775   3.836  1.00  0.00    -0.273 OA
ATOM      3  N   UNL     1      -1.922   1.828   2.914  1.00  0.00    -0.354 N 
ATOM      4  H   UNL     1      -1.911   1.454   3.824  1.00  0.00     0.163 HD
ENDROOT
BRANCH   1   5
ATOM      5  C   UNL     1      -1.945   3.921   1.493  1.00  0.00     0.171 C 
BRANCH   5   6
ATOM      6  C   UNL     1      -2.951   3.479   0.392  1.00  0.00     0.038 C 
BRANCH   6   7
ATOM      7  C   UNL     1      -2.540   3.292  -1.092  1.00  0.00    -0.015 C 
ATOM      8  C   UNL     1      -1.599   2.130  -1.435  1.00  0.00     0.007 C 
ATOM      9  C   UNL     1      -3.829   3.044  -1.901  1.00  0.00     0.007 C 
ENDBRANCH   6   7
ENDBRANCH   5   6
BRANCH   5  10
ATOM     10  N   UNL     1      -0.520   3.902   1.183  1.00  0.00    -0.343 N 
ATOM     11  C   UNL     1       0.534   4.595   1.712  1.00  0.00     0.243 C 
ATOM     12  H   UNL     1      -0.272   3.277   0.463  1.00  0.00     0.164 HD
ATOM     13  O   UNL     1       1.618   4.391   1.151  1.00  0.00    -0.273 OA
BRANCH  11  14
ATOM     14  C   UNL     1       0.420   5.529   2.953  1.00  0.00     0.175 C 
BRANCH  14  15
ATOM     15  N   UNL     1       1.762   6.074   3.256  1.00  0.00    -0.342 N 
ATOM     16  C   UNL     1       2.696   5.793   4.199  1.00  0.00     0.240 C 
ATOM     17  H   UNL     1       2.036   6.793   2.642  1.00  0.00     0.164 HD
ATOM     18  O   UNL     1       3.812   6.308   4.045  1.00  0.00    -0.273 OA
BRANCH  16  19
ATOM     19  C   UNL     1       2.497   4.795   5.346  1.00  0.00     0.216 C 
BRANCH  19  20
ATOM     20  N   UNL     1       1.192   4.730   5.981  1.00  0.00    -0.342 N 
ATOM     21  C   UNL     1       0.401   3.630   6.161  1.00  0.00     0.275 C 
ATOM     22  H   UNL     1       0.835   5.581   6.324  1.00  0.00     0.164 HD
ATOM     23  O   UNL     1      -0.623   3.727   6.838  1.00  0.00    -0.268 OA
BRANCH  21  24
ATOM     24  C   UNL     1       0.833   2.293   5.560  1.00  0.00     0.360 C 
BRANCH  24  25
ATOM     25  N   UNL     1       1.121   2.437   4.130  1.00  0.00    -0.350 N 
ATOM     26  H   UNL     1       0.282   2.753   3.643  1.00  0.00     0.344 HD
ATOM     27  H   UNL     1       1.416   1.538   3.749  1.00  0.00     0.344 HD
ATOM     28  H   UNL     1       1.867   3.122   4.001  1.00  0.00     0.344 HD
ENDBRANCH  24  25
ENDBRANCH  21  24
ENDBRANCH  19  20
ENDBRANCH  16  19
ENDBRANCH  14  15
BRANCH  14  29
ATOM     29  C   UNL     1      -0.573   6.702   2.854  1.00  0.00     0.070 C 
BRANCH  29  30
ATOM     30  C   UNL     1      -0.515   7.609   1.638  1.00  0.00    -0.045 A 
ATOM     31  C   UNL     1      -0.723   7.142   0.332  1.00  0.00     0.004 A 
ATOM     32  C   UNL     1      -0.355   8.991   1.816  1.00  0.00     0.004 A 
ATOM     33  C   UNL     1      -0.752   8.011  -0.760  1.00  0.00     0.000 A 
ATOM     34  C   UNL     1      -0.394   9.865   0.725  1.00  0.00     0.000 A 
ATOM     35  C   UNL     1      -0.591   9.375  -0.562  1.00  0.00     0.000 A 
ENDBRANCH  29  30
ENDBRANCH  14  29
ENDBRANCH  11  14
ENDBRANCH   5  10
ENDBRANCH   1   5
BRANCH   3  36
ATOM     36  C   UNL     1      -1.678   0.890   1.841  1.00  0.00     0.116 C 
BRANCH  36  37
ATOM     37  C   UNL     1      -0.244   0.393   1.744  1.00  0.00     0.023 C 
BRANCH  37  38
ATOM     38  C   UNL     1       0.177  -0.508   2.895  1.00  0.00     0.023 C 
BRANCH  38  39
ATOM     39  C   UNL     1      -0.788  -1.632   3.197  1.00  0.00     0.116 C 
BRANCH  39  40
ATOM     40  N   UNL     1      -0.966  -2.533   2.076  1.00  0.00    -0.352 N 
ATOM     41  C   UNL     1      -0.986  -3.909   2.116  1.00  0.00     0.251 C 
ATOM     42  H   UNL     1      -1.086  -2.117   1.192  1.00  0.00     0.163 HD
ATOM     43  O   UNL     1      -0.972  -4.574   1.100  1.00  0.00    -0.269 OA
BRANCH  41  44
ATOM     44  C   UNL     1      -0.985  -4.547   3.449  1.00  0.00     0.039 A 
ATOM     45  C   UNL     1      -0.006  -5.494   3.743  1.00  0.00     0.014 A 
ATOM     46  C   UNL     1      -1.888  -4.114   4.426  1.00  0.00     0.014 A 
ATOM     47  C   UNL     1       0.090  -5.987   5.043  1.00  0.00     0.010 A 
ATOM     48  C   UNL     1      -1.722  -4.528   5.739  1.00  0.00     0.010 A 
ATOM     49  C   UNL     1      -0.749  -5.489   6.054  1.00  0.00    -0.014 A 
BRANCH  49  50
ATOM     50  C   UNL     1      -0.663  -6.000   7.442  1.00  0.00     0.031 A 
ATOM     51  C   UNL     1      -1.841  -6.719   8.038  1.00  0.00     0.074 A 
ATOM     52  C   UNL     1       0.444  -5.777   8.175  1.00  0.00     0.049 A 
ATOM     53  N   UNL     1      -1.992  -7.208   9.242  1.00  0.00    -0.248 NA
ATOM     54  C   UNL     1      -3.023  -6.883   7.174  1.00  0.00     0.031 C 
ATOM     55  C   UNL     1       1.629  -5.046   7.721  1.00  0.00     0.029 A 
ATOM     56  N   UNL     1       0.753  -6.143   9.461  1.00  0.00    -0.354 N 
ATOM     57  C   UNL     1      -3.284  -7.715   9.282  1.00  0.00     0.074 A 
ATOM     58  C   UNL     1      -3.900  -7.417   8.009  1.00  0.00     0.031 C 
ATOM     59  C   UNL     1       2.548  -5.047   8.700  1.00  0.00     0.029 A 
ATOM     60  C   UNL     1       2.004  -5.745   9.861  1.00  0.00     0.049 A 
ATOM     61  H   UNL     1       0.135  -6.643  10.041  1.00  0.00     0.167 HD
ATOM     62  C   UNL     1      -3.892  -8.398  10.280  1.00  0.00     0.037 A 
ATOM     63  C   UNL     1       2.638  -5.925  11.036  1.00  0.00     0.037 A 
ATOM     64  C   UNL     1      -3.260  -8.721  11.529  1.00  0.00     0.049 A 
ATOM     65  C   UNL     1       1.938  -6.686  12.131  1.00  0.00     0.074 A 
ATOM     66  C   UNL     1      -3.759  -9.468  12.580  1.00  0.00     0.029 A 
ATOM     67  N   UNL     1      -1.986  -8.310  11.896  1.00  0.00    -0.354 N 
ATOM     68  N   UNL     1       0.747  -7.233  12.129  1.00  0.00    -0.248 NA
ATOM     69  C   UNL     1       2.676  -6.861  13.389  1.00  0.00     0.031 C 
ATOM     70  C   UNL     1      -2.808  -9.465  13.606  1.00  0.00     0.029 A 
ATOM     71  C   UNL     1      -1.693  -8.766  13.171  1.00  0.00     0.049 A 
ATOM     72  H   UNL     1      -1.381  -7.775  11.334  1.00  0.00     0.167 HD
ATOM     73  C   UNL     1       0.604  -7.842  13.369  1.00  0.00     0.074 A 
ATOM     74  C   UNL     1       1.837  -7.610  14.091  1.00  0.00     0.031 C 
ATOM     75  C   UNL     1      -0.453  -8.532  13.866  1.00  0.00     0.037 A 
BRANCH  62  76
ATOM     76  C   UNL     1      -5.309  -8.840  10.056  1.00  0.00     0.064 A 
ATOM     77  C   UNL     1      -5.635  -9.831   9.116  1.00  0.00     0.173 A 
ATOM     78  C   UNL     1      -6.354  -8.284  10.809  1.00  0.00     0.173 A 
ATOM     79  F   UNL     1      -4.677 -10.384   8.357  1.00  0.00    -0.203 F 
ATOM     80  C   UNL     1      -6.956 -10.223   8.915  1.00  0.00     0.198 A 
ATOM     81  C   UNL     1      -7.670  -8.704  10.630  1.00  0.00     0.198 A 
ATOM     82  F   UNL     1      -6.100  -7.335  11.722  1.00  0.00    -0.203 F 
ATOM     83  F   UNL     1      -7.248 -11.128   7.971  1.00  0.00    -0.200 F 
ATOM     84  C   UNL     1      -7.971  -9.666   9.678  1.00  0.00     0.200 A 
ATOM     85  F   UNL     1      -8.648  -8.173  11.377  1.00  0.00    -0.200 F 
ATOM     86  F   UNL     1      -9.241 -10.050   9.489  1.00  0.00    -0.200 F 
ENDBRANCH  62  76
BRANCH  63  87
ATOM     87  C   UNL     1       4.018  -5.408  11.227  1.00  0.00     0.064 A 
ATOM     88  C   UNL     1       5.104  -6.286  11.355  1.00  0.00     0.173 A 
ATOM     89  C   UNL     1       4.283  -4.032  11.292  1.00  0.00     0.173 A 
ATOM     90  F   UNL     1       4.901  -7.611  11.317  1.00  0.00    -0.203 F 
ATOM     91  C   UNL     1       6.396  -5.809  11.565  1.00  0.00     0.198 A 
ATOM     92  C   UNL     1       5.580  -3.556  11.473  1.00  0.00     0.198 A 
ATOM     93  F   UNL     1       3.281  -3.149  11.168  1.00  0.00    -0.203 F 
ATOM     94  F   UNL     1       7.407  -6.673  11.733  1.00  0.00    -0.200 F 
ATOM     95  C   UNL     1       6.634  -4.444  11.618  1.00  0.00     0.200 A 
ATOM     96  F   UNL     1       5.807  -2.236  11.506  1.00  0.00    -0.200 F 
ATOM     97  F   UNL     1       7.877  -3.986  11.817  1.00  0.00    -0.200 F 
ENDBRANCH  63  87
BRANCH  75  98
ATOM     98  C   UNL     1      -0.307  -9.119  15.240  1.00  0.00     0.064 A 
ATOM     99  C   UNL     1      -0.290  -8.314  16.389  1.00  0.00     0.173 A 
ATOM    100  C   UNL     1      -0.229 -10.510  15.411  1.00  0.00     0.173 A 
ATOM    101  F   UNL     1      -0.348  -6.978  16.278  1.00  0.00    -0.203 F 
ATOM    102  C   UNL     1      -0.172  -8.879  17.656  1.00  0.00     0.198 A 
ATOM    103  C   UNL     1      -0.145 -11.073  16.680  1.00  0.00     0.198 A 
ATOM    104  F   UNL     1      -0.250 -11.324  14.345  1.00  0.00    -0.203 F 
ATOM    105  F   UNL     1      -0.106  -8.089  18.736  1.00  0.00    -0.200 F 
ATOM    106  C   UNL     1      -0.108 -10.257  17.801  1.00  0.00     0.200 A 
ATOM    107  F   UNL     1      -0.102 -12.405  16.819  1.00  0.00    -0.200 F 
ATOM    108  F   UNL     1      -0.005 -10.800  19.022  1.00  0.00    -0.200 F 
ENDBRANCH  75  98
ENDBRANCH  49  50
ENDBRANCH  41  44
ENDBRANCH  39  40
ENDBRANCH  38  39
ENDBRANCH  37  38
ENDBRANCH  36  37
ENDBRANCH   3  36
TORSDOF 22
