REMARK SMILES Cc1ccc(Oc2cc(C(=O)NCCCCNC(=O)c3ccc(-c4c5nc(c(-c6c(F)c(F)c(F)c(F)c6F)c6ccc([nH]6)c(-c6c(F)c(F)c(F)c(F)c6F)c6nc(c(-c7c(F)c(F)c(F)c(F)c7F)c7ccc4[nH]7)C=C6)C=C5)cc3)nc3ccccc23)cc1
REMARK SMILES IDX 14 1 13 2 12 3 10 4 11 5 9 7 7 8 8 9 89 10 84 11 88 12 83 13
REMARK SMILES IDX 85 14 87 15 86 16 6 17 5 18 1 19 2 20 3 21 91 22 4 23 90 24
REMARK SMILES IDX 15 25 16 26 17 27 18 28 19 30 20 31 21 32 82 33 22 34 81 35
REMARK SMILES IDX 23 36 24 37 25 38 75 39 26 40 80 41 74 42 76 43 27 44 79 45
REMARK SMILES IDX 73 46 72 47 28 49 60 50 40 51 59 52 41 53 44 54 58 55 77 56
REMARK SMILES IDX 42 57 43 58 57 60 78 61 45 62 29 63 30 64 38 65 31 66 32 67
REMARK SMILES IDX 36 68 39 69 33 70 34 71 37 72 35 73 61 74 62 75 70 76 63 77
REMARK SMILES IDX 64 78 68 79 71 80 65 81 66 82 69 83 67 84 46 85 47 86 55 87
REMARK SMILES IDX 48 88 49 89 53 90 56 91 50 92 51 93 54 94 52 95
REMARK H PARENT 12 6 17 29 76 48 44 59
REMARK Flexibility Score: inf
ROOT
ATOM      1  C   UNL     1      -8.125   5.343  -0.101  1.00  0.00     0.023 C 
ENDROOT
BRANCH   1   2
ATOM      2  C   UNL     1      -7.011   5.418   0.953  1.00  0.00     0.116 C 
BRANCH   2   3
ATOM      3  N   UNL     1      -7.019   4.285   1.865  1.00  0.00    -0.351 N 
ATOM      4  C   UNL     1      -6.347   3.082   1.824  1.00  0.00     0.270 C 
ATOM      5  O   UNL     1      -6.530   2.301   2.761  1.00  0.00    -0.268 OA
ATOM      6  H   UNL     1      -7.606   4.397   2.647  1.00  0.00     0.163 HD
BRANCH   4   7
ATOM      7  C   UNL     1      -5.411   2.699   0.715  1.00  0.00     0.132 A 
ATOM      8  C   UNL     1      -3.803   1.200  -0.197  1.00  0.00     0.139 A 
ATOM      9  C   UNL     1      -4.692   1.520   0.824  1.00  0.00     0.082 A 
ATOM     10  C   UNL     1      -3.685   2.025  -1.339  1.00  0.00     0.043 A 
ATOM     11  C   UNL     1      -4.446   3.209  -1.333  1.00  0.00     0.075 A 
ATOM     12  C   UNL     1      -2.854   1.752  -2.453  1.00  0.00     0.014 A 
ATOM     13  N   UNL     1      -5.291   3.532  -0.344  1.00  0.00    -0.242 NA
ATOM     14  C   UNL     1      -4.311   4.100  -2.388  1.00  0.00     0.029 A 
ATOM     15  C   UNL     1      -2.730   2.665  -3.498  1.00  0.00     0.001 A 
ATOM     16  C   UNL     1      -3.453   3.849  -3.460  1.00  0.00     0.002 A 
BRANCH   8  17
ATOM     17  O   UNL     1      -3.104   0.023  -0.038  1.00  0.00    -0.457 OA
BRANCH  17  18
ATOM     18  C   UNL     1      -1.728   0.074   0.075  1.00  0.00     0.127 A 
ATOM     19  C   UNL     1       2.579  -0.112   0.079  1.00  0.00     0.044 C 
ATOM     20  C   UNL     1       1.080  -0.045   0.104  1.00  0.00    -0.051 A 
ATOM     21  C   UNL     1       0.323  -1.209  -0.071  1.00  0.00     0.007 A 
ATOM     22  C   UNL     1       0.419   1.169   0.318  1.00  0.00     0.007 A 
ATOM     23  C   UNL     1      -1.072  -1.148  -0.088  1.00  0.00     0.047 A 
ATOM     24  C   UNL     1      -0.978   1.227   0.318  1.00  0.00     0.047 A 
ENDBRANCH  17  18
ENDBRANCH   8  17
ENDBRANCH   4   7
ENDBRANCH   2   3
ENDBRANCH   1   2
BRANCH   1  25
ATOM     25  C   UNL     1      -9.550   5.415   0.466  1.00  0.00     0.023 C 
BRANCH  25  26
ATOM     26  C   UNL     1      -9.902   6.744   1.127  1.00  0.00     0.116 C 
BRANCH  26  27
ATOM     27  N   UNL     1     -10.420   7.771   0.233  1.00  0.00    -0.352 N 
ATOM     28  C   UNL     1     -10.648   9.121   0.465  1.00  0.00     0.251 C 
ATOM     29  H   UNL     1     -10.642   7.460  -0.674  1.00  0.00     0.163 HD
ATOM     30  O   UNL     1     -11.202   9.798  -0.383  1.00  0.00    -0.269 OA
BRANCH  28  31
ATOM     31  C   UNL     1     -10.086   9.776   1.680  1.00  0.00     0.039 A 
ATOM     32  C   UNL     1      -9.478  11.030   1.526  1.00  0.00     0.014 A 
ATOM     33  C   UNL     1      -9.963   9.096   2.885  1.00  0.00     0.014 A 
ATOM     34  C   UNL     1      -8.530  11.454   2.456  1.00  0.00     0.010 A 
ATOM     35  C   UNL     1      -8.946   9.452   3.747  1.00  0.00     0.010 A 
ATOM     36  C   UNL     1      -8.172  10.588   3.485  1.00  0.00    -0.014 A 
BRANCH  36  37
ATOM     37  C   UNL     1      -6.926  10.689   4.240  1.00  0.00     0.031 A 
ATOM     38  C   UNL     1      -6.935  11.023   5.678  1.00  0.00     0.074 A 
ATOM     39  C   UNL     1      -5.781  10.283   3.647  1.00  0.00     0.049 A 
ATOM     40  N   UNL     1      -5.888  11.327   6.368  1.00  0.00    -0.248 NA
ATOM     41  C   UNL     1      -8.166  11.083   6.451  1.00  0.00     0.031 C 
ATOM     42  C   UNL     1      -4.518   9.937   4.293  1.00  0.00     0.029 A 
ATOM     43  N   UNL     1      -5.476  10.295   2.275  1.00  0.00    -0.354 N 
ATOM     44  C   UNL     1      -6.244  11.344   7.699  1.00  0.00     0.074 A 
ATOM     45  C   UNL     1      -7.686  11.272   7.683  1.00  0.00     0.031 C 
ATOM     46  C   UNL     1      -3.526  10.073   3.399  1.00  0.00     0.029 A 
ATOM     47  C   UNL     1      -4.107  10.662   2.207  1.00  0.00     0.049 A 
ATOM     48  H   UNL     1      -6.080  10.094   1.524  1.00  0.00     0.167 HD
ATOM     49  C   UNL     1      -5.256  11.294   8.643  1.00  0.00     0.037 A 
ATOM     50  C   UNL     1      -3.740  11.863   1.670  1.00  0.00     0.037 A 
ATOM     51  C   UNL     1      -3.935  11.477   8.031  1.00  0.00     0.049 A 
ATOM     52  C   UNL     1      -3.053  12.810   2.632  1.00  0.00     0.074 A 
ATOM     53  C   UNL     1      -2.891  10.635   7.682  1.00  0.00     0.029 A 
ATOM     54  N   UNL     1      -3.658  12.691   7.425  1.00  0.00    -0.354 N 
ATOM     55  N   UNL     1      -2.881  12.577   3.904  1.00  0.00    -0.248 NA
ATOM     56  C   UNL     1      -2.594  14.146   2.246  1.00  0.00     0.031 C 
ATOM     57  C   UNL     1      -2.009  11.353   6.820  1.00  0.00     0.029 A 
ATOM     58  C   UNL     1      -2.514  12.629   6.653  1.00  0.00     0.049 A 
ATOM     59  H   UNL     1      -4.209  13.500   7.531  1.00  0.00     0.167 HD
ATOM     60  C   UNL     1      -2.365  13.693   4.503  1.00  0.00     0.074 A 
ATOM     61  C   UNL     1      -2.196  14.650   3.426  1.00  0.00     0.031 C 
ATOM     62  C   UNL     1      -2.148  13.780   5.845  1.00  0.00     0.037 A 
BRANCH  49  63
ATOM     63  C   UNL     1      -5.445  10.862  10.090  1.00  0.00     0.064 A 
ATOM     64  C   UNL     1      -4.346  10.384  10.841  1.00  0.00     0.173 A 
ATOM     65  C   UNL     1      -6.671  10.812  10.780  1.00  0.00     0.173 A 
ATOM     66  F   UNL     1      -3.092  10.457  10.376  1.00  0.00    -0.203 F 
ATOM     67  C   UNL     1      -4.486   9.808  12.110  1.00  0.00     0.198 A 
ATOM     68  C   UNL     1      -6.821  10.199  12.029  1.00  0.00     0.198 A 
ATOM     69  F   UNL     1      -7.770  11.410  10.317  1.00  0.00    -0.203 F 
ATOM     70  F   UNL     1      -3.403   9.361  12.761  1.00  0.00    -0.200 F 
ATOM     71  C   UNL     1      -5.730   9.684  12.690  1.00  0.00     0.200 A 
ATOM     72  F   UNL     1      -8.039  10.123  12.586  1.00  0.00    -0.200 F 
ATOM     73  F   UNL     1      -5.873   9.102  13.887  1.00  0.00    -0.200 F 
ENDBRANCH  49  63
BRANCH  50  74
ATOM     74  C   UNL     1      -4.628  12.283   0.554  1.00  0.00     0.064 A 
ATOM     75  C   UNL     1      -4.688  11.472  -0.596  1.00  0.00     0.173 A 
ATOM     76  C   UNL     1      -5.660  13.207   0.751  1.00  0.00     0.173 A 
ATOM     77  F   UNL     1      -3.722  10.569  -0.830  1.00  0.00    -0.203 F 
ATOM     78  C   UNL     1      -5.793  11.498  -1.442  1.00  0.00     0.198 A 
ATOM     79  C   UNL     1      -6.758  13.243  -0.111  1.00  0.00     0.198 A 
ATOM     80  F   UNL     1      -5.673  13.990   1.839  1.00  0.00    -0.203 F 
ATOM     81  F   UNL     1      -5.875  10.631  -2.462  1.00  0.00    -0.200 F 
ATOM     82  C   UNL     1      -6.841  12.365  -1.182  1.00  0.00     0.200 A 
ATOM     83  F   UNL     1      -7.785  14.062   0.158  1.00  0.00    -0.200 F 
ATOM     84  F   UNL     1      -7.948  12.327  -1.936  1.00  0.00    -0.200 F 
ENDBRANCH  50  74
BRANCH  62  85
ATOM     85  C   UNL     1      -1.558  14.994   6.490  1.00  0.00     0.064 A 
ATOM     86  C   UNL     1      -0.374  15.581   6.019  1.00  0.00     0.173 A 
ATOM     87  C   UNL     1      -2.103  15.534   7.672  1.00  0.00     0.173 A 
ATOM     88  F   UNL     1       0.234  15.107   4.921  1.00  0.00    -0.203 F 
ATOM     89  C   UNL     1       0.215  16.662   6.677  1.00  0.00     0.198 A 
ATOM     90  C   UNL     1      -1.486  16.581   8.353  1.00  0.00     0.198 A 
ATOM     91  F   UNL     1      -3.256  15.073   8.178  1.00  0.00    -0.203 F 
ATOM     92  F   UNL     1       1.321  17.226   6.171  1.00  0.00    -0.200 F 
ATOM     93  C   UNL     1      -0.332  17.151   7.851  1.00  0.00     0.200 A 
ATOM     94  F   UNL     1      -2.019  17.036   9.496  1.00  0.00    -0.200 F 
ATOM     95  F   UNL     1       0.248  18.174   8.493  1.00  0.00    -0.200 F 
ENDBRANCH  62  85
ENDBRANCH  36  37
ENDBRANCH  28  31
ENDBRANCH  26  27
ENDBRANCH  25  26
ENDBRANCH   1  25
TORSDOF 13
