REMARK SMILES CN(C)c1ccc(CCC(=O)N2C[C@@H](C(=O)NCCCCNC(=O)c3ccc(-c4c5nc(c(-c6c(F)c(F)c(F)c(F)c6F)c6ccc([nH]6)c(-c6c(F)c(F)c(F)c(F)c6F)c6nc(c(-c7c(F)c(F)c(F)c(F)c7F)c7ccc4[nH]7)C=C6)C=C5)cc3)[C@H](c3cccnc3)C2)cc1
REMARK SMILES IDX 18 1 17 2 15 3 16 4 14 6 12 7 13 8 95 9 88 10 10 11 11 12
REMARK SMILES IDX 9 13 8 14 7 15 4 16 5 17 97 18 6 19 96 20 2 21 1 22 3 23
REMARK SMILES IDX 89 24 90 25 94 26 91 27 93 28 92 29 19 30 20 31 21 32 22 33
REMARK SMILES IDX 23 34 24 36 25 37 26 38 87 39 27 40 86 41 28 42 29 43 30 44
REMARK SMILES IDX 80 45 31 46 85 47 79 48 81 49 32 50 84 51 78 52 77 53 33 55
REMARK SMILES IDX 65 56 45 57 64 58 46 59 49 60 63 61 82 62 47 63 48 64 62 66
REMARK SMILES IDX 83 67 50 68 34 69 35 70 43 71 36 72 37 73 41 74 44 75 38 76
REMARK SMILES IDX 39 77 42 78 40 79 66 80 67 81 75 82 68 83 69 84 73 85 76 86
REMARK SMILES IDX 70 87 71 88 74 89 72 90 51 91 52 92 60 93 53 94 54 95 58 96
REMARK SMILES IDX 61 97 55 98 56 99 59 100 57 101
REMARK H PARENT 17 5 22 35 81 54 49 65
REMARK Flexibility Score: inf
ROOT
ATOM      1  C   UNL     1      -2.172   0.813   3.744  1.00  0.00     0.116 C 
ENDROOT
BRANCH   1   2
ATOM      2  N   UNL     1      -2.485   1.498   2.507  1.00  0.00    -0.356 N 
ATOM      3  C   UNL     1      -2.148   2.690   1.970  1.00  0.00     0.225 C 
ATOM      4  O   UNL     1      -2.779   2.965   0.938  1.00  0.00    -0.275 OA
ATOM      5  H   UNL     1      -3.080   0.974   1.923  1.00  0.00     0.163 HD
BRANCH   3   6
ATOM      6  C   UNL     1      -1.083   3.684   2.441  1.00  0.00     0.107 C 
ATOM      7  N   UNL     1      -0.157   4.471   4.498  1.00  0.00    -0.341 N 
ATOM      8  C   UNL     1      -0.097   3.394   3.549  1.00  0.00     0.133 C 
ATOM      9  C   UNL     1      -1.352   5.260   4.274  1.00  0.00     0.128 C 
ATOM     10  C   UNL     1      -1.693   5.080   2.774  1.00  0.00     0.054 C 
BRANCH   7  11
ATOM     11  C   UNL     1       0.581   4.524   5.665  1.00  0.00     0.222 C 
ATOM     12  O   UNL     1       0.121   5.048   6.682  1.00  0.00    -0.275 OA
BRANCH  11  13
ATOM     13  C   UNL     1       2.047   4.056   5.634  1.00  0.00     0.105 C 
BRANCH  13  14
ATOM     14  C   UNL     1       2.377   2.567   5.849  1.00  0.00     0.045 C 
BRANCH  14  15
ATOM     15  C   UNL     1       2.566   1.807   4.551  1.00  0.00    -0.047 A 
ATOM     16  C   UNL     1       2.432   0.978   1.853  1.00  0.00     0.036 A 
ATOM     17  C   UNL     1       1.517   0.529   2.802  1.00  0.00     0.026 A 
ATOM     18  C   UNL     1       3.518   1.721   2.309  1.00  0.00     0.026 A 
ATOM     19  C   UNL     1       1.610   0.879   4.151  1.00  0.00     0.006 A 
ATOM     20  C   UNL     1       3.586   2.139   3.647  1.00  0.00     0.006 A 
BRANCH  16  21
ATOM     21  N   UNL     1       2.208   0.796   0.485  1.00  0.00    -0.378 N 
ATOM     22  C   UNL     1       2.127  -0.584   0.024  1.00  0.00     0.143 C 
ATOM     23  C   UNL     1       1.225   1.722  -0.082  1.00  0.00     0.143 C 
ENDBRANCH  16  21
ENDBRANCH  14  15
ENDBRANCH  13  14
ENDBRANCH  11  13
ENDBRANCH   7  11
BRANCH  10  24
ATOM     24  C   UNL     1      -1.212   6.140   1.783  1.00  0.00    -0.024 A 
ATOM     25  C   UNL     1      -1.338   5.909   0.400  1.00  0.00     0.007 A 
ATOM     26  C   UNL     1      -0.691   7.380   2.138  1.00  0.00     0.115 A 
ATOM     27  C   UNL     1      -0.909   6.849  -0.532  1.00  0.00     0.020 A 
ATOM     28  N   UNL     1      -0.278   8.324   1.253  1.00  0.00    -0.264 NA
ATOM     29  C   UNL     1      -0.389   8.035  -0.059  1.00  0.00     0.111 A 
ENDBRANCH  10  24
ENDBRANCH   3   6
ENDBRANCH   1   2
BRANCH   1  30
ATOM     30  C   UNL     1      -2.954  -0.496   3.916  1.00  0.00     0.023 C 
BRANCH  30  31
ATOM     31  C   UNL     1      -2.621  -1.627   2.930  1.00  0.00     0.023 C 
BRANCH  31  32
ATOM     32  C   UNL     1      -1.224  -2.238   3.018  1.00  0.00     0.116 C 
BRANCH  32  33
ATOM     33  N   UNL     1      -0.876  -2.764   4.323  1.00  0.00    -0.352 N 
ATOM     34  C   UNL     1      -0.628  -4.056   4.729  1.00  0.00     0.251 C 
ATOM     35  H   UNL     1      -0.805  -2.088   5.035  1.00  0.00     0.163 HD
ATOM     36  O   UNL     1      -0.440  -4.299   5.910  1.00  0.00    -0.269 OA
BRANCH  34  37
ATOM     37  C   UNL     1      -0.633  -5.163   3.745  1.00  0.00     0.039 A 
ATOM     38  C   UNL     1      -1.393  -6.300   4.032  1.00  0.00     0.014 A 
ATOM     39  C   UNL     1       0.111  -5.099   2.565  1.00  0.00     0.014 A 
ATOM     40  C   UNL     1      -1.480  -7.334   3.096  1.00  0.00     0.010 A 
ATOM     41  C   UNL     1      -0.028  -6.102   1.603  1.00  0.00     0.010 A 
ATOM     42  C   UNL     1      -0.836  -7.223   1.853  1.00  0.00    -0.014 A 
BRANCH  42  43
ATOM     43  C   UNL     1      -1.019  -8.257   0.798  1.00  0.00     0.031 A 
ATOM     44  C   UNL     1       0.147  -9.078   0.322  1.00  0.00     0.074 A 
ATOM     45  C   UNL     1      -2.229  -8.417   0.226  1.00  0.00     0.049 A 
ATOM     46  N   UNL     1       0.199  -9.962  -0.643  1.00  0.00    -0.248 NA
ATOM     47  C   UNL     1       1.430  -8.861   1.007  1.00  0.00     0.031 C 
ATOM     48  C   UNL     1      -3.436  -7.665   0.574  1.00  0.00     0.029 A 
ATOM     49  N   UNL     1      -2.644  -9.260  -0.777  1.00  0.00    -0.354 N 
ATOM     50  C   UNL     1       1.516 -10.402  -0.684  1.00  0.00     0.074 A 
ATOM     51  C   UNL     1       2.243  -9.647   0.315  1.00  0.00     0.031 C 
ATOM     52  C   UNL     1      -4.457  -8.093  -0.185  1.00  0.00     0.029 A 
ATOM     53  C   UNL     1      -3.971  -9.119  -1.103  1.00  0.00     0.049 A 
ATOM     54  H   UNL     1      -2.046  -9.903  -1.220  1.00  0.00     0.167 HD
ATOM     55  C   UNL     1       2.064 -11.364  -1.465  1.00  0.00     0.037 A 
ATOM     56  C   UNL     1      -4.712  -9.740  -2.042  1.00  0.00     0.037 A 
ATOM     57  C   UNL     1       1.340 -12.126  -2.449  1.00  0.00     0.049 A 
ATOM     58  C   UNL     1      -4.067 -10.780  -2.919  1.00  0.00     0.074 A 
ATOM     59  C   UNL     1       1.804 -13.139  -3.271  1.00  0.00     0.029 A 
ATOM     60  N   UNL     1      -0.006 -11.960  -2.742  1.00  0.00    -0.354 N 
ATOM     61  N   UNL     1      -2.832 -11.218  -2.915  1.00  0.00    -0.248 NA
ATOM     62  C   UNL     1      -4.923 -11.415  -3.932  1.00  0.00     0.031 C 
ATOM     63  C   UNL     1       0.749 -13.561  -4.087  1.00  0.00     0.029 A 
ATOM     64  C   UNL     1      -0.385 -12.844  -3.741  1.00  0.00     0.049 A 
ATOM     65  H   UNL     1      -0.604 -11.311  -2.305  1.00  0.00     0.167 HD
ATOM     66  C   UNL     1      -2.773 -12.203  -3.892  1.00  0.00     0.074 A 
ATOM     67  C   UNL     1      -4.099 -12.306  -4.463  1.00  0.00     0.031 C 
ATOM     68  C   UNL     1      -1.714 -12.953  -4.283  1.00  0.00     0.037 A 
BRANCH  55  69
ATOM     69  C   UNL     1       3.525 -11.658  -1.279  1.00  0.00     0.064 A 
ATOM     70  C   UNL     1       4.000 -12.297  -0.124  1.00  0.00     0.173 A 
ATOM     71  C   UNL     1       4.454 -11.339  -2.281  1.00  0.00     0.173 A 
ATOM     72  F   UNL     1       3.155 -12.614   0.868  1.00  0.00    -0.203 F 
ATOM     73  C   UNL     1       5.354 -12.581   0.033  1.00  0.00     0.198 A 
ATOM     74  C   UNL     1       5.803 -11.652  -2.134  1.00  0.00     0.198 A 
ATOM     75  F   UNL     1       4.052 -10.735  -3.409  1.00  0.00    -0.203 F 
ATOM     76  F   UNL     1       5.791 -13.149   1.166  1.00  0.00    -0.200 F 
ATOM     77  C   UNL     1       6.253 -12.265  -0.974  1.00  0.00     0.200 A 
ATOM     78  F   UNL     1       6.669 -11.359  -3.115  1.00  0.00    -0.200 F 
ATOM     79  F   UNL     1       7.555 -12.547  -0.825  1.00  0.00    -0.200 F 
ENDBRANCH  55  69
BRANCH  56  80
ATOM     80  C   UNL     1      -6.154  -9.415  -2.197  1.00  0.00     0.064 A 
ATOM     81  C   UNL     1      -7.141 -10.359  -1.877  1.00  0.00     0.173 A 
ATOM     82  C   UNL     1      -6.577  -8.175  -2.697  1.00  0.00     0.173 A 
ATOM     83  F   UNL     1      -6.786 -11.568  -1.417  1.00  0.00    -0.203 F 
ATOM     84  C   UNL     1      -8.492 -10.086  -2.080  1.00  0.00     0.198 A 
ATOM     85  C   UNL     1      -7.930  -7.892  -2.870  1.00  0.00     0.198 A 
ATOM     86  F   UNL     1      -5.674  -7.235  -3.014  1.00  0.00    -0.203 F 
ATOM     87  F   UNL     1      -9.409 -11.028  -1.821  1.00  0.00    -0.200 F 
ATOM     88  C   UNL     1      -8.886  -8.852  -2.573  1.00  0.00     0.200 A 
ATOM     89  F   UNL     1      -8.308  -6.693  -3.334  1.00  0.00    -0.200 F 
ATOM     90  F   UNL     1     -10.185  -8.591  -2.771  1.00  0.00    -0.200 F 
ENDBRANCH  56  80
BRANCH  68  91
ATOM     91  C   UNL     1      -1.957 -13.991  -5.340  1.00  0.00     0.064 A 
ATOM     92  C   UNL     1      -2.181 -13.643  -6.679  1.00  0.00     0.173 A 
ATOM     93  C   UNL     1      -1.927 -15.355  -5.011  1.00  0.00     0.173 A 
ATOM     94  F   UNL     1      -2.236 -12.352  -7.041  1.00  0.00    -0.203 F 
ATOM     95  C   UNL     1      -2.391 -14.622  -7.647  1.00  0.00     0.198 A 
ATOM     96  C   UNL     1      -2.107 -16.332  -5.986  1.00  0.00     0.198 A 
ATOM     97  F   UNL     1      -1.710 -15.741  -3.745  1.00  0.00    -0.203 F 
ATOM     98  F   UNL     1      -2.651 -14.265  -8.913  1.00  0.00    -0.200 F 
ATOM     99  C   UNL     1      -2.347 -15.965  -7.302  1.00  0.00     0.200 A 
ATOM    100  F   UNL     1      -2.051 -17.629  -5.653  1.00  0.00    -0.200 F 
ATOM    101  F   UNL     1      -2.542 -16.905  -8.236  1.00  0.00    -0.200 F 
ENDBRANCH  68  91
ENDBRANCH  42  43
ENDBRANCH  34  37
ENDBRANCH  32  33
ENDBRANCH  31  32
ENDBRANCH  30  31
ENDBRANCH   1  30
TORSDOF 17
