REMARK SMILES O=C(NCCCCNC(=O)c1cc(/C=C/c2cc(O)cc(O)c2)ccc1O)c1ccc(-c2c3nc(c(-c4c(F)c(F)c(F)c(F)c4F)c4ccc([nH]4)c(-c4c(F)c(F)c(F)c(F)c4F)c4nc(c(-c5c(F)c(F)c(F)c(F)c5F)c5ccc2[nH]5)C=C4)C=C3)cc1
REMARK SMILES IDX 6 1 5 2 4 3 3 4 1 5 2 6 28 8 29 9 90 10 30 11 89 12 31 13
REMARK SMILES IDX 32 14 33 15 83 16 34 17 88 18 82 19 84 20 35 21 87 22 81 23
REMARK SMILES IDX 80 24 36 26 68 27 48 28 67 29 49 30 52 31 66 32 85 33 50 34
REMARK SMILES IDX 51 35 65 37 86 38 53 39 37 40 38 41 46 42 39 43 40 44 44 45
REMARK SMILES IDX 47 46 41 47 42 48 45 49 43 50 69 51 70 52 78 53 71 54 72 55
REMARK SMILES IDX 76 56 79 57 73 58 74 59 77 60 75 61 54 62 55 63 63 64 56 65
REMARK SMILES IDX 57 66 61 67 64 68 58 69 59 70 62 71 60 72 7 73 8 74 9 75
REMARK SMILES IDX 10 77 11 78 12 79 26 80 13 81 25 82 24 83 27 84 14 86 15 87
REMARK SMILES IDX 16 88 17 89 23 90 18 91 21 92 20 93 19 94 22 96
REMARK H PARENT 3 7 84 25 52 36 8 76 27 85 19 95 22 97
REMARK Flexibility Score: inf
ROOT
ATOM      1  C   UNL     1       4.348  -1.996  -3.352  1.00  0.00     0.023 C 
ENDROOT
BRANCH   1   2
ATOM      2  C   UNL     1       4.841  -1.824  -1.917  1.00  0.00     0.023 C 
BRANCH   2   3
ATOM      3  C   UNL     1       4.523  -0.479  -1.279  1.00  0.00     0.116 C 
BRANCH   3   4
ATOM      4  N   UNL     1       3.094  -0.227  -1.162  1.00  0.00    -0.352 N 
ATOM      5  O   UNL     1       1.123   0.115  -0.116  1.00  0.00    -0.269 OA
ATOM      6  C   UNL     1       2.347   0.060  -0.045  1.00  0.00     0.251 C 
ATOM      7  H   UNL     1       2.589  -0.268  -2.007  1.00  0.00     0.163 HD
BRANCH   6   8
ATOM      8  C   UNL     1       3.020   0.272   1.254  1.00  0.00     0.039 A 
ATOM      9  C   UNL     1       4.155   1.079   1.344  1.00  0.00     0.014 A 
ATOM     10  C   UNL     1       2.510  -0.355   2.395  1.00  0.00     0.014 A 
ATOM     11  C   UNL     1       4.870   1.133   2.535  1.00  0.00     0.010 A 
ATOM     12  C   UNL     1       3.181  -0.226   3.615  1.00  0.00     0.010 A 
ATOM     13  C   UNL     1       4.385   0.490   3.686  1.00  0.00    -0.014 A 
BRANCH  13  14
ATOM     14  C   UNL     1       5.130   0.634   4.962  1.00  0.00     0.031 A 
ATOM     15  C   UNL     1       5.776  -0.548   5.628  1.00  0.00     0.074 A 
ATOM     16  C   UNL     1       5.245   1.862   5.503  1.00  0.00     0.049 A 
ATOM     17  N   UNL     1       6.479  -0.589   6.733  1.00  0.00    -0.248 NA
ATOM     18  C   UNL     1       5.606  -1.857   4.979  1.00  0.00     0.031 C 
ATOM     19  C   UNL     1       4.645   3.080   4.954  1.00  0.00     0.029 A 
ATOM     20  N   UNL     1       5.915   2.294   6.618  1.00  0.00    -0.354 N 
ATOM     21  C   UNL     1       6.817  -1.922   6.922  1.00  0.00     0.074 A 
ATOM     22  C   UNL     1       6.224  -2.665   5.830  1.00  0.00     0.031 C 
ATOM     23  C   UNL     1       5.010   4.127   5.707  1.00  0.00     0.029 A 
ATOM     24  C   UNL     1       5.819   3.648   6.822  1.00  0.00     0.049 A 
ATOM     25  H   UNL     1       6.416   1.692   7.215  1.00  0.00     0.167 HD
ATOM     26  C   UNL     1       7.560  -2.471   7.914  1.00  0.00     0.037 A 
ATOM     27  C   UNL     1       6.313   4.420   7.806  1.00  0.00     0.037 A 
ATOM     28  C   UNL     1       8.167  -1.722   8.985  1.00  0.00     0.049 A 
ATOM     29  C   UNL     1       7.131   3.784   8.891  1.00  0.00     0.074 A 
ATOM     30  C   UNL     1       8.974  -2.182  10.011  1.00  0.00     0.029 A 
ATOM     31  N   UNL     1       8.031  -0.353   9.169  1.00  0.00    -0.354 N 
ATOM     32  N   UNL     1       7.471   2.527   9.039  1.00  0.00    -0.248 NA
ATOM     33  C   UNL     1       7.633   4.673   9.947  1.00  0.00     0.031 C 
ATOM     34  C   UNL     1       9.292  -1.100  10.839  1.00  0.00     0.029 A 
ATOM     35  C   UNL     1       8.721   0.043  10.304  1.00  0.00     0.049 A 
ATOM     36  H   UNL     1       7.520   0.248   8.580  1.00  0.00     0.167 HD
ATOM     37  C   UNL     1       8.233   2.473  10.197  1.00  0.00     0.074 A 
ATOM     38  C   UNL     1       8.326   3.829  10.699  1.00  0.00     0.031 C 
ATOM     39  C   UNL     1       8.799   1.396  10.793  1.00  0.00     0.037 A 
BRANCH  26  40
ATOM     40  C   UNL     1       7.751  -3.960   7.904  1.00  0.00     0.064 A 
ATOM     41  C   UNL     1       8.596  -4.589   6.977  1.00  0.00     0.173 A 
ATOM     42  C   UNL     1       7.130  -4.761   8.874  1.00  0.00     0.173 A 
ATOM     43  F   UNL     1       9.206  -3.870   6.023  1.00  0.00    -0.203 F 
ATOM     44  C   UNL     1       8.797  -5.967   7.012  1.00  0.00     0.198 A 
ATOM     45  C   UNL     1       7.352  -6.135   8.921  1.00  0.00     0.198 A 
ATOM     46  F   UNL     1       6.318  -4.208   9.788  1.00  0.00    -0.203 F 
ATOM     47  F   UNL     1       9.581  -6.551   6.095  1.00  0.00    -0.200 F 
ATOM     48  C   UNL     1       8.182  -6.737   7.987  1.00  0.00     0.200 A 
ATOM     49  F   UNL     1       6.767  -6.875   9.872  1.00  0.00    -0.200 F 
ATOM     50  F   UNL     1       8.385  -8.062   8.025  1.00  0.00    -0.200 F 
ENDBRANCH  26  40
BRANCH  27  51
ATOM     51  C   UNL     1       6.039   5.879   7.799  1.00  0.00     0.064 A 
ATOM     52  C   UNL     1       7.057   6.804   7.536  1.00  0.00     0.173 A 
ATOM     53  C   UNL     1       4.746   6.374   8.026  1.00  0.00     0.173 A 
ATOM     54  F   UNL     1       8.312   6.379   7.330  1.00  0.00    -0.203 F 
ATOM     55  C   UNL     1       6.794   8.172   7.510  1.00  0.00     0.198 A 
ATOM     56  C   UNL     1       4.479   7.739   7.971  1.00  0.00     0.198 A 
ATOM     57  F   UNL     1       3.737   5.527   8.275  1.00  0.00    -0.203 F 
ATOM     58  F   UNL     1       7.792   9.039   7.289  1.00  0.00    -0.200 F 
ATOM     59  C   UNL     1       5.504   8.638   7.719  1.00  0.00     0.200 A 
ATOM     60  F   UNL     1       3.228   8.183   8.156  1.00  0.00    -0.200 F 
ATOM     61  F   UNL     1       5.250   9.953   7.681  1.00  0.00    -0.200 F 
ENDBRANCH  27  51
BRANCH  39  62
ATOM     62  C   UNL     1       9.582   1.647  12.046  1.00  0.00     0.064 A 
ATOM     63  C   UNL     1       8.946   1.955  13.258  1.00  0.00     0.173 A 
ATOM     64  C   UNL     1      10.982   1.556  12.041  1.00  0.00     0.173 A 
ATOM     65  F   UNL     1       7.610   2.071  13.308  1.00  0.00    -0.203 F 
ATOM     66  C   UNL     1       9.685   2.189  14.414  1.00  0.00     0.198 A 
ATOM     67  C   UNL     1      11.716   1.764  13.205  1.00  0.00     0.198 A 
ATOM     68  F   UNL     1      11.636   1.260  10.908  1.00  0.00    -0.203 F 
ATOM     69  F   UNL     1       9.060   2.529  15.549  1.00  0.00    -0.200 F 
ATOM     70  C   UNL     1      11.068   2.087  14.388  1.00  0.00     0.200 A 
ATOM     71  F   UNL     1      13.052   1.656  13.181  1.00  0.00    -0.200 F 
ATOM     72  F   UNL     1      11.778   2.310  15.502  1.00  0.00    -0.200 F 
ENDBRANCH  39  62
ENDBRANCH  13  14
ENDBRANCH   6   8
ENDBRANCH   3   4
ENDBRANCH   2   3
ENDBRANCH   1   2
BRANCH   1  73
ATOM     73  C   UNL     1       4.722  -0.870  -4.309  1.00  0.00     0.116 C 
BRANCH  73  74
ATOM     74  N   UNL     1       6.156  -0.660  -4.397  1.00  0.00    -0.352 N 
ATOM     75  C   UNL     1       6.929  -0.553  -5.526  1.00  0.00     0.255 C 
ATOM     76  H   UNL     1       6.633  -0.586  -3.540  1.00  0.00     0.163 HD
ATOM     77  O   UNL     1       8.146  -0.419  -5.435  1.00  0.00    -0.269 OA
BRANCH  75  78
ATOM     78  C   UNL     1       6.306  -0.699  -6.854  1.00  0.00     0.082 A 
ATOM     79  C   UNL     1       6.734  -1.779  -7.638  1.00  0.00     0.025 A 
ATOM     80  C   UNL     1       5.330   0.178  -7.332  1.00  0.00     0.128 A 
ATOM     81  C   UNL     1       6.158  -2.024  -8.889  1.00  0.00    -0.025 A 
ATOM     82  C   UNL     1       4.735  -0.060  -8.567  1.00  0.00     0.047 A 
ATOM     83  C   UNL     1       5.142  -1.160  -9.332  1.00  0.00     0.012 A 
BRANCH  80  84
ATOM     84  O   UNL     1       4.942   1.257  -6.589  1.00  0.00    -0.507 OA
ATOM     85  H   UNL     1       5.341   1.421  -5.757  1.00  0.00     0.293 HD
ENDBRANCH  80  84
BRANCH  81  86
ATOM     86  C   UNL     1       6.572  -3.131  -9.771  1.00  0.00     0.009 C 
ATOM     87  C   UNL     1       7.585  -3.984  -9.543  1.00  0.00     0.009 C 
BRANCH  87  88
ATOM     88  C   UNL     1       8.001  -5.022 -10.498  1.00  0.00    -0.018 A 
ATOM     89  C   UNL     1       8.098  -4.755 -11.872  1.00  0.00     0.054 A 
ATOM     90  C   UNL     1       8.397  -6.277 -10.015  1.00  0.00     0.054 A 
ATOM     91  C   UNL     1       8.561  -5.741 -12.741  1.00  0.00     0.119 A 
ATOM     92  C   UNL     1       8.857  -7.249 -10.903  1.00  0.00     0.119 A 
ATOM     93  C   UNL     1       8.939  -6.990 -12.265  1.00  0.00     0.092 A 
BRANCH  91  94
ATOM     94  O   UNL     1       8.671  -5.508 -14.081  1.00  0.00    -0.508 OA
ATOM     95  H   UNL     1       8.425  -4.676 -14.433  1.00  0.00     0.293 HD
ENDBRANCH  91  94
BRANCH  92  96
ATOM     96  O   UNL     1       9.250  -8.480 -10.466  1.00  0.00    -0.508 OA
ATOM     97  H   UNL     1       9.557  -9.119 -11.079  1.00  0.00     0.293 HD
ENDBRANCH  92  96
ENDBRANCH  87  88
ENDBRANCH  81  86
ENDBRANCH  75  78
ENDBRANCH  73  74
ENDBRANCH   1  73
TORSDOF 16
