REMARK SMILES O=C(NCCCCNC(=O)[C@@H]1c2[nH]cnc2CCN1C(=O)CCCc1c[nH]c2ccccc12)c1ccc(-c2c3nc(c(-c4c(F)c(F)c(F)c(F)c4F)c4ccc([nH]4)c(-c4c(F)c(F)c(F)c(F)c4F)c4nc(c(-c5c(F)c(F)c(F)c(F)c5F)c5ccc2[nH]5)C=C4)C=C3)cc1
REMARK SMILES IDX 7 1 6 2 5 3 4 4 3 5 1 6 2 7 34 9 35 10 96 11 36 12 95 13
REMARK SMILES IDX 37 14 38 15 39 16 89 17 40 18 94 19 88 20 90 21 41 22 93 23
REMARK SMILES IDX 87 24 86 25 42 27 74 28 54 29 73 30 55 31 58 32 72 33 91 34
REMARK SMILES IDX 56 35 57 36 71 38 92 39 59 40 43 41 44 42 52 43 45 44 46 45
REMARK SMILES IDX 50 46 53 47 47 48 48 49 51 50 49 51 75 52 76 53 84 54 77 55
REMARK SMILES IDX 78 56 82 57 85 58 79 59 80 60 83 61 81 62 60 63 61 64 69 65
REMARK SMILES IDX 62 66 63 67 67 68 70 69 64 70 65 71 68 72 66 73 8 74 9 75
REMARK SMILES IDX 10 77 11 78 12 79 19 80 13 81 16 82 18 83 14 84 15 86 17 87
REMARK SMILES IDX 20 88 21 89 22 90 23 91 24 92 25 93 26 94 33 95 27 96 28 97
REMARK SMILES IDX 32 98 29 100 31 101 30 102
REMARK H PARENT 3 8 90 26 58 37 8 76 13 85 27 99
REMARK Flexibility Score: inf
ROOT
ATOM      1  C   UNL     1       3.984  -7.226   4.272  1.00  0.00     0.116 C 
ENDROOT
BRANCH   1   2
ATOM      2  C   UNL     1       2.864  -7.943   4.998  1.00  0.00     0.023 C 
BRANCH   2   3
ATOM      3  C   UNL     1       1.457  -7.730   4.449  1.00  0.00     0.023 C 
BRANCH   3   4
ATOM      4  C   UNL     1       1.284  -7.812   2.931  1.00  0.00     0.116 C 
BRANCH   4   5
ATOM      5  N   UNL     1       1.755  -9.018   2.283  1.00  0.00    -0.352 N 
ATOM      6  O   UNL     1       1.795 -11.005   1.299  1.00  0.00    -0.269 OA
ATOM      7  C   UNL     1       1.254 -10.282   2.142  1.00  0.00     0.251 C 
ATOM      8  H   UNL     1       2.630  -8.902   1.847  1.00  0.00     0.163 HD
BRANCH   7   9
ATOM      9  C   UNL     1       0.183 -10.857   2.991  1.00  0.00     0.039 A 
ATOM     10  C   UNL     1      -0.742 -10.119   3.728  1.00  0.00     0.014 A 
ATOM     11  C   UNL     1       0.145 -12.261   3.069  1.00  0.00     0.014 A 
ATOM     12  C   UNL     1      -1.588 -10.754   4.630  1.00  0.00     0.010 A 
ATOM     13  C   UNL     1      -0.730 -12.905   3.933  1.00  0.00     0.010 A 
ATOM     14  C   UNL     1      -1.564 -12.145   4.747  1.00  0.00    -0.014 A 
BRANCH  14  15
ATOM     15  C   UNL     1      -2.549 -12.772   5.624  1.00  0.00     0.031 A 
ATOM     16  C   UNL     1      -3.971 -12.590   5.204  1.00  0.00     0.074 A 
ATOM     17  C   UNL     1      -2.222 -13.590   6.643  1.00  0.00     0.049 A 
ATOM     18  N   UNL     1      -4.959 -12.101   5.883  1.00  0.00    -0.248 NA
ATOM     19  C   UNL     1      -4.315 -12.934   3.814  1.00  0.00     0.031 C 
ATOM     20  C   UNL     1      -0.898 -14.110   6.990  1.00  0.00     0.029 A 
ATOM     21  N   UNL     1      -3.046 -14.226   7.524  1.00  0.00    -0.354 N 
ATOM     22  C   UNL     1      -6.082 -12.204   5.062  1.00  0.00     0.074 A 
ATOM     23  C   UNL     1      -5.609 -12.618   3.767  1.00  0.00     0.031 C 
ATOM     24  C   UNL     1      -1.040 -15.144   7.849  1.00  0.00     0.029 A 
ATOM     25  C   UNL     1      -2.444 -15.274   8.205  1.00  0.00     0.049 A 
ATOM     26  H   UNL     1      -3.984 -13.964   7.665  1.00  0.00     0.167 HD
ATOM     27  C   UNL     1      -7.348 -12.118   5.555  1.00  0.00     0.037 A 
ATOM     28  C   UNL     1      -3.070 -16.226   8.940  1.00  0.00     0.037 A 
ATOM     29  C   UNL     1      -7.376 -11.490   6.847  1.00  0.00     0.049 A 
ATOM     30  C   UNL     1      -4.423 -15.723   9.283  1.00  0.00     0.074 A 
ATOM     31  C   UNL     1      -7.043 -10.240   7.330  1.00  0.00     0.029 A 
ATOM     32  N   UNL     1      -7.518 -12.287   7.954  1.00  0.00    -0.354 N 
ATOM     33  N   UNL     1      -4.655 -14.746  10.112  1.00  0.00    -0.248 NA
ATOM     34  C   UNL     1      -5.516 -16.050   8.380  1.00  0.00     0.031 C 
ATOM     35  C   UNL     1      -6.524 -10.476   8.636  1.00  0.00     0.029 A 
ATOM     36  C   UNL     1      -6.610 -11.847   8.879  1.00  0.00     0.049 A 
ATOM     37  H   UNL     1      -8.152 -13.032   8.062  1.00  0.00     0.167 HD
ATOM     38  C   UNL     1      -5.726 -14.063   9.557  1.00  0.00     0.074 A 
ATOM     39  C   UNL     1      -6.279 -14.969   8.555  1.00  0.00     0.031 C 
ATOM     40  C   UNL     1      -5.888 -12.725   9.765  1.00  0.00     0.037 A 
BRANCH  27  41
ATOM     41  C   UNL     1      -8.526 -12.901   5.027  1.00  0.00     0.064 A 
ATOM     42  C   UNL     1      -9.819 -12.617   5.513  1.00  0.00     0.173 A 
ATOM     43  C   UNL     1      -8.394 -14.114   4.319  1.00  0.00     0.173 A 
ATOM     44  F   UNL     1     -10.056 -11.498   6.214  1.00  0.00    -0.203 F 
ATOM     45  C   UNL     1     -10.874 -13.522   5.375  1.00  0.00     0.198 A 
ATOM     46  C   UNL     1      -9.463 -14.990   4.137  1.00  0.00     0.198 A 
ATOM     47  F   UNL     1      -7.209 -14.553   3.878  1.00  0.00    -0.203 F 
ATOM     48  F   UNL     1     -12.049 -13.270   5.969  1.00  0.00    -0.200 F 
ATOM     49  C   UNL     1     -10.693 -14.712   4.695  1.00  0.00     0.200 A 
ATOM     50  F   UNL     1      -9.264 -16.147   3.490  1.00  0.00    -0.200 F 
ATOM     51  F   UNL     1     -11.682 -15.612   4.621  1.00  0.00    -0.200 F 
ENDBRANCH  27  41
BRANCH  28  52
ATOM     52  C   UNL     1      -2.696 -17.650   9.108  1.00  0.00     0.064 A 
ATOM     53  C   UNL     1      -3.236 -18.426  10.147  1.00  0.00     0.173 A 
ATOM     54  C   UNL     1      -2.019 -18.351   8.091  1.00  0.00     0.173 A 
ATOM     55  F   UNL     1      -3.939 -17.843  11.129  1.00  0.00    -0.203 F 
ATOM     56  C   UNL     1      -3.122 -19.820  10.156  1.00  0.00     0.198 A 
ATOM     57  C   UNL     1      -1.897 -19.741   8.107  1.00  0.00     0.198 A 
ATOM     58  F   UNL     1      -1.546 -17.712   7.012  1.00  0.00    -0.203 F 
ATOM     59  F   UNL     1      -3.705 -20.532  11.131  1.00  0.00    -0.200 F 
ATOM     60  C   UNL     1      -2.461 -20.477   9.132  1.00  0.00     0.200 A 
ATOM     61  F   UNL     1      -1.287 -20.365   7.089  1.00  0.00    -0.200 F 
ATOM     62  F   UNL     1      -2.404 -21.815   9.108  1.00  0.00    -0.200 F 
ENDBRANCH  28  52
BRANCH  40  63
ATOM     63  C   UNL     1      -5.054 -12.076  10.830  1.00  0.00     0.064 A 
ATOM     64  C   UNL     1      -3.650 -12.005  10.791  1.00  0.00     0.173 A 
ATOM     65  C   UNL     1      -5.708 -11.379  11.854  1.00  0.00     0.173 A 
ATOM     66  F   UNL     1      -2.959 -12.555   9.785  1.00  0.00    -0.203 F 
ATOM     67  C   UNL     1      -2.937 -11.308  11.764  1.00  0.00     0.198 A 
ATOM     68  C   UNL     1      -4.995 -10.651  12.801  1.00  0.00     0.198 A 
ATOM     69  F   UNL     1      -7.050 -11.363  11.906  1.00  0.00    -0.203 F 
ATOM     70  F   UNL     1      -1.597 -11.266  11.713  1.00  0.00    -0.200 F 
ATOM     71  C   UNL     1      -3.610 -10.626  12.763  1.00  0.00     0.200 A 
ATOM     72  F   UNL     1      -5.652  -9.950  13.736  1.00  0.00    -0.200 F 
ATOM     73  F   UNL     1      -2.926  -9.919  13.674  1.00  0.00    -0.200 F 
ENDBRANCH  40  63
ENDBRANCH  14  15
ENDBRANCH   7   9
ENDBRANCH   4   5
ENDBRANCH   3   4
ENDBRANCH   2   3
ENDBRANCH   1   2
BRANCH   1  74
ATOM     74  N   UNL     1       3.753  -5.818   4.041  1.00  0.00    -0.354 N 
ATOM     75  C   UNL     1       4.689  -4.840   3.856  1.00  0.00     0.249 C 
ATOM     76  H   UNL     1       2.812  -5.530   4.014  1.00  0.00     0.163 HD
ATOM     77  O   UNL     1       4.318  -3.788   3.321  1.00  0.00    -0.272 OA
BRANCH  75  78
ATOM     78  C   UNL     1       6.185  -5.056   4.218  1.00  0.00     0.223 C 
ATOM     79  C   UNL     1       6.740  -6.239   3.455  1.00  0.00     0.071 A 
ATOM     80  N   UNL     1       6.581  -5.254   5.649  1.00  0.00    -0.325 N 
ATOM     81  N   UNL     1       6.461  -6.641   2.177  1.00  0.00    -0.346 N 
ATOM     82  C   UNL     1       7.576  -7.215   3.958  1.00  0.00     0.066 A 
ATOM     83  C   UNL     1       7.965  -5.717   5.821  1.00  0.00     0.127 C 
ATOM     84  C   UNL     1       7.015  -7.888   2.028  1.00  0.00     0.197 A 
ATOM     85  H   UNL     1       5.961  -6.134   1.498  1.00  0.00     0.167 HD
ATOM     86  N   UNL     1       7.720  -8.245   3.079  1.00  0.00    -0.242 NA
ATOM     87  C   UNL     1       8.124  -7.164   5.332  1.00  0.00     0.080 C 
BRANCH  80  88
ATOM     88  C   UNL     1       5.763  -4.830   6.681  1.00  0.00     0.223 C 
ATOM     89  O   UNL     1       4.602  -4.467   6.473  1.00  0.00    -0.275 OA
BRANCH  88  90
ATOM     90  C   UNL     1       6.296  -4.661   8.106  1.00  0.00     0.100 C 
BRANCH  90  91
ATOM     91  C   UNL     1       6.655  -5.826   9.041  1.00  0.00     0.015 C 
BRANCH  91  92
ATOM     92  C   UNL     1       8.079  -6.414   9.159  1.00  0.00     0.038 C 
BRANCH  92  93
ATOM     93  C   UNL     1       9.290  -5.527   9.004  1.00  0.00    -0.023 A 
ATOM     94  C   UNL     1       9.371  -4.157   8.838  1.00  0.00     0.087 A 
ATOM     95  C   UNL     1      10.658  -5.981   8.955  1.00  0.00     0.003 A 
ATOM     96  N   UNL     1      10.588  -3.867   8.282  1.00  0.00    -0.361 N 
ATOM     97  C   UNL     1      11.413  -4.954   8.386  1.00  0.00     0.046 A 
ATOM     98  C   UNL     1      11.325  -7.173   9.305  1.00  0.00     0.010 A 
ATOM     99  H   UNL     1      10.832  -3.007   7.869  1.00  0.00     0.166 HD
ATOM    100  C   UNL     1      12.762  -5.087   8.046  1.00  0.00     0.026 A 
ATOM    101  C   UNL     1      12.711  -7.266   9.108  1.00  0.00     0.001 A 
ATOM    102  C   UNL     1      13.409  -6.251   8.456  1.00  0.00     0.002 A 
ENDBRANCH  92  93
ENDBRANCH  91  92
ENDBRANCH  90  91
ENDBRANCH  88  90
ENDBRANCH  80  88
ENDBRANCH  75  78
ENDBRANCH   1  74
TORSDOF 16
