REMARK SMILES Cc1ccc(C(=O)NCCCCNC(=O)c2ccc(-c3c4nc(c(-c5c(F)c(F)c(F)c(F)c5F)c5ccc([nH]5)c(-c5c(F)c(F)c(F)c(F)c5F)c5nc(c(-c6c(F)c(F)c(F)c(F)c6F)c6ccc3[nH]6)C=C5)C=C4)cc2)cc1NC(=O)Cc1ccc2ccccc2c1
REMARK SMILES IDX 10 1 9 2 8 3 6 4 7 5 5 7 1 8 2 9 3 10 80 11 4 12 79 13 81 14
REMARK SMILES IDX 82 15 83 17 84 18 85 19 86 20 94 21 87 22 93 23 88 24 92 25
REMARK SMILES IDX 89 26 91 27 90 28 11 29 12 30 13 31 14 32 15 34 16 35 17 36
REMARK SMILES IDX 78 37 18 38 77 39 19 40 20 41 21 42 71 43 22 44 76 45 70 46
REMARK SMILES IDX 72 47 23 48 75 49 69 50 68 51 24 53 56 54 36 55 55 56 37 57
REMARK SMILES IDX 40 58 54 59 73 60 38 61 39 62 53 64 74 65 41 66 25 67 26 68
REMARK SMILES IDX 34 69 27 70 28 71 32 72 35 73 29 74 30 75 33 76 31 77 57 78
REMARK SMILES IDX 58 79 66 80 59 81 60 82 64 83 67 84 61 85 62 86 65 87 63 88
REMARK SMILES IDX 42 89 43 90 51 91 44 92 45 93 49 94 52 95 46 96 47 97 50 98
REMARK SMILES IDX 48 99
REMARK H PARENT 8 6 81 16 13 33 72 52 40 63
REMARK Flexibility Score: inf
ROOT
ATOM      1  C   UNL     1      -4.099   2.739  -2.088  1.00  0.00     0.023 C 
ENDROOT
BRANCH   1   2
ATOM      2  C   UNL     1      -3.738   2.295  -0.665  1.00  0.00     0.116 C 
BRANCH   2   3
ATOM      3  N   UNL     1      -3.956   0.905  -0.339  1.00  0.00    -0.352 N 
ATOM      4  C   UNL     1      -3.095  -0.093   0.065  1.00  0.00     0.251 C 
ATOM      5  O   UNL     1      -3.597  -1.175   0.375  1.00  0.00    -0.269 OA
ATOM      6  H   UNL     1      -4.894   0.616  -0.421  1.00  0.00     0.163 HD
BRANCH   4   7
ATOM      7  C   UNL     1      -1.603   0.031   0.073  1.00  0.00     0.041 A 
ATOM      8  C   UNL     1       2.722  -0.023  -0.119  1.00  0.00     0.046 C 
ATOM      9  C   UNL     1       1.221   0.102  -0.049  1.00  0.00    -0.027 A 
ATOM     10  C   UNL     1       0.507  -1.096  -0.261  1.00  0.00     0.006 A 
ATOM     11  C   UNL     1       0.514   1.290   0.255  1.00  0.00     0.044 A 
ATOM     12  C   UNL     1      -0.885  -1.124  -0.235  1.00  0.00     0.014 A 
ATOM     13  C   UNL     1      -0.883   1.189   0.410  1.00  0.00     0.040 A 
BRANCH  11  14
ATOM     14  N   UNL     1       1.236   2.517   0.363  1.00  0.00    -0.326 N 
ATOM     15  C   UNL     1       0.887   3.859   0.363  1.00  0.00     0.228 C 
ATOM     16  H   UNL     1       2.206   2.378   0.461  1.00  0.00     0.169 HD
ATOM     17  O   UNL     1       1.797   4.688   0.421  1.00  0.00    -0.274 OA
BRANCH  15  18
ATOM     18  C   UNL     1      -0.566   4.235   0.287  1.00  0.00     0.135 C 
BRANCH  18  19
ATOM     19  C   UNL     1      -1.109   5.609  -0.035  1.00  0.00    -0.038 A 
ATOM     20  C   UNL     1      -2.485   5.635  -0.321  1.00  0.00     0.005 A 
ATOM     21  C   UNL     1      -0.440   6.834  -0.010  1.00  0.00     0.013 A 
ATOM     22  C   UNL     1      -3.163   6.795  -0.656  1.00  0.00     0.009 A 
ATOM     23  C   UNL     1      -1.134   8.048  -0.281  1.00  0.00    -0.018 A 
ATOM     24  C   UNL     1      -2.505   8.010  -0.630  1.00  0.00    -0.018 A 
ATOM     25  C   UNL     1      -0.537   9.316  -0.163  1.00  0.00     0.009 A 
ATOM     26  C   UNL     1      -3.225   9.181  -0.895  1.00  0.00     0.009 A 
ATOM     27  C   UNL     1      -1.279  10.488  -0.367  1.00  0.00     0.001 A 
ATOM     28  C   UNL     1      -2.615  10.420  -0.749  1.00  0.00     0.001 A 
ENDBRANCH  18  19
ENDBRANCH  15  18
ENDBRANCH  11  14
ENDBRANCH   4   7
ENDBRANCH   2   3
ENDBRANCH   1   2
BRANCH   1  29
ATOM     29  C   UNL     1      -5.582   2.954  -2.397  1.00  0.00     0.023 C 
BRANCH  29  30
ATOM     30  C   UNL     1      -6.301   3.967  -1.510  1.00  0.00     0.116 C 
BRANCH  30  31
ATOM     31  N   UNL     1      -6.405   5.335  -1.996  1.00  0.00    -0.352 N 
ATOM     32  C   UNL     1      -6.831   6.484  -1.329  1.00  0.00     0.251 C 
ATOM     33  H   UNL     1      -6.136   5.470  -2.933  1.00  0.00     0.163 HD
ATOM     34  O   UNL     1      -6.934   7.531  -1.939  1.00  0.00    -0.269 OA
BRANCH  32  35
ATOM     35  C   UNL     1      -7.043   6.476   0.152  1.00  0.00     0.039 A 
ATOM     36  C   UNL     1      -6.763   7.635   0.902  1.00  0.00     0.014 A 
ATOM     37  C   UNL     1      -7.430   5.326   0.821  1.00  0.00     0.014 A 
ATOM     38  C   UNL     1      -6.716   7.582   2.304  1.00  0.00     0.010 A 
ATOM     39  C   UNL     1      -7.256   5.232   2.182  1.00  0.00     0.010 A 
ATOM     40  C   UNL     1      -6.890   6.355   2.933  1.00  0.00    -0.014 A 
BRANCH  40  41
ATOM     41  C   UNL     1      -6.820   6.075   4.364  1.00  0.00     0.031 A 
ATOM     42  C   UNL     1      -8.081   5.761   5.088  1.00  0.00     0.074 A 
ATOM     43  C   UNL     1      -5.633   5.646   4.851  1.00  0.00     0.049 A 
ATOM     44  N   UNL     1      -8.144   5.404   6.325  1.00  0.00    -0.248 NA
ATOM     45  C   UNL     1      -9.402   5.857   4.461  1.00  0.00     0.031 C 
ATOM     46  C   UNL     1      -5.412   4.659   5.907  1.00  0.00     0.029 A 
ATOM     47  N   UNL     1      -4.356   6.170   4.597  1.00  0.00    -0.354 N 
ATOM     48  C   UNL     1      -9.406   4.901   6.543  1.00  0.00     0.074 A 
ATOM     49  C   UNL     1     -10.185   5.344   5.416  1.00  0.00     0.031 C 
ATOM     50  C   UNL     1      -4.173   4.809   6.399  1.00  0.00     0.029 A 
ATOM     51  C   UNL     1      -3.646   6.029   5.821  1.00  0.00     0.049 A 
ATOM     52  H   UNL     1      -4.024   6.553   3.753  1.00  0.00     0.167 HD
ATOM     53  C   UNL     1      -9.596   4.034   7.576  1.00  0.00     0.037 A 
ATOM     54  C   UNL     1      -3.261   7.117   6.557  1.00  0.00     0.037 A 
ATOM     55  C   UNL     1      -8.449   4.048   8.481  1.00  0.00     0.049 A 
ATOM     56  C   UNL     1      -3.787   7.149   7.965  1.00  0.00     0.074 A 
ATOM     57  C   UNL     1      -7.424   3.156   8.733  1.00  0.00     0.029 A 
ATOM     58  N   UNL     1      -8.107   5.241   9.113  1.00  0.00    -0.354 N 
ATOM     59  N   UNL     1      -4.818   6.462   8.363  1.00  0.00    -0.248 NA
ATOM     60  C   UNL     1      -3.237   8.006   9.010  1.00  0.00     0.031 C 
ATOM     61  C   UNL     1      -6.405   3.862   9.430  1.00  0.00     0.029 A 
ATOM     62  C   UNL     1      -6.837   5.161   9.644  1.00  0.00     0.049 A 
ATOM     63  H   UNL     1      -8.691   6.031   9.171  1.00  0.00     0.167 HD
ATOM     64  C   UNL     1      -5.117   6.808   9.650  1.00  0.00     0.074 A 
ATOM     65  C   UNL     1      -4.079   7.750  10.025  1.00  0.00     0.031 C 
ATOM     66  C   UNL     1      -6.223   6.318  10.279  1.00  0.00     0.037 A 
BRANCH  53  67
ATOM     67  C   UNL     1     -10.720   3.022   7.700  1.00  0.00     0.064 A 
ATOM     68  C   UNL     1     -10.832   2.236   8.870  1.00  0.00     0.173 A 
ATOM     69  C   UNL     1     -11.625   2.674   6.674  1.00  0.00     0.173 A 
ATOM     70  F   UNL     1     -10.031   2.445   9.924  1.00  0.00    -0.203 F 
ATOM     71  C   UNL     1     -11.756   1.190   8.992  1.00  0.00     0.198 A 
ATOM     72  C   UNL     1     -12.585   1.666   6.819  1.00  0.00     0.198 A 
ATOM     73  F   UNL     1     -11.585   3.240   5.463  1.00  0.00    -0.203 F 
ATOM     74  F   UNL     1     -11.770   0.440  10.103  1.00  0.00    -0.200 F 
ATOM     75  C   UNL     1     -12.641   0.914   7.971  1.00  0.00     0.200 A 
ATOM     76  F   UNL     1     -13.434   1.411   5.812  1.00  0.00    -0.200 F 
ATOM     77  F   UNL     1     -13.528  -0.084   8.086  1.00  0.00    -0.200 F 
ENDBRANCH  53  67
BRANCH  54  78
ATOM     78  C   UNL     1      -3.096   8.331   5.717  1.00  0.00     0.064 A 
ATOM     79  C   UNL     1      -2.113   8.273   4.719  1.00  0.00     0.173 A 
ATOM     80  C   UNL     1      -4.178   9.203   5.536  1.00  0.00     0.173 A 
ATOM     81  F   UNL     1      -1.052   7.463   4.868  1.00  0.00    -0.203 F 
ATOM     82  C   UNL     1      -2.323   8.886   3.494  1.00  0.00     0.198 A 
ATOM     83  C   UNL     1      -4.371   9.831   4.309  1.00  0.00     0.198 A 
ATOM     84  F   UNL     1      -5.121   9.326   6.481  1.00  0.00    -0.203 F 
ATOM     85  F   UNL     1      -1.450   8.667   2.508  1.00  0.00    -0.200 F 
ATOM     86  C   UNL     1      -3.476   9.622   3.271  1.00  0.00     0.200 A 
ATOM     87  F   UNL     1      -5.484  10.547   4.091  1.00  0.00    -0.200 F 
ATOM     88  F   UNL     1      -3.761  10.093   2.051  1.00  0.00    -0.200 F 
ENDBRANCH  54  78
BRANCH  66  89
ATOM     89  C   UNL     1      -6.770   6.847  11.576  1.00  0.00     0.064 A 
ATOM     90  C   UNL     1      -6.643   8.185  11.988  1.00  0.00     0.173 A 
ATOM     91  C   UNL     1      -7.566   6.024  12.403  1.00  0.00     0.173 A 
ATOM     92  F   UNL     1      -6.035   9.098  11.217  1.00  0.00    -0.203 F 
ATOM     93  C   UNL     1      -7.189   8.643  13.189  1.00  0.00     0.198 A 
ATOM     94  C   UNL     1      -8.160   6.499  13.571  1.00  0.00     0.198 A 
ATOM     95  F   UNL     1      -7.806   4.743  12.086  1.00  0.00    -0.203 F 
ATOM     96  F   UNL     1      -6.991   9.914  13.566  1.00  0.00    -0.200 F 
ATOM     97  C   UNL     1      -7.951   7.801  13.977  1.00  0.00     0.200 A 
ATOM     98  F   UNL     1      -8.947   5.690  14.294  1.00  0.00    -0.200 F 
ATOM     99  F   UNL     1      -8.502   8.252  15.112  1.00  0.00    -0.200 F 
ENDBRANCH  66  89
ENDBRANCH  40  41
ENDBRANCH  32  35
ENDBRANCH  30  31
ENDBRANCH  29  30
ENDBRANCH   1  29
TORSDOF 14
