REMARK SMILES CCN1C(=O)[C@@H](CC(=O)Nc2cccc(C(=O)NCCCCNC(=O)c3ccc(-c4c5nc(c(-c6c(F)c(F)c(F)c(F)c6F)c6ccc([nH]6)c(-c6c(F)c(F)c(F)c(F)c6F)c6nc(c(-c7c(F)c(F)c(F)c(F)c7F)c7ccc4[nH]7)C=C6)C=C5)cc3)c2)S/C1=[NH+]\c1cc(Cl)c(O)c(Cl)c1
REMARK SMILES IDX 19 1 18 2 16 3 17 4 15 6 11 7 12 8 89 9 13 10 14 11 10 12
REMARK SMILES IDX 8 13 9 14 7 16 6 17 3 18 4 19 91 20 5 21 90 22 92 23 2 25
REMARK SMILES IDX 1 26 93 27 94 28 101 29 95 30 99 31 96 32 97 33 100 34 98 35
REMARK SMILES IDX 20 37 21 38 22 39 23 40 24 41 25 43 26 44 27 45 88 46 28 47
REMARK SMILES IDX 87 48 29 49 30 50 31 51 81 52 32 53 86 54 80 55 82 56 33 57
REMARK SMILES IDX 85 58 79 59 78 60 34 62 66 63 46 64 65 65 47 66 50 67 64 68
REMARK SMILES IDX 83 69 48 70 49 71 63 73 84 74 51 75 35 76 36 77 44 78 37 79
REMARK SMILES IDX 38 80 42 81 45 82 39 83 40 84 43 85 41 86 67 87 68 88 76 89
REMARK SMILES IDX 69 90 70 91 74 92 77 93 71 94 72 95 75 96 73 97 52 98 53 99
REMARK SMILES IDX 61 100 54 101 55 102 59 103 62 104 56 105 57 106 60 107
REMARK SMILES IDX 58 108
REMARK H PARENT 18 5 10 15 92 24 98 36 23 42 82 61 50 72
REMARK Flexibility Score: inf
ROOT
ATOM      1  C   UNL     1      -1.198  -3.145   2.945  1.00  0.00     0.116 C 
ENDROOT
BRANCH   1   2
ATOM      2  N   UNL     1      -2.214  -4.109   3.277  1.00  0.00    -0.352 N 
ATOM      3  C   UNL     1      -2.260  -5.460   3.004  1.00  0.00     0.251 C 
ATOM      4  O   UNL     1      -3.208  -6.109   3.444  1.00  0.00    -0.269 OA
ATOM      5  H   UNL     1      -2.988  -3.752   3.771  1.00  0.00     0.163 HD
BRANCH   3   6
ATOM      6  C   UNL     1      -1.255  -6.148   2.135  1.00  0.00     0.041 A 
ATOM      7  C   UNL     1       0.984  -6.493   1.227  1.00  0.00     0.041 A 
ATOM      8  C   UNL     1       0.437  -7.422   0.326  1.00  0.00     0.026 A 
ATOM      9  C   UNL     1       0.135  -5.917   2.180  1.00  0.00     0.040 A 
ATOM     10  C   UNL     1      -0.922  -7.731   0.335  1.00  0.00     0.003 A 
ATOM     11  C   UNL     1      -1.768  -7.082   1.226  1.00  0.00     0.014 A 
BRANCH   7  12
ATOM     12  N   UNL     1       2.337  -6.170   0.993  1.00  0.00    -0.326 N 
ATOM     13  C   UNL     1       3.232  -5.264   1.465  1.00  0.00     0.226 C 
ATOM     14  O   UNL     1       4.285  -5.122   0.832  1.00  0.00    -0.275 OA
ATOM     15  H   UNL     1       2.737  -6.754   0.308  1.00  0.00     0.169 HD
BRANCH  13  16
ATOM     16  C   UNL     1       3.027  -4.443   2.705  1.00  0.00     0.128 C 
BRANCH  16  17
ATOM     17  C   UNL     1       2.292  -3.127   2.505  1.00  0.00     0.183 C 
ATOM     18  N   UNL     1       1.926  -1.374   0.888  1.00  0.00    -0.190 N 
ATOM     19  C   UNL     1       1.817  -2.735   1.121  1.00  0.00     0.324 C 
ATOM     20  C   UNL     1       2.589  -0.633   1.835  1.00  0.00     0.319 C 
ATOM     21  O   UNL     1       1.244  -3.507   0.359  1.00  0.00    -0.245 OA
ATOM     22  S   UNL     1       3.151  -1.671   3.127  1.00  0.00    -0.022 SA
ATOM     23  N   UNL     1       2.722   0.645   1.740  1.00  0.00    -0.235 N 
ATOM     24  H   UNL     1       2.395   1.066   0.912  1.00  0.00     0.313 HD
BRANCH  18  25
ATOM     25  C   UNL     1       1.261  -0.881  -0.323  1.00  0.00     0.243 C 
ATOM     26  C   UNL     1       1.273   0.601  -0.643  1.00  0.00     0.054 C 
ENDBRANCH  18  25
BRANCH  23  27
ATOM     27  C   UNL     1       3.287   1.496   2.703  1.00  0.00     0.128 A 
ATOM     28  C   UNL     1       2.648   2.727   2.909  1.00  0.00     0.076 A 
ATOM     29  C   UNL     1       4.463   1.237   3.410  1.00  0.00     0.076 A 
ATOM     30  C   UNL     1       3.123   3.639   3.857  1.00  0.00     0.088 A 
ATOM     31  C   UNL     1       4.903   2.118   4.400  1.00  0.00     0.088 A 
ATOM     32  Cl  UNL     1       2.316   5.158   4.025  1.00  0.00    -0.080 Cl
ATOM     33  C   UNL     1       4.232   3.318   4.635  1.00  0.00     0.153 A 
ATOM     34  Cl  UNL     1       6.301   1.706   5.327  1.00  0.00    -0.080 Cl
BRANCH  33  35
ATOM     35  O   UNL     1       4.657   4.181   5.612  1.00  0.00    -0.505 OA
ATOM     36  H   UNL     1       4.197   4.984   5.761  1.00  0.00     0.293 HD
ENDBRANCH  33  35
ENDBRANCH  23  27
ENDBRANCH  16  17
ENDBRANCH  13  16
ENDBRANCH   7  12
ENDBRANCH   3   6
ENDBRANCH   1   2
BRANCH   1  37
ATOM     37  C   UNL     1      -1.667  -1.801   2.407  1.00  0.00     0.023 C 
BRANCH  37  38
ATOM     38  C   UNL     1      -2.319  -0.839   3.390  1.00  0.00     0.023 C 
BRANCH  38  39
ATOM     39  C   UNL     1      -1.620  -0.633   4.729  1.00  0.00     0.116 C 
BRANCH  39  40
ATOM     40  N   UNL     1      -0.218  -0.248   4.651  1.00  0.00    -0.352 N 
ATOM     41  C   UNL     1       0.441   0.724   5.369  1.00  0.00     0.251 C 
ATOM     42  H   UNL     1       0.328  -0.747   4.002  1.00  0.00     0.163 HD
ATOM     43  O   UNL     1       1.657   0.834   5.323  1.00  0.00    -0.269 OA
BRANCH  41  44
ATOM     44  C   UNL     1      -0.341   1.665   6.185  1.00  0.00     0.039 A 
ATOM     45  C   UNL     1      -0.316   3.022   5.860  1.00  0.00     0.014 A 
ATOM     46  C   UNL     1      -1.126   1.194   7.235  1.00  0.00     0.014 A 
ATOM     47  C   UNL     1      -1.122   3.916   6.561  1.00  0.00     0.010 A 
ATOM     48  C   UNL     1      -1.990   2.071   7.877  1.00  0.00     0.010 A 
ATOM     49  C   UNL     1      -1.993   3.439   7.550  1.00  0.00    -0.014 A 
BRANCH  49  50
ATOM     50  C   UNL     1      -2.901   4.342   8.297  1.00  0.00     0.031 A 
ATOM     51  C   UNL     1      -2.741   4.461   9.784  1.00  0.00     0.074 A 
ATOM     52  C   UNL     1      -3.918   4.957   7.665  1.00  0.00     0.049 A 
ATOM     53  N   UNL     1      -3.548   4.982  10.670  1.00  0.00    -0.248 NA
ATOM     54  C   UNL     1      -1.521   3.866  10.354  1.00  0.00     0.031 C 
ATOM     55  C   UNL     1      -4.176   4.911   6.226  1.00  0.00     0.029 A 
ATOM     56  N   UNL     1      -4.941   5.723   8.163  1.00  0.00    -0.354 N 
ATOM     57  C   UNL     1      -2.961   4.730  11.903  1.00  0.00     0.074 A 
ATOM     58  C   UNL     1      -1.751   3.978  11.652  1.00  0.00     0.031 C 
ATOM     59  C   UNL     1      -5.277   5.630   5.954  1.00  0.00     0.029 A 
ATOM     60  C   UNL     1      -5.833   6.137   7.204  1.00  0.00     0.049 A 
ATOM     61  H   UNL     1      -5.027   5.955   9.116  1.00  0.00     0.167 HD
ATOM     62  C   UNL     1      -3.392   5.103  13.131  1.00  0.00     0.037 A 
ATOM     63  C   UNL     1      -6.982   6.827   7.329  1.00  0.00     0.037 A 
ATOM     64  C   UNL     1      -4.572   5.896  13.357  1.00  0.00     0.049 A 
ATOM     65  C   UNL     1      -7.438   7.239   8.702  1.00  0.00     0.074 A 
ATOM     66  C   UNL     1      -5.071   6.385  14.550  1.00  0.00     0.029 A 
ATOM     67  N   UNL     1      -5.435   6.322  12.356  1.00  0.00    -0.354 N 
ATOM     68  N   UNL     1      -6.874   7.011   9.864  1.00  0.00    -0.248 NA
ATOM     69  C   UNL     1      -8.692   8.000   8.782  1.00  0.00     0.031 C 
ATOM     70  C   UNL     1      -6.257   7.075  14.276  1.00  0.00     0.029 A 
ATOM     71  C   UNL     1      -6.472   7.057  12.906  1.00  0.00     0.049 A 
ATOM     72  H   UNL     1      -5.325   6.131  11.396  1.00  0.00     0.167 HD
ATOM     73  C   UNL     1      -7.686   7.620  10.810  1.00  0.00     0.074 A 
ATOM     74  C   UNL     1      -8.778   8.238  10.083  1.00  0.00     0.031 C 
ATOM     75  C   UNL     1      -7.544   7.666  12.158  1.00  0.00     0.037 A 
BRANCH  62  76
ATOM     76  C   UNL     1      -2.590   4.638  14.314  1.00  0.00     0.064 A 
ATOM     77  C   UNL     1      -1.290   5.107  14.562  1.00  0.00     0.173 A 
ATOM     78  C   UNL     1      -3.127   3.697  15.206  1.00  0.00     0.173 A 
ATOM     79  F   UNL     1      -0.723   5.996  13.733  1.00  0.00    -0.203 F 
ATOM     80  C   UNL     1      -0.541   4.615  15.629  1.00  0.00     0.198 A 
ATOM     81  C   UNL     1      -2.388   3.236  16.293  1.00  0.00     0.198 A 
ATOM     82  F   UNL     1      -4.366   3.218  15.022  1.00  0.00    -0.203 F 
ATOM     83  F   UNL     1       0.724   5.023  15.800  1.00  0.00    -0.200 F 
ATOM     84  C   UNL     1      -1.092   3.684  16.495  1.00  0.00     0.200 A 
ATOM     85  F   UNL     1      -2.927   2.345  17.137  1.00  0.00    -0.200 F 
ATOM     86  F   UNL     1      -0.368   3.209  17.518  1.00  0.00    -0.200 F 
ENDBRANCH  62  76
BRANCH  63  87
ATOM     87  C   UNL     1      -7.763   7.186   6.117  1.00  0.00     0.064 A 
ATOM     88  C   UNL     1      -7.822   8.516   5.676  1.00  0.00     0.173 A 
ATOM     89  C   UNL     1      -8.440   6.218   5.361  1.00  0.00     0.173 A 
ATOM     90  F   UNL     1      -7.209   9.480   6.377  1.00  0.00    -0.203 F 
ATOM     91  C   UNL     1      -8.534   8.864   4.530  1.00  0.00     0.198 A 
ATOM     92  C   UNL     1      -9.130   6.564   4.201  1.00  0.00     0.198 A 
ATOM     93  F   UNL     1      -8.412   4.931   5.737  1.00  0.00    -0.203 F 
ATOM     94  F   UNL     1      -8.599  10.147   4.149  1.00  0.00    -0.200 F 
ATOM     95  C   UNL     1      -9.181   7.887   3.788  1.00  0.00     0.200 A 
ATOM     96  F   UNL     1      -9.741   5.615   3.478  1.00  0.00    -0.200 F 
ATOM     97  F   UNL     1      -9.854   8.221   2.679  1.00  0.00    -0.200 F 
ENDBRANCH  63  87
BRANCH  75  98
ATOM     98  C   UNL     1      -8.573   8.440  12.928  1.00  0.00     0.064 A 
ATOM     99  C   UNL     1      -9.876   7.954  13.110  1.00  0.00     0.173 A 
ATOM    100  C   UNL     1      -8.236   9.663  13.527  1.00  0.00     0.173 A 
ATOM    101  F   UNL     1     -10.250   6.797  12.543  1.00  0.00    -0.203 F 
ATOM    102  C   UNL     1     -10.811   8.678  13.844  1.00  0.00     0.198 A 
ATOM    103  C   UNL     1      -9.165  10.369  14.285  1.00  0.00     0.198 A 
ATOM    104  F   UNL     1      -7.000  10.167  13.387  1.00  0.00    -0.203 F 
ATOM    105  F   UNL     1     -12.064   8.218  13.967  1.00  0.00    -0.200 F 
ATOM    106  C   UNL     1     -10.453   9.879  14.437  1.00  0.00     0.200 A 
ATOM    107  F   UNL     1      -8.813  11.523  14.869  1.00  0.00    -0.200 F 
ATOM    108  F   UNL     1     -11.353  10.570  15.151  1.00  0.00    -0.200 F 
ENDBRANCH  75  98
ENDBRANCH  49  50
ENDBRANCH  41  44
ENDBRANCH  39  40
ENDBRANCH  38  39
ENDBRANCH  37  38
ENDBRANCH   1  37
TORSDOF 17
