REMARK SMILES COc1cc2cc(C(=O)NCCCCNC(=O)c3ccc(-c4c5nc(c(-c6c(F)c(F)c(F)c(F)c6F)c6ccc([nH]6)c(-c6c(F)c(F)c(F)c(F)c6F)c6nc(c(-c7c(F)c(F)c(F)c(F)c7F)c7ccc4[nH]7)C=C6)C=C5)cc3)n(Cc3ccccc3)c2c(OC)c1OC
REMARK SMILES IDX 12 1 11 2 10 3 8 4 9 5 7 7 3 8 4 9 93 10 5 11 90 12 6 13
REMARK SMILES IDX 89 14 81 15 2 16 1 17 94 18 95 19 91 20 92 21 82 22 83 23
REMARK SMILES IDX 84 24 88 25 85 26 87 27 86 28 13 29 14 30 15 31 16 32 17 34
REMARK SMILES IDX 18 35 19 36 80 37 20 38 79 39 21 40 22 41 23 42 73 43 24 44
REMARK SMILES IDX 78 45 72 46 74 47 25 48 77 49 71 50 70 51 26 53 58 54 38 55
REMARK SMILES IDX 57 56 39 57 42 58 56 59 75 60 40 61 41 62 55 64 76 65 43 66
REMARK SMILES IDX 27 67 28 68 36 69 29 70 30 71 34 72 37 73 31 74 32 75 35 76
REMARK SMILES IDX 33 77 59 78 60 79 68 80 61 81 62 82 66 83 69 84 63 85 64 86
REMARK SMILES IDX 67 87 65 88 44 89 45 90 53 91 46 92 47 93 51 94 54 95 48 96
REMARK SMILES IDX 49 97 52 98 50 99
REMARK H PARENT 10 6 15 33 74 52 42 63
REMARK Flexibility Score: inf
ROOT
ATOM      1  C   UNL     1       2.890  -9.995   1.566  1.00  0.00     0.023 C 
ENDROOT
BRANCH   1   2
ATOM      2  C   UNL     1       1.883  -9.414   0.575  1.00  0.00     0.116 C 
BRANCH   2   3
ATOM      3  N   UNL     1       0.623  -9.129   1.226  1.00  0.00    -0.351 N 
ATOM      4  C   UNL     1      -0.054  -7.986   1.553  1.00  0.00     0.267 C 
ATOM      5  O   UNL     1      -1.189  -8.199   1.999  1.00  0.00    -0.268 OA
ATOM      6  H   UNL     1       0.143  -9.945   1.496  1.00  0.00     0.163 HD
BRANCH   4   7
ATOM      7  C   UNL     1       0.425  -6.617   1.381  1.00  0.00     0.108 A 
ATOM      8  C   UNL     1       0.929  -1.993   0.965  1.00  0.00     0.165 A 
ATOM      9  C   UNL     1      -0.087  -2.955   1.117  1.00  0.00     0.061 A 
ATOM     10  C   UNL     1       2.270  -2.366   0.768  1.00  0.00     0.205 A 
ATOM     11  C   UNL     1       0.257  -4.319   1.170  1.00  0.00     0.008 A 
ATOM     12  C   UNL     1       2.604  -3.742   0.712  1.00  0.00     0.189 A 
ATOM     13  C   UNL     1      -0.459  -5.531   1.318  1.00  0.00     0.042 A 
ATOM     14  C   UNL     1       1.589  -4.676   1.046  1.00  0.00     0.096 A 
ATOM     15  N   UNL     1       1.678  -6.023   1.444  1.00  0.00    -0.329 N 
BRANCH   8  16
ATOM     16  O   UNL     1       0.568  -0.682   1.158  1.00  0.00    -0.493 OA
ATOM     17  C   UNL     1       0.005  -0.100  -0.017  1.00  0.00     0.278 C 
ENDBRANCH   8  16
BRANCH  10  18
ATOM     18  O   UNL     1       3.338  -1.510   0.730  1.00  0.00    -0.490 OA
ATOM     19  C   UNL     1       3.175  -0.145   0.401  1.00  0.00     0.278 C 
ENDBRANCH  10  18
BRANCH  12  20
ATOM     20  O   UNL     1       3.807  -4.292   0.361  1.00  0.00    -0.491 OA
ATOM     21  C   UNL     1       4.949  -3.477   0.167  1.00  0.00     0.278 C 
ENDBRANCH  12  20
BRANCH  15  22
ATOM     22  C   UNL     1       2.961  -6.538   1.928  1.00  0.00     0.158 C 
BRANCH  22  23
ATOM     23  C   UNL     1       3.086  -7.216   3.269  1.00  0.00    -0.028 A 
ATOM     24  C   UNL     1       2.041  -7.577   4.123  1.00  0.00     0.005 A 
ATOM     25  C   UNL     1       4.403  -7.576   3.637  1.00  0.00     0.005 A 
ATOM     26  C   UNL     1       2.295  -8.380   5.241  1.00  0.00     0.000 A 
ATOM     27  C   UNL     1       4.657  -8.350   4.765  1.00  0.00     0.000 A 
ATOM     28  C   UNL     1       3.596  -8.778   5.553  1.00  0.00     0.000 A 
ENDBRANCH  22  23
ENDBRANCH  15  22
ENDBRANCH   4   7
ENDBRANCH   2   3
ENDBRANCH   1   2
BRANCH   1  29
ATOM     29  C   UNL     1       2.836 -11.504   1.806  1.00  0.00     0.023 C 
BRANCH  29  30
ATOM     30  C   UNL     1       3.270 -12.354   0.617  1.00  0.00     0.116 C 
BRANCH  30  31
ATOM     31  N   UNL     1       4.553 -11.964   0.068  1.00  0.00    -0.352 N 
ATOM     32  C   UNL     1       5.853 -12.288   0.326  1.00  0.00     0.251 C 
ATOM     33  H   UNL     1       4.466 -11.312  -0.664  1.00  0.00     0.163 HD
ATOM     34  O   UNL     1       6.692 -11.806  -0.446  1.00  0.00    -0.269 OA
BRANCH  32  35
ATOM     35  C   UNL     1       6.334 -13.110   1.467  1.00  0.00     0.039 A 
ATOM     36  C   UNL     1       5.542 -13.602   2.504  1.00  0.00     0.014 A 
ATOM     37  C   UNL     1       7.725 -13.328   1.523  1.00  0.00     0.014 A 
ATOM     38  C   UNL     1       6.129 -14.192   3.617  1.00  0.00     0.010 A 
ATOM     39  C   UNL     1       8.316 -13.941   2.619  1.00  0.00     0.010 A 
ATOM     40  C   UNL     1       7.517 -14.325   3.689  1.00  0.00    -0.014 A 
BRANCH  40  41
ATOM     41  C   UNL     1       8.072 -15.002   4.856  1.00  0.00     0.031 A 
ATOM     42  C   UNL     1       7.624 -16.419   5.005  1.00  0.00     0.074 A 
ATOM     43  C   UNL     1       8.995 -14.441   5.662  1.00  0.00     0.049 A 
ATOM     44  N   UNL     1       7.006 -16.970   6.000  1.00  0.00    -0.248 NA
ATOM     45  C   UNL     1       7.779 -17.304   3.837  1.00  0.00     0.031 C 
ATOM     46  C   UNL     1       9.715 -13.181   5.466  1.00  0.00     0.029 A 
ATOM     47  N   UNL     1       9.562 -14.938   6.798  1.00  0.00    -0.354 N 
ATOM     48  C   UNL     1       6.844 -18.311   5.654  1.00  0.00     0.074 A 
ATOM     49  C   UNL     1       7.203 -18.426   4.266  1.00  0.00     0.031 C 
ATOM     50  C   UNL     1      10.772 -13.133   6.309  1.00  0.00     0.029 A 
ATOM     51  C   UNL     1      10.728 -14.290   7.186  1.00  0.00     0.049 A 
ATOM     52  H   UNL     1       9.177 -15.692   7.301  1.00  0.00     0.167 HD
ATOM     53  C   UNL     1       6.644 -19.272   6.597  1.00  0.00     0.037 A 
ATOM     54  C   UNL     1      11.624 -14.728   8.107  1.00  0.00     0.037 A 
ATOM     55  C   UNL     1       6.121 -18.713   7.814  1.00  0.00     0.049 A 
ATOM     56  C   UNL     1      10.937 -15.744   8.943  1.00  0.00     0.074 A 
ATOM     57  C   UNL     1       4.971 -18.026   8.145  1.00  0.00     0.029 A 
ATOM     58  N   UNL     1       6.983 -18.524   8.864  1.00  0.00    -0.354 N 
ATOM     59  N   UNL     1       9.966 -15.476   9.771  1.00  0.00    -0.248 NA
ATOM     60  C   UNL     1      11.044 -17.136   8.530  1.00  0.00     0.031 C 
ATOM     61  C   UNL     1       5.382 -17.068   9.116  1.00  0.00     0.029 A 
ATOM     62  C   UNL     1       6.741 -17.271   9.361  1.00  0.00     0.049 A 
ATOM     63  H   UNL     1       7.650 -19.167   9.197  1.00  0.00     0.167 HD
ATOM     64  C   UNL     1       9.100 -16.553   9.655  1.00  0.00     0.074 A 
ATOM     65  C   UNL     1       9.853 -17.578   8.938  1.00  0.00     0.031 C 
ATOM     66  C   UNL     1       7.766 -16.411   9.898  1.00  0.00     0.037 A 
BRANCH  53  67
ATOM     67  C   UNL     1       7.269 -20.645   6.539  1.00  0.00     0.064 A 
ATOM     68  C   UNL     1       6.922 -21.605   7.511  1.00  0.00     0.173 A 
ATOM     69  C   UNL     1       8.411 -20.950   5.766  1.00  0.00     0.173 A 
ATOM     70  F   UNL     1       5.872 -21.409   8.322  1.00  0.00    -0.203 F 
ATOM     71  C   UNL     1       7.705 -22.741   7.739  1.00  0.00     0.198 A 
ATOM     72  C   UNL     1       9.157 -22.110   5.960  1.00  0.00     0.198 A 
ATOM     73  F   UNL     1       8.920 -20.092   4.874  1.00  0.00    -0.203 F 
ATOM     74  F   UNL     1       7.410 -23.557   8.760  1.00  0.00    -0.200 F 
ATOM     75  C   UNL     1       8.825 -22.989   6.967  1.00  0.00     0.200 A 
ATOM     76  F   UNL     1      10.252 -22.320   5.215  1.00  0.00    -0.200 F 
ATOM     77  F   UNL     1       9.611 -24.042   7.225  1.00  0.00    -0.200 F 
ENDBRANCH  53  67
BRANCH  54  78
ATOM     78  C   UNL     1      13.106 -14.606   8.082  1.00  0.00     0.064 A 
ATOM     79  C   UNL     1      13.873 -14.912   9.220  1.00  0.00     0.173 A 
ATOM     80  C   UNL     1      13.816 -14.477   6.872  1.00  0.00     0.173 A 
ATOM     81  F   UNL     1      13.276 -15.095  10.407  1.00  0.00    -0.203 F 
ATOM     82  C   UNL     1      15.257 -15.111   9.144  1.00  0.00     0.198 A 
ATOM     83  C   UNL     1      15.197 -14.666   6.799  1.00  0.00     0.198 A 
ATOM     84  F   UNL     1      13.174 -14.262   5.715  1.00  0.00    -0.203 F 
ATOM     85  F   UNL     1      15.942 -15.471  10.239  1.00  0.00    -0.200 F 
ATOM     86  C   UNL     1      15.915 -15.000   7.931  1.00  0.00     0.200 A 
ATOM     87  F   UNL     1      15.816 -14.590   5.612  1.00  0.00    -0.200 F 
ATOM     88  F   UNL     1      17.228 -15.256   7.845  1.00  0.00    -0.200 F 
ENDBRANCH  54  78
BRANCH  66  89
ATOM     89  C   UNL     1       7.289 -15.144  10.545  1.00  0.00     0.064 A 
ATOM     90  C   UNL     1       7.345 -13.883   9.927  1.00  0.00     0.173 A 
ATOM     91  C   UNL     1       6.556 -15.252  11.734  1.00  0.00     0.173 A 
ATOM     92  F   UNL     1       7.953 -13.720   8.744  1.00  0.00    -0.203 F 
ATOM     93  C   UNL     1       6.700 -12.780  10.484  1.00  0.00     0.198 A 
ATOM     94  C   UNL     1       5.884 -14.157  12.268  1.00  0.00     0.198 A 
ATOM     95  F   UNL     1       6.429 -16.444  12.337  1.00  0.00    -0.203 F 
ATOM     96  F   UNL     1       6.752 -11.589   9.869  1.00  0.00    -0.200 F 
ATOM     97  C   UNL     1       5.957 -12.922  11.645  1.00  0.00     0.200 A 
ATOM     98  F   UNL     1       5.125 -14.312  13.362  1.00  0.00    -0.200 F 
ATOM     99  F   UNL     1       5.282 -11.878  12.144  1.00  0.00    -0.200 F 
ENDBRANCH  66  89
ENDBRANCH  40  41
ENDBRANCH  32  35
ENDBRANCH  30  31
ENDBRANCH  29  30
ENDBRANCH   1  29
TORSDOF 16
