REMARK SMILES O=C(NCCCCNC(=O)[C@H]1CC[C@@H]([NH+]2CCCC2)CC1)c1ccc(-c2c3nc(c(-c4c(F)c(F)c(F)c(F)c4F)c4ccc([nH]4)c(-c4c(F)c(F)c(F)c(F)c4F)c4nc(c(-c5c(F)c(F)c(F)c(F)c5F)c5ccc2[nH]5)C=C4)C=C3)cc1
REMARK SMILES IDX 5 1 4 2 3 3 1 4 2 5 22 7 23 8 84 9 24 10 83 11 25 12 26 13
REMARK SMILES IDX 27 14 77 15 28 16 82 17 76 18 78 19 29 20 81 21 75 22 74 23
REMARK SMILES IDX 30 25 62 26 42 27 61 28 43 29 46 30 60 31 79 32 44 33 45 34
REMARK SMILES IDX 59 36 80 37 47 38 31 39 32 40 40 41 33 42 34 43 38 44 41 45
REMARK SMILES IDX 35 46 36 47 39 48 37 49 63 50 64 51 72 52 65 53 66 54 70 55
REMARK SMILES IDX 73 56 67 57 68 58 71 59 69 60 48 61 49 62 57 63 50 64 51 65
REMARK SMILES IDX 55 66 58 67 52 68 53 69 56 70 54 71 6 72 7 73 8 74 9 75
REMARK SMILES IDX 10 77 11 78 12 79 21 80 13 81 20 82 14 83 15 84 16 85 19 86
REMARK SMILES IDX 17 88 18 89
REMARK H PARENT 3 6 78 24 46 35 8 76 15 87
REMARK Flexibility Score: inf
ROOT
ATOM      1  C   UNL     1       4.933  -0.582  -2.681  1.00  0.00     0.023 C 
ENDROOT
BRANCH   1   2
ATOM      2  C   UNL     1       4.567  -0.199  -1.252  1.00  0.00     0.116 C 
BRANCH   2   3
ATOM      3  N   UNL     1       3.158   0.111  -1.059  1.00  0.00    -0.352 N 
ATOM      4  O   UNL     1       1.214   0.171   0.104  1.00  0.00    -0.269 OA
ATOM      5  C   UNL     1       2.408  -0.053   0.088  1.00  0.00     0.251 C 
ATOM      6  H   UNL     1       2.684   0.481  -1.839  1.00  0.00     0.163 HD
BRANCH   5   7
ATOM      7  C   UNL     1       3.096  -0.558   1.296  1.00  0.00     0.039 A 
ATOM      8  C   UNL     1       4.270   0.056   1.735  1.00  0.00     0.014 A 
ATOM      9  C   UNL     1       2.608  -1.702   1.932  1.00  0.00     0.014 A 
ATOM     10  C   UNL     1       5.041  -0.567   2.705  1.00  0.00     0.010 A 
ATOM     11  C   UNL     1       3.344  -2.279   2.969  1.00  0.00     0.010 A 
ATOM     12  C   UNL     1       4.587  -1.739   3.334  1.00  0.00    -0.014 A 
BRANCH  12  13
ATOM     13  C   UNL     1       5.425  -2.343   4.399  1.00  0.00     0.031 A 
ATOM     14  C   UNL     1       6.073  -3.686   4.218  1.00  0.00     0.074 A 
ATOM     15  C   UNL     1       5.654  -1.620   5.512  1.00  0.00     0.049 A 
ATOM     16  N   UNL     1       6.888  -4.320   5.024  1.00  0.00    -0.248 NA
ATOM     17  C   UNL     1       5.768  -4.418   2.980  1.00  0.00     0.031 C 
ATOM     18  C   UNL     1       5.061  -0.311   5.797  1.00  0.00     0.029 A 
ATOM     19  N   UNL     1       6.467  -1.860   6.588  1.00  0.00    -0.354 N 
ATOM     20  C   UNL     1       7.179  -5.527   4.402  1.00  0.00     0.074 A 
ATOM     21  C   UNL     1       6.437  -5.549   3.159  1.00  0.00     0.031 C 
ATOM     22  C   UNL     1       5.576   0.164   6.939  1.00  0.00     0.029 A 
ATOM     23  C   UNL     1       6.489  -0.829   7.495  1.00  0.00     0.049 A 
ATOM     24  H   UNL     1       6.984  -2.690   6.701  1.00  0.00     0.167 HD
ATOM     25  C   UNL     1       7.998  -6.519   4.829  1.00  0.00     0.037 A 
ATOM     26  C   UNL     1       7.165  -0.698   8.649  1.00  0.00     0.037 A 
ATOM     27  C   UNL     1       8.744  -6.483   6.061  1.00  0.00     0.049 A 
ATOM     28  C   UNL     1       8.080  -1.804   9.084  1.00  0.00     0.074 A 
ATOM     29  C   UNL     1       9.598  -7.440   6.584  1.00  0.00     0.029 A 
ATOM     30  N   UNL     1       8.730  -5.428   6.962  1.00  0.00    -0.354 N 
ATOM     31  N   UNL     1       8.346  -2.938   8.483  1.00  0.00    -0.248 NA
ATOM     32  C   UNL     1       8.786  -1.614  10.357  1.00  0.00     0.031 C 
ATOM     33  C   UNL     1      10.079  -6.975   7.813  1.00  0.00     0.029 A 
ATOM     34  C   UNL     1       9.556  -5.713   8.039  1.00  0.00     0.049 A 
ATOM     35  H   UNL     1       8.211  -4.599   6.852  1.00  0.00     0.167 HD
ATOM     36  C   UNL     1       9.246  -3.600   9.304  1.00  0.00     0.074 A 
ATOM     37  C   UNL     1       9.510  -2.723  10.427  1.00  0.00     0.031 C 
ATOM     38  C   UNL     1       9.794  -4.830   9.150  1.00  0.00     0.037 A 
BRANCH  25  39
ATOM     39  C   UNL     1       8.129  -7.738   3.963  1.00  0.00     0.064 A 
ATOM     40  C   UNL     1       8.867  -7.715   2.771  1.00  0.00     0.173 A 
ATOM     41  C   UNL     1       7.563  -8.959   4.361  1.00  0.00     0.173 A 
ATOM     42  F   UNL     1       9.418  -6.570   2.340  1.00  0.00    -0.203 F 
ATOM     43  C   UNL     1       9.024  -8.866   2.002  1.00  0.00     0.198 A 
ATOM     44  C   UNL     1       7.740 -10.113   3.602  1.00  0.00     0.198 A 
ATOM     45  F   UNL     1       6.851  -9.036   5.495  1.00  0.00    -0.203 F 
ATOM     46  F   UNL     1       9.709  -8.814   0.852  1.00  0.00    -0.200 F 
ATOM     47  C   UNL     1       8.467 -10.066   2.422  1.00  0.00     0.200 A 
ATOM     48  F   UNL     1       7.211 -11.273   4.015  1.00  0.00    -0.200 F 
ATOM     49  F   UNL     1       8.629 -11.175   1.688  1.00  0.00    -0.200 F 
ENDBRANCH  25  39
BRANCH  26  50
ATOM     50  C   UNL     1       6.992   0.530   9.464  1.00  0.00     0.064 A 
ATOM     51  C   UNL     1       8.025   1.468   9.589  1.00  0.00     0.173 A 
ATOM     52  C   UNL     1       5.777   0.803  10.110  1.00  0.00     0.173 A 
ATOM     53  F   UNL     1       9.210   1.241   9.003  1.00  0.00    -0.203 F 
ATOM     54  C   UNL     1       7.853   2.628  10.340  1.00  0.00     0.198 A 
ATOM     55  C   UNL     1       5.596   1.977  10.835  1.00  0.00     0.198 A 
ATOM     56  F   UNL     1       4.755  -0.060  10.011  1.00  0.00    -0.203 F 
ATOM     57  F   UNL     1       8.867   3.493  10.474  1.00  0.00    -0.200 F 
ATOM     58  C   UNL     1       6.636   2.886  10.955  1.00  0.00     0.200 A 
ATOM     59  F   UNL     1       4.413   2.231  11.411  1.00  0.00    -0.200 F 
ATOM     60  F   UNL     1       6.468   4.009  11.667  1.00  0.00    -0.200 F 
ENDBRANCH  26  50
BRANCH  38  61
ATOM     61  C   UNL     1      10.729  -5.288  10.228  1.00  0.00     0.064 A 
ATOM     62  C   UNL     1      10.251  -5.681  11.487  1.00  0.00     0.173 A 
ATOM     63  C   UNL     1      12.111  -5.338  10.000  1.00  0.00     0.173 A 
ATOM     64  F   UNL     1       8.938  -5.632  11.756  1.00  0.00    -0.203 F 
ATOM     65  C   UNL     1      11.129  -6.080  12.491  1.00  0.00     0.198 A 
ATOM     66  C   UNL     1      12.984  -5.761  10.998  1.00  0.00     0.198 A 
ATOM     67  F   UNL     1      12.614  -4.975   8.811  1.00  0.00    -0.203 F 
ATOM     68  F   UNL     1      10.656  -6.402  13.703  1.00  0.00    -0.200 F 
ATOM     69  C   UNL     1      12.493  -6.123  12.245  1.00  0.00     0.200 A 
ATOM     70  F   UNL     1      14.302  -5.808  10.759  1.00  0.00    -0.200 F 
ATOM     71  F   UNL     1      13.338  -6.502  13.214  1.00  0.00    -0.200 F 
ENDBRANCH  38  61
ENDBRANCH  12  13
ENDBRANCH   5   7
ENDBRANCH   2   3
ENDBRANCH   1   2
BRANCH   1  72
ATOM     72  C   UNL     1       4.594   0.472  -3.734  1.00  0.00     0.023 C 
BRANCH  72  73
ATOM     73  C   UNL     1       5.298   1.810  -3.514  1.00  0.00     0.116 C 
BRANCH  73  74
ATOM     74  N   UNL     1       6.645   1.805  -4.045  1.00  0.00    -0.356 N 
ATOM     75  C   UNL     1       7.187   2.164  -5.235  1.00  0.00     0.223 C 
ATOM     76  H   UNL     1       7.312   1.469  -3.403  1.00  0.00     0.163 HD
ATOM     77  O   UNL     1       8.396   1.927  -5.360  1.00  0.00    -0.275 OA
BRANCH  75  78
ATOM     78  C   UNL     1       6.463   2.933  -6.352  1.00  0.00     0.079 C 
ATOM     79  C   UNL     1       5.022   2.527  -6.683  1.00  0.00     0.019 C 
ATOM     80  C   UNL     1       6.721   4.437  -6.157  1.00  0.00     0.019 C 
ATOM     81  C   UNL     1       4.238   3.528  -7.531  1.00  0.00     0.066 C 
ATOM     82  C   UNL     1       5.923   5.326  -7.105  1.00  0.00     0.066 C 
ATOM     83  C   UNL     1       4.420   5.017  -7.173  1.00  0.00     0.184 C 
BRANCH  83  84
ATOM     84  N   UNL     1       3.556   5.489  -6.072  1.00  0.00    -0.333 N 
ATOM     85  C   UNL     1       3.424   6.950  -5.998  1.00  0.00     0.262 C 
ATOM     86  C   UNL     1       3.823   5.029  -4.715  1.00  0.00     0.262 C 
ATOM     87  H   UNL     1       2.695   5.032  -6.370  1.00  0.00     0.348 HD
ATOM     88  C   UNL     1       4.269   7.384  -4.816  1.00  0.00     0.067 C 
ATOM     89  C   UNL     1       4.102   6.243  -3.839  1.00  0.00     0.067 C 
ENDBRANCH  83  84
ENDBRANCH  75  78
ENDBRANCH  73  74
ENDBRANCH  72  73
ENDBRANCH   1  72
TORSDOF 12
