REMARK SMILES Cc1cnc(N2CCO[C@H](CC(=O)NCCCCNC(=O)c3ccc(-c4c5nc(c(-c6c(F)c(F)c(F)c(F)c6F)c6ccc([nH]6)c(-c6c(F)c(F)c(F)c(F)c6F)c6nc(c(-c7c(F)c(F)c(F)c(F)c7F)c7ccc4[nH]7)C=C6)C=C5)cc3)C2)c([N+](=O)[O-])c1
REMARK SMILES IDX 16 1 15 2 14 3 12 4 13 5 11 7 10 8 6 9 7 10 85 11 8 12 9 13
REMARK SMILES IDX 5 14 1 15 2 16 3 17 90 18 4 19 86 20 87 21 88 22 89 23 17 24
REMARK SMILES IDX 18 25 19 26 20 27 21 29 22 30 23 31 84 32 24 33 83 34 25 35
REMARK SMILES IDX 26 36 27 37 77 38 28 39 82 40 76 41 78 42 29 43 81 44 75 45
REMARK SMILES IDX 74 46 30 48 62 49 42 50 61 51 43 52 46 53 60 54 79 55 44 56
REMARK SMILES IDX 45 57 59 59 80 60 47 61 31 62 32 63 40 64 33 65 34 66 38 67
REMARK SMILES IDX 41 68 35 69 36 70 39 71 37 72 63 73 64 74 72 75 65 76 66 77
REMARK SMILES IDX 70 78 73 79 67 80 68 81 71 82 69 83 48 84 49 85 57 86 50 87
REMARK SMILES IDX 51 88 55 89 58 90 52 91 53 92 56 93 54 94
REMARK H PARENT 14 6 19 28 78 47 46 58
REMARK Flexibility Score: inf
ROOT
ATOM      1  C   UNL     1      -7.923   2.612   2.321  1.00  0.00     0.023 C 
ENDROOT
BRANCH   1   2
ATOM      2  C   UNL     1      -6.604   3.380   2.362  1.00  0.00     0.116 C 
BRANCH   2   3
ATOM      3  N   UNL     1      -5.823   2.982   3.515  1.00  0.00    -0.356 N 
ATOM      4  C   UNL     1      -4.759   2.136   3.551  1.00  0.00     0.222 C 
ATOM      5  O   UNL     1      -4.340   1.748   4.642  1.00  0.00    -0.275 OA
ATOM      6  H   UNL     1      -6.095   3.372   4.377  1.00  0.00     0.163 HD
BRANCH   4   7
ATOM      7  C   UNL     1      -4.093   1.726   2.265  1.00  0.00     0.133 C 
BRANCH   7   8
ATOM      8  C   UNL     1      -4.767   0.511   1.605  1.00  0.00     0.147 C 
ATOM      9  N   UNL     1      -3.024   0.346  -0.039  1.00  0.00    -0.346 N 
ATOM     10  C   UNL     1      -3.910   0.645  -1.162  1.00  0.00     0.147 C 
ATOM     11  C   UNL     1      -3.684  -0.419   1.020  1.00  0.00     0.151 C 
ATOM     12  C   UNL     1      -5.114   1.442  -0.622  1.00  0.00     0.182 C 
ATOM     13  O   UNL     1      -5.713   0.869   0.563  1.00  0.00    -0.374 OA
BRANCH   9  14
ATOM     14  C   UNL     1      -1.665   0.259  -0.172  1.00  0.00     0.208 A 
ATOM     15  C   UNL     1       2.579  -0.334  -0.030  1.00  0.00     0.046 C 
ATOM     16  C   UNL     1       1.107  -0.088  -0.111  1.00  0.00    -0.026 A 
ATOM     17  C   UNL     1       0.204  -1.139  -0.061  1.00  0.00     0.117 A 
ATOM     18  C   UNL     1       0.581   1.195  -0.210  1.00  0.00     0.094 A 
ATOM     19  N   UNL     1      -1.142  -0.989  -0.086  1.00  0.00    -0.233 NA
ATOM     20  C   UNL     1      -0.812   1.364  -0.240  1.00  0.00     0.311 A 
BRANCH  20  21
ATOM     21  N   UNL     1      -1.314   2.725  -0.174  1.00  0.00     0.066 N 
ATOM     22  O   UNL     1      -2.220   3.066  -0.945  1.00  0.00    -0.258 OA
ATOM     23  O   UNL     1      -0.750   3.493   0.621  1.00  0.00    -0.258 OA
ENDBRANCH  20  21
ENDBRANCH   9  14
ENDBRANCH   7   8
ENDBRANCH   4   7
ENDBRANCH   2   3
ENDBRANCH   1   2
BRANCH   1  24
ATOM     24  C   UNL     1      -8.895   3.000   3.439  1.00  0.00     0.023 C 
BRANCH  24  25
ATOM     25  C   UNL     1      -9.255   4.481   3.485  1.00  0.00     0.116 C 
BRANCH  25  26
ATOM     26  N   UNL     1      -9.853   4.953   2.247  1.00  0.00    -0.352 N 
ATOM     27  C   UNL     1     -10.898   5.825   2.070  1.00  0.00     0.251 C 
ATOM     28  H   UNL     1      -9.453   4.598   1.421  1.00  0.00     0.163 HD
ATOM     29  O   UNL     1     -11.370   6.005   0.954  1.00  0.00    -0.269 OA
BRANCH  27  30
ATOM     30  C   UNL     1     -11.479   6.521   3.238  1.00  0.00     0.039 A 
ATOM     31  C   UNL     1     -12.869   6.578   3.354  1.00  0.00     0.014 A 
ATOM     32  C   UNL     1     -10.666   7.106   4.213  1.00  0.00     0.014 A 
ATOM     33  C   UNL     1     -13.443   7.172   4.478  1.00  0.00     0.010 A 
ATOM     34  C   UNL     1     -11.239   7.630   5.370  1.00  0.00     0.010 A 
ATOM     35  C   UNL     1     -12.633   7.672   5.512  1.00  0.00    -0.014 A 
BRANCH  35  36
ATOM     36  C   UNL     1     -13.245   8.220   6.749  1.00  0.00     0.031 A 
ATOM     37  C   UNL     1     -13.080   9.670   7.109  1.00  0.00     0.074 A 
ATOM     38  C   UNL     1     -13.929   7.396   7.566  1.00  0.00     0.049 A 
ATOM     39  N   UNL     1     -13.564  10.327   8.134  1.00  0.00    -0.248 NA
ATOM     40  C   UNL     1     -12.241  10.485   6.218  1.00  0.00     0.031 C 
ATOM     41  C   UNL     1     -14.104   5.957   7.359  1.00  0.00     0.029 A 
ATOM     42  N   UNL     1     -14.608   7.648   8.731  1.00  0.00    -0.354 N 
ATOM     43  C   UNL     1     -13.088  11.626   8.010  1.00  0.00     0.074 A 
ATOM     44  C   UNL     1     -12.227  11.650   6.848  1.00  0.00     0.031 C 
ATOM     45  C   UNL     1     -14.873   5.462   8.341  1.00  0.00     0.029 A 
ATOM     46  C   UNL     1     -15.219   6.539   9.263  1.00  0.00     0.049 A 
ATOM     47  H   UNL     1     -14.653   8.540   9.147  1.00  0.00     0.167 HD
ATOM     48  C   UNL     1     -13.367  12.706   8.779  1.00  0.00     0.037 A 
ATOM     49  C   UNL     1     -15.976   6.406  10.368  1.00  0.00     0.037 A 
ATOM     50  C   UNL     1     -14.236  12.680   9.928  1.00  0.00     0.049 A 
ATOM     51  C   UNL     1     -16.272   7.622  11.203  1.00  0.00     0.074 A 
ATOM     52  C   UNL     1     -14.628  13.731  10.738  1.00  0.00     0.029 A 
ATOM     53  N   UNL     1     -14.841  11.539  10.435  1.00  0.00    -0.354 N 
ATOM     54  N   UNL     1     -15.888   8.863  11.026  1.00  0.00    -0.248 NA
ATOM     55  C   UNL     1     -17.119   7.419  12.386  1.00  0.00     0.031 C 
ATOM     56  C   UNL     1     -15.428  13.218  11.765  1.00  0.00     0.029 A 
ATOM     57  C   UNL     1     -15.583  11.857  11.562  1.00  0.00     0.049 A 
ATOM     58  H   UNL     1     -14.757  10.636  10.050  1.00  0.00     0.167 HD
ATOM     59  C   UNL     1     -16.464   9.592  12.058  1.00  0.00     0.074 A 
ATOM     60  C   UNL     1     -17.245   8.657  12.841  1.00  0.00     0.031 C 
ATOM     61  C   UNL     1     -16.353  10.915  12.335  1.00  0.00     0.037 A 
BRANCH  48  62
ATOM     62  C   UNL     1     -12.729  14.012   8.399  1.00  0.00     0.064 A 
ATOM     63  C   UNL     1     -13.096  14.698   7.230  1.00  0.00     0.173 A 
ATOM     64  C   UNL     1     -11.768  14.606   9.230  1.00  0.00     0.173 A 
ATOM     65  F   UNL     1     -14.003  14.170   6.394  1.00  0.00    -0.203 F 
ATOM     66  C   UNL     1     -12.503  15.912   6.893  1.00  0.00     0.198 A 
ATOM     67  C   UNL     1     -11.200  15.836   8.907  1.00  0.00     0.198 A 
ATOM     68  F   UNL     1     -11.384  13.998  10.363  1.00  0.00    -0.203 F 
ATOM     69  F   UNL     1     -12.832  16.521   5.746  1.00  0.00    -0.200 F 
ATOM     70  C   UNL     1     -11.562  16.484   7.735  1.00  0.00     0.200 A 
ATOM     71  F   UNL     1     -10.302  16.395   9.730  1.00  0.00    -0.200 F 
ATOM     72  F   UNL     1     -10.998  17.656   7.415  1.00  0.00    -0.200 F 
ENDBRANCH  48  62
BRANCH  49  73
ATOM     73  C   UNL     1     -16.537   5.078  10.730  1.00  0.00     0.064 A 
ATOM     74  C   UNL     1     -17.916   4.833  10.656  1.00  0.00     0.173 A 
ATOM     75  C   UNL     1     -15.712   4.031  11.164  1.00  0.00     0.173 A 
ATOM     76  F   UNL     1     -18.749   5.809  10.266  1.00  0.00    -0.203 F 
ATOM     77  C   UNL     1     -18.450   3.601  11.027  1.00  0.00     0.198 A 
ATOM     78  C   UNL     1     -16.244   2.789  11.505  1.00  0.00     0.198 A 
ATOM     79  F   UNL     1     -14.386   4.211  11.247  1.00  0.00    -0.203 F 
ATOM     80  F   UNL     1     -19.776   3.412  10.997  1.00  0.00    -0.200 F 
ATOM     81  C   UNL     1     -17.613   2.578  11.445  1.00  0.00     0.200 A 
ATOM     82  F   UNL     1     -15.430   1.798  11.893  1.00  0.00    -0.200 F 
ATOM     83  F   UNL     1     -18.126   1.392  11.799  1.00  0.00    -0.200 F 
ENDBRANCH  49  73
BRANCH  61  84
ATOM     84  C   UNL     1     -17.116  11.430  13.522  1.00  0.00     0.064 A 
ATOM     85  C   UNL     1     -16.758  11.086  14.835  1.00  0.00     0.173 A 
ATOM     86  C   UNL     1     -18.215  12.285  13.345  1.00  0.00     0.173 A 
ATOM     87  F   UNL     1     -15.725  10.260  15.059  1.00  0.00    -0.203 F 
ATOM     88  C   UNL     1     -17.496  11.547  15.923  1.00  0.00     0.198 A 
ATOM     89  C   UNL     1     -18.928  12.772  14.437  1.00  0.00     0.198 A 
ATOM     90  F   UNL     1     -18.595  12.652  12.112  1.00  0.00    -0.203 F 
ATOM     91  F   UNL     1     -17.175  11.152  17.163  1.00  0.00    -0.200 F 
ATOM     92  C   UNL     1     -18.576  12.393  15.723  1.00  0.00     0.200 A 
ATOM     93  F   UNL     1     -19.962  13.603  14.243  1.00  0.00    -0.200 F 
ATOM     94  F   UNL     1     -19.286  12.835  16.771  1.00  0.00    -0.200 F 
ENDBRANCH  61  84
ENDBRANCH  35  36
ENDBRANCH  27  30
ENDBRANCH  25  26
ENDBRANCH  24  25
ENDBRANCH   1  24
TORSDOF 14
