REMARK SMILES O=C(NCCCCNC(=O)[C@H](Cc1ccc(O)cc1)NC(=O)c1ccc(Cl)s1)c1ccc(-c2c3nc(c(-c4c(F)c(F)c(F)c(F)c4F)c4ccc([nH]4)c(-c4c(F)c(F)c(F)c(F)c4F)c4nc(c(-c5c(F)c(F)c(F)c(F)c5F)c5ccc2[nH]5)C=C4)C=C3)cc1
REMARK SMILES IDX 6 1 5 2 4 3 3 4 1 5 2 6 29 8 30 9 91 10 31 11 90 12 32 13
REMARK SMILES IDX 33 14 34 15 84 16 35 17 89 18 83 19 85 20 36 21 88 22 82 23
REMARK SMILES IDX 81 24 37 26 69 27 49 28 68 29 50 30 53 31 67 32 86 33 51 34
REMARK SMILES IDX 52 35 66 37 87 38 54 39 38 40 39 41 47 42 40 43 41 44 45 45
REMARK SMILES IDX 48 46 42 47 43 48 46 49 44 50 70 51 71 52 79 53 72 54 73 55
REMARK SMILES IDX 77 56 80 57 74 58 75 59 78 60 76 61 55 62 56 63 64 64 57 65
REMARK SMILES IDX 58 66 62 67 65 68 59 69 60 70 63 71 61 72 7 73 8 74 9 75
REMARK SMILES IDX 10 77 11 78 20 79 21 80 22 82 23 83 24 84 28 85 25 86 26 87
REMARK SMILES IDX 27 88 12 89 13 90 14 91 19 92 15 93 18 94 16 95 17 96
REMARK H PARENT 3 7 85 25 53 36 8 76 20 81 17 97
REMARK Flexibility Score: inf
ROOT
ATOM      1  C   UNL     1       4.731   4.435  -9.335  1.00  0.00     0.023 C 
ENDROOT
BRANCH   1   2
ATOM      2  C   UNL     1       3.865   3.741 -10.382  1.00  0.00     0.023 C 
BRANCH   2   3
ATOM      3  C   UNL     1       2.388   4.090 -10.310  1.00  0.00     0.116 C 
BRANCH   3   4
ATOM      4  N   UNL     1       2.118   5.512 -10.462  1.00  0.00    -0.352 N 
ATOM      5  O   UNL     1       1.001   7.317 -11.255  1.00  0.00    -0.269 OA
ATOM      6  C   UNL     1       1.058   6.106 -11.111  1.00  0.00     0.251 C 
ATOM      7  H   UNL     1       2.772   6.123 -10.051  1.00  0.00     0.163 HD
BRANCH   6   8
ATOM      8  C   UNL     1       0.007   5.231 -11.668  1.00  0.00     0.039 A 
ATOM      9  C   UNL     1      -0.542   4.222 -10.876  1.00  0.00     0.014 A 
ATOM     10  C   UNL     1      -0.362   5.368 -13.008  1.00  0.00     0.014 A 
ATOM     11  C   UNL     1      -1.329   3.248 -11.468  1.00  0.00     0.010 A 
ATOM     12  C   UNL     1      -1.240   4.442 -13.576  1.00  0.00     0.010 A 
ATOM     13  C   UNL     1      -1.700   3.354 -12.820  1.00  0.00    -0.014 A 
BRANCH  13  14
ATOM     14  C   UNL     1      -2.621   2.335 -13.379  1.00  0.00     0.031 A 
ATOM     15  C   UNL     1      -2.188   1.393 -14.466  1.00  0.00     0.074 A 
ATOM     16  C   UNL     1      -3.845   2.225 -12.828  1.00  0.00     0.049 A 
ATOM     17  N   UNL     1      -2.856   0.407 -15.012  1.00  0.00    -0.248 NA
ATOM     18  C   UNL     1      -0.839   1.581 -15.020  1.00  0.00     0.031 C 
ATOM     19  C   UNL     1      -4.372   3.102 -11.779  1.00  0.00     0.029 A 
ATOM     20  N   UNL     1      -4.849   1.317 -13.036  1.00  0.00    -0.354 N 
ATOM     21  C   UNL     1      -2.020  -0.130 -15.982  1.00  0.00     0.074 A 
ATOM     22  C   UNL     1      -0.802   0.652 -15.967  1.00  0.00     0.031 C 
ATOM     23  C   UNL     1      -5.570   2.649 -11.387  1.00  0.00     0.029 A 
ATOM     24  C   UNL     1      -5.925   1.494 -12.202  1.00  0.00     0.049 A 
ATOM     25  H   UNL     1      -4.803   0.607 -13.717  1.00  0.00     0.167 HD
ATOM     26  C   UNL     1      -2.252  -1.183 -16.802  1.00  0.00     0.037 A 
ATOM     27  C   UNL     1      -7.078   0.808 -12.109  1.00  0.00     0.037 A 
ATOM     28  C   UNL     1      -3.465  -1.962 -16.800  1.00  0.00     0.049 A 
ATOM     29  C   UNL     1      -7.295  -0.364 -13.018  1.00  0.00     0.074 A 
ATOM     30  C   UNL     1      -3.799  -3.046 -17.594  1.00  0.00     0.029 A 
ATOM     31  N   UNL     1      -4.543  -1.742 -15.953  1.00  0.00    -0.354 N 
ATOM     32  N   UNL     1      -6.495  -0.860 -13.930  1.00  0.00    -0.248 NA
ATOM     33  C   UNL     1      -8.576  -1.069 -12.889  1.00  0.00     0.031 C 
ATOM     34  C   UNL     1      -5.090  -3.463 -17.248  1.00  0.00     0.029 A 
ATOM     35  C   UNL     1      -5.544  -2.666 -16.211  1.00  0.00     0.049 A 
ATOM     36  H   UNL     1      -4.589  -1.035 -15.271  1.00  0.00     0.167 HD
ATOM     37  C   UNL     1      -7.174  -1.931 -14.488  1.00  0.00     0.074 A 
ATOM     38  C   UNL     1      -8.436  -2.038 -13.783  1.00  0.00     0.031 C 
ATOM     39  C   UNL     1      -6.796  -2.744 -15.504  1.00  0.00     0.037 A 
BRANCH  26  40
ATOM     40  C   UNL     1      -1.179  -1.555 -17.784  1.00  0.00     0.064 A 
ATOM     41  C   UNL     1       0.002  -2.192 -17.374  1.00  0.00     0.173 A 
ATOM     42  C   UNL     1      -1.359  -1.330 -19.157  1.00  0.00     0.173 A 
ATOM     43  F   UNL     1       0.229  -2.419 -16.072  1.00  0.00    -0.203 F 
ATOM     44  C   UNL     1       0.968  -2.577 -18.301  1.00  0.00     0.198 A 
ATOM     45  C   UNL     1      -0.402  -1.737 -20.084  1.00  0.00     0.198 A 
ATOM     46  F   UNL     1      -2.473  -0.729 -19.603  1.00  0.00    -0.203 F 
ATOM     47  F   UNL     1       2.103  -3.156 -17.884  1.00  0.00    -0.200 F 
ATOM     48  C   UNL     1       0.762  -2.357 -19.655  1.00  0.00     0.200 A 
ATOM     49  F   UNL     1      -0.608  -1.534 -21.392  1.00  0.00    -0.200 F 
ATOM     50  F   UNL     1       1.687  -2.739 -20.547  1.00  0.00    -0.200 F 
ENDBRANCH  26  40
BRANCH  27  51
ATOM     51  C   UNL     1      -8.104   1.229 -11.123  1.00  0.00     0.064 A 
ATOM     52  C   UNL     1      -8.401   0.440 -10.004  1.00  0.00     0.173 A 
ATOM     53  C   UNL     1      -8.786   2.447 -11.265  1.00  0.00     0.173 A 
ATOM     54  F   UNL     1      -7.786  -0.739  -9.833  1.00  0.00    -0.203 F 
ATOM     55  C   UNL     1      -9.353   0.848  -9.072  1.00  0.00     0.198 A 
ATOM     56  C   UNL     1      -9.713   2.868 -10.316  1.00  0.00     0.198 A 
ATOM     57  F   UNL     1      -8.528   3.242 -12.314  1.00  0.00    -0.203 F 
ATOM     58  F   UNL     1      -9.647   0.058  -8.030  1.00  0.00    -0.200 F 
ATOM     59  C   UNL     1     -10.002   2.064  -9.224  1.00  0.00     0.200 A 
ATOM     60  F   UNL     1     -10.321   4.053 -10.457  1.00  0.00    -0.200 F 
ATOM     61  F   UNL     1     -10.908   2.461  -8.320  1.00  0.00    -0.200 F 
ENDBRANCH  27  51
BRANCH  39  62
ATOM     62  C   UNL     1      -7.767  -3.815 -15.902  1.00  0.00     0.064 A 
ATOM     63  C   UNL     1      -8.945  -3.507 -16.599  1.00  0.00     0.173 A 
ATOM     64  C   UNL     1      -7.518  -5.157 -15.585  1.00  0.00     0.173 A 
ATOM     65  F   UNL     1      -9.234  -2.234 -16.907  1.00  0.00    -0.203 F 
ATOM     66  C   UNL     1      -9.856  -4.504 -16.934  1.00  0.00     0.198 A 
ATOM     67  C   UNL     1      -8.419  -6.155 -15.945  1.00  0.00     0.198 A 
ATOM     68  F   UNL     1      -6.403  -5.500 -14.922  1.00  0.00    -0.203 F 
ATOM     69  F   UNL     1     -11.002  -4.182 -17.551  1.00  0.00    -0.200 F 
ATOM     70  C   UNL     1      -9.591  -5.826 -16.611  1.00  0.00     0.200 A 
ATOM     71  F   UNL     1      -8.158  -7.433 -15.639  1.00  0.00    -0.200 F 
ATOM     72  F   UNL     1     -10.472  -6.784 -16.930  1.00  0.00    -0.200 F 
ENDBRANCH  39  62
ENDBRANCH  13  14
ENDBRANCH   6   8
ENDBRANCH   3   4
ENDBRANCH   2   3
ENDBRANCH   1   2
BRANCH   1  73
ATOM     73  C   UNL     1       4.348   4.123  -7.886  1.00  0.00     0.116 C 
BRANCH  73  74
ATOM     74  N   UNL     1       4.729   2.767  -7.546  1.00  0.00    -0.354 N 
ATOM     75  C   UNL     1       5.811   2.261  -6.899  1.00  0.00     0.242 C 
ATOM     76  H   UNL     1       4.082   2.085  -7.839  1.00  0.00     0.163 HD
ATOM     77  O   UNL     1       6.117   1.104  -7.217  1.00  0.00    -0.273 OA
BRANCH  75  78
ATOM     78  C   UNL     1       6.700   3.063  -5.912  1.00  0.00     0.176 C 
BRANCH  78  79
ATOM     79  N   UNL     1       6.170   4.318  -5.385  1.00  0.00    -0.339 N 
ATOM     80  C   UNL     1       6.534   5.628  -5.597  1.00  0.00     0.262 C 
ATOM     81  H   UNL     1       5.413   4.206  -4.764  1.00  0.00     0.164 HD
ATOM     82  O   UNL     1       5.985   6.450  -4.858  1.00  0.00    -0.268 OA
BRANCH  80  83
ATOM     83  C   UNL     1       7.456   6.011  -6.664  1.00  0.00     0.093 A 
ATOM     84  C   UNL     1       7.811   5.398  -7.856  1.00  0.00     0.027 A 
ATOM     85  S   UNL     1       8.227   7.556  -6.549  1.00  0.00    -0.118 S 
ATOM     86  C   UNL     1       8.693   6.182  -8.659  1.00  0.00     0.033 A 
ATOM     87  C   UNL     1       8.985   7.368  -8.046  1.00  0.00     0.094 A 
ATOM     88  Cl  UNL     1       9.997   8.610  -8.662  1.00  0.00    -0.072 Cl
ENDBRANCH  80  83
ENDBRANCH  78  79
BRANCH  78  89
ATOM     89  C   UNL     1       7.168   2.147  -4.750  1.00  0.00     0.070 C 
BRANCH  89  90
ATOM     90  C   UNL     1       6.077   1.535  -3.894  1.00  0.00    -0.045 A 
ATOM     91  C   UNL     1       5.471   0.327  -4.278  1.00  0.00     0.007 A 
ATOM     92  C   UNL     1       5.679   2.132  -2.691  1.00  0.00     0.007 A 
ATOM     93  C   UNL     1       4.479  -0.263  -3.495  1.00  0.00     0.046 A 
ATOM     94  C   UNL     1       4.695   1.533  -1.897  1.00  0.00     0.046 A 
ATOM     95  C   UNL     1       4.101   0.345  -2.306  1.00  0.00     0.115 A 
BRANCH  95  96
ATOM     96  O   UNL     1       3.149  -0.207  -1.502  1.00  0.00    -0.508 OA
ATOM     97  H   UNL     1       2.731  -1.007  -1.751  1.00  0.00     0.293 HD
ENDBRANCH  95  96
ENDBRANCH  89  90
ENDBRANCH  78  89
ENDBRANCH  75  78
ENDBRANCH  73  74
ENDBRANCH   1  73
TORSDOF 16
