REMARK SMILES CCC[C@H](C)C(=O)N1CC[C@H](C(=O)NCCCCNC(=O)c2ccc(-c3c4nc(c(-c5c(F)c(F)c(F)c(F)c5F)c5ccc([nH]5)c(-c5c(F)c(F)c(F)c(F)c5F)c5nc(c(-c6c(F)c(F)c(F)c(F)c6F)c6ccc3[nH]6)C=C5)C=C4)cc2)[C@@H]1C
REMARK SMILES IDX 15 1 14 2 12 3 13 4 11 6 8 7 9 8 85 9 10 10 86 11 6 12 7 13
REMARK SMILES IDX 4 14 5 15 3 16 2 17 1 18 16 19 17 20 18 21 19 22 20 23 21 25
REMARK SMILES IDX 22 26 23 27 84 28 24 29 83 30 25 31 26 32 27 33 77 34 28 35
REMARK SMILES IDX 82 36 76 37 78 38 29 39 81 40 75 41 74 42 30 44 62 45 42 46
REMARK SMILES IDX 61 47 43 48 46 49 60 50 79 51 44 52 45 53 59 55 80 56 47 57
REMARK SMILES IDX 31 58 32 59 40 60 33 61 34 62 38 63 41 64 35 65 36 66 39 67
REMARK SMILES IDX 37 68 63 69 64 70 72 71 65 72 66 73 70 74 73 75 67 76 68 77
REMARK SMILES IDX 71 78 69 79 48 80 49 81 57 82 50 83 51 84 55 85 58 86 52 87
REMARK SMILES IDX 53 88 56 89 54 90
REMARK H PARENT 14 5 19 24 78 43 46 54
REMARK Flexibility Score: inf
ROOT
ATOM      1  C   UNL     1      -0.105  -9.917  -0.791  1.00  0.00     0.116 C 
ENDROOT
BRANCH   1   2
ATOM      2  N   UNL     1       0.705  -9.189  -1.744  1.00  0.00    -0.356 N 
ATOM      3  C   UNL     1       0.760  -7.895  -2.146  1.00  0.00     0.225 C 
ATOM      4  O   UNL     1       1.528  -7.701  -3.096  1.00  0.00    -0.275 OA
ATOM      5  H   UNL     1       1.362  -9.760  -2.203  1.00  0.00     0.163 HD
BRANCH   3   6
ATOM      6  C   UNL     1      -0.117  -6.745  -1.619  1.00  0.00     0.102 C 
ATOM      7  N   UNL     1       0.777  -5.301   0.090  1.00  0.00    -0.339 N 
ATOM      8  C   UNL     1       0.272  -6.503   0.706  1.00  0.00     0.120 C 
ATOM      9  C   UNL     1       0.643  -5.382  -1.377  1.00  0.00     0.094 C 
ATOM     10  C   UNL     1      -0.820  -6.885  -0.271  1.00  0.00     0.037 C 
ATOM     11  C   UNL     1       2.007  -5.210  -2.040  1.00  0.00     0.032 C 
BRANCH   7  12
ATOM     12  C   UNL     1       1.113  -4.258   0.913  1.00  0.00     0.225 C 
ATOM     13  O   UNL     1       1.736  -4.477   1.958  1.00  0.00    -0.275 OA
BRANCH  12  14
ATOM     14  C   UNL     1       0.540  -2.860   0.664  1.00  0.00     0.075 C 
ATOM     15  C   UNL     1       1.164  -2.131  -0.521  1.00  0.00     0.018 C 
BRANCH  14  16
ATOM     16  C   UNL     1      -1.001  -2.785   0.605  1.00  0.00     0.013 C 
BRANCH  16  17
ATOM     17  C   UNL     1      -1.824  -3.661   1.559  1.00  0.00    -0.003 C 
ATOM     18  C   UNL     1      -1.429  -3.646   3.024  1.00  0.00     0.004 C 
ENDBRANCH  16  17
ENDBRANCH  14  16
ENDBRANCH  12  14
ENDBRANCH   7  12
ENDBRANCH   3   6
ENDBRANCH   1   2
BRANCH   1  19
ATOM     19  C   UNL     1      -0.513 -11.305  -1.272  1.00  0.00     0.023 C 
BRANCH  19  20
ATOM     20  C   UNL     1       0.615 -12.302  -1.489  1.00  0.00     0.023 C 
BRANCH  20  21
ATOM     21  C   UNL     1       1.560 -12.485  -0.310  1.00  0.00     0.116 C 
BRANCH  21  22
ATOM     22  N   UNL     1       0.884 -12.866   0.922  1.00  0.00    -0.352 N 
ATOM     23  C   UNL     1       1.094 -13.953   1.741  1.00  0.00     0.251 C 
ATOM     24  H   UNL     1       0.169 -12.255   1.213  1.00  0.00     0.163 HD
ATOM     25  O   UNL     1       0.352 -14.172   2.685  1.00  0.00    -0.269 OA
BRANCH  23  26
ATOM     26  C   UNL     1       2.205 -14.880   1.440  1.00  0.00     0.039 A 
ATOM     27  C   UNL     1       1.946 -16.252   1.398  1.00  0.00     0.014 A 
ATOM     28  C   UNL     1       3.479 -14.391   1.149  1.00  0.00     0.014 A 
ATOM     29  C   UNL     1       2.946 -17.128   0.972  1.00  0.00     0.010 A 
ATOM     30  C   UNL     1       4.444 -15.252   0.640  1.00  0.00     0.010 A 
ATOM     31  C   UNL     1       4.185 -16.628   0.542  1.00  0.00    -0.014 A 
BRANCH  31  32
ATOM     32  C   UNL     1       5.225 -17.521  -0.025  1.00  0.00     0.031 A 
ATOM     33  C   UNL     1       6.556 -17.654   0.659  1.00  0.00     0.074 A 
ATOM     34  C   UNL     1       5.008 -18.132  -1.206  1.00  0.00     0.049 A 
ATOM     35  N   UNL     1       7.625 -18.304   0.274  1.00  0.00    -0.248 NA
ATOM     36  C   UNL     1       6.720 -16.926   1.927  1.00  0.00     0.031 C 
ATOM     37  C   UNL     1       3.785 -18.020  -2.004  1.00  0.00     0.029 A 
ATOM     38  N   UNL     1       5.817 -18.953  -1.951  1.00  0.00    -0.354 N 
ATOM     39  C   UNL     1       8.592 -18.037   1.233  1.00  0.00     0.074 A 
ATOM     40  C   UNL     1       8.001 -17.128   2.190  1.00  0.00     0.031 C 
ATOM     41  C   UNL     1       3.919 -18.756  -3.119  1.00  0.00     0.029 A 
ATOM     42  C   UNL     1       5.246 -19.364  -3.131  1.00  0.00     0.049 A 
ATOM     43  H   UNL     1       6.720 -19.221  -1.667  1.00  0.00     0.167 HD
ATOM     44  C   UNL     1       9.852 -18.526   1.319  1.00  0.00     0.037 A 
ATOM     45  C   UNL     1       5.740 -20.140  -4.114  1.00  0.00     0.037 A 
ATOM     46  C   UNL     1      10.418 -19.465   0.388  1.00  0.00     0.049 A 
ATOM     47  C   UNL     1       7.125 -20.708  -3.974  1.00  0.00     0.074 A 
ATOM     48  C   UNL     1      11.646 -20.099   0.441  1.00  0.00     0.029 A 
ATOM     49  N   UNL     1       9.790 -19.902  -0.770  1.00  0.00    -0.354 N 
ATOM     50  N   UNL     1       8.000 -20.526  -3.015  1.00  0.00    -0.248 NA
ATOM     51  C   UNL     1       7.589 -21.598  -5.047  1.00  0.00     0.031 C 
ATOM     52  C   UNL     1      11.780 -20.888  -0.707  1.00  0.00     0.029 A 
ATOM     53  C   UNL     1      10.616 -20.781  -1.452  1.00  0.00     0.049 A 
ATOM     54  H   UNL     1       8.891 -19.629  -1.063  1.00  0.00     0.167 HD
ATOM     55  C   UNL     1       9.107 -21.290  -3.356  1.00  0.00     0.074 A 
ATOM     56  C   UNL     1       8.787 -21.952  -4.604  1.00  0.00     0.031 C 
ATOM     57  C   UNL     1      10.282 -21.430  -2.695  1.00  0.00     0.037 A 
BRANCH  44  58
ATOM     58  C   UNL     1      10.700 -18.051   2.463  1.00  0.00     0.064 A 
ATOM     59  C   UNL     1      10.426 -18.423   3.788  1.00  0.00     0.173 A 
ATOM     60  C   UNL     1      11.808 -17.224   2.230  1.00  0.00     0.173 A 
ATOM     61  F   UNL     1       9.371 -19.203   4.067  1.00  0.00    -0.203 F 
ATOM     62  C   UNL     1      11.207 -17.952   4.841  1.00  0.00     0.198 A 
ATOM     63  C   UNL     1      12.606 -16.781   3.281  1.00  0.00     0.198 A 
ATOM     64  F   UNL     1      12.118 -16.843   0.981  1.00  0.00    -0.203 F 
ATOM     65  F   UNL     1      10.891 -18.273   6.103  1.00  0.00    -0.200 F 
ATOM     66  C   UNL     1      12.299 -17.137   4.586  1.00  0.00     0.200 A 
ATOM     67  F   UNL     1      13.668 -16.002   3.033  1.00  0.00    -0.200 F 
ATOM     68  F   UNL     1      13.051 -16.685   5.600  1.00  0.00    -0.200 F 
ENDBRANCH  44  58
BRANCH  45  69
ATOM     69  C   UNL     1       4.901 -20.446  -5.300  1.00  0.00     0.064 A 
ATOM     70  C   UNL     1       4.351 -21.722  -5.482  1.00  0.00     0.173 A 
ATOM     71  C   UNL     1       4.611 -19.466  -6.260  1.00  0.00     0.173 A 
ATOM     72  F   UNL     1       4.616 -22.697  -4.599  1.00  0.00    -0.203 F 
ATOM     73  C   UNL     1       3.551 -22.011  -6.586  1.00  0.00     0.198 A 
ATOM     74  C   UNL     1       3.791 -19.749  -7.351  1.00  0.00     0.198 A 
ATOM     75  F   UNL     1       5.107 -18.228  -6.127  1.00  0.00    -0.203 F 
ATOM     76  F   UNL     1       3.064 -23.248  -6.752  1.00  0.00    -0.200 F 
ATOM     77  C   UNL     1       3.266 -21.022  -7.516  1.00  0.00     0.200 A 
ATOM     78  F   UNL     1       3.505 -18.788  -8.239  1.00  0.00    -0.200 F 
ATOM     79  F   UNL     1       2.488 -21.297  -8.571  1.00  0.00    -0.200 F 
ENDBRANCH  45  69
BRANCH  57  80
ATOM     80  C   UNL     1      11.304 -22.348  -3.297  1.00  0.00     0.064 A 
ATOM     81  C   UNL     1      12.026 -21.991  -4.444  1.00  0.00     0.173 A 
ATOM     82  C   UNL     1      11.596 -23.580  -2.691  1.00  0.00     0.173 A 
ATOM     83  F   UNL     1      11.772 -20.831  -5.068  1.00  0.00    -0.203 F 
ATOM     84  C   UNL     1      12.992 -22.843  -4.974  1.00  0.00     0.198 A 
ATOM     85  C   UNL     1      12.581 -24.416  -3.208  1.00  0.00     0.198 A 
ATOM     86  F   UNL     1      10.936 -23.964  -1.588  1.00  0.00    -0.203 F 
ATOM     87  F   UNL     1      13.642 -22.500  -6.095  1.00  0.00    -0.200 F 
ATOM     88  C   UNL     1      13.273 -24.050  -4.352  1.00  0.00     0.200 A 
ATOM     89  F   UNL     1      12.860 -25.576  -2.598  1.00  0.00    -0.200 F 
ATOM     90  F   UNL     1      14.209 -24.864  -4.859  1.00  0.00    -0.200 F 
ENDBRANCH  57  80
ENDBRANCH  31  32
ENDBRANCH  23  26
ENDBRANCH  21  22
ENDBRANCH  20  21
ENDBRANCH  19  20
ENDBRANCH   1  19
TORSDOF 15
