REMARK SMILES O=C(NCCCCNC(=O)c1cccn(Cc2ccc3c(c2)OC(F)(F)O3)c1=O)c1ccc(-c2c3nc(c(-c4c(F)c(F)c(F)c(F)c4F)c4ccc([nH]4)c(-c4c(F)c(F)c(F)c(F)c4F)c4nc(c(-c5c(F)c(F)c(F)c(F)c5F)c5ccc2[nH]5)C=C4)C=C3)cc1
REMARK SMILES IDX 5 1 4 2 3 3 1 4 2 5 30 7 31 8 92 9 32 10 91 11 33 12 34 13
REMARK SMILES IDX 35 14 85 15 36 16 90 17 84 18 86 19 37 20 89 21 83 22 82 23
REMARK SMILES IDX 38 25 70 26 50 27 69 28 51 29 54 30 68 31 87 32 52 33 53 34
REMARK SMILES IDX 67 36 88 37 55 38 39 39 40 40 48 41 41 42 42 43 46 44 49 45
REMARK SMILES IDX 43 46 44 47 47 48 45 49 71 50 72 51 80 52 73 53 74 54 78 55
REMARK SMILES IDX 81 56 75 57 76 58 79 59 77 60 56 61 57 62 65 63 58 64 59 65
REMARK SMILES IDX 63 66 66 67 60 68 61 69 64 70 62 71 6 72 7 73 8 74 9 75
REMARK SMILES IDX 10 77 11 78 12 79 28 80 13 81 15 82 29 83 14 84 16 85 17 86
REMARK SMILES IDX 18 87 22 88 19 89 21 90 20 91 23 92 27 93 24 94 25 95 26 96
REMARK H PARENT 3 6 86 24 54 35 8 76
REMARK Flexibility Score: inf
ROOT
ATOM      1  C   UNL     1       5.008  -0.029  -2.615  1.00  0.00     0.023 C 
ENDROOT
BRANCH   1   2
ATOM      2  C   UNL     1       4.690   0.371  -1.181  1.00  0.00     0.116 C 
BRANCH   2   3
ATOM      3  N   UNL     1       3.265   0.507  -0.929  1.00  0.00    -0.352 N 
ATOM      4  O   UNL     1       1.279   0.075   0.042  1.00  0.00    -0.269 OA
ATOM      5  C   UNL     1       2.495  -0.048   0.067  1.00  0.00     0.251 C 
ATOM      6  H   UNL     1       2.779   1.081  -1.564  1.00  0.00     0.163 HD
BRANCH   5   7
ATOM      7  C   UNL     1       3.137  -0.821   1.155  1.00  0.00     0.039 A 
ATOM      8  C   UNL     1       2.536  -2.010   1.578  1.00  0.00     0.014 A 
ATOM      9  C   UNL     1       4.313  -0.378   1.765  1.00  0.00     0.014 A 
ATOM     10  C   UNL     1       3.141  -2.776   2.577  1.00  0.00     0.010 A 
ATOM     11  C   UNL     1       4.963  -1.187   2.692  1.00  0.00     0.010 A 
ATOM     12  C   UNL     1       4.374  -2.383   3.126  1.00  0.00    -0.014 A 
BRANCH  12  13
ATOM     13  C   UNL     1       5.025  -3.180   4.197  1.00  0.00     0.031 A 
ATOM     14  C   UNL     1       5.223  -2.574   5.561  1.00  0.00     0.074 A 
ATOM     15  C   UNL     1       5.463  -4.428   3.942  1.00  0.00     0.049 A 
ATOM     16  N   UNL     1       5.803  -3.086   6.618  1.00  0.00    -0.248 NA
ATOM     17  C   UNL     1       4.730  -1.200   5.760  1.00  0.00     0.031 C 
ATOM     18  C   UNL     1       5.372  -5.110   2.650  1.00  0.00     0.029 A 
ATOM     19  N   UNL     1       6.069  -5.350   4.761  1.00  0.00    -0.354 N 
ATOM     20  C   UNL     1       5.758  -2.095   7.589  1.00  0.00     0.074 A 
ATOM     21  C   UNL     1       5.153  -0.930   6.986  1.00  0.00     0.031 C 
ATOM     22  C   UNL     1       5.863  -6.354   2.774  1.00  0.00     0.029 A 
ATOM     23  C   UNL     1       6.335  -6.548   4.142  1.00  0.00     0.049 A 
ATOM     24  H   UNL     1       6.293  -5.169   5.702  1.00  0.00     0.167 HD
ATOM     25  C   UNL     1       6.151  -2.162   8.882  1.00  0.00     0.037 A 
ATOM     26  C   UNL     1       6.888  -7.677   4.628  1.00  0.00     0.037 A 
ATOM     27  C   UNL     1       6.696  -3.339   9.499  1.00  0.00     0.049 A 
ATOM     28  C   UNL     1       7.307  -7.728   6.074  1.00  0.00     0.074 A 
ATOM     29  C   UNL     1       7.063  -3.525  10.820  1.00  0.00     0.029 A 
ATOM     30  N   UNL     1       6.936  -4.535   8.840  1.00  0.00    -0.354 N 
ATOM     31  N   UNL     1       7.204  -6.803   6.996  1.00  0.00    -0.248 NA
ATOM     32  C   UNL     1       7.917  -8.980   6.548  1.00  0.00     0.031 C 
ATOM     33  C   UNL     1       7.556  -4.825  10.955  1.00  0.00     0.029 A 
ATOM     34  C   UNL     1       7.459  -5.460   9.727  1.00  0.00     0.049 A 
ATOM     35  H   UNL     1       6.762  -4.700   7.886  1.00  0.00     0.167 HD
ATOM     36  C   UNL     1       7.707  -7.366   8.160  1.00  0.00     0.074 A 
ATOM     37  C   UNL     1       8.108  -8.718   7.834  1.00  0.00     0.031 C 
ATOM     38  C   UNL     1       7.827  -6.809   9.389  1.00  0.00     0.037 A 
BRANCH  25  39
ATOM     39  C   UNL     1       5.972  -0.944   9.736  1.00  0.00     0.064 A 
ATOM     40  C   UNL     1       4.700  -0.536  10.165  1.00  0.00     0.173 A 
ATOM     41  C   UNL     1       7.084  -0.226  10.201  1.00  0.00     0.173 A 
ATOM     42  F   UNL     1       3.605  -1.184   9.739  1.00  0.00    -0.203 F 
ATOM     43  C   UNL     1       4.547   0.552  11.018  1.00  0.00     0.198 A 
ATOM     44  C   UNL     1       6.929   0.845  11.076  1.00  0.00     0.198 A 
ATOM     45  F   UNL     1       8.322  -0.580   9.825  1.00  0.00    -0.203 F 
ATOM     46  F   UNL     1       3.320   0.940  11.393  1.00  0.00    -0.200 F 
ATOM     47  C   UNL     1       5.661   1.234  11.482  1.00  0.00     0.200 A 
ATOM     48  F   UNL     1       8.008   1.495  11.535  1.00  0.00    -0.200 F 
ATOM     49  F   UNL     1       5.513   2.268  12.322  1.00  0.00    -0.200 F 
ENDBRANCH  25  39
BRANCH  26  50
ATOM     50  C   UNL     1       7.033  -8.868   3.752  1.00  0.00     0.064 A 
ATOM     51  C   UNL     1       6.239 -10.006   3.954  1.00  0.00     0.173 A 
ATOM     52  C   UNL     1       7.956  -8.896   2.696  1.00  0.00     0.173 A 
ATOM     53  F   UNL     1       5.356 -10.035   4.963  1.00  0.00    -0.203 F 
ATOM     54  C   UNL     1       6.372 -11.131   3.142  1.00  0.00     0.198 A 
ATOM     55  C   UNL     1       8.070 -10.012   1.869  1.00  0.00     0.198 A 
ATOM     56  F   UNL     1       8.736  -7.832   2.458  1.00  0.00    -0.203 F 
ATOM     57  F   UNL     1       5.627 -12.219   3.381  1.00  0.00    -0.200 F 
ATOM     58  C   UNL     1       7.283 -11.131   2.097  1.00  0.00     0.200 A 
ATOM     59  F   UNL     1       8.943 -10.004   0.852  1.00  0.00    -0.200 F 
ATOM     60  F   UNL     1       7.406 -12.211   1.313  1.00  0.00    -0.200 F 
ENDBRANCH  26  50
BRANCH  38  61
ATOM     61  C   UNL     1       8.386  -7.653  10.494  1.00  0.00     0.064 A 
ATOM     62  C   UNL     1       9.760  -7.907  10.590  1.00  0.00     0.173 A 
ATOM     63  C   UNL     1       7.555  -8.099  11.533  1.00  0.00     0.173 A 
ATOM     64  F   UNL     1      10.590  -7.506   9.615  1.00  0.00    -0.203 F 
ATOM     65  C   UNL     1      10.286  -8.575  11.692  1.00  0.00     0.198 A 
ATOM     66  C   UNL     1       8.087  -8.746  12.644  1.00  0.00     0.198 A 
ATOM     67  F   UNL     1       6.234  -7.869  11.489  1.00  0.00    -0.203 F 
ATOM     68  F   UNL     1      11.602  -8.816  11.761  1.00  0.00    -0.200 F 
ATOM     69  C   UNL     1       9.451  -8.982  12.723  1.00  0.00     0.200 A 
ATOM     70  F   UNL     1       7.282  -9.123  13.647  1.00  0.00    -0.200 F 
ATOM     71  F   UNL     1       9.964  -9.597  13.797  1.00  0.00    -0.200 F 
ENDBRANCH  38  61
ENDBRANCH  12  13
ENDBRANCH   5   7
ENDBRANCH   2   3
ENDBRANCH   1   2
BRANCH   1  72
ATOM     72  C   UNL     1       4.543   0.958  -3.681  1.00  0.00     0.023 C 
BRANCH  72  73
ATOM     73  C   UNL     1       5.005   2.395  -3.472  1.00  0.00     0.116 C 
BRANCH  73  74
ATOM     74  N   UNL     1       6.453   2.522  -3.489  1.00  0.00    -0.352 N 
ATOM     75  C   UNL     1       7.224   3.361  -4.244  1.00  0.00     0.256 C 
ATOM     76  H   UNL     1       6.942   1.927  -2.876  1.00  0.00     0.163 HD
ATOM     77  O   UNL     1       8.450   3.291  -4.184  1.00  0.00    -0.269 OA
BRANCH  75  78
ATOM     78  C   UNL     1       6.549   4.271  -5.190  1.00  0.00     0.105 A 
ATOM     79  C   UNL     1       6.836   4.135  -6.495  1.00  0.00     0.021 A 
ATOM     80  C   UNL     1       5.529   5.265  -4.749  1.00  0.00     0.263 A 
ATOM     81  C   UNL     1       6.126   4.904  -7.484  1.00  0.00     0.019 A 
ATOM     82  N   UNL     1       4.844   5.930  -5.771  1.00  0.00    -0.310 N 
ATOM     83  O   UNL     1       5.293   5.434  -3.554  1.00  0.00    -0.268 OA
ATOM     84  C   UNL     1       5.159   5.748  -7.108  1.00  0.00     0.089 A 
BRANCH  82  85
ATOM     85  C   UNL     1       3.797   6.874  -5.396  1.00  0.00     0.161 C 
BRANCH  85  86
ATOM     86  C   UNL     1       4.336   8.277  -5.237  1.00  0.00    -0.024 A 
ATOM     87  C   UNL     1       4.254   9.200  -6.305  1.00  0.00     0.010 A 
ATOM     88  C   UNL     1       4.958   8.658  -4.035  1.00  0.00     0.056 A 
ATOM     89  C   UNL     1       4.773  10.491  -6.179  1.00  0.00     0.051 A 
ATOM     90  C   UNL     1       5.452   9.940  -3.937  1.00  0.00     0.173 A 
ATOM     91  C   UNL     1       5.360  10.832  -4.980  1.00  0.00     0.172 A 
ATOM     92  O   UNL     1       6.064  10.472  -2.847  1.00  0.00    -0.395 OA
ATOM     93  O   UNL     1       5.900  12.043  -4.676  1.00  0.00    -0.395 OA
ATOM     94  C   UNL     1       6.233  11.821  -3.298  1.00  0.00     0.586 C 
ATOM     95  F   UNL     1       5.451  12.627  -2.535  1.00  0.00    -0.125 F 
ATOM     96  F   UNL     1       7.521  12.191  -3.097  1.00  0.00    -0.125 F 
ENDBRANCH  85  86
ENDBRANCH  82  85
ENDBRANCH  75  78
ENDBRANCH  73  74
ENDBRANCH  72  73
ENDBRANCH   1  72
TORSDOF 13
