REMARK SMILES COC[C@@H](C)[C@@](O)(C(=O)NCCCCNC(=O)c1ccc(-c2c3nc(c(-c4c(F)c(F)c(F)c(F)c4F)c4ccc([nH]4)c(-c4c(F)c(F)c(F)c(F)c4F)c4nc(c(-c5c(F)c(F)c(F)c(F)c5F)c5ccc2[nH]5)C=C4)C=C3)cc1)C(C)C
REMARK SMILES IDX 12 1 11 2 10 3 8 4 9 5 6 7 4 8 5 9 3 10 2 11 1 12 7 13 81 15
REMARK SMILES IDX 82 16 83 17 13 18 14 19 15 20 16 21 17 23 18 24 19 25 80 26
REMARK SMILES IDX 20 27 79 28 21 29 22 30 23 31 73 32 24 33 78 34 72 35 74 36
REMARK SMILES IDX 25 37 77 38 71 39 70 40 26 42 58 43 38 44 57 45 39 46 42 47
REMARK SMILES IDX 56 48 75 49 40 50 41 51 55 53 76 54 43 55 27 56 28 57 36 58
REMARK SMILES IDX 29 59 30 60 34 61 37 62 31 63 32 64 35 65 33 66 59 67 60 68
REMARK SMILES IDX 68 69 61 70 62 71 66 72 69 73 63 74 64 75 67 76 65 77 44 78
REMARK SMILES IDX 45 79 53 80 46 81 47 82 51 83 54 84 48 85 49 86 52 87 50 88
REMARK H PARENT 10 6 7 14 15 22 74 41 42 52
REMARK Flexibility Score: inf
ROOT
ATOM      1  C   UNL     1      -2.634  -3.345   1.236  1.00  0.00     0.023 C 
ENDROOT
BRANCH   1   2
ATOM      2  C   UNL     1      -1.860  -3.824   2.466  1.00  0.00     0.116 C 
BRANCH   2   3
ATOM      3  N   UNL     1      -0.784  -4.730   2.112  1.00  0.00    -0.354 N 
ATOM      4  C   UNL     1       0.571  -4.556   2.094  1.00  0.00     0.252 C 
ATOM      5  O   UNL     1       1.229  -5.558   1.791  1.00  0.00    -0.272 OA
ATOM      6  H   UNL     1      -1.083  -5.626   1.835  1.00  0.00     0.163 HD
BRANCH   4   7
ATOM      7  C   UNL     1       1.253  -3.165   2.401  1.00  0.00     0.150 C 
BRANCH   7   8
ATOM      8  C   UNL     1       0.770  -2.086   1.374  1.00  0.00     0.053 C 
ATOM      9  C   UNL     1       0.974  -2.480  -0.096  1.00  0.00     0.014 C 
BRANCH   8  10
ATOM     10  C   UNL     1       1.279  -0.659   1.642  1.00  0.00     0.166 C 
BRANCH  10  11
ATOM     11  O   UNL     1       0.470   0.326   0.990  1.00  0.00    -0.384 OA
ATOM     12  C   UNL     1       0.994   0.788  -0.247  1.00  0.00     0.194 C 
ENDBRANCH  10  11
ENDBRANCH   8  10
ENDBRANCH   7   8
BRANCH   7  13
ATOM     13  O   UNL     1       0.734  -2.834   3.712  1.00  0.00    -0.379 OA
ATOM     14  H   UNL     1      -0.224  -2.689   3.654  1.00  0.00     0.212 HD
ENDBRANCH   7  13
BRANCH   7  15
ATOM     15  C   UNL     1       2.805  -3.388   2.562  1.00  0.00     0.025 C 
ATOM     16  C   UNL     1       3.568  -3.654   1.259  1.00  0.00     0.011 C 
ATOM     17  C   UNL     1       3.566  -2.309   3.349  1.00  0.00     0.011 C 
ENDBRANCH   7  15
ENDBRANCH   4   7
ENDBRANCH   2   3
ENDBRANCH   1   2
BRANCH   1  18
ATOM     18  C   UNL     1      -3.408  -4.433   0.493  1.00  0.00     0.023 C 
BRANCH  18  19
ATOM     19  C   UNL     1      -4.439  -5.174   1.330  1.00  0.00     0.116 C 
BRANCH  19  20
ATOM     20  N   UNL     1      -5.454  -4.300   1.898  1.00  0.00    -0.352 N 
ATOM     21  C   UNL     1      -6.802  -4.538   2.048  1.00  0.00     0.251 C 
ATOM     22  H   UNL     1      -5.136  -3.425   2.217  1.00  0.00     0.163 HD
ATOM     23  O   UNL     1      -7.554  -3.665   2.449  1.00  0.00    -0.269 OA
BRANCH  21  24
ATOM     24  C   UNL     1      -7.334  -5.866   1.675  1.00  0.00     0.039 A 
ATOM     25  C   UNL     1      -8.435  -5.937   0.818  1.00  0.00     0.014 A 
ATOM     26  C   UNL     1      -6.713  -7.029   2.134  1.00  0.00     0.014 A 
ATOM     27  C   UNL     1      -8.873  -7.182   0.363  1.00  0.00     0.010 A 
ATOM     28  C   UNL     1      -7.104  -8.261   1.624  1.00  0.00     0.010 A 
ATOM     29  C   UNL     1      -8.187  -8.348   0.735  1.00  0.00    -0.014 A 
BRANCH  29  30
ATOM     30  C   UNL     1      -8.585  -9.686   0.232  1.00  0.00     0.031 A 
ATOM     31  C   UNL     1      -9.069 -10.723   1.203  1.00  0.00     0.074 A 
ATOM     32  C   UNL     1      -8.407  -9.998  -1.065  1.00  0.00     0.049 A 
ATOM     33  N   UNL     1      -9.300 -11.997   1.012  1.00  0.00    -0.248 NA
ATOM     34  C   UNL     1      -9.288 -10.272   2.586  1.00  0.00     0.031 C 
ATOM     35  C   UNL     1      -7.907  -9.088  -2.096  1.00  0.00     0.029 A 
ATOM     36  N   UNL     1      -8.603 -11.182  -1.731  1.00  0.00    -0.354 N 
ATOM     37  C   UNL     1      -9.653 -12.504   2.255  1.00  0.00     0.074 A 
ATOM     38  C   UNL     1      -9.569 -11.411   3.200  1.00  0.00     0.031 C 
ATOM     39  C   UNL     1      -7.841  -9.745  -3.265  1.00  0.00     0.029 A 
ATOM     40  C   UNL     1      -8.254 -11.130  -3.058  1.00  0.00     0.049 A 
ATOM     41  H   UNL     1      -8.960 -11.992  -1.299  1.00  0.00     0.167 HD
ATOM     42  C   UNL     1     -10.030 -13.764   2.575  1.00  0.00     0.037 A 
ATOM     43  C   UNL     1      -8.250 -12.097  -3.996  1.00  0.00     0.037 A 
ATOM     44  C   UNL     1     -10.150 -14.836   1.623  1.00  0.00     0.049 A 
ATOM     45  C   UNL     1      -8.693 -13.485  -3.622  1.00  0.00     0.074 A 
ATOM     46  C   UNL     1     -10.585 -16.132   1.832  1.00  0.00     0.029 A 
ATOM     47  N   UNL     1      -9.838 -14.730   0.275  1.00  0.00    -0.354 N 
ATOM     48  N   UNL     1      -9.073 -13.945  -2.454  1.00  0.00    -0.248 NA
ATOM     49  C   UNL     1      -8.711 -14.488  -4.696  1.00  0.00     0.031 C 
ATOM     50  C   UNL     1     -10.503 -16.821   0.618  1.00  0.00     0.029 A 
ATOM     51  C   UNL     1     -10.059 -15.942  -0.357  1.00  0.00     0.049 A 
ATOM     52  H   UNL     1      -9.507 -13.914  -0.166  1.00  0.00     0.167 HD
ATOM     53  C   UNL     1      -9.404 -15.277  -2.658  1.00  0.00     0.074 A 
ATOM     54  C   UNL     1      -9.184 -15.553  -4.063  1.00  0.00     0.031 C 
ATOM     55  C   UNL     1      -9.852 -16.190  -1.761  1.00  0.00     0.037 A 
BRANCH  42  56
ATOM     56  C   UNL     1     -10.332 -14.047   4.017  1.00  0.00     0.064 A 
ATOM     57  C   UNL     1     -11.468 -13.518   4.649  1.00  0.00     0.173 A 
ATOM     58  C   UNL     1      -9.481 -14.865   4.774  1.00  0.00     0.173 A 
ATOM     59  F   UNL     1     -12.306 -12.718   3.973  1.00  0.00    -0.203 F 
ATOM     60  C   UNL     1     -11.719 -13.766   5.996  1.00  0.00     0.198 A 
ATOM     61  C   UNL     1      -9.752 -15.136   6.113  1.00  0.00     0.198 A 
ATOM     62  F   UNL     1      -8.384 -15.400   4.217  1.00  0.00    -0.203 F 
ATOM     63  F   UNL     1     -12.777 -13.201   6.593  1.00  0.00    -0.200 F 
ATOM     64  C   UNL     1     -10.864 -14.579   6.725  1.00  0.00     0.200 A 
ATOM     65  F   UNL     1      -8.931 -15.931   6.813  1.00  0.00    -0.200 F 
ATOM     66  F   UNL     1     -11.107 -14.816   8.021  1.00  0.00    -0.200 F 
ENDBRANCH  42  56
BRANCH  43  67
ATOM     67  C   UNL     1      -7.837 -11.774  -5.385  1.00  0.00     0.064 A 
ATOM     68  C   UNL     1      -8.784 -11.708  -6.416  1.00  0.00     0.173 A 
ATOM     69  C   UNL     1      -6.499 -11.507  -5.707  1.00  0.00     0.173 A 
ATOM     70  F   UNL     1     -10.073 -11.975  -6.158  1.00  0.00    -0.203 F 
ATOM     71  C   UNL     1      -8.406 -11.400  -7.721  1.00  0.00     0.198 A 
ATOM     72  C   UNL     1      -6.126 -11.176  -7.008  1.00  0.00     0.198 A 
ATOM     73  F   UNL     1      -5.556 -11.552  -4.754  1.00  0.00    -0.203 F 
ATOM     74  F   UNL     1      -9.326 -11.377  -8.695  1.00  0.00    -0.200 F 
ATOM     75  C   UNL     1      -7.079 -11.128  -8.015  1.00  0.00     0.200 A 
ATOM     76  F   UNL     1      -4.844 -10.900  -7.286  1.00  0.00    -0.200 F 
ATOM     77  F   UNL     1      -6.717 -10.823  -9.269  1.00  0.00    -0.200 F 
ENDBRANCH  43  67
BRANCH  55  78
ATOM     78  C   UNL     1     -10.185 -17.558  -2.276  1.00  0.00     0.064 A 
ATOM     79  C   UNL     1      -9.186 -18.480  -2.619  1.00  0.00     0.173 A 
ATOM     80  C   UNL     1     -11.524 -17.970  -2.369  1.00  0.00     0.173 A 
ATOM     81  F   UNL     1      -7.894 -18.126  -2.561  1.00  0.00    -0.203 F 
ATOM     82  C   UNL     1      -9.516 -19.762  -3.049  1.00  0.00     0.198 A 
ATOM     83  C   UNL     1     -11.848 -19.261  -2.775  1.00  0.00     0.198 A 
ATOM     84  F   UNL     1     -12.515 -17.125  -2.047  1.00  0.00    -0.203 F 
ATOM     85  F   UNL     1      -8.547 -20.617  -3.404  1.00  0.00    -0.200 F 
ATOM     86  C   UNL     1     -10.845 -20.154  -3.118  1.00  0.00     0.200 A 
ATOM     87  F   UNL     1     -13.132 -19.642  -2.830  1.00  0.00    -0.200 F 
ATOM     88  F   UNL     1     -11.159 -21.393  -3.521  1.00  0.00    -0.200 F 
ENDBRANCH  55  78
ENDBRANCH  29  30
ENDBRANCH  21  24
ENDBRANCH  19  20
ENDBRANCH  18  19
ENDBRANCH   1  18
TORSDOF 16
