REMARK SMILES CN(C)c1cc(C(F)(F)F)cc(-c2cccc(/C=C/C(=O)NCCCCNC(=O)c3ccc(-c4c5nc(c(-c6c(F)c(F)c(F)c(F)c6F)c6ccc([nH]6)c(-c6c(F)c(F)c(F)c(F)c6F)c6nc(c(-c7c(F)c(F)c(F)c(F)c7F)c7ccc4[nH]7)C=C6)C=C5)cc3)c2)n1
REMARK SMILES IDX 24 1 23 2 22 3 20 4 21 5 19 7 18 8 17 9 13 10 14 11 93 12
REMARK SMILES IDX 15 13 16 14 12 15 4 16 5 17 94 18 6 19 11 20 2 21 1 22 3 23
REMARK SMILES IDX 7 24 8 25 9 26 10 27 25 28 26 29 27 30 28 31 29 33 30 34
REMARK SMILES IDX 31 35 92 36 32 37 91 38 33 39 34 40 35 41 85 42 36 43 90 44
REMARK SMILES IDX 84 45 86 46 37 47 89 48 83 49 82 50 38 52 70 53 50 54 69 55
REMARK SMILES IDX 51 56 54 57 68 58 87 59 52 60 53 61 67 63 88 64 55 65 39 66
REMARK SMILES IDX 40 67 48 68 41 69 42 70 46 71 49 72 43 73 44 74 47 75 45 76
REMARK SMILES IDX 71 77 72 78 80 79 73 80 74 81 78 82 81 83 75 84 76 85 79 86
REMARK SMILES IDX 77 87 56 88 57 89 65 90 58 91 59 92 63 93 66 94 60 95 61 96
REMARK SMILES IDX 64 97 62 98
REMARK H PARENT 22 6 27 32 86 51 54 62
REMARK Flexibility Score: inf
ROOT
ATOM      1  C   UNL     1       0.827  10.578  -0.786  1.00  0.00     0.023 C 
ENDROOT
BRANCH   1   2
ATOM      2  C   UNL     1       0.642  11.061   0.654  1.00  0.00     0.116 C 
BRANCH   2   3
ATOM      3  N   UNL     1      -0.627  11.744   0.825  1.00  0.00    -0.353 N 
ATOM      4  C   UNL     1      -1.762  11.341   1.462  1.00  0.00     0.243 C 
ATOM      5  O   UNL     1      -2.697  12.126   1.598  1.00  0.00    -0.270 OA
ATOM      6  H   UNL     1      -0.676  12.639   0.417  1.00  0.00     0.163 HD
BRANCH   4   7
ATOM      7  C   UNL     1      -1.847   9.994   2.069  1.00  0.00     0.072 C 
ATOM      8  C   UNL     1      -1.533   8.870   1.410  1.00  0.00     0.014 C 
BRANCH   8   9
ATOM      9  C   UNL     1      -1.614   7.523   1.983  1.00  0.00    -0.025 A 
ATOM     10  C   UNL     1      -0.641   5.283   2.151  1.00  0.00     0.001 A 
ATOM     11  C   UNL     1      -1.766   4.875   2.882  1.00  0.00     0.010 A 
ATOM     12  C   UNL     1      -0.582   6.614   1.705  1.00  0.00     0.018 A 
ATOM     13  C   UNL     1      -2.794   5.775   3.173  1.00  0.00     0.001 A 
ATOM     14  C   UNL     1      -2.720   7.093   2.723  1.00  0.00     0.008 A 
BRANCH  10  15
ATOM     15  C   UNL     1       0.431   4.337   1.831  1.00  0.00     0.073 A 
ATOM     16  C   UNL     1       1.033   2.462   0.569  1.00  0.00     0.129 A 
ATOM     17  C   UNL     1       2.316   2.504   1.109  1.00  0.00     0.060 A 
ATOM     18  N   UNL     1       0.111   3.378   0.931  1.00  0.00    -0.231 NA
ATOM     19  C   UNL     1       2.664   3.502   2.027  1.00  0.00     0.061 A 
ATOM     20  C   UNL     1       1.694   4.435   2.396  1.00  0.00     0.042 A 
BRANCH  16  21
ATOM     21  N   UNL     1       0.691   1.507  -0.383  1.00  0.00    -0.363 N 
ATOM     22  C   UNL     1       1.026   0.118  -0.115  1.00  0.00     0.144 C 
ATOM     23  C   UNL     1      -0.512   1.780  -1.155  1.00  0.00     0.144 C 
ENDBRANCH  16  21
BRANCH  19  24
ATOM     24  C   UNL     1       4.058   3.599   2.579  1.00  0.00     0.416 C 
ATOM     25  F   UNL     1       4.686   4.744   2.193  1.00  0.00    -0.166 F 
ATOM     26  F   UNL     1       4.080   3.603   3.941  1.00  0.00    -0.166 F 
ATOM     27  F   UNL     1       4.872   2.577   2.196  1.00  0.00    -0.166 F 
ENDBRANCH  19  24
ENDBRANCH  10  15
ENDBRANCH   8   9
ENDBRANCH   4   7
ENDBRANCH   2   3
ENDBRANCH   1   2
BRANCH   1  28
ATOM     28  C   UNL     1       1.187  11.680  -1.786  1.00  0.00     0.023 C 
BRANCH  28  29
ATOM     29  C   UNL     1       2.512  12.385  -1.520  1.00  0.00     0.116 C 
BRANCH  29  30
ATOM     30  N   UNL     1       3.658  11.489  -1.513  1.00  0.00    -0.352 N 
ATOM     31  C   UNL     1       4.963  11.777  -1.844  1.00  0.00     0.251 C 
ATOM     32  H   UNL     1       3.478  10.561  -1.238  1.00  0.00     0.163 HD
ATOM     33  O   UNL     1       5.811  10.897  -1.880  1.00  0.00    -0.269 OA
BRANCH  31  34
ATOM     34  C   UNL     1       5.316  13.165  -2.204  1.00  0.00     0.039 A 
ATOM     35  C   UNL     1       5.969  13.402  -3.416  1.00  0.00     0.014 A 
ATOM     36  C   UNL     1       4.954  14.227  -1.373  1.00  0.00     0.014 A 
ATOM     37  C   UNL     1       6.193  14.715  -3.833  1.00  0.00     0.010 A 
ATOM     38  C   UNL     1       5.122  15.534  -1.817  1.00  0.00     0.010 A 
ATOM     39  C   UNL     1       5.735  15.789  -3.054  1.00  0.00    -0.014 A 
BRANCH  39  40
ATOM     40  C   UNL     1       5.876  17.194  -3.507  1.00  0.00     0.031 A 
ATOM     41  C   UNL     1       6.742  18.144  -2.732  1.00  0.00     0.074 A 
ATOM     42  C   UNL     1       5.148  17.636  -4.550  1.00  0.00     0.049 A 
ATOM     43  N   UNL     1       6.885  19.437  -2.869  1.00  0.00    -0.248 NA
ATOM     44  C   UNL     1       7.530  17.564  -1.633  1.00  0.00     0.031 C 
ATOM     45  C   UNL     1       4.239  16.820  -5.355  1.00  0.00     0.029 A 
ATOM     46  N   UNL     1       5.041  18.891  -5.097  1.00  0.00    -0.354 N 
ATOM     47  C   UNL     1       7.754  19.828  -1.859  1.00  0.00     0.074 A 
ATOM     48  C   UNL     1       8.076  18.643  -1.093  1.00  0.00     0.031 C 
ATOM     49  C   UNL     1       3.674  17.591  -6.298  1.00  0.00     0.029 A 
ATOM     50  C   UNL     1       4.150  18.962  -6.140  1.00  0.00     0.049 A 
ATOM     51  H   UNL     1       5.554  19.666  -4.772  1.00  0.00     0.167 HD
ATOM     52  C   UNL     1       8.250  21.062  -1.606  1.00  0.00     0.037 A 
ATOM     53  C   UNL     1       3.754  20.018  -6.875  1.00  0.00     0.037 A 
ATOM     54  C   UNL     1       7.954  22.230  -2.392  1.00  0.00     0.049 A 
ATOM     55  C   UNL     1       4.333  21.376  -6.583  1.00  0.00     0.074 A 
ATOM     56  C   UNL     1       8.452  23.514  -2.254  1.00  0.00     0.029 A 
ATOM     57  N   UNL     1       7.082  22.253  -3.471  1.00  0.00    -0.354 N 
ATOM     58  N   UNL     1       5.193  21.726  -5.659  1.00  0.00    -0.248 NA
ATOM     59  C   UNL     1       3.889  22.484  -7.441  1.00  0.00     0.031 C 
ATOM     60  C   UNL     1       7.857  24.322  -3.229  1.00  0.00     0.029 A 
ATOM     61  C   UNL     1       7.020  23.532  -4.001  1.00  0.00     0.049 A 
ATOM     62  H   UNL     1       6.582  21.476  -3.810  1.00  0.00     0.167 HD
ATOM     63  C   UNL     1       5.417  23.084  -5.840  1.00  0.00     0.074 A 
ATOM     64  C   UNL     1       4.607  23.494  -6.969  1.00  0.00     0.031 C 
ATOM     65  C   UNL     1       6.222  23.916  -5.136  1.00  0.00     0.037 A 
BRANCH  52  66
ATOM     66  C   UNL     1       9.166  21.209  -0.427  1.00  0.00     0.064 A 
ATOM     67  C   UNL     1      10.465  20.679  -0.436  1.00  0.00     0.173 A 
ATOM     68  C   UNL     1       8.750  21.910   0.715  1.00  0.00     0.173 A 
ATOM     69  F   UNL     1      10.905  19.989  -1.499  1.00  0.00    -0.203 F 
ATOM     70  C   UNL     1      11.302  20.818   0.668  1.00  0.00     0.198 A 
ATOM     71  C   UNL     1       9.601  22.072   1.805  1.00  0.00     0.198 A 
ATOM     72  F   UNL     1       7.519  22.441   0.772  1.00  0.00    -0.203 F 
ATOM     73  F   UNL     1      12.520  20.258   0.656  1.00  0.00    -0.200 F 
ATOM     74  C   UNL     1      10.872  21.519   1.784  1.00  0.00     0.200 A 
ATOM     75  F   UNL     1       9.188  22.759   2.879  1.00  0.00    -0.200 F 
ATOM     76  F   UNL     1      11.681  21.655   2.844  1.00  0.00    -0.200 F 
ENDBRANCH  52  66
BRANCH  53  77
ATOM     77  C   UNL     1       2.775  19.828  -7.975  1.00  0.00     0.064 A 
ATOM     78  C   UNL     1       3.177  19.920  -9.315  1.00  0.00     0.173 A 
ATOM     79  C   UNL     1       1.425  19.551  -7.715  1.00  0.00     0.173 A 
ATOM     80  F   UNL     1       4.454  20.204  -9.611  1.00  0.00    -0.203 F 
ATOM     81  C   UNL     1       2.263  19.759 -10.354  1.00  0.00     0.198 A 
ATOM     82  C   UNL     1       0.517  19.365  -8.755  1.00  0.00     0.198 A 
ATOM     83  F   UNL     1       0.992  19.448  -6.450  1.00  0.00    -0.203 F 
ATOM     84  F   UNL     1       2.667  19.891 -11.624  1.00  0.00    -0.200 F 
ATOM     85  C   UNL     1       0.935  19.476 -10.073  1.00  0.00     0.200 A 
ATOM     86  F   UNL     1      -0.763  19.080  -8.481  1.00  0.00    -0.200 F 
ATOM     87  F   UNL     1       0.057  19.317 -11.073  1.00  0.00    -0.200 F 
ENDBRANCH  53  77
BRANCH  65  88
ATOM     88  C   UNL     1       6.305  25.342  -5.592  1.00  0.00     0.064 A 
ATOM     89  C   UNL     1       5.261  26.249  -5.365  1.00  0.00     0.173 A 
ATOM     90  C   UNL     1       7.467  25.816  -6.220  1.00  0.00     0.173 A 
ATOM     91  F   UNL     1       4.125  25.838  -4.782  1.00  0.00    -0.203 F 
ATOM     92  C   UNL     1       5.370  27.578  -5.766  1.00  0.00     0.198 A 
ATOM     93  C   UNL     1       7.583  27.151  -6.597  1.00  0.00     0.198 A 
ATOM     94  F   UNL     1       8.495  24.987  -6.455  1.00  0.00    -0.203 F 
ATOM     95  F   UNL     1       4.346  28.421  -5.573  1.00  0.00    -0.200 F 
ATOM     96  C   UNL     1       6.533  28.029  -6.374  1.00  0.00     0.200 A 
ATOM     97  F   UNL     1       8.710  27.587  -7.174  1.00  0.00    -0.200 F 
ATOM     98  F   UNL     1       6.640  29.311  -6.751  1.00  0.00    -0.200 F 
ENDBRANCH  65  88
ENDBRANCH  39  40
ENDBRANCH  31  34
ENDBRANCH  29  30
ENDBRANCH  28  29
ENDBRANCH   1  28
TORSDOF 15
