REMARK SMILES CCOC(=O)C1=NN(c2ccc(Cl)cc2F)[C@@H](C(=O)NCCCCNC(=O)c2ccc(-c3c4nc(c(-c5c(F)c(F)c(F)c(F)c5F)c5ccc([nH]5)c(-c5c(F)c(F)c(F)c(F)c5F)c5nc(c(-c6c(F)c(F)c(F)c(F)c6F)c6ccc3[nH]6)C=C5)C=C4)cc2)C1
REMARK SMILES IDX 22 1 21 2 20 3 18 4 19 5 17 7 6 8 7 9 91 10 8 11 4 12 5 13
REMARK SMILES IDX 3 14 2 15 1 16 9 17 10 18 15 19 11 20 14 21 16 22 12 23
REMARK SMILES IDX 13 24 23 25 24 26 25 27 26 28 27 30 28 31 29 32 90 33 30 34
REMARK SMILES IDX 89 35 31 36 32 37 33 38 83 39 34 40 88 41 82 42 84 43 35 44
REMARK SMILES IDX 87 45 81 46 80 47 36 49 68 50 48 51 67 52 49 53 52 54 66 55
REMARK SMILES IDX 85 56 50 57 51 58 65 60 86 61 53 62 37 63 38 64 46 65 39 66
REMARK SMILES IDX 40 67 44 68 47 69 41 70 42 71 45 72 43 73 69 74 70 75 78 76
REMARK SMILES IDX 71 77 72 78 76 79 79 80 73 81 74 82 77 83 75 84 54 85 55 86
REMARK SMILES IDX 63 87 56 88 57 89 61 90 64 91 58 92 59 93 62 94 60 95
REMARK H PARENT 20 6 25 29 84 48 52 59
REMARK Flexibility Score: inf
ROOT
ATOM      1  C   UNL     1       0.117   2.798   4.283  1.00  0.00     0.023 C 
ENDROOT
BRANCH   1   2
ATOM      2  C   UNL     1       1.419   3.232   4.952  1.00  0.00     0.116 C 
BRANCH   2   3
ATOM      3  N   UNL     1       1.523   2.741   6.314  1.00  0.00    -0.354 N 
ATOM      4  C   UNL     1       2.364   1.834   6.889  1.00  0.00     0.245 C 
ATOM      5  O   UNL     1       2.183   1.619   8.095  1.00  0.00    -0.273 OA
ATOM      6  H   UNL     1       0.868   3.135   6.935  1.00  0.00     0.163 HD
BRANCH   4   7
ATOM      7  C   UNL     1       3.405   1.008   6.114  1.00  0.00     0.203 C 
ATOM      8  C   UNL     1       3.234   0.318   3.924  1.00  0.00     0.148 C 
ATOM      9  N   UNL     1       4.058   1.319   3.858  1.00  0.00    -0.169 NA
ATOM     10  C   UNL     1       2.726  -0.064   5.269  1.00  0.00     0.103 C 
ATOM     11  N   UNL     1       4.204   1.769   5.144  1.00  0.00    -0.249 N 
BRANCH   8  12
ATOM     12  C   UNL     1       2.749  -0.431   2.719  1.00  0.00     0.354 C 
ATOM     13  O   UNL     1       3.418  -1.266   2.141  1.00  0.00    -0.245 OA
BRANCH  12  14
ATOM     14  O   UNL     1       1.483  -0.037   2.470  1.00  0.00    -0.461 OA
BRANCH  14  15
ATOM     15  C   UNL     1       0.843  -0.680   1.359  1.00  0.00     0.230 C 
ATOM     16  C   UNL     1       1.112   0.098   0.086  1.00  0.00     0.049 C 
ENDBRANCH  14  15
ENDBRANCH  12  14
ENDBRANCH   8  12
BRANCH  11  17
ATOM     17  C   UNL     1       5.029   2.854   5.441  1.00  0.00     0.096 A 
ATOM     18  C   UNL     1       5.461   3.719   4.416  1.00  0.00     0.032 A 
ATOM     19  C   UNL     1       5.465   3.159   6.743  1.00  0.00     0.149 A 
ATOM     20  C   UNL     1       6.254   4.841   4.683  1.00  0.00     0.023 A 
ATOM     21  C   UNL     1       6.266   4.266   7.023  1.00  0.00     0.062 A 
ATOM     22  F   UNL     1       5.137   2.368   7.776  1.00  0.00    -0.205 F 
ATOM     23  C   UNL     1       6.651   5.109   5.989  1.00  0.00     0.044 A 
ATOM     24  Cl  UNL     1       7.620   6.490   6.323  1.00  0.00    -0.084 Cl
ENDBRANCH  11  17
ENDBRANCH   4   7
ENDBRANCH   2   3
ENDBRANCH   1   2
BRANCH   1  25
ATOM     25  C   UNL     1      -1.140   3.534   4.760  1.00  0.00     0.023 C 
BRANCH  25  26
ATOM     26  C   UNL     1      -1.084   5.063   4.710  1.00  0.00     0.116 C 
BRANCH  26  27
ATOM     27  N   UNL     1      -0.652   5.586   3.426  1.00  0.00    -0.352 N 
ATOM     28  C   UNL     1      -0.983   6.758   2.794  1.00  0.00     0.251 C 
ATOM     29  H   UNL     1      -0.024   5.010   2.932  1.00  0.00     0.163 HD
ATOM     30  O   UNL     1      -0.550   6.978   1.666  1.00  0.00    -0.269 OA
BRANCH  28  31
ATOM     31  C   UNL     1      -1.887   7.741   3.431  1.00  0.00     0.039 A 
ATOM     32  C   UNL     1      -2.888   8.317   2.640  1.00  0.00     0.014 A 
ATOM     33  C   UNL     1      -1.743   8.130   4.766  1.00  0.00     0.014 A 
ATOM     34  C   UNL     1      -3.784   9.228   3.200  1.00  0.00     0.010 A 
ATOM     35  C   UNL     1      -2.657   9.020   5.335  1.00  0.00     0.010 A 
ATOM     36  C   UNL     1      -3.690   9.565   4.558  1.00  0.00    -0.014 A 
BRANCH  36  37
ATOM     37  C   UNL     1      -4.697  10.453   5.182  1.00  0.00     0.031 A 
ATOM     38  C   UNL     1      -4.363  11.874   5.518  1.00  0.00     0.074 A 
ATOM     39  C   UNL     1      -5.909   9.954   5.485  1.00  0.00     0.049 A 
ATOM     40  N   UNL     1      -5.104  12.775   6.114  1.00  0.00    -0.248 NA
ATOM     41  C   UNL     1      -3.019  12.343   5.152  1.00  0.00     0.031 C 
ATOM     42  C   UNL     1      -6.341   8.577   5.239  1.00  0.00     0.029 A 
ATOM     43  N   UNL     1      -6.997  10.547   6.074  1.00  0.00    -0.354 N 
ATOM     44  C   UNL     1      -4.309  13.906   6.221  1.00  0.00     0.074 A 
ATOM     45  C   UNL     1      -3.029  13.582   5.624  1.00  0.00     0.031 C 
ATOM     46  C   UNL     1      -7.607   8.434   5.664  1.00  0.00     0.029 A 
ATOM     47  C   UNL     1      -8.067   9.703   6.222  1.00  0.00     0.049 A 
ATOM     48  H   UNL     1      -7.008  11.488   6.362  1.00  0.00     0.167 HD
ATOM     49  C   UNL     1      -4.619  15.104   6.769  1.00  0.00     0.037 A 
ATOM     50  C   UNL     1      -9.285   9.927   6.747  1.00  0.00     0.037 A 
ATOM     51  C   UNL     1      -5.898  15.446   7.331  1.00  0.00     0.049 A 
ATOM     52  C   UNL     1      -9.627  11.287   7.279  1.00  0.00     0.074 A 
ATOM     53  C   UNL     1      -6.310  16.649   7.878  1.00  0.00     0.029 A 
ATOM     54  N   UNL     1      -6.978  14.580   7.409  1.00  0.00    -0.354 N 
ATOM     55  N   UNL     1      -8.873  12.354   7.356  1.00  0.00    -0.248 NA
ATOM     56  C   UNL     1     -10.991  11.472   7.794  1.00  0.00     0.031 C 
ATOM     57  C   UNL     1      -7.642  16.510   8.291  1.00  0.00     0.029 A 
ATOM     58  C   UNL     1      -8.057  15.223   7.992  1.00  0.00     0.049 A 
ATOM     59  H   UNL     1      -6.978  13.647   7.095  1.00  0.00     0.167 HD
ATOM     60  C   UNL     1      -9.667  13.339   7.921  1.00  0.00     0.074 A 
ATOM     61  C   UNL     1     -10.967  12.747   8.162  1.00  0.00     0.031 C 
ATOM     62  C   UNL     1      -9.344  14.620   8.216  1.00  0.00     0.037 A 
BRANCH  49  63
ATOM     63  C   UNL     1      -3.542  16.140   6.795  1.00  0.00     0.064 A 
ATOM     64  C   UNL     1      -3.287  16.953   5.683  1.00  0.00     0.173 A 
ATOM     65  C   UNL     1      -2.779  16.339   7.955  1.00  0.00     0.173 A 
ATOM     66  F   UNL     1      -3.985  16.785   4.550  1.00  0.00    -0.203 F 
ATOM     67  C   UNL     1      -2.296  17.929   5.728  1.00  0.00     0.198 A 
ATOM     68  C   UNL     1      -1.795  17.322   7.999  1.00  0.00     0.198 A 
ATOM     69  F   UNL     1      -2.987  15.580   9.040  1.00  0.00    -0.203 F 
ATOM     70  F   UNL     1      -2.054  18.685   4.648  1.00  0.00    -0.200 F 
ATOM     71  C   UNL     1      -1.553  18.114   6.886  1.00  0.00     0.200 A 
ATOM     72  F   UNL     1      -1.077  17.499   9.117  1.00  0.00    -0.200 F 
ATOM     73  F   UNL     1      -0.599  19.054   6.926  1.00  0.00    -0.200 F 
ENDBRANCH  49  63
BRANCH  50  74
ATOM     74  C   UNL     1     -10.279   8.832   6.769  1.00  0.00     0.064 A 
ATOM     75  C   UNL     1     -11.253   8.733   5.767  1.00  0.00     0.173 A 
ATOM     76  C   UNL     1     -10.256   7.854   7.771  1.00  0.00     0.173 A 
ATOM     77  F   UNL     1     -11.315   9.658   4.799  1.00  0.00    -0.203 F 
ATOM     78  C   UNL     1     -12.174   7.689   5.768  1.00  0.00     0.198 A 
ATOM     79  C   UNL     1     -11.172   6.806   7.766  1.00  0.00     0.198 A 
ATOM     80  F   UNL     1      -9.338   7.915   8.747  1.00  0.00    -0.203 F 
ATOM     81  F   UNL     1     -13.104   7.619   4.806  1.00  0.00    -0.200 F 
ATOM     82  C   UNL     1     -12.131   6.725   6.765  1.00  0.00     0.200 A 
ATOM     83  F   UNL     1     -11.127   5.875   8.728  1.00  0.00    -0.200 F 
ATOM     84  F   UNL     1     -13.015   5.719   6.763  1.00  0.00    -0.200 F 
ENDBRANCH  50  74
BRANCH  62  85
ATOM     85  C   UNL     1     -10.417  15.466   8.820  1.00  0.00     0.064 A 
ATOM     86  C   UNL     1     -10.656  15.451  10.201  1.00  0.00     0.173 A 
ATOM     87  C   UNL     1     -11.191  16.316   8.019  1.00  0.00     0.173 A 
ATOM     88  F   UNL     1      -9.947  14.640  11.000  1.00  0.00    -0.203 F 
ATOM     89  C   UNL     1     -11.644  16.256  10.760  1.00  0.00     0.198 A 
ATOM     90  C   UNL     1     -12.173  17.125   8.582  1.00  0.00     0.198 A 
ATOM     91  F   UNL     1     -10.998  16.355   6.692  1.00  0.00    -0.203 F 
ATOM     92  F   UNL     1     -11.872  16.215  12.080  1.00  0.00    -0.200 F 
ATOM     93  C   UNL     1     -12.399  17.094   9.951  1.00  0.00     0.200 A 
ATOM     94  F   UNL     1     -12.907  17.929   7.801  1.00  0.00    -0.200 F 
ATOM     95  F   UNL     1     -13.353  17.865  10.491  1.00  0.00    -0.200 F 
ENDBRANCH  62  85
ENDBRANCH  36  37
ENDBRANCH  28  31
ENDBRANCH  26  27
ENDBRANCH  25  26
ENDBRANCH   1  25
TORSDOF 15
