REMARK SMILES CCC(=O)Nc1ccc(-c2ccc(C(=O)NCCCCNC(=O)c3ccc(-c4c5nc(c(-c6c(F)c(F)c(F)c(F)c6F)c6ccc([nH]6)c(-c6c(F)c(F)c(F)c(F)c6F)c6nc(c(-c7c(F)c(F)c(F)c(F)c7F)c7ccc4[nH]7)C=C6)C=C5)cc3)cc2)nc1
REMARK SMILES IDX 18 1 17 2 16 3 14 4 15 5 13 7 10 8 11 9 88 10 12 11 87 12
REMARK SMILES IDX 9 13 6 14 7 15 90 16 8 17 89 18 5 19 3 20 4 21 2 23 1 24
REMARK SMILES IDX 19 25 20 26 21 27 22 28 23 30 24 31 25 32 86 33 26 34 85 35
REMARK SMILES IDX 27 36 28 37 29 38 79 39 30 40 84 41 78 42 80 43 31 44 83 45
REMARK SMILES IDX 77 46 76 47 32 49 64 50 44 51 63 52 45 53 48 54 62 55 81 56
REMARK SMILES IDX 46 57 47 58 61 60 82 61 49 62 33 63 34 64 42 65 35 66 36 67
REMARK SMILES IDX 40 68 43 69 37 70 38 71 41 72 39 73 65 74 66 75 74 76 67 77
REMARK SMILES IDX 68 78 72 79 75 80 69 81 70 82 73 83 71 84 50 85 51 86 59 87
REMARK SMILES IDX 52 88 53 89 57 90 60 91 54 92 55 93 58 94 56 95
REMARK H PARENT 16 6 5 22 21 29 80 48 48 59
REMARK Flexibility Score: inf
ROOT
ATOM      1  C   UNL     1      10.618   2.579   3.499  1.00  0.00     0.023 C 
ENDROOT
BRANCH   1   2
ATOM      2  C   UNL     1       9.612   3.720   3.319  1.00  0.00     0.116 C 
BRANCH   2   3
ATOM      3  N   UNL     1       9.954   4.542   2.174  1.00  0.00    -0.352 N 
ATOM      4  C   UNL     1       9.492   4.537   0.880  1.00  0.00     0.251 C 
ATOM      5  O   UNL     1       9.905   5.411   0.119  1.00  0.00    -0.269 OA
ATOM      6  H   UNL     1      10.639   5.225   2.357  1.00  0.00     0.163 HD
BRANCH   4   7
ATOM      7  C   UNL     1       8.485   3.557   0.384  1.00  0.00     0.039 A 
ATOM      8  C   UNL     1       6.455   1.835  -0.570  1.00  0.00     0.000 A 
ATOM      9  C   UNL     1       6.626   3.109  -1.125  1.00  0.00     0.011 A 
ATOM     10  C   UNL     1       7.356   1.411   0.412  1.00  0.00     0.011 A 
ATOM     11  C   UNL     1       7.627   3.965  -0.647  1.00  0.00     0.014 A 
ATOM     12  C   UNL     1       8.371   2.252   0.862  1.00  0.00     0.014 A 
BRANCH   8  13
ATOM     13  C   UNL     1       5.346   0.966  -0.950  1.00  0.00     0.070 A 
ATOM     14  C   UNL     1       3.322  -0.740  -1.690  1.00  0.00     0.059 A 
ATOM     15  C   UNL     1       3.372  -0.268  -0.385  1.00  0.00     0.030 A 
ATOM     16  C   UNL     1       4.352  -0.374  -2.547  1.00  0.00     0.137 A 
ATOM     17  C   UNL     1       4.386   0.602  -0.009  1.00  0.00     0.031 A 
ATOM     18  N   UNL     1       5.346   0.486  -2.215  1.00  0.00    -0.254 NA
BRANCH  14  19
ATOM     19  N   UNL     1       2.323  -1.626  -2.105  1.00  0.00    -0.325 N 
ATOM     20  C   UNL     1       0.988  -1.596  -1.799  1.00  0.00     0.224 C 
ATOM     21  O   UNL     1       0.309  -2.613  -1.950  1.00  0.00    -0.275 OA
ATOM     22  H   UNL     1       2.616  -2.363  -2.688  1.00  0.00     0.169 HD
BRANCH  20  23
ATOM     23  C   UNL     1       0.340  -0.265  -1.441  1.00  0.00     0.097 C 
ATOM     24  C   UNL     1       0.140  -0.019   0.041  1.00  0.00     0.014 C 
ENDBRANCH  20  23
ENDBRANCH  14  19
ENDBRANCH   8  13
ENDBRANCH   4   7
ENDBRANCH   2   3
ENDBRANCH   1   2
BRANCH   1  25
ATOM     25  C   UNL     1      11.951   2.996   4.116  1.00  0.00     0.023 C 
BRANCH  25  26
ATOM     26  C   UNL     1      11.853   3.528   5.537  1.00  0.00     0.116 C 
BRANCH  26  27
ATOM     27  N   UNL     1      11.273   2.575   6.472  1.00  0.00    -0.352 N 
ATOM     28  C   UNL     1      11.537   2.437   7.812  1.00  0.00     0.251 C 
ATOM     29  H   UNL     1      10.610   1.952   6.097  1.00  0.00     0.163 HD
ATOM     30  O   UNL     1      11.046   1.517   8.457  1.00  0.00    -0.269 OA
BRANCH  28  31
ATOM     31  C   UNL     1      12.459   3.391   8.460  1.00  0.00     0.039 A 
ATOM     32  C   UNL     1      13.508   2.893   9.236  1.00  0.00     0.014 A 
ATOM     33  C   UNL     1      12.311   4.766   8.265  1.00  0.00     0.014 A 
ATOM     34  C   UNL     1      14.446   3.777   9.771  1.00  0.00     0.010 A 
ATOM     35  C   UNL     1      13.288   5.637   8.731  1.00  0.00     0.010 A 
ATOM     36  C   UNL     1      14.359   5.151   9.497  1.00  0.00    -0.014 A 
BRANCH  36  37
ATOM     37  C   UNL     1      15.361   6.107  10.026  1.00  0.00     0.031 A 
ATOM     38  C   UNL     1      14.940   7.156  11.016  1.00  0.00     0.074 A 
ATOM     39  C   UNL     1      16.628   6.070   9.572  1.00  0.00     0.049 A 
ATOM     40  N   UNL     1      15.642   8.125  11.547  1.00  0.00    -0.248 NA
ATOM     41  C   UNL     1      13.532   7.132  11.441  1.00  0.00     0.031 C 
ATOM     42  C   UNL     1      17.143   5.129   8.577  1.00  0.00     0.029 A 
ATOM     43  N   UNL     1      17.711   6.853   9.883  1.00  0.00    -0.354 N 
ATOM     44  C   UNL     1      14.758   8.831  12.352  1.00  0.00     0.074 A 
ATOM     45  C   UNL     1      13.457   8.220  12.192  1.00  0.00     0.031 C 
ATOM     46  C   UNL     1      18.450   5.371   8.380  1.00  0.00     0.029 A 
ATOM     47  C   UNL     1      18.854   6.504   9.207  1.00  0.00     0.049 A 
ATOM     48  H   UNL     1      17.672   7.594  10.529  1.00  0.00     0.167 HD
ATOM     49  C   UNL     1      15.014   9.878  13.172  1.00  0.00     0.037 A 
ATOM     50  C   UNL     1      20.088   7.040   9.253  1.00  0.00     0.037 A 
ATOM     51  C   UNL     1      16.315  10.466  13.346  1.00  0.00     0.049 A 
ATOM     52  C   UNL     1      20.348   8.201  10.174  1.00  0.00     0.074 A 
ATOM     53  C   UNL     1      16.692  11.498  14.186  1.00  0.00     0.029 A 
ATOM     54  N   UNL     1      17.456  10.067  12.664  1.00  0.00    -0.354 N 
ATOM     55  N   UNL     1      19.520   8.822  10.978  1.00  0.00    -0.248 NA
ATOM     56  C   UNL     1      21.720   8.727  10.201  1.00  0.00     0.031 C 
ATOM     57  C   UNL     1      18.054  11.751  13.984  1.00  0.00     0.029 A 
ATOM     58  C   UNL     1      18.536  10.842  13.055  1.00  0.00     0.049 A 
ATOM     59  H   UNL     1      17.493   9.341  12.000  1.00  0.00     0.167 HD
ATOM     60  C   UNL     1      20.275   9.786  11.633  1.00  0.00     0.074 A 
ATOM     61  C   UNL     1      21.630   9.662  11.137  1.00  0.00     0.031 C 
ATOM     62  C   UNL     1      19.882  10.691  12.563  1.00  0.00     0.037 A 
BRANCH  49  63
ATOM     63  C   UNL     1      13.858  10.446  13.944  1.00  0.00     0.064 A 
ATOM     64  C   UNL     1      13.238   9.725  14.976  1.00  0.00     0.173 A 
ATOM     65  C   UNL     1      13.368  11.728  13.655  1.00  0.00     0.173 A 
ATOM     66  F   UNL     1      13.658   8.487  15.282  1.00  0.00    -0.203 F 
ATOM     67  C   UNL     1      12.147  10.250  15.664  1.00  0.00     0.198 A 
ATOM     68  C   UNL     1      12.299  12.264  14.368  1.00  0.00     0.198 A 
ATOM     69  F   UNL     1      13.926  12.463  12.682  1.00  0.00    -0.203 F 
ATOM     70  F   UNL     1      11.533   9.517  16.603  1.00  0.00    -0.200 F 
ATOM     71  C   UNL     1      11.682  11.521  15.364  1.00  0.00     0.200 A 
ATOM     72  F   UNL     1      11.858  13.498  14.085  1.00  0.00    -0.200 F 
ATOM     73  F   UNL     1      10.633  12.026  16.027  1.00  0.00    -0.200 F 
ENDBRANCH  49  63
BRANCH  50  74
ATOM     74  C   UNL     1      21.182   6.453   8.437  1.00  0.00     0.064 A 
ATOM     75  C   UNL     1      22.229   5.746   9.046  1.00  0.00     0.173 A 
ATOM     76  C   UNL     1      21.207   6.582   7.041  1.00  0.00     0.173 A 
ATOM     77  F   UNL     1      22.258   5.612  10.380  1.00  0.00    -0.203 F 
ATOM     78  C   UNL     1      23.269   5.208   8.292  1.00  0.00     0.198 A 
ATOM     79  C   UNL     1      22.234   6.021   6.286  1.00  0.00     0.198 A 
ATOM     80  F   UNL     1      20.226   7.244   6.410  1.00  0.00    -0.203 F 
ATOM     81  F   UNL     1      24.278   4.574   8.904  1.00  0.00    -0.200 F 
ATOM     82  C   UNL     1      23.268   5.340   6.912  1.00  0.00     0.200 A 
ATOM     83  F   UNL     1      22.223   6.139   4.951  1.00  0.00    -0.200 F 
ATOM     84  F   UNL     1      24.267   4.819   6.186  1.00  0.00    -0.200 F 
ENDBRANCH  50  74
BRANCH  62  85
ATOM     85  C   UNL     1      20.940  11.582  13.146  1.00  0.00     0.064 A 
ATOM     86  C   UNL     1      21.522  12.621  12.407  1.00  0.00     0.173 A 
ATOM     87  C   UNL     1      21.347  11.414  14.479  1.00  0.00     0.173 A 
ATOM     88  F   UNL     1      21.177  12.813  11.124  1.00  0.00    -0.203 F 
ATOM     89  C   UNL     1      22.494  13.443  12.972  1.00  0.00     0.198 A 
ATOM     90  C   UNL     1      22.296  12.256  15.050  1.00  0.00     0.198 A 
ATOM     91  F   UNL     1      20.815  10.439  15.231  1.00  0.00    -0.203 F 
ATOM     92  F   UNL     1      23.073  14.399  12.232  1.00  0.00    -0.200 F 
ATOM     93  C   UNL     1      22.875  13.265  14.294  1.00  0.00     0.200 A 
ATOM     94  F   UNL     1      22.652  12.091  16.331  1.00  0.00    -0.200 F 
ATOM     95  F   UNL     1      23.805  14.061  14.838  1.00  0.00    -0.200 F 
ENDBRANCH  62  85
ENDBRANCH  36  37
ENDBRANCH  28  31
ENDBRANCH  26  27
ENDBRANCH  25  26
ENDBRANCH   1  25
TORSDOF 14
