REMARK SMILES CC[C@@H](C)c1ccccc1NC(=O)[C@@H]1[C@@H](C(=O)NCCCCNC(=O)c2ccc(-c3c4nc(c(-c5c(F)c(F)c(F)c(F)c5F)c5ccc([nH]5)c(-c5c(F)c(F)c(F)c(F)c5F)c5nc(c(-c6c(F)c(F)c(F)c(F)c6F)c6ccc3[nH]6)C=C5)C=C4)cc2)[C@@H]2C=C[C@H]1C2
REMARK SMILES IDX 19 1 18 2 16 3 17 4 15 6 14 7 92 8 89 9 91 10 93 11 90 12
REMARK SMILES IDX 12 13 11 14 13 16 10 17 5 18 6 19 7 20 9 21 8 22 3 23 4 24
REMARK SMILES IDX 2 25 1 26 20 27 21 28 22 29 23 30 24 31 25 33 26 34 27 35
REMARK SMILES IDX 88 36 28 37 87 38 29 39 30 40 31 41 81 42 32 43 86 44 80 45
REMARK SMILES IDX 82 46 33 47 85 48 79 49 78 50 34 52 66 53 46 54 65 55 47 56
REMARK SMILES IDX 50 57 64 58 83 59 48 60 49 61 63 63 84 64 51 65 35 66 36 67
REMARK SMILES IDX 44 68 37 69 38 70 42 71 45 72 39 73 40 74 43 75 41 76 67 77
REMARK SMILES IDX 68 78 76 79 69 80 70 81 74 82 77 83 71 84 72 85 75 86 73 87
REMARK SMILES IDX 52 88 53 89 61 90 54 91 55 92 59 93 62 94 56 95 57 96 60 97
REMARK SMILES IDX 58 98
REMARK H PARENT 18 5 11 15 23 32 82 51 50 62
REMARK Flexibility Score: inf
ROOT
ATOM      1  C   UNL     1      -4.348   5.271   4.842  1.00  0.00     0.116 C 
ENDROOT
BRANCH   1   2
ATOM      2  N   UNL     1      -4.207   5.953   3.572  1.00  0.00    -0.356 N 
ATOM      3  C   UNL     1      -3.172   6.277   2.767  1.00  0.00     0.224 C 
ATOM      4  O   UNL     1      -3.486   6.939   1.767  1.00  0.00    -0.275 OA
ATOM      5  H   UNL     1      -5.072   6.252   3.210  1.00  0.00     0.163 HD
BRANCH   3   6
ATOM      6  C   UNL     1      -1.692   5.963   2.992  1.00  0.00     0.098 C 
ATOM      7  C   UNL     1      -1.301   4.588   3.565  1.00  0.00     0.099 C 
ATOM      8  C   UNL     1      -0.459   4.963   4.823  1.00  0.00     0.025 C 
ATOM      9  C   UNL     1      -1.017   6.963   3.987  1.00  0.00     0.025 C 
ATOM     10  C   UNL     1       0.823   5.623   4.384  1.00  0.00    -0.027 C 
ATOM     11  C   UNL     1      -1.139   6.244   5.328  1.00  0.00     0.017 C 
ATOM     12  C   UNL     1       0.493   6.833   3.901  1.00  0.00    -0.027 C 
BRANCH   7  13
ATOM     13  C   UNL     1      -0.723   3.391   2.809  1.00  0.00     0.228 C 
ATOM     14  N   UNL     1      -0.097   3.258   1.622  1.00  0.00    -0.326 N 
ATOM     15  H   UNL     1      -0.050   2.305   1.380  1.00  0.00     0.169 HD
ATOM     16  O   UNL     1      -0.886   2.289   3.379  1.00  0.00    -0.274 OA
BRANCH  14  17
ATOM     17  C   UNL     1       0.511   4.027   0.617  1.00  0.00     0.044 A 
ATOM     18  C   UNL     1       0.957   3.464  -0.608  1.00  0.00    -0.022 A 
ATOM     19  C   UNL     1       1.460   4.361  -1.599  1.00  0.00     0.006 A 
ATOM     20  C   UNL     1       1.557   5.734  -1.399  1.00  0.00     0.000 A 
ATOM     21  C   UNL     1       0.752   5.383   0.820  1.00  0.00     0.026 A 
ATOM     22  C   UNL     1       1.230   6.244  -0.166  1.00  0.00     0.002 A 
BRANCH  18  23
ATOM     23  C   UNL     1       1.056   1.982  -1.034  1.00  0.00     0.018 C 
ATOM     24  C   UNL     1       0.140   1.700  -2.241  1.00  0.00     0.013 C 
BRANCH  23  25
ATOM     25  C   UNL     1       0.907   0.867   0.023  1.00  0.00     0.005 C 
ATOM     26  C   UNL     1       1.466  -0.484  -0.414  1.00  0.00     0.004 C 
ENDBRANCH  23  25
ENDBRANCH  18  23
ENDBRANCH  14  17
ENDBRANCH   7  13
ENDBRANCH   3   6
ENDBRANCH   1   2
BRANCH   1  27
ATOM     27  C   UNL     1      -4.741   6.245   5.950  1.00  0.00     0.023 C 
BRANCH  27  28
ATOM     28  C   UNL     1      -6.241   6.480   6.058  1.00  0.00     0.023 C 
BRANCH  28  29
ATOM     29  C   UNL     1      -7.067   5.208   6.193  1.00  0.00     0.116 C 
BRANCH  29  30
ATOM     30  N   UNL     1      -6.570   4.288   7.213  1.00  0.00    -0.352 N 
ATOM     31  C   UNL     1      -7.301   3.575   8.137  1.00  0.00     0.251 C 
ATOM     32  H   UNL     1      -5.594   4.161   7.243  1.00  0.00     0.163 HD
ATOM     33  O   UNL     1      -6.773   2.887   8.991  1.00  0.00    -0.269 OA
BRANCH  31  34
ATOM     34  C   UNL     1      -8.764   3.721   8.072  1.00  0.00     0.039 A 
ATOM     35  C   UNL     1      -9.421   4.355   9.127  1.00  0.00     0.014 A 
ATOM     36  C   UNL     1      -9.413   3.432   6.870  1.00  0.00     0.014 A 
ATOM     37  C   UNL     1     -10.729   4.793   8.937  1.00  0.00     0.010 A 
ATOM     38  C   UNL     1     -10.681   3.948   6.657  1.00  0.00     0.010 A 
ATOM     39  C   UNL     1     -11.343   4.644   7.683  1.00  0.00    -0.014 A 
BRANCH  39  40
ATOM     40  C   UNL     1     -12.681   5.214   7.401  1.00  0.00     0.031 A 
ATOM     41  C   UNL     1     -13.803   4.291   7.027  1.00  0.00     0.074 A 
ATOM     42  C   UNL     1     -12.853   6.550   7.377  1.00  0.00     0.049 A 
ATOM     43  N   UNL     1     -15.004   4.579   6.597  1.00  0.00    -0.248 NA
ATOM     44  C   UNL     1     -13.519   2.849   7.104  1.00  0.00     0.031 C 
ATOM     45  C   UNL     1     -11.818   7.546   7.662  1.00  0.00     0.029 A 
ATOM     46  N   UNL     1     -13.961   7.301   7.078  1.00  0.00    -0.354 N 
ATOM     47  C   UNL     1     -15.602   3.358   6.321  1.00  0.00     0.074 A 
ATOM     48  C   UNL     1     -14.618   2.330   6.579  1.00  0.00     0.031 C 
ATOM     49  C   UNL     1     -12.347   8.776   7.547  1.00  0.00     0.029 A 
ATOM     50  C   UNL     1     -13.743   8.656   7.141  1.00  0.00     0.049 A 
ATOM     51  H   UNL     1     -14.832   6.907   6.841  1.00  0.00     0.167 HD
ATOM     52  C   UNL     1     -16.869   3.116   5.916  1.00  0.00     0.037 A 
ATOM     53  C   UNL     1     -14.578   9.683   6.888  1.00  0.00     0.037 A 
ATOM     54  C   UNL     1     -17.857   4.140   5.717  1.00  0.00     0.049 A 
ATOM     55  C   UNL     1     -15.990   9.386   6.462  1.00  0.00     0.074 A 
ATOM     56  C   UNL     1     -19.194   3.998   5.398  1.00  0.00     0.029 A 
ATOM     57  N   UNL     1     -17.610   5.501   5.827  1.00  0.00    -0.354 N 
ATOM     58  N   UNL     1     -16.569   8.225   6.273  1.00  0.00    -0.248 NA
ATOM     59  C   UNL     1     -16.865  10.540   6.214  1.00  0.00     0.031 C 
ATOM     60  C   UNL     1     -19.751   5.277   5.283  1.00  0.00     0.029 A 
ATOM     61  C   UNL     1     -18.767   6.212   5.564  1.00  0.00     0.049 A 
ATOM     62  H   UNL     1     -16.740   5.901   6.058  1.00  0.00     0.167 HD
ATOM     63  C   UNL     1     -17.876   8.506   5.903  1.00  0.00     0.074 A 
ATOM     64  C   UNL     1     -18.011   9.948   5.908  1.00  0.00     0.031 C 
ATOM     65  C   UNL     1     -18.876   7.648   5.584  1.00  0.00     0.037 A 
BRANCH  52  66
ATOM     66  C   UNL     1     -17.256   1.688   5.678  1.00  0.00     0.064 A 
ATOM     67  C   UNL     1     -17.399   0.780   6.739  1.00  0.00     0.173 A 
ATOM     68  C   UNL     1     -17.499   1.223   4.378  1.00  0.00     0.173 A 
ATOM     69  F   UNL     1     -17.159   1.172   7.999  1.00  0.00    -0.203 F 
ATOM     70  C   UNL     1     -17.740  -0.548   6.503  1.00  0.00     0.198 A 
ATOM     71  C   UNL     1     -17.870  -0.099   4.148  1.00  0.00     0.198 A 
ATOM     72  F   UNL     1     -17.377   2.051   3.329  1.00  0.00    -0.203 F 
ATOM     73  F   UNL     1     -17.817  -1.410   7.527  1.00  0.00    -0.200 F 
ATOM     74  C   UNL     1     -17.982  -0.985   5.209  1.00  0.00     0.200 A 
ATOM     75  F   UNL     1     -18.111  -0.518   2.898  1.00  0.00    -0.200 F 
ATOM     76  F   UNL     1     -18.313  -2.264   4.984  1.00  0.00    -0.200 F 
ENDBRANCH  52  66
BRANCH  53  77
ATOM     77  C   UNL     1     -14.109  11.083   7.053  1.00  0.00     0.064 A 
ATOM     78  C   UNL     1     -14.575  11.873   8.114  1.00  0.00     0.173 A 
ATOM     79  C   UNL     1     -13.193  11.660   6.163  1.00  0.00     0.173 A 
ATOM     80  F   UNL     1     -15.467  11.370   8.980  1.00  0.00    -0.203 F 
ATOM     81  C   UNL     1     -14.156  13.193   8.267  1.00  0.00     0.198 A 
ATOM     82  C   UNL     1     -12.757  12.973   6.331  1.00  0.00     0.198 A 
ATOM     83  F   UNL     1     -12.714  10.945   5.135  1.00  0.00    -0.203 F 
ATOM     84  F   UNL     1     -14.647  13.937   9.267  1.00  0.00    -0.200 F 
ATOM     85  C   UNL     1     -13.243  13.741   7.379  1.00  0.00     0.200 A 
ATOM     86  F   UNL     1     -11.866  13.496   5.477  1.00  0.00    -0.200 F 
ATOM     87  F   UNL     1     -12.838  15.009   7.528  1.00  0.00    -0.200 F 
ENDBRANCH  53  77
BRANCH  65  88
ATOM     88  C   UNL     1     -20.206   8.242   5.235  1.00  0.00     0.064 A 
ATOM     89  C   UNL     1     -20.427   8.856   3.995  1.00  0.00     0.173 A 
ATOM     90  C   UNL     1     -21.285   8.138   6.125  1.00  0.00     0.173 A 
ATOM     91  F   UNL     1     -19.420   8.992   3.119  1.00  0.00    -0.203 F 
ATOM     92  C   UNL     1     -21.683   9.355   3.661  1.00  0.00     0.198 A 
ATOM     93  C   UNL     1     -22.545   8.616   5.777  1.00  0.00     0.198 A 
ATOM     94  F   UNL     1     -21.122   7.554   7.321  1.00  0.00    -0.203 F 
ATOM     95  F   UNL     1     -21.867   9.965   2.482  1.00  0.00    -0.200 F 
ATOM     96  C   UNL     1     -22.742   9.226   4.548  1.00  0.00     0.200 A 
ATOM     97  F   UNL     1     -23.570   8.481   6.630  1.00  0.00    -0.200 F 
ATOM     98  F   UNL     1     -23.953   9.695   4.218  1.00  0.00    -0.200 F 
ENDBRANCH  65  88
ENDBRANCH  39  40
ENDBRANCH  31  34
ENDBRANCH  29  30
ENDBRANCH  28  29
ENDBRANCH  27  28
ENDBRANCH   1  27
TORSDOF 15
