REMARK SMILES Cc1ccc(C(N)=O)c(NCc2ccc(C(=O)NCCCCNC(=O)c3ccc(-c4c5nc(c(-c6c(F)c(F)c(F)c(F)c6F)c6ccc([nH]6)c(-c6c(F)c(F)c(F)c(F)c6F)c6nc(c(-c7c(F)c(F)c(F)c(F)c7F)c7ccc4[nH]7)C=C6)C=C5)cc3)o2)n1
REMARK SMILES IDX 19 1 18 2 16 3 17 4 15 6 12 7 13 8 89 9 14 10 11 11 10 12
REMARK SMILES IDX 9 14 1 15 2 16 3 17 90 18 4 19 5 20 6 21 7 22 8 23 20 26
REMARK SMILES IDX 21 27 22 28 23 29 24 30 25 32 26 33 27 34 88 35 28 36 87 37
REMARK SMILES IDX 29 38 30 39 31 40 81 41 32 42 86 43 80 44 82 45 33 46 85 47
REMARK SMILES IDX 79 48 78 49 34 51 66 52 46 53 65 54 47 55 50 56 64 57 83 58
REMARK SMILES IDX 48 59 49 60 63 62 84 63 51 64 35 65 36 66 44 67 37 68 38 69
REMARK SMILES IDX 42 70 45 71 39 72 40 73 43 74 41 75 67 76 68 77 76 78 69 79
REMARK SMILES IDX 70 80 74 81 77 82 71 83 72 84 75 85 73 86 52 87 53 88 61 89
REMARK SMILES IDX 54 90 55 91 59 92 62 93 56 94 57 95 60 96 58 97
REMARK H PARENT 18 5 10 13 7 24 7 25 23 31 82 50 50 61
REMARK Flexibility Score: inf
ROOT
ATOM      1  C   UNL     1      -1.211   7.001  -5.448  1.00  0.00     0.116 C 
ENDROOT
BRANCH   1   2
ATOM      2  N   UNL     1      -1.097   7.769  -4.227  1.00  0.00    -0.349 N 
ATOM      3  C   UNL     1      -1.071   7.365  -2.910  1.00  0.00     0.286 C 
ATOM      4  O   UNL     1      -0.877   8.261  -2.085  1.00  0.00    -0.266 OA
ATOM      5  H   UNL     1      -1.026   8.742  -4.359  1.00  0.00     0.163 HD
BRANCH   3   6
ATOM      6  C   UNL     1      -1.247   5.972  -2.538  1.00  0.00     0.191 A 
ATOM      7  C   UNL     1      -1.082   4.290  -1.101  1.00  0.00     0.124 A 
ATOM      8  C   UNL     1      -1.612   3.762  -2.256  1.00  0.00     0.048 A 
ATOM      9  O   UNL     1      -0.857   5.623  -1.265  1.00  0.00    -0.454 OA
ATOM     10  C   UNL     1      -1.760   4.843  -3.156  1.00  0.00     0.056 A 
BRANCH   7  11
ATOM     11  C   UNL     1      -0.757   3.713   0.237  1.00  0.00     0.190 C 
BRANCH  11  12
ATOM     12  N   UNL     1      -1.531   2.519   0.547  1.00  0.00    -0.362 N 
ATOM     13  H   UNL     1      -2.435   2.610   0.926  1.00  0.00     0.162 HD
BRANCH  12  14
ATOM     14  C   UNL     1      -1.009   1.256   0.313  1.00  0.00     0.139 A 
ATOM     15  C   UNL     1       2.397  -0.109  -0.045  1.00  0.00     0.067 C 
ATOM     16  C   UNL     1       0.901  -0.070   0.037  1.00  0.00     0.040 A 
ATOM     17  C   UNL     1       0.149  -1.230  -0.056  1.00  0.00     0.024 A 
ATOM     18  N   UNL     1       0.336   1.152   0.200  1.00  0.00    -0.236 NA
ATOM     19  C   UNL     1      -1.234  -1.127   0.023  1.00  0.00     0.019 A 
ATOM     20  C   UNL     1      -1.833   0.128   0.199  1.00  0.00     0.081 A 
BRANCH  20  21
ATOM     21  C   UNL     1      -3.320   0.167   0.209  1.00  0.00     0.252 C 
ATOM     22  N   UNL     1      -3.933   1.339  -0.132  1.00  0.00    -0.365 N 
ATOM     23  O   UNL     1      -3.986  -0.828   0.469  1.00  0.00    -0.269 OA
ATOM     24  H   UNL     1      -3.392   2.135  -0.340  1.00  0.00     0.159 HD
ATOM     25  H   UNL     1      -4.915   1.388  -0.170  1.00  0.00     0.159 HD
ENDBRANCH  20  21
ENDBRANCH  12  14
ENDBRANCH  11  12
ENDBRANCH   7  11
ENDBRANCH   3   6
ENDBRANCH   1   2
BRANCH   1  26
ATOM     26  C   UNL     1      -2.651   6.979  -5.958  1.00  0.00     0.023 C 
BRANCH  26  27
ATOM     27  C   UNL     1      -3.071   8.252  -6.702  1.00  0.00     0.023 C 
BRANCH  27  28
ATOM     28  C   UNL     1      -2.271   8.557  -7.965  1.00  0.00     0.116 C 
BRANCH  28  29
ATOM     29  N   UNL     1      -2.308   7.487  -8.950  1.00  0.00    -0.352 N 
ATOM     30  C   UNL     1      -2.221   7.585 -10.319  1.00  0.00     0.251 C 
ATOM     31  H   UNL     1      -2.407   6.576  -8.590  1.00  0.00     0.163 HD
ATOM     32  O   UNL     1      -2.363   6.598 -11.028  1.00  0.00    -0.269 OA
BRANCH  30  33
ATOM     33  C   UNL     1      -1.997   8.912 -10.928  1.00  0.00     0.039 A 
ATOM     34  C   UNL     1      -2.864   9.347 -11.934  1.00  0.00     0.014 A 
ATOM     35  C   UNL     1      -0.964   9.736 -10.476  1.00  0.00     0.014 A 
ATOM     36  C   UNL     1      -2.739  10.643 -12.438  1.00  0.00     0.010 A 
ATOM     37  C   UNL     1      -0.880  11.046 -10.934  1.00  0.00     0.010 A 
ATOM     38  C   UNL     1      -1.771  11.514 -11.913  1.00  0.00    -0.014 A 
BRANCH  38  39
ATOM     39  C   UNL     1      -1.664  12.922 -12.367  1.00  0.00     0.031 A 
ATOM     40  C   UNL     1      -0.425  13.384 -13.078  1.00  0.00     0.074 A 
ATOM     41  C   UNL     1      -2.637  13.800 -12.056  1.00  0.00     0.049 A 
ATOM     42  N   UNL     1      -0.072  14.595 -13.428  1.00  0.00    -0.248 NA
ATOM     43  C   UNL     1       0.565  12.349 -13.412  1.00  0.00     0.031 C 
ATOM     44  C   UNL     1      -3.870  13.479 -11.337  1.00  0.00     0.029 A 
ATOM     45  N   UNL     1      -2.729  15.150 -12.288  1.00  0.00    -0.354 N 
ATOM     46  C   UNL     1       1.187  14.469 -13.999  1.00  0.00     0.074 A 
ATOM     47  C   UNL     1       1.556  13.073 -13.911  1.00  0.00     0.031 C 
ATOM     48  C   UNL     1      -4.600  14.598 -11.195  1.00  0.00     0.029 A 
ATOM     49  C   UNL     1      -3.869  15.720 -11.776  1.00  0.00     0.049 A 
ATOM     50  H   UNL     1      -2.043  15.662 -12.775  1.00  0.00     0.167 HD
ATOM     51  C   UNL     1       1.956  15.431 -14.562  1.00  0.00     0.037 A 
ATOM     52  C   UNL     1      -4.271  17.005 -11.764  1.00  0.00     0.037 A 
ATOM     53  C   UNL     1       1.571  16.812 -14.676  1.00  0.00     0.049 A 
ATOM     54  C   UNL     1      -3.398  18.053 -12.400  1.00  0.00     0.074 A 
ATOM     55  C   UNL     1       2.257  17.853 -15.275  1.00  0.00     0.029 A 
ATOM     56  N   UNL     1       0.389  17.343 -14.181  1.00  0.00    -0.354 N 
ATOM     57  N   UNL     1      -2.232  17.916 -12.982  1.00  0.00    -0.248 NA
ATOM     58  C   UNL     1      -3.899  19.435 -12.381  1.00  0.00     0.031 C 
ATOM     59  C   UNL     1       1.506  19.022 -15.112  1.00  0.00     0.029 A 
ATOM     60  C   UNL     1       0.332  18.701 -14.452  1.00  0.00     0.049 A 
ATOM     61  H   UNL     1      -0.307  16.832 -13.707  1.00  0.00     0.167 HD
ATOM     62  C   UNL     1      -1.877  19.181 -13.430  1.00  0.00     0.074 A 
ATOM     63  C   UNL     1      -2.954  20.074 -13.056  1.00  0.00     0.031 C 
ATOM     64  C   UNL     1      -0.761  19.568 -14.093  1.00  0.00     0.037 A 
BRANCH  51  65
ATOM     65  C   UNL     1       3.294  15.019 -15.102  1.00  0.00     0.064 A 
ATOM     66  C   UNL     1       3.409  14.231 -16.258  1.00  0.00     0.173 A 
ATOM     67  C   UNL     1       4.476  15.444 -14.477  1.00  0.00     0.173 A 
ATOM     68  F   UNL     1       2.309  13.788 -16.885  1.00  0.00    -0.203 F 
ATOM     69  C   UNL     1       4.657  13.860 -16.751  1.00  0.00     0.198 A 
ATOM     70  C   UNL     1       5.723  15.096 -14.991  1.00  0.00     0.198 A 
ATOM     71  F   UNL     1       4.422  16.203 -13.373  1.00  0.00    -0.203 F 
ATOM     72  F   UNL     1       4.741  13.066 -17.827  1.00  0.00    -0.200 F 
ATOM     73  C   UNL     1       5.812  14.299 -16.122  1.00  0.00     0.200 A 
ATOM     74  F   UNL     1       6.839  15.530 -14.388  1.00  0.00    -0.200 F 
ATOM     75  F   UNL     1       7.013  13.946 -16.601  1.00  0.00    -0.200 F 
ENDBRANCH  51  65
BRANCH  52  76
ATOM     76  C   UNL     1      -5.572  17.371 -11.148  1.00  0.00     0.064 A 
ATOM     77  C   UNL     1      -6.651  17.782 -11.944  1.00  0.00     0.173 A 
ATOM     78  C   UNL     1      -5.766  17.324  -9.761  1.00  0.00     0.173 A 
ATOM     79  F   UNL     1      -6.507  17.863 -13.275  1.00  0.00    -0.203 F 
ATOM     80  C   UNL     1      -7.867  18.151 -11.374  1.00  0.00     0.198 A 
ATOM     81  C   UNL     1      -6.991  17.668  -9.193  1.00  0.00     0.198 A 
ATOM     82  F   UNL     1      -4.767  16.933  -8.956  1.00  0.00    -0.203 F 
ATOM     83  F   UNL     1      -8.867  18.582 -12.155  1.00  0.00    -0.200 F 
ATOM     84  C   UNL     1      -8.038  18.089  -9.999  1.00  0.00     0.200 A 
ATOM     85  F   UNL     1      -7.157  17.594  -7.866  1.00  0.00    -0.200 F 
ATOM     86  F   UNL     1      -9.209  18.441  -9.451  1.00  0.00    -0.200 F 
ENDBRANCH  52  76
BRANCH  64  87
ATOM     87  C   UNL     1      -0.668  21.006 -14.510  1.00  0.00     0.064 A 
ATOM     88  C   UNL     1      -0.410  22.027 -13.586  1.00  0.00     0.173 A 
ATOM     89  C   UNL     1      -0.783  21.355 -15.865  1.00  0.00     0.173 A 
ATOM     90  F   UNL     1      -0.306  21.744 -12.279  1.00  0.00    -0.203 F 
ATOM     91  C   UNL     1      -0.287  23.351 -14.000  1.00  0.00     0.198 A 
ATOM     92  C   UNL     1      -0.634  22.675 -16.278  1.00  0.00     0.198 A 
ATOM     93  F   UNL     1      -1.024  20.413 -16.788  1.00  0.00    -0.203 F 
ATOM     94  F   UNL     1      -0.078  24.317 -13.096  1.00  0.00    -0.200 F 
ATOM     95  C   UNL     1      -0.391  23.672 -15.346  1.00  0.00     0.200 A 
ATOM     96  F   UNL     1      -0.722  22.983 -17.580  1.00  0.00    -0.200 F 
ATOM     97  F   UNL     1      -0.261  24.946 -15.743  1.00  0.00    -0.200 F 
ENDBRANCH  64  87
ENDBRANCH  38  39
ENDBRANCH  30  33
ENDBRANCH  28  29
ENDBRANCH  27  28
ENDBRANCH  26  27
ENDBRANCH   1  26
TORSDOF 15
