REMARK SMILES [NH3+]CCOCC(=O)N[C@H](C(=O)NCCCCNC(=O)c1ccc(-c2c3nc(c(-c4c(F)c(F)c(F)c(F)c4F)c4ccc([nH]4)c(-c4c(F)c(F)c(F)c(F)c4F)c4nc(c(-c5c(F)c(F)c(F)c(F)c5F)c5ccc2[nH]5)C=C4)C=C3)cc1)c1ccccc1
REMARK SMILES IDX 10 1 11 2 12 3 9 5 8 6 6 7 7 8 5 10 4 11 3 12 2 13 1 14
REMARK SMILES IDX 83 18 84 19 88 20 85 21 87 22 86 23 13 24 14 25 15 26 16 27
REMARK SMILES IDX 17 28 18 29 19 31 20 32 21 33 82 34 22 35 81 36 23 37 24 38
REMARK SMILES IDX 25 39 75 40 26 41 80 42 74 43 76 44 27 45 79 46 73 47 72 48
REMARK SMILES IDX 28 50 60 51 40 52 59 53 41 54 44 55 58 56 77 57 42 58 43 59
REMARK SMILES IDX 57 61 78 62 45 63 29 64 30 65 38 66 31 67 32 68 36 69 39 70
REMARK SMILES IDX 33 71 34 72 37 73 35 74 61 75 62 76 70 77 63 78 64 79 68 80
REMARK SMILES IDX 71 81 65 82 66 83 69 84 67 85 46 86 47 87 55 88 48 89 49 90
REMARK SMILES IDX 53 91 56 92 50 93 51 94 54 95 52 96
REMARK H PARENT 12 4 8 9 1 15 1 16 1 17 17 30 76 49 44 60
REMARK Flexibility Score: inf
ROOT
ATOM      1  C   UNL     1       3.788   3.638  -1.145  1.00  0.00     0.247 C 
ATOM      2  O   UNL     1       3.909   2.557  -1.729  1.00  0.00    -0.272 OA
ATOM      3  N   UNL     1       4.910   4.179  -0.580  1.00  0.00    -0.354 N 
ATOM      4  H   UNL     1       5.717   3.616  -0.607  1.00  0.00     0.163 HD
ENDROOT
BRANCH   1   5
ATOM      5  C   UNL     1       2.438   4.429  -1.168  1.00  0.00     0.202 C 
BRANCH   5   6
ATOM      6  N   UNL     1       2.128   4.963   0.169  1.00  0.00    -0.339 N 
ATOM      7  C   UNL     1       1.955   4.326   1.357  1.00  0.00     0.246 C 
ATOM      8  O   UNL     1       1.608   5.017   2.322  1.00  0.00    -0.272 OA
ATOM      9  H   UNL     1       2.032   5.942   0.209  1.00  0.00     0.164 HD
BRANCH   7  10
ATOM     10  C   UNL     1       2.262   2.832   1.536  1.00  0.00     0.260 C 
BRANCH  10  11
ATOM     11  O   UNL     1       1.161   1.956   1.645  1.00  0.00    -0.366 OA
BRANCH  11  12
ATOM     12  C   UNL     1       0.238   2.251   2.692  1.00  0.00     0.222 C 
BRANCH  12  13
ATOM     13  C   UNL     1       0.737   1.909   4.108  1.00  0.00     0.287 C 
BRANCH  13  14
ATOM     14  N   UNL     1       1.666   2.871   4.706  1.00  0.00    -0.356 N 
ATOM     15  H   UNL     1       1.933   2.553   5.638  1.00  0.00     0.344 HD
ATOM     16  H   UNL     1       1.213   3.783   4.775  1.00  0.00     0.344 HD
ATOM     17  H   UNL     1       2.498   2.949   4.122  1.00  0.00     0.344 HD
ENDBRANCH  13  14
ENDBRANCH  12  13
ENDBRANCH  11  12
ENDBRANCH  10  11
ENDBRANCH   7  10
ENDBRANCH   5   6
BRANCH   5  18
ATOM     18  C   UNL     1       2.534   5.519  -2.258  1.00  0.00    -0.016 A 
ATOM     19  C   UNL     1       3.183   5.214  -3.474  1.00  0.00     0.006 A 
ATOM     20  C   UNL     1       2.066   6.835  -2.096  1.00  0.00     0.006 A 
ATOM     21  C   UNL     1       3.463   6.200  -4.423  1.00  0.00     0.000 A 
ATOM     22  C   UNL     1       2.347   7.823  -3.048  1.00  0.00     0.000 A 
ATOM     23  C   UNL     1       3.065   7.511  -4.198  1.00  0.00     0.000 A 
ENDBRANCH   5  18
ENDBRANCH   1   5
BRANCH   3  24
ATOM     24  C   UNL     1       5.064   5.472   0.054  1.00  0.00     0.116 C 
BRANCH  24  25
ATOM     25  C   UNL     1       5.171   5.331   1.570  1.00  0.00     0.023 C 
BRANCH  25  26
ATOM     26  C   UNL     1       6.524   4.825   2.057  1.00  0.00     0.023 C 
BRANCH  26  27
ATOM     27  C   UNL     1       7.699   5.657   1.581  1.00  0.00     0.116 C 
BRANCH  27  28
ATOM     28  N   UNL     1       7.545   7.082   1.841  1.00  0.00    -0.352 N 
ATOM     29  C   UNL     1       8.538   8.006   2.045  1.00  0.00     0.251 C 
ATOM     30  H   UNL     1       6.622   7.421   1.873  1.00  0.00     0.163 HD
ATOM     31  O   UNL     1       8.279   9.164   2.352  1.00  0.00    -0.269 OA
BRANCH  29  32
ATOM     32  C   UNL     1       9.933   7.552   1.929  1.00  0.00     0.039 A 
ATOM     33  C   UNL     1      10.807   7.777   2.991  1.00  0.00     0.014 A 
ATOM     34  C   UNL     1      10.332   6.819   0.808  1.00  0.00     0.014 A 
ATOM     35  C   UNL     1      12.082   7.221   2.946  1.00  0.00     0.010 A 
ATOM     36  C   UNL     1      11.559   6.178   0.815  1.00  0.00     0.010 A 
ATOM     37  C   UNL     1      12.457   6.398   1.870  1.00  0.00    -0.014 A 
BRANCH  37  38
ATOM     38  C   UNL     1      13.812   5.809   1.800  1.00  0.00     0.031 A 
ATOM     39  C   UNL     1      14.732   6.210   0.681  1.00  0.00     0.074 A 
ATOM     40  C   UNL     1      14.190   4.891   2.709  1.00  0.00     0.049 A 
ATOM     41  N   UNL     1      15.947   5.803   0.421  1.00  0.00    -0.248 NA
ATOM     42  C   UNL     1      14.200   7.167  -0.305  1.00  0.00     0.031 C 
ATOM     43  C   UNL     1      13.351   4.373   3.791  1.00  0.00     0.029 A 
ATOM     44  N   UNL     1      15.382   4.234   2.869  1.00  0.00    -0.354 N 
ATOM     45  C   UNL     1      16.310   6.437  -0.760  1.00  0.00     0.074 A 
ATOM     46  C   UNL     1      15.164   7.192  -1.210  1.00  0.00     0.031 C 
ATOM     47  C   UNL     1      14.068   3.509   4.527  1.00  0.00     0.029 A 
ATOM     48  C   UNL     1      15.406   3.396   3.955  1.00  0.00     0.049 A 
ATOM     49  H   UNL     1      16.148   4.352   2.262  1.00  0.00     0.167 HD
ATOM     50  C   UNL     1      17.507   6.423  -1.391  1.00  0.00     0.037 A 
ATOM     51  C   UNL     1      16.407   2.636   4.438  1.00  0.00     0.037 A 
ATOM     52  C   UNL     1      18.655   5.708  -0.906  1.00  0.00     0.049 A 
ATOM     53  C   UNL     1      17.742   2.675   3.746  1.00  0.00     0.074 A 
ATOM     54  C   UNL     1      19.936   5.677  -1.423  1.00  0.00     0.029 A 
ATOM     55  N   UNL     1      18.655   4.900   0.222  1.00  0.00    -0.354 N 
ATOM     56  N   UNL     1      18.102   3.342   2.675  1.00  0.00    -0.248 NA
ATOM     57  C   UNL     1      18.816   1.868   4.339  1.00  0.00     0.031 C 
ATOM     58  C   UNL     1      20.704   4.820  -0.626  1.00  0.00     0.029 A 
ATOM     59  C   UNL     1      19.913   4.354   0.412  1.00  0.00     0.049 A 
ATOM     60  H   UNL     1      17.875   4.738   0.802  1.00  0.00     0.167 HD
ATOM     61  C   UNL     1      19.446   3.057   2.480  1.00  0.00     0.074 A 
ATOM     62  C   UNL     1      19.843   2.173   3.558  1.00  0.00     0.031 C 
ATOM     63  C   UNL     1      20.279   3.482   1.498  1.00  0.00     0.037 A 
BRANCH  50  64
ATOM     64  C   UNL     1      17.629   7.220  -2.657  1.00  0.00     0.064 A 
ATOM     65  C   UNL     1      17.587   8.623  -2.651  1.00  0.00     0.173 A 
ATOM     66  C   UNL     1      17.794   6.576  -3.892  1.00  0.00     0.173 A 
ATOM     67  F   UNL     1      17.411   9.289  -1.499  1.00  0.00    -0.203 F 
ATOM     68  C   UNL     1      17.669   9.349  -3.836  1.00  0.00     0.198 A 
ATOM     69  C   UNL     1      17.910   7.306  -5.072  1.00  0.00     0.198 A 
ATOM     70  F   UNL     1      17.841   5.237  -3.956  1.00  0.00    -0.203 F 
ATOM     71  F   UNL     1      17.562  10.685  -3.810  1.00  0.00    -0.200 F 
ATOM     72  C   UNL     1      17.837   8.691  -5.045  1.00  0.00     0.200 A 
ATOM     73  F   UNL     1      18.082   6.669  -6.238  1.00  0.00    -0.200 F 
ATOM     74  F   UNL     1      17.918   9.391  -6.184  1.00  0.00    -0.200 F 
ENDBRANCH  50  64
BRANCH  51  75
ATOM     75  C   UNL     1      16.201   1.825   5.666  1.00  0.00     0.064 A 
ATOM     76  C   UNL     1      16.834   2.168   6.869  1.00  0.00     0.173 A 
ATOM     77  C   UNL     1      15.372   0.694   5.665  1.00  0.00     0.173 A 
ATOM     78  F   UNL     1      17.649   3.232   6.916  1.00  0.00    -0.203 F 
ATOM     79  C   UNL     1      16.667   1.397   8.018  1.00  0.00     0.198 A 
ATOM     80  C   UNL     1      15.184  -0.061   6.822  1.00  0.00     0.198 A 
ATOM     81  F   UNL     1      14.736   0.328   4.543  1.00  0.00    -0.203 F 
ATOM     82  F   UNL     1      17.322   1.721   9.141  1.00  0.00    -0.200 F 
ATOM     83  C   UNL     1      15.839   0.285   7.994  1.00  0.00     0.200 A 
ATOM     84  F   UNL     1      14.371  -1.126   6.800  1.00  0.00    -0.200 F 
ATOM     85  F   UNL     1      15.677  -0.455   9.099  1.00  0.00    -0.200 F 
ENDBRANCH  51  75
BRANCH  63  86
ATOM     86  C   UNL     1      21.703   3.016   1.565  1.00  0.00     0.064 A 
ATOM     87  C   UNL     1      22.054   1.686   1.289  1.00  0.00     0.173 A 
ATOM     88  C   UNL     1      22.730   3.918   1.878  1.00  0.00     0.173 A 
ATOM     89  F   UNL     1      21.105   0.784   0.998  1.00  0.00    -0.203 F 
ATOM     90  C   UNL     1      23.380   1.270   1.357  1.00  0.00     0.198 A 
ATOM     91  C   UNL     1      24.058   3.505   1.913  1.00  0.00     0.198 A 
ATOM     92  F   UNL     1      22.446   5.203   2.140  1.00  0.00    -0.203 F 
ATOM     93  F   UNL     1      23.687  -0.017   1.143  1.00  0.00    -0.200 F 
ATOM     94  C   UNL     1      24.381   2.180   1.662  1.00  0.00     0.200 A 
ATOM     95  F   UNL     1      25.026   4.389   2.194  1.00  0.00    -0.200 F 
ATOM     96  F   UNL     1      25.657   1.777   1.723  1.00  0.00    -0.200 F 
ENDBRANCH  63  86
ENDBRANCH  37  38
ENDBRANCH  29  32
ENDBRANCH  27  28
ENDBRANCH  26  27
ENDBRANCH  25  26
ENDBRANCH  24  25
ENDBRANCH   3  24
TORSDOF 18
