REMARK SMILES Cc1cc(C(=O)Nc2nc(CC(=O)NCCCCNC(=O)c3ccc(-c4c5nc(c(-c6c(F)c(F)c(F)c(F)c6F)c6ccc([nH]6)c(-c6c(F)c(F)c(F)c(F)c6F)c6nc(c(-c7c(F)c(F)c(F)c(F)c7F)c7ccc4[nH]7)C=C6)C=C5)cc3)cs2)sc1C
REMARK SMILES IDX 16 1 15 2 14 3 12 4 13 5 11 7 10 8 8 9 9 10 86 11 85 12 7 13
REMARK SMILES IDX 5 14 6 15 4 17 1 18 2 19 3 20 88 21 87 22 89 23 17 24 18 25
REMARK SMILES IDX 19 26 20 27 21 29 22 30 23 31 84 32 24 33 83 34 25 35 26 36
REMARK SMILES IDX 27 37 77 38 28 39 82 40 76 41 78 42 29 43 81 44 75 45 74 46
REMARK SMILES IDX 30 48 62 49 42 50 61 51 43 52 46 53 60 54 79 55 44 56 45 57
REMARK SMILES IDX 59 59 80 60 47 61 31 62 32 63 40 64 33 65 34 66 38 67 41 68
REMARK SMILES IDX 35 69 36 70 39 71 37 72 63 73 64 74 72 75 65 76 66 77 70 78
REMARK SMILES IDX 73 79 67 80 68 81 71 82 69 83 48 84 49 85 57 86 50 87 51 88
REMARK SMILES IDX 55 89 58 90 52 91 53 92 56 93 54 94
REMARK H PARENT 14 6 7 16 19 28 78 47 46 58
REMARK Flexibility Score: inf
ROOT
ATOM      1  C   UNL     1       5.886   0.073   3.054  1.00  0.00     0.023 C 
ENDROOT
BRANCH   1   2
ATOM      2  C   UNL     1       4.840   1.075   3.548  1.00  0.00     0.116 C 
BRANCH   2   3
ATOM      3  N   UNL     1       5.212   2.440   3.222  1.00  0.00    -0.356 N 
ATOM      4  C   UNL     1       4.817   3.192   2.152  1.00  0.00     0.226 C 
ATOM      5  O   UNL     1       5.324   4.306   1.999  1.00  0.00    -0.275 OA
ATOM      6  H   UNL     1       5.827   2.880   3.853  1.00  0.00     0.163 HD
BRANCH   4   7
ATOM      7  C   UNL     1       3.746   2.678   1.213  1.00  0.00     0.157 C 
BRANCH   7   8
ATOM      8  C   UNL     1       4.189   1.496   0.419  1.00  0.00     0.063 A 
ATOM      9  C   UNL     1       3.925  -0.586  -0.260  1.00  0.00     0.189 A 
ATOM     10  N   UNL     1       3.474   0.317   0.569  1.00  0.00    -0.224 NA
ATOM     11  S   UNL     1       5.357  -0.192  -1.093  1.00  0.00    -0.105 S 
ATOM     12  C   UNL     1       5.241   1.413  -0.477  1.00  0.00     0.093 A 
BRANCH   9  13
ATOM     13  N   UNL     1       3.394  -1.804  -0.548  1.00  0.00    -0.297 N 
ATOM     14  C   UNL     1       2.090  -2.202  -0.346  1.00  0.00     0.267 C 
ATOM     15  O   UNL     1       1.909  -3.424  -0.280  1.00  0.00    -0.268 OA
ATOM     16  H   UNL     1       4.004  -2.470  -0.941  1.00  0.00     0.172 HD
BRANCH  14  17
ATOM     17  C   UNL     1       0.956  -1.272  -0.318  1.00  0.00     0.093 A 
ATOM     18  C   UNL     1      -2.706  -0.542   0.271  1.00  0.00     0.045 C 
ATOM     19  C   UNL     1      -1.245  -0.457  -0.017  1.00  0.00    -0.037 A 
ATOM     20  C   UNL     1      -0.348  -1.579   0.046  1.00  0.00     0.029 A 
ATOM     21  C   UNL     1      -0.551   0.692  -0.348  1.00  0.00     0.005 A 
ATOM     22  S   UNL     1       0.983   0.307  -0.982  1.00  0.00    -0.135 S 
ATOM     23  C   UNL     1      -0.985   2.118  -0.308  1.00  0.00     0.056 C 
ENDBRANCH  14  17
ENDBRANCH   9  13
ENDBRANCH   7   8
ENDBRANCH   4   7
ENDBRANCH   2   3
ENDBRANCH   1   2
BRANCH   1  24
ATOM     24  C   UNL     1       7.247   0.178   3.742  1.00  0.00     0.023 C 
BRANCH  24  25
ATOM     25  C   UNL     1       7.213   0.001   5.251  1.00  0.00     0.116 C 
BRANCH  25  26
ATOM     26  N   UNL     1       6.681  -1.290   5.659  1.00  0.00    -0.352 N 
ATOM     27  C   UNL     1       7.123  -2.124   6.655  1.00  0.00     0.251 C 
ATOM     28  H   UNL     1       5.899  -1.608   5.152  1.00  0.00     0.163 HD
ATOM     29  O   UNL     1       6.644  -3.246   6.786  1.00  0.00    -0.269 OA
BRANCH  27  30
ATOM     30  C   UNL     1       8.209  -1.674   7.551  1.00  0.00     0.039 A 
ATOM     31  C   UNL     1       9.264  -2.547   7.821  1.00  0.00     0.014 A 
ATOM     32  C   UNL     1       8.198  -0.389   8.100  1.00  0.00     0.014 A 
ATOM     33  C   UNL     1      10.339  -2.110   8.595  1.00  0.00     0.010 A 
ATOM     34  C   UNL     1       9.308   0.072   8.799  1.00  0.00     0.010 A 
ATOM     35  C   UNL     1      10.386  -0.786   9.062  1.00  0.00    -0.014 A 
BRANCH  35  36
ATOM     36  C   UNL     1      11.547  -0.285   9.840  1.00  0.00     0.031 A 
ATOM     37  C   UNL     1      11.362   0.168  11.261  1.00  0.00     0.074 A 
ATOM     38  C   UNL     1      12.754  -0.185   9.249  1.00  0.00     0.049 A 
ATOM     39  N   UNL     1      12.236   0.685  12.087  1.00  0.00    -0.248 NA
ATOM     40  C   UNL     1      10.006   0.052  11.821  1.00  0.00     0.031 C 
ATOM     41  C   UNL     1      13.049  -0.545   7.862  1.00  0.00     0.029 A 
ATOM     42  N   UNL     1      13.957   0.257   9.741  1.00  0.00    -0.354 N 
ATOM     43  C   UNL     1      11.535   0.966  13.252  1.00  0.00     0.074 A 
ATOM     44  C   UNL     1      10.152   0.622  13.007  1.00  0.00     0.031 C 
ATOM     45  C   UNL     1      14.354  -0.336   7.622  1.00  0.00     0.029 A 
ATOM     46  C   UNL     1      14.977   0.209   8.824  1.00  0.00     0.049 A 
ATOM     47  H   UNL     1      14.076   0.578  10.664  1.00  0.00     0.167 HD
ATOM     48  C   UNL     1      12.007   1.441  14.430  1.00  0.00     0.037 A 
ATOM     49  C   UNL     1      16.270   0.570   8.939  1.00  0.00     0.037 A 
ATOM     50  C   UNL     1      13.388   1.762  14.675  1.00  0.00     0.049 A 
ATOM     51  C   UNL     1      16.767   1.105  10.255  1.00  0.00     0.074 A 
ATOM     52  C   UNL     1      13.977   2.197  15.849  1.00  0.00     0.029 A 
ATOM     53  N   UNL     1      14.397   1.686  13.726  1.00  0.00    -0.354 N 
ATOM     54  N   UNL     1      16.110   1.298  11.373  1.00  0.00    -0.248 NA
ATOM     55  C   UNL     1      18.190   1.462  10.328  1.00  0.00     0.031 C 
ATOM     56  C   UNL     1      15.332   2.436  15.596  1.00  0.00     0.029 A 
ATOM     57  C   UNL     1      15.601   2.089  14.282  1.00  0.00     0.049 A 
ATOM     58  H   UNL     1      14.276   1.389  12.795  1.00  0.00     0.167 HD
ATOM     59  C   UNL     1      17.043   1.765  12.290  1.00  0.00     0.074 A 
ATOM     60  C   UNL     1      18.315   1.813  11.600  1.00  0.00     0.031 C 
ATOM     61  C   UNL     1      16.862   2.121  13.585  1.00  0.00     0.037 A 
BRANCH  48  62
ATOM     62  C   UNL     1      11.018   1.641  15.543  1.00  0.00     0.064 A 
ATOM     63  C   UNL     1      10.387   0.557  16.174  1.00  0.00     0.173 A 
ATOM     64  C   UNL     1      10.716   2.932  16.005  1.00  0.00     0.173 A 
ATOM     65  F   UNL     1      10.630  -0.697  15.765  1.00  0.00    -0.203 F 
ATOM     66  C   UNL     1       9.468   0.759  17.201  1.00  0.00     0.198 A 
ATOM     67  C   UNL     1       9.823   3.128  17.055  1.00  0.00     0.198 A 
ATOM     68  F   UNL     1      11.293   4.004  15.442  1.00  0.00    -0.203 F 
ATOM     69  F   UNL     1       8.837  -0.288  17.748  1.00  0.00    -0.200 F 
ATOM     70  C   UNL     1       9.193   2.043  17.645  1.00  0.00     0.200 A 
ATOM     71  F   UNL     1       9.569   4.369  17.493  1.00  0.00    -0.200 F 
ATOM     72  F   UNL     1       8.313   2.236  18.638  1.00  0.00    -0.200 F 
ENDBRANCH  48  62
BRANCH  49  73
ATOM     73  C   UNL     1      17.192   0.411   7.784  1.00  0.00     0.064 A 
ATOM     74  C   UNL     1      18.225  -0.537   7.812  1.00  0.00     0.173 A 
ATOM     75  C   UNL     1      17.069   1.205   6.634  1.00  0.00     0.173 A 
ATOM     76  F   UNL     1      18.397  -1.307   8.897  1.00  0.00    -0.203 F 
ATOM     77  C   UNL     1      19.113  -0.668   6.747  1.00  0.00     0.198 A 
ATOM     78  C   UNL     1      17.938   1.051   5.556  1.00  0.00     0.198 A 
ATOM     79  F   UNL     1      16.094   2.122   6.553  1.00  0.00    -0.203 F 
ATOM     80  F   UNL     1      20.122  -1.547   6.822  1.00  0.00    -0.200 F 
ATOM     81  C   UNL     1      18.966   0.122   5.617  1.00  0.00     0.200 A 
ATOM     82  F   UNL     1      17.782   1.806   4.460  1.00  0.00    -0.200 F 
ATOM     83  F   UNL     1      19.818  -0.006   4.591  1.00  0.00    -0.200 F 
ENDBRANCH  49  73
BRANCH  61  84
ATOM     84  C   UNL     1      18.077   2.550  14.359  1.00  0.00     0.064 A 
ATOM     85  C   UNL     1      18.728   3.765  14.103  1.00  0.00     0.173 A 
ATOM     86  C   UNL     1      18.574   1.745  15.396  1.00  0.00     0.173 A 
ATOM     87  F   UNL     1      18.301   4.565  13.114  1.00  0.00    -0.203 F 
ATOM     88  C   UNL     1      19.850   4.144  14.835  1.00  0.00     0.198 A 
ATOM     89  C   UNL     1      19.675   2.143  16.149  1.00  0.00     0.198 A 
ATOM     90  F   UNL     1      17.984   0.576  15.688  1.00  0.00    -0.203 F 
ATOM     91  F   UNL     1      20.489   5.284  14.536  1.00  0.00    -0.200 F 
ATOM     92  C   UNL     1      20.318   3.338  15.862  1.00  0.00     0.200 A 
ATOM     93  F   UNL     1      20.114   1.370  17.151  1.00  0.00    -0.200 F 
ATOM     94  F   UNL     1      21.393   3.708  16.570  1.00  0.00    -0.200 F 
ENDBRANCH  61  84
ENDBRANCH  35  36
ENDBRANCH  27  30
ENDBRANCH  25  26
ENDBRANCH  24  25
ENDBRANCH   1  24
TORSDOF 14
