REMARK SMILES C[N@H+]1[C@H](C(=O)NCCCCNC(=O)c2ccc(-c3c4nc(c(-c5c(F)c(F)c(F)c(F)c5F)c5ccc([nH]5)c(-c5c(F)c(F)c(F)c(F)c5F)c5nc(c(-c6c(F)c(F)c(F)c(F)c6F)c6ccc3[nH]6)C=C5)C=C4)cc2)C[C@H](C(=O)NCC2(CO)CCCC2)[C@@H]1c1ccccc1F
REMARK SMILES IDX 7 1 6 2 4 3 5 4 3 6 1 7 2 8 90 9 77 11 78 12 91 13 92 14
REMARK SMILES IDX 96 15 93 16 95 17 97 18 94 19 79 20 80 21 81 22 82 24 83 25
REMARK SMILES IDX 86 26 89 27 87 28 88 29 84 30 85 31 8 33 9 34 10 35 11 36
REMARK SMILES IDX 12 37 13 39 14 40 15 41 76 42 16 43 75 44 17 45 18 46 19 47
REMARK SMILES IDX 69 48 20 49 74 50 68 51 70 52 21 53 73 54 67 55 66 56 22 58
REMARK SMILES IDX 54 59 34 60 53 61 35 62 38 63 52 64 71 65 36 66 37 67 51 69
REMARK SMILES IDX 72 70 39 71 23 72 24 73 32 74 25 75 26 76 30 77 33 78 27 79
REMARK SMILES IDX 28 80 31 81 29 82 55 83 56 84 64 85 57 86 58 87 62 88 65 89
REMARK SMILES IDX 59 90 60 91 63 92 61 93 40 94 41 95 49 96 42 97 43 98 47 99
REMARK SMILES IDX 50 100 44 101 45 102 48 103 46 104
REMARK H PARENT 6 5 2 10 81 23 85 32 11 38 70 57 38 68
REMARK Flexibility Score: inf
ROOT
ATOM      1  C   UNL     1       0.017   1.414  -2.823  1.00  0.00     0.116 C 
ENDROOT
BRANCH   1   2
ATOM      2  N   UNL     1      -0.426   2.450  -1.914  1.00  0.00    -0.351 N 
ATOM      3  C   UNL     1      -0.549   2.393  -0.554  1.00  0.00     0.278 C 
ATOM      4  O   UNL     1      -0.930   3.414   0.029  1.00  0.00    -0.268 OA
ATOM      5  H   UNL     1      -0.670   3.308  -2.330  1.00  0.00     0.163 HD
BRANCH   3   6
ATOM      6  C   UNL     1      -0.164   1.136   0.252  1.00  0.00     0.275 C 
ATOM      7  C   UNL     1      -2.213  -0.144   0.395  1.00  0.00     0.333 C 
ATOM      8  N   UNL     1      -0.881  -0.072  -0.202  1.00  0.00    -0.320 N 
ATOM      9  C   UNL     1      -0.005  -1.216   0.119  1.00  0.00     0.231 C 
ATOM     10  H   UNL     1      -1.062  -0.064  -1.206  1.00  0.00     0.349 HD
ATOM     11  C   UNL     1       1.322   0.806   0.163  1.00  0.00     0.095 C 
ATOM     12  C   UNL     1       1.427  -0.692  -0.169  1.00  0.00     0.148 C 
BRANCH   9  13
ATOM     13  C   UNL     1      -0.320  -2.563  -0.500  1.00  0.00     0.046 A 
ATOM     14  C   UNL     1       0.357  -3.696  -0.002  1.00  0.00     0.013 A 
ATOM     15  C   UNL     1      -1.170  -2.750  -1.599  1.00  0.00     0.132 A 
ATOM     16  C   UNL     1       0.205  -4.951  -0.599  1.00  0.00     0.001 A 
ATOM     17  C   UNL     1      -1.334  -4.004  -2.188  1.00  0.00     0.040 A 
ATOM     18  F   UNL     1      -1.839  -1.724  -2.145  1.00  0.00    -0.206 F 
ATOM     19  C   UNL     1      -0.638  -5.104  -1.695  1.00  0.00     0.003 A 
ENDBRANCH   9  13
BRANCH  12  20
ATOM     20  C   UNL     1       2.009  -0.929  -1.577  1.00  0.00     0.229 C 
ATOM     21  O   UNL     1       1.455  -1.573  -2.466  1.00  0.00    -0.275 OA
ATOM     22  N   UNL     1       3.234  -0.415  -1.887  1.00  0.00    -0.355 N 
ATOM     23  H   UNL     1       3.513  -0.543  -2.823  1.00  0.00     0.163 HD
BRANCH  22  24
ATOM     24  C   UNL     1       4.188   0.289  -1.059  1.00  0.00     0.125 C 
BRANCH  24  25
ATOM     25  C   UNL     1       5.593  -0.332  -1.121  1.00  0.00     0.011 C 
ATOM     26  C   UNL     1       6.409   0.104   0.107  1.00  0.00     0.011 C 
ATOM     27  C   UNL     1       5.557  -1.860  -0.939  1.00  0.00     0.011 C 
ATOM     28  C   UNL     1       7.478  -0.967   0.279  1.00  0.00     0.001 C 
ATOM     29  C   UNL     1       6.924  -2.231  -0.373  1.00  0.00     0.001 C 
BRANCH  25  30
ATOM     30  C   UNL     1       6.309   0.078  -2.427  1.00  0.00     0.164 C 
BRANCH  30  31
ATOM     31  O   UNL     1       5.566  -0.324  -3.573  1.00  0.00    -0.396 OA
ATOM     32  H   UNL     1       5.474  -1.289  -3.577  1.00  0.00     0.210 HD
ENDBRANCH  30  31
ENDBRANCH  25  30
ENDBRANCH  24  25
ENDBRANCH  22  24
ENDBRANCH  12  20
ENDBRANCH   3   6
ENDBRANCH   1   2
BRANCH   1  33
ATOM     33  C   UNL     1      -1.000   1.063  -3.897  1.00  0.00     0.023 C 
BRANCH  33  34
ATOM     34  C   UNL     1      -1.250   2.166  -4.917  1.00  0.00     0.023 C 
BRANCH  34  35
ATOM     35  C   UNL     1      -0.003   2.711  -5.603  1.00  0.00     0.116 C 
BRANCH  35  36
ATOM     36  N   UNL     1       0.742   1.704  -6.347  1.00  0.00    -0.352 N 
ATOM     37  C   UNL     1       1.134   1.708  -7.665  1.00  0.00     0.251 C 
ATOM     38  H   UNL     1       1.001   0.906  -5.832  1.00  0.00     0.163 HD
ATOM     39  O   UNL     1       1.671   0.726  -8.167  1.00  0.00    -0.269 OA
BRANCH  37  40
ATOM     40  C   UNL     1       0.859   2.896  -8.500  1.00  0.00     0.039 A 
ATOM     41  C   UNL     1       0.198   2.720  -9.718  1.00  0.00     0.014 A 
ATOM     42  C   UNL     1       1.191   4.177  -8.053  1.00  0.00     0.014 A 
ATOM     43  C   UNL     1      -0.230   3.838 -10.437  1.00  0.00     0.010 A 
ATOM     44  C   UNL     1       0.701   5.289  -8.732  1.00  0.00     0.010 A 
ATOM     45  C   UNL     1      -0.036   5.129  -9.916  1.00  0.00    -0.014 A 
BRANCH  45  46
ATOM     46  C   UNL     1      -0.657   6.317 -10.554  1.00  0.00     0.031 A 
ATOM     47  C   UNL     1       0.197   7.410 -11.125  1.00  0.00     0.074 A 
ATOM     48  C   UNL     1      -1.998   6.450 -10.530  1.00  0.00     0.049 A 
ATOM     49  N   UNL     1      -0.164   8.565 -11.625  1.00  0.00    -0.248 NA
ATOM     50  C   UNL     1       1.651   7.188 -11.110  1.00  0.00     0.031 C 
ATOM     51  C   UNL     1      -2.934   5.480  -9.958  1.00  0.00     0.029 A 
ATOM     52  N   UNL     1      -2.808   7.464 -10.979  1.00  0.00    -0.354 N 
ATOM     53  C   UNL     1       1.015   9.210 -11.974  1.00  0.00     0.074 A 
ATOM     54  C   UNL     1       2.104   8.338 -11.588  1.00  0.00     0.031 C 
ATOM     55  C   UNL     1      -4.187   5.938 -10.103  1.00  0.00     0.029 A 
ATOM     56  C   UNL     1      -4.143   7.252 -10.735  1.00  0.00     0.049 A 
ATOM     57  H   UNL     1      -2.464   8.267 -11.433  1.00  0.00     0.167 HD
ATOM     58  C   UNL     1       1.170  10.412 -12.579  1.00  0.00     0.037 A 
ATOM     59  C   UNL     1      -5.211   8.037 -10.975  1.00  0.00     0.037 A 
ATOM     60  C   UNL     1       0.083  11.268 -12.977  1.00  0.00     0.049 A 
ATOM     61  C   UNL     1      -5.006   9.379 -11.622  1.00  0.00     0.074 A 
ATOM     62  C   UNL     1       0.138  12.468 -13.665  1.00  0.00     0.029 A 
ATOM     63  N   UNL     1      -1.256  11.020 -12.714  1.00  0.00    -0.354 N 
ATOM     64  N   UNL     1      -3.892   9.945 -12.017  1.00  0.00    -0.248 NA
ATOM     65  C   UNL     1      -6.208  10.193 -11.852  1.00  0.00     0.031 C 
ATOM     66  C   UNL     1      -1.163  12.971 -13.773  1.00  0.00     0.029 A 
ATOM     67  C   UNL     1      -2.034  12.062 -13.194  1.00  0.00     0.049 A 
ATOM     68  H   UNL     1      -1.603  10.221 -12.253  1.00  0.00     0.167 HD
ATOM     69  C   UNL     1      -4.258  11.170 -12.555  1.00  0.00     0.074 A 
ATOM     70  C   UNL     1      -5.700  11.257 -12.457  1.00  0.00     0.031 C 
ATOM     71  C   UNL     1      -3.468  12.139 -13.080  1.00  0.00     0.037 A 
BRANCH  58  72
ATOM     72  C   UNL     1       2.571  10.877 -12.850  1.00  0.00     0.064 A 
ATOM     73  C   UNL     1       3.368  10.273 -13.833  1.00  0.00     0.173 A 
ATOM     74  C   UNL     1       3.105  11.971 -12.152  1.00  0.00     0.173 A 
ATOM     75  F   UNL     1       2.908   9.218 -14.522  1.00  0.00    -0.203 F 
ATOM     76  C   UNL     1       4.658  10.731 -14.091  1.00  0.00     0.198 A 
ATOM     77  C   UNL     1       4.384  12.444 -12.432  1.00  0.00     0.198 A 
ATOM     78  F   UNL     1       2.382  12.588 -11.205  1.00  0.00    -0.203 F 
ATOM     79  F   UNL     1       5.417  10.112 -15.006  1.00  0.00    -0.200 F 
ATOM     80  C   UNL     1       5.161  11.821 -13.396  1.00  0.00     0.200 A 
ATOM     81  F   UNL     1       4.865  13.505 -11.768  1.00  0.00    -0.200 F 
ATOM     82  F   UNL     1       6.399  12.267 -13.652  1.00  0.00    -0.200 F 
ENDBRANCH  58  72
BRANCH  59  83
ATOM     83  C   UNL     1      -6.572   7.571 -10.601  1.00  0.00     0.064 A 
ATOM     84  C   UNL     1      -7.512   7.235 -11.585  1.00  0.00     0.173 A 
ATOM     85  C   UNL     1      -6.962   7.458  -9.259  1.00  0.00     0.173 A 
ATOM     86  F   UNL     1      -7.193   7.351 -12.882  1.00  0.00    -0.203 F 
ATOM     87  C   UNL     1      -8.796   6.818 -11.240  1.00  0.00     0.198 A 
ATOM     88  C   UNL     1      -8.237   7.014  -8.915  1.00  0.00     0.198 A 
ATOM     89  F   UNL     1      -6.099   7.767  -8.280  1.00  0.00    -0.203 F 
ATOM     90  F   UNL     1      -9.689   6.545 -12.201  1.00  0.00    -0.200 F 
ATOM     91  C   UNL     1      -9.155   6.702  -9.906  1.00  0.00     0.200 A 
ATOM     92  F   UNL     1      -8.576   6.891  -7.624  1.00  0.00    -0.200 F 
ATOM     93  F   UNL     1     -10.389   6.297  -9.575  1.00  0.00    -0.200 F 
ENDBRANCH  59  83
BRANCH  71  94
ATOM     94  C   UNL     1      -4.148  13.374 -13.595  1.00  0.00     0.064 A 
ATOM     95  C   UNL     1      -4.705  14.319 -12.721  1.00  0.00     0.173 A 
ATOM     96  C   UNL     1      -4.213  13.632 -14.972  1.00  0.00     0.173 A 
ATOM     97  F   UNL     1      -4.685  14.109 -11.397  1.00  0.00    -0.203 F 
ATOM     98  C   UNL     1      -5.321  15.469 -13.210  1.00  0.00     0.198 A 
ATOM     99  C   UNL     1      -4.804  14.796 -15.456  1.00  0.00     0.198 A 
ATOM    100  F   UNL     1      -3.691  12.761 -15.849  1.00  0.00    -0.203 F 
ATOM    101  F   UNL     1      -5.887  16.336 -12.359  1.00  0.00    -0.200 F 
ATOM    102  C   UNL     1      -5.363  15.710 -14.575  1.00  0.00     0.200 A 
ATOM    103  F   UNL     1      -4.833  15.033 -16.774  1.00  0.00    -0.200 F 
ATOM    104  F   UNL     1      -5.950  16.820 -15.043  1.00  0.00    -0.200 F 
ENDBRANCH  71  94
ENDBRANCH  45  46
ENDBRANCH  37  40
ENDBRANCH  35  36
ENDBRANCH  34  35
ENDBRANCH  33  34
ENDBRANCH   1  33
TORSDOF 17
