REMARK SMILES C[C@H](C(=O)NCCCCNC(=O)c1ccc(-c2c3nc(c(-c4c(F)c(F)c(F)c(F)c4F)c4ccc([nH]4)c(-c4c(F)c(F)c(F)c(F)c4F)c4nc(c(-c5c(F)c(F)c(F)c(F)c5F)c5ccc2[nH]5)C=C4)C=C3)cc1)[C@H](C)[N@@H+]1CC[C@H]([NH+]2CCCCC2)C1
REMARK SMILES IDX 7 1 6 2 5 3 3 4 4 5 2 7 1 8 76 9 77 10 78 11 79 12 88 13
REMARK SMILES IDX 80 15 81 16 82 17 83 18 87 19 84 21 86 22 85 23 8 24 9 25
REMARK SMILES IDX 10 26 11 27 12 29 13 30 14 31 75 32 15 33 74 34 16 35 17 36
REMARK SMILES IDX 18 37 68 38 19 39 73 40 67 41 69 42 20 43 72 44 66 45 65 46
REMARK SMILES IDX 21 48 53 49 33 50 52 51 34 52 37 53 51 54 70 55 35 56 36 57
REMARK SMILES IDX 50 59 71 60 38 61 22 62 23 63 31 64 24 65 25 66 29 67 32 68
REMARK SMILES IDX 26 69 27 70 30 71 28 72 54 73 55 74 63 75 56 76 57 77 61 78
REMARK SMILES IDX 64 79 58 80 59 81 62 82 60 83 39 84 40 85 48 86 41 87 42 88
REMARK SMILES IDX 46 89 49 90 43 91 44 92 47 93 45 94
REMARK H PARENT 5 6 78 14 82 20 10 28 69 47 37 58
REMARK Flexibility Score: inf
ROOT
ATOM      1  C   UNL     1      -3.826   1.491  -0.947  1.00  0.00     0.023 C 
ENDROOT
BRANCH   1   2
ATOM      2  C   UNL     1      -3.867   0.069  -0.390  1.00  0.00     0.116 C 
BRANCH   2   3
ATOM      3  N   UNL     1      -2.804  -0.769  -0.913  1.00  0.00    -0.356 N 
ATOM      4  C   UNL     1      -1.768  -1.367  -0.250  1.00  0.00     0.228 C 
ATOM      5  O   UNL     1      -1.035  -2.119  -0.892  1.00  0.00    -0.275 OA
ATOM      6  H   UNL     1      -2.832  -0.929  -1.884  1.00  0.00     0.163 HD
BRANCH   4   7
ATOM      7  C   UNL     1      -1.531  -1.038   1.224  1.00  0.00     0.133 C 
ATOM      8  C   UNL     1      -0.751  -2.160   1.918  1.00  0.00     0.024 C 
BRANCH   7   9
ATOM      9  C   UNL     1      -0.844   0.355   1.328  1.00  0.00     0.193 C 
ATOM     10  C   UNL     1       0.638   0.256   0.934  1.00  0.00     0.076 C 
BRANCH   9  11
ATOM     11  N   UNL     1      -1.202   0.950   2.645  1.00  0.00    -0.327 N 
ATOM     12  C   UNL     1      -2.087   2.122   2.500  1.00  0.00     0.269 C 
ATOM     13  C   UNL     1      -0.117   1.435   3.522  1.00  0.00     0.328 C 
ATOM     14  H   UNL     1      -1.626   0.133   3.085  1.00  0.00     0.348 HD
ATOM     15  C   UNL     1      -1.139   3.301   2.368  1.00  0.00     0.132 C 
ATOM     16  C   UNL     1      -0.077   2.987   3.425  1.00  0.00     0.245 C 
BRANCH  16  17
ATOM     17  N   UNL     1       1.242   3.641   3.289  1.00  0.00    -0.328 N 
ATOM     18  C   UNL     1       2.036   3.145   2.161  1.00  0.00     0.262 C 
ATOM     19  C   UNL     1       1.120   5.107   3.253  1.00  0.00     0.262 C 
ATOM     20  H   UNL     1       1.761   3.383   4.129  1.00  0.00     0.348 HD
ATOM     21  C   UNL     1       3.416   3.792   2.062  1.00  0.00     0.062 C 
ATOM     22  C   UNL     1       2.487   5.795   3.203  1.00  0.00     0.062 C 
ATOM     23  C   UNL     1       3.305   5.306   2.015  1.00  0.00     0.012 C 
ENDBRANCH  16  17
ENDBRANCH   9  11
ENDBRANCH   7   9
ENDBRANCH   4   7
ENDBRANCH   2   3
ENDBRANCH   1   2
BRANCH   1  24
ATOM     24  C   UNL     1      -4.034   1.606  -2.455  1.00  0.00     0.023 C 
BRANCH  24  25
ATOM     25  C   UNL     1      -5.280   0.917  -2.993  1.00  0.00     0.116 C 
BRANCH  25  26
ATOM     26  N   UNL     1      -6.510   1.406  -2.390  1.00  0.00    -0.352 N 
ATOM     27  C   UNL     1      -7.690   1.762  -2.996  1.00  0.00     0.251 C 
ATOM     28  H   UNL     1      -6.494   1.494  -1.409  1.00  0.00     0.163 HD
ATOM     29  O   UNL     1      -8.593   2.272  -2.340  1.00  0.00    -0.269 OA
BRANCH  27  30
ATOM     30  C   UNL     1      -7.857   1.562  -4.451  1.00  0.00     0.039 A 
ATOM     31  C   UNL     1      -8.398   2.598  -5.216  1.00  0.00     0.014 A 
ATOM     32  C   UNL     1      -7.464   0.368  -5.061  1.00  0.00     0.014 A 
ATOM     33  C   UNL     1      -8.483   2.461  -6.603  1.00  0.00     0.010 A 
ATOM     34  C   UNL     1      -7.472   0.265  -6.448  1.00  0.00     0.010 A 
ATOM     35  C   UNL     1      -7.988   1.308  -7.233  1.00  0.00    -0.014 A 
BRANCH  35  36
ATOM     36  C   UNL     1      -8.011   1.164  -8.710  1.00  0.00     0.031 A 
ATOM     37  C   UNL     1      -8.832   0.078  -9.347  1.00  0.00     0.074 A 
ATOM     38  C   UNL     1      -7.242   1.964  -9.473  1.00  0.00     0.049 A 
ATOM     39  N   UNL     1      -8.929  -0.257 -10.609  1.00  0.00    -0.248 NA
ATOM     40  C   UNL     1      -9.625  -0.765  -8.439  1.00  0.00     0.031 C 
ATOM     41  C   UNL     1      -6.365   3.023  -8.972  1.00  0.00     0.029 A 
ATOM     42  N   UNL     1      -7.066   2.002 -10.834  1.00  0.00    -0.354 N 
ATOM     43  C   UNL     1      -9.775  -1.357 -10.642  1.00  0.00     0.074 A 
ATOM     44  C   UNL     1     -10.117  -1.670  -9.271  1.00  0.00     0.031 C 
ATOM     45  C   UNL     1      -5.765   3.625 -10.012  1.00  0.00     0.029 A 
ATOM     46  C   UNL     1      -6.185   2.970 -11.248  1.00  0.00     0.049 A 
ATOM     47  H   UNL     1      -7.529   1.394 -11.454  1.00  0.00     0.167 HD
ATOM     48  C   UNL     1     -10.246  -2.031 -11.719  1.00  0.00     0.037 A 
ATOM     49  C   UNL     1      -5.761   3.291 -12.485  1.00  0.00     0.037 A 
ATOM     50  C   UNL     1      -9.924  -1.701 -13.082  1.00  0.00     0.049 A 
ATOM     51  C   UNL     1      -6.295   2.527 -13.666  1.00  0.00     0.074 A 
ATOM     52  C   UNL     1     -10.398  -2.280 -14.246  1.00  0.00     0.029 A 
ATOM     53  N   UNL     1      -9.039  -0.702 -13.463  1.00  0.00    -0.354 N 
ATOM     54  N   UNL     1      -7.150   1.534 -13.692  1.00  0.00    -0.248 NA
ATOM     55  C   UNL     1      -5.808   2.934 -14.992  1.00  0.00     0.031 C 
ATOM     56  C   UNL     1      -9.763  -1.663 -15.330  1.00  0.00     0.029 A 
ATOM     57  C   UNL     1      -8.936  -0.663 -14.845  1.00  0.00     0.049 A 
ATOM     58  H   UNL     1      -8.557  -0.108 -12.844  1.00  0.00     0.167 HD
ATOM     59  C   UNL     1      -7.329   1.218 -15.033  1.00  0.00     0.074 A 
ATOM     60  C   UNL     1      -6.500   2.133 -15.790  1.00  0.00     0.031 C 
ATOM     61  C   UNL     1      -8.112   0.259 -15.585  1.00  0.00     0.037 A 
BRANCH  48  62
ATOM     62  C   UNL     1     -11.158  -3.196 -11.458  1.00  0.00     0.064 A 
ATOM     63  C   UNL     1     -12.450  -3.019 -10.938  1.00  0.00     0.173 A 
ATOM     64  C   UNL     1     -10.740  -4.505 -11.741  1.00  0.00     0.173 A 
ATOM     65  F   UNL     1     -12.895  -1.790 -10.638  1.00  0.00    -0.203 F 
ATOM     66  C   UNL     1     -13.272  -4.112 -10.671  1.00  0.00     0.198 A 
ATOM     67  C   UNL     1     -11.578  -5.592 -11.506  1.00  0.00     0.198 A 
ATOM     68  F   UNL     1      -9.518  -4.731 -12.246  1.00  0.00    -0.203 F 
ATOM     69  F   UNL     1     -14.476  -3.921 -10.113  1.00  0.00    -0.200 F 
ATOM     70  C   UNL     1     -12.838  -5.396 -10.960  1.00  0.00     0.200 A 
ATOM     71  F   UNL     1     -11.162  -6.832 -11.799  1.00  0.00    -0.200 F 
ATOM     72  F   UNL     1     -13.629  -6.446 -10.703  1.00  0.00    -0.200 F 
ENDBRANCH  48  62
BRANCH  49  73
ATOM     73  C   UNL     1      -4.809   4.417 -12.671  1.00  0.00     0.064 A 
ATOM     74  C   UNL     1      -5.228   5.618 -13.261  1.00  0.00     0.173 A 
ATOM     75  C   UNL     1      -3.473   4.323 -12.258  1.00  0.00     0.173 A 
ATOM     76  F   UNL     1      -6.492   5.748 -13.690  1.00  0.00    -0.203 F 
ATOM     77  C   UNL     1      -4.342   6.677 -13.443  1.00  0.00     0.198 A 
ATOM     78  C   UNL     1      -2.595   5.393 -12.416  1.00  0.00     0.198 A 
ATOM     79  F   UNL     1      -3.025   3.197 -11.683  1.00  0.00    -0.203 F 
ATOM     80  F   UNL     1      -4.758   7.800 -14.044  1.00  0.00    -0.200 F 
ATOM     81  C   UNL     1      -3.028   6.567 -13.015  1.00  0.00     0.200 A 
ATOM     82  F   UNL     1      -1.329   5.288 -11.988  1.00  0.00    -0.200 F 
ATOM     83  F   UNL     1      -2.178   7.589 -13.183  1.00  0.00    -0.200 F 
ENDBRANCH  49  73
BRANCH  61  84
ATOM     84  C   UNL     1      -8.144   0.175 -17.084  1.00  0.00     0.064 A 
ATOM     85  C   UNL     1      -7.052  -0.306 -17.821  1.00  0.00     0.173 A 
ATOM     86  C   UNL     1      -9.300   0.545 -17.789  1.00  0.00     0.173 A 
ATOM     87  F   UNL     1      -5.918  -0.657 -17.195  1.00  0.00    -0.203 F 
ATOM     88  C   UNL     1      -7.107  -0.390 -19.210  1.00  0.00     0.198 A 
ATOM     89  C   UNL     1      -9.363   0.430 -19.174  1.00  0.00     0.198 A 
ATOM     90  F   UNL     1     -10.375   1.005 -17.131  1.00  0.00    -0.203 F 
ATOM     91  F   UNL     1      -6.034  -0.806 -19.897  1.00  0.00    -0.200 F 
ATOM     92  C   UNL     1      -8.264  -0.030 -19.884  1.00  0.00     0.200 A 
ATOM     93  F   UNL     1     -10.487   0.765 -19.823  1.00  0.00    -0.200 F 
ATOM     94  F   UNL     1      -8.318  -0.119 -21.220  1.00  0.00    -0.200 F 
ENDBRANCH  61  84
ENDBRANCH  35  36
ENDBRANCH  27  30
ENDBRANCH  25  26
ENDBRANCH  24  25
ENDBRANCH   1  24
TORSDOF 14
