REMARK SMILES O=C(NCCCCNC(=O)c1ccc(-c2c3nc(c(-c4c(F)c(F)c(F)c(F)c4F)c4ccc([nH]4)c(-c4c(F)c(F)c(F)c(F)c4F)c4nc(c(-c5c(F)c(F)c(F)c(F)c5F)c5ccc2[nH]5)C=C4)C=C3)cc1)c1ccc(/N=C\c2ccccc2O)cc1
REMARK SMILES IDX 5 1 4 2 3 3 1 4 2 5 74 7 75 8 88 9 76 10 87 11 77 12 78 13
REMARK SMILES IDX 79 14 80 15 81 16 85 17 82 18 84 19 83 20 86 21 6 23 7 24
REMARK SMILES IDX 8 25 9 26 10 28 11 29 12 30 73 31 13 32 72 33 14 34 15 35
REMARK SMILES IDX 16 36 66 37 17 38 71 39 65 40 67 41 18 42 70 43 64 44 63 45
REMARK SMILES IDX 19 47 51 48 31 49 50 50 32 51 35 52 49 53 68 54 33 55 34 56
REMARK SMILES IDX 48 58 69 59 36 60 20 61 21 62 29 63 22 64 23 65 27 66 30 67
REMARK SMILES IDX 24 68 25 69 28 70 26 71 52 72 53 73 61 74 54 75 55 76 59 77
REMARK SMILES IDX 62 78 56 79 57 80 60 81 58 82 37 83 38 84 46 85 39 86 40 87
REMARK SMILES IDX 44 88 47 89 41 90 42 91 45 92 43 93
REMARK H PARENT 3 6 86 22 8 27 67 46 35 57
REMARK Flexibility Score: inf
ROOT
ATOM      1  C   UNL     1       4.998  -2.382  -0.463  1.00  0.00     0.023 C 
ENDROOT
BRANCH   1   2
ATOM      2  C   UNL     1       4.755  -0.893  -0.683  1.00  0.00     0.116 C 
BRANCH   2   3
ATOM      3  N   UNL     1       3.362  -0.551  -0.923  1.00  0.00    -0.352 N 
ATOM      4  O   UNL     1       1.384   0.484  -0.651  1.00  0.00    -0.269 OA
ATOM      5  C   UNL     1       2.568   0.403  -0.333  1.00  0.00     0.251 C 
ATOM      6  H   UNL     1       2.918  -1.088  -1.619  1.00  0.00     0.163 HD
BRANCH   5   7
ATOM      7  C   UNL     1       3.107   1.286   0.727  1.00  0.00     0.039 A 
ATOM      8  C   UNL     1       4.359   1.891   0.631  1.00  0.00     0.016 A 
ATOM      9  C   UNL     1       2.327   1.504   1.864  1.00  0.00     0.016 A 
ATOM     10  C   UNL     1       4.907   2.524   1.749  1.00  0.00     0.029 A 
ATOM     11  C   UNL     1       2.858   2.209   2.948  1.00  0.00     0.029 A 
ATOM     12  C   UNL     1       4.192   2.630   2.946  1.00  0.00     0.063 A 
BRANCH  12  13
ATOM     13  N   UNL     1       4.885   3.175   4.038  1.00  0.00    -0.256 NA
ATOM     14  C   UNL     1       4.670   2.909   5.291  1.00  0.00     0.123 C 
BRANCH  14  15
ATOM     15  C   UNL     1       3.688   1.997   5.894  1.00  0.00     0.035 A 
ATOM     16  C   UNL     1       2.718   2.594   6.708  1.00  0.00     0.013 A 
ATOM     17  C   UNL     1       3.654   0.623   5.644  1.00  0.00     0.124 A 
ATOM     18  C   UNL     1       1.677   1.822   7.221  1.00  0.00     0.001 A 
ATOM     19  C   UNL     1       2.617  -0.146   6.168  1.00  0.00     0.047 A 
ATOM     20  C   UNL     1       1.622   0.456   6.942  1.00  0.00     0.004 A 
BRANCH  17  21
ATOM     21  O   UNL     1       4.580  -0.030   4.881  1.00  0.00    -0.507 OA
ATOM     22  H   UNL     1       5.297   0.444   4.506  1.00  0.00     0.293 HD
ENDBRANCH  17  21
ENDBRANCH  14  15
ENDBRANCH  12  13
ENDBRANCH   5   7
ENDBRANCH   2   3
ENDBRANCH   1   2
BRANCH   1  23
ATOM     23  C   UNL     1       4.525  -3.311  -1.576  1.00  0.00     0.023 C 
BRANCH  23  24
ATOM     24  C   UNL     1       4.942  -2.919  -2.988  1.00  0.00     0.116 C 
BRANCH  24  25
ATOM     25  N   UNL     1       6.383  -2.885  -3.183  1.00  0.00    -0.352 N 
ATOM     26  C   UNL     1       7.137  -3.470  -4.175  1.00  0.00     0.251 C 
ATOM     27  H   UNL     1       6.889  -2.372  -2.512  1.00  0.00     0.163 HD
ATOM     28  O   UNL     1       8.359  -3.413  -4.146  1.00  0.00    -0.269 OA
BRANCH  26  29
ATOM     29  C   UNL     1       6.457  -4.211  -5.259  1.00  0.00     0.039 A 
ATOM     30  C   UNL     1       6.869  -5.515  -5.547  1.00  0.00     0.014 A 
ATOM     31  C   UNL     1       5.387  -3.640  -5.951  1.00  0.00     0.014 A 
ATOM     32  C   UNL     1       6.147  -6.282  -6.466  1.00  0.00     0.010 A 
ATOM     33  C   UNL     1       4.628  -4.426  -6.812  1.00  0.00     0.010 A 
ATOM     34  C   UNL     1       4.993  -5.758  -7.070  1.00  0.00    -0.014 A 
BRANCH  34  35
ATOM     35  C   UNL     1       4.139  -6.573  -7.971  1.00  0.00     0.031 A 
ATOM     36  C   UNL     1       3.969  -6.162  -9.407  1.00  0.00     0.074 A 
ATOM     37  C   UNL     1       3.431  -7.608  -7.476  1.00  0.00     0.049 A 
ATOM     38  N   UNL     1       3.136  -6.617 -10.307  1.00  0.00    -0.248 NA
ATOM     39  C   UNL     1       4.830  -5.066  -9.884  1.00  0.00     0.031 C 
ATOM     40  C   UNL     1       3.476  -8.082  -6.092  1.00  0.00     0.029 A 
ATOM     41  N   UNL     1       2.509  -8.430  -8.077  1.00  0.00    -0.354 N 
ATOM     42  C   UNL     1       3.343  -5.840 -11.439  1.00  0.00     0.074 A 
ATOM     43  C   UNL     1       4.362  -4.867 -11.107  1.00  0.00     0.031 C 
ATOM     44  C   UNL     1       2.623  -9.111  -5.950  1.00  0.00     0.029 A 
ATOM     45  C   UNL     1       1.940  -9.341  -7.220  1.00  0.00     0.049 A 
ATOM     46  H   UNL     1       2.279  -8.373  -9.032  1.00  0.00     0.167 HD
ATOM     47  C   UNL     1       2.743  -5.938 -12.648  1.00  0.00     0.037 A 
ATOM     48  C   UNL     1       0.962 -10.243  -7.429  1.00  0.00     0.037 A 
ATOM     49  C   UNL     1       1.776  -6.944 -12.994  1.00  0.00     0.049 A 
ATOM     50  C   UNL     1       0.334 -10.346  -8.794  1.00  0.00     0.074 A 
ATOM     51  C   UNL     1       1.180  -7.180 -14.220  1.00  0.00     0.029 A 
ATOM     52  N   UNL     1       1.270  -7.887 -12.113  1.00  0.00    -0.354 N 
ATOM     53  N   UNL     1       0.585  -9.649  -9.875  1.00  0.00    -0.248 NA
ATOM     54  C   UNL     1      -0.714 -11.364  -8.969  1.00  0.00     0.031 C 
ATOM     55  C   UNL     1       0.287  -8.245 -14.074  1.00  0.00     0.029 A 
ATOM     56  C   UNL     1       0.357  -8.698 -12.767  1.00  0.00     0.049 A 
ATOM     57  H   UNL     1       1.522  -7.969 -11.165  1.00  0.00     0.167 HD
ATOM     58  C   UNL     1      -0.242 -10.166 -10.863  1.00  0.00     0.074 A 
ATOM     59  C   UNL     1      -1.001 -11.239 -10.257  1.00  0.00     0.031 C 
ATOM     60  C   UNL     1      -0.362  -9.784 -12.157  1.00  0.00     0.037 A 
BRANCH  47  61
ATOM     61  C   UNL     1       3.115  -4.937 -13.699  1.00  0.00     0.064 A 
ATOM     62  C   UNL     1       4.353  -4.986 -14.357  1.00  0.00     0.173 A 
ATOM     63  C   UNL     1       2.192  -3.960 -14.104  1.00  0.00     0.173 A 
ATOM     64  F   UNL     1       5.271  -5.895 -13.998  1.00  0.00    -0.203 F 
ATOM     65  C   UNL     1       4.659  -4.085 -15.372  1.00  0.00     0.198 A 
ATOM     66  C   UNL     1       2.492  -3.076 -15.136  1.00  0.00     0.198 A 
ATOM     67  F   UNL     1       0.993  -3.875 -13.509  1.00  0.00    -0.203 F 
ATOM     68  F   UNL     1       5.859  -4.130 -15.967  1.00  0.00    -0.200 F 
ATOM     69  C   UNL     1       3.725  -3.137 -15.768  1.00  0.00     0.200 A 
ATOM     70  F   UNL     1       1.585  -2.170 -15.526  1.00  0.00    -0.200 F 
ATOM     71  F   UNL     1       4.016  -2.281 -16.757  1.00  0.00    -0.200 F 
ENDBRANCH  47  61
BRANCH  48  72
ATOM     72  C   UNL     1       0.508 -11.130  -6.325  1.00  0.00     0.064 A 
ATOM     73  C   UNL     1       0.773 -12.508  -6.357  1.00  0.00     0.173 A 
ATOM     74  C   UNL     1      -0.227 -10.632  -5.242  1.00  0.00     0.173 A 
ATOM     75  F   UNL     1       1.453 -13.034  -7.386  1.00  0.00    -0.203 F 
ATOM     76  C   UNL     1       0.293 -13.356  -5.363  1.00  0.00     0.198 A 
ATOM     77  C   UNL     1      -0.684 -11.479  -4.232  1.00  0.00     0.198 A 
ATOM     78  F   UNL     1      -0.505  -9.323  -5.163  1.00  0.00    -0.203 F 
ATOM     79  F   UNL     1       0.511 -14.675  -5.447  1.00  0.00    -0.200 F 
ATOM     80  C   UNL     1      -0.433 -12.840  -4.299  1.00  0.00     0.200 A 
ATOM     81  F   UNL     1      -1.376 -10.975  -3.201  1.00  0.00    -0.200 F 
ATOM     82  F   UNL     1      -0.901 -13.658  -3.346  1.00  0.00    -0.200 F 
ENDBRANCH  48  72
BRANCH  60  83
ATOM     83  C   UNL     1      -1.300 -10.565 -13.026  1.00  0.00     0.064 A 
ATOM     84  C   UNL     1      -2.690 -10.416 -12.927  1.00  0.00     0.173 A 
ATOM     85  C   UNL     1      -0.796 -11.425 -14.014  1.00  0.00     0.173 A 
ATOM     86  F   UNL     1      -3.219  -9.617 -11.988  1.00  0.00    -0.203 F 
ATOM     87  C   UNL     1      -3.544 -11.111 -13.780  1.00  0.00     0.198 A 
ATOM     88  C   UNL     1      -1.651 -12.098 -14.880  1.00  0.00     0.198 A 
ATOM     89  F   UNL     1       0.528 -11.595 -14.150  1.00  0.00    -0.203 F 
ATOM     90  F   UNL     1      -4.871 -10.980 -13.649  1.00  0.00    -0.200 F 
ATOM     91  C   UNL     1      -3.024 -11.944 -14.760  1.00  0.00     0.200 A 
ATOM     92  F   UNL     1      -1.147 -12.893 -15.835  1.00  0.00    -0.200 F 
ATOM     93  F   UNL     1      -3.847 -12.601 -15.589  1.00  0.00    -0.200 F 
ENDBRANCH  60  83
ENDBRANCH  34  35
ENDBRANCH  26  29
ENDBRANCH  24  25
ENDBRANCH  23  24
ENDBRANCH   1  23
TORSDOF 14
