REMARK SMILES C#CCN(CC(=O)NCCCCNC(=O)c1ccc(-c2c3nc(c(-c4c(F)c(F)c(F)c(F)c4F)c4ccc([nH]4)c(-c4c(F)c(F)c(F)c(F)c4F)c4nc(c(-c5c(F)c(F)c(F)c(F)c5F)c5ccc2[nH]5)C=C4)C=C3)cc1)C(=O)C(C)(C)[NH2+]CC
REMARK SMILES IDX 9 1 8 2 6 3 7 4 5 6 4 7 3 8 2 9 1 10 79 11 80 12 81 13 82 14
REMARK SMILES IDX 83 15 84 16 85 19 86 20 10 21 11 22 12 23 13 24 14 25 15 27
REMARK SMILES IDX 16 28 17 29 78 30 18 31 77 32 19 33 20 34 21 35 71 36 22 37
REMARK SMILES IDX 76 38 70 39 72 40 23 41 75 42 69 43 68 44 24 46 56 47 36 48
REMARK SMILES IDX 55 49 37 50 40 51 54 52 73 53 38 54 39 55 53 57 74 58 41 59
REMARK SMILES IDX 25 60 26 61 34 62 27 63 28 64 32 65 35 66 29 67 30 68 33 69
REMARK SMILES IDX 31 70 57 71 58 72 66 73 59 74 60 75 64 76 67 77 61 78 62 79
REMARK SMILES IDX 65 80 63 81 42 82 43 83 51 84 44 85 45 86 49 87 52 88 46 89
REMARK SMILES IDX 47 90 50 91 48 92
REMARK H PARENT 8 5 84 17 84 18 13 26 72 45 40 56
REMARK Flexibility Score: inf
ROOT
ATOM      1  C   UNL     1      -5.199   0.086   0.242  1.00  0.00     0.116 C 
ENDROOT
BRANCH   1   2
ATOM      2  N   UNL     1      -5.496  -0.246  -1.134  1.00  0.00    -0.355 N 
ATOM      3  C   UNL     1      -4.697  -0.803  -2.089  1.00  0.00     0.239 C 
ATOM      4  O   UNL     1      -5.255  -1.265  -3.089  1.00  0.00    -0.273 OA
ATOM      5  H   UNL     1      -6.413  -0.039  -1.425  1.00  0.00     0.163 HD
BRANCH   3   6
ATOM      6  C   UNL     1      -3.183  -0.981  -1.897  1.00  0.00     0.220 C 
BRANCH   6   7
ATOM      7  N   UNL     1      -2.446   0.179  -1.393  1.00  0.00    -0.317 N 
BRANCH   7   8
ATOM      8  C   UNL     1      -1.897   0.054  -0.041  1.00  0.00     0.210 C 
BRANCH   8   9
ATOM      9  C   UNL     1      -0.377   0.054  -0.041  1.00  0.00    -0.085 C 
ATOM     10  C   UNL     1       0.926   0.054  -0.041  1.00  0.00     0.006 C 
ENDBRANCH   8   9
ENDBRANCH   7   8
BRANCH   7  11
ATOM     11  C   UNL     1      -2.224   1.392  -2.054  1.00  0.00     0.284 C 
ATOM     12  O   UNL     1      -1.805   2.345  -1.376  1.00  0.00    -0.268 OA
BRANCH  11  13
ATOM     13  C   UNL     1      -2.569   1.633  -3.589  1.00  0.00     0.170 C 
ATOM     14  C   UNL     1      -2.352   0.454  -4.539  1.00  0.00     0.090 C 
ATOM     15  C   UNL     1      -4.033   2.107  -3.676  1.00  0.00     0.090 C 
BRANCH  13  16
ATOM     16  N   UNL     1      -1.807   2.809  -4.117  1.00  0.00    -0.334 N 
ATOM     17  H   UNL     1      -2.146   3.633  -3.618  1.00  0.00     0.347 HD
ATOM     18  H   UNL     1      -1.979   2.782  -5.122  1.00  0.00     0.347 HD
BRANCH  16  19
ATOM     19  C   UNL     1      -0.351   2.815  -4.011  1.00  0.00     0.257 C 
ATOM     20  C   UNL     1       0.375   2.014  -5.082  1.00  0.00     0.071 C 
ENDBRANCH  16  19
ENDBRANCH  13  16
ENDBRANCH  11  13
ENDBRANCH   7  11
ENDBRANCH   6   7
ENDBRANCH   3   6
ENDBRANCH   1   2
BRANCH   1  21
ATOM     21  C   UNL     1      -4.923   1.571   0.467  1.00  0.00     0.023 C 
BRANCH  21  22
ATOM     22  C   UNL     1      -6.131   2.497   0.353  1.00  0.00     0.023 C 
BRANCH  22  23
ATOM     23  C   UNL     1      -7.332   2.111   1.203  1.00  0.00     0.116 C 
BRANCH  23  24
ATOM     24  N   UNL     1      -7.022   1.935   2.614  1.00  0.00    -0.352 N 
ATOM     25  C   UNL     1      -7.808   2.210   3.707  1.00  0.00     0.251 C 
ATOM     26  H   UNL     1      -6.130   1.569   2.812  1.00  0.00     0.163 HD
ATOM     27  O   UNL     1      -7.366   2.067   4.842  1.00  0.00    -0.269 OA
BRANCH  25  28
ATOM     28  C   UNL     1      -9.177   2.729   3.505  1.00  0.00     0.039 A 
ATOM     29  C   UNL     1      -9.575   3.862   4.218  1.00  0.00     0.014 A 
ATOM     30  C   UNL     1     -10.044   2.131   2.587  1.00  0.00     0.014 A 
ATOM     31  C   UNL     1     -10.816   4.443   3.954  1.00  0.00     0.010 A 
ATOM     32  C   UNL     1     -11.247   2.753   2.271  1.00  0.00     0.010 A 
ATOM     33  C   UNL     1     -11.643   3.917   2.948  1.00  0.00    -0.014 A 
BRANCH  33  34
ATOM     34  C   UNL     1     -12.917   4.579   2.575  1.00  0.00     0.031 A 
ATOM     35  C   UNL     1     -14.225   3.869   2.775  1.00  0.00     0.074 A 
ATOM     36  C   UNL     1     -12.886   5.785   1.975  1.00  0.00     0.049 A 
ATOM     37  N   UNL     1     -15.432   4.248   2.440  1.00  0.00    -0.248 NA
ATOM     38  C   UNL     1     -14.165   2.542   3.407  1.00  0.00     0.031 C 
ATOM     39  C   UNL     1     -11.674   6.545   1.666  1.00  0.00     0.029 A 
ATOM     40  N   UNL     1     -13.904   6.574   1.500  1.00  0.00    -0.354 N 
ATOM     41  C   UNL     1     -16.269   3.200   2.799  1.00  0.00     0.074 A 
ATOM     42  C   UNL     1     -15.428   2.151   3.333  1.00  0.00     0.031 C 
ATOM     43  C   UNL     1     -12.018   7.695   1.065  1.00  0.00     0.029 A 
ATOM     44  C   UNL     1     -13.470   7.739   0.915  1.00  0.00     0.049 A 
ATOM     45  H   UNL     1     -14.855   6.329   1.571  1.00  0.00     0.167 HD
ATOM     46  C   UNL     1     -17.618   3.130   2.710  1.00  0.00     0.037 A 
ATOM     47  C   UNL     1     -14.163   8.726   0.317  1.00  0.00     0.037 A 
ATOM     48  C   UNL     1     -18.452   4.190   2.209  1.00  0.00     0.049 A 
ATOM     49  C   UNL     1     -15.663   8.635   0.253  1.00  0.00     0.074 A 
ATOM     50  C   UNL     1     -19.834   4.253   2.164  1.00  0.00     0.029 A 
ATOM     51  N   UNL     1     -17.980   5.373   1.660  1.00  0.00    -0.354 N 
ATOM     52  N   UNL     1     -16.452   7.679   0.678  1.00  0.00    -0.248 NA
ATOM     53  C   UNL     1     -16.369   9.764  -0.368  1.00  0.00     0.031 C 
ATOM     54  C   UNL     1     -20.197   5.453   1.542  1.00  0.00     0.029 A 
ATOM     55  C   UNL     1     -19.043   6.160   1.246  1.00  0.00     0.049 A 
ATOM     56  H   UNL     1     -17.030   5.617   1.576  1.00  0.00     0.167 HD
ATOM     57  C   UNL     1     -17.745   8.098   0.398  1.00  0.00     0.074 A 
ATOM     58  C   UNL     1     -17.636   9.403  -0.220  1.00  0.00     0.031 C 
ATOM     59  C   UNL     1     -18.918   7.457   0.630  1.00  0.00     0.037 A 
BRANCH  46  60
ATOM     60  C   UNL     1     -18.278   1.860   3.164  1.00  0.00     0.064 A 
ATOM     61  C   UNL     1     -18.320   1.493   4.518  1.00  0.00     0.173 A 
ATOM     62  C   UNL     1     -18.900   1.012   2.236  1.00  0.00     0.173 A 
ATOM     63  F   UNL     1     -17.730   2.263   5.445  1.00  0.00    -0.203 F 
ATOM     64  C   UNL     1     -18.931   0.308   4.921  1.00  0.00     0.198 A 
ATOM     65  C   UNL     1     -19.538  -0.156   2.646  1.00  0.00     0.198 A 
ATOM     66  F   UNL     1     -18.894   1.317   0.930  1.00  0.00    -0.203 F 
ATOM     67  F   UNL     1     -18.911  -0.048   6.213  1.00  0.00    -0.200 F 
ATOM     68  C   UNL     1     -19.544  -0.512   3.987  1.00  0.00     0.200 A 
ATOM     69  F   UNL     1     -20.141  -0.942   1.743  1.00  0.00    -0.200 F 
ATOM     70  F   UNL     1     -20.136  -1.649   4.377  1.00  0.00    -0.200 F 
ENDBRANCH  46  60
BRANCH  47  71
ATOM     71  C   UNL     1     -13.441   9.895  -0.248  1.00  0.00     0.064 A 
ATOM     72  C   UNL     1     -13.521  11.154   0.361  1.00  0.00     0.173 A 
ATOM     73  C   UNL     1     -12.649   9.774  -1.399  1.00  0.00     0.173 A 
ATOM     74  F   UNL     1     -14.283  11.323   1.452  1.00  0.00    -0.203 F 
ATOM     75  C   UNL     1     -12.848  12.253  -0.168  1.00  0.00     0.198 A 
ATOM     76  C   UNL     1     -11.954  10.867  -1.912  1.00  0.00     0.198 A 
ATOM     77  F   UNL     1     -12.536   8.588  -2.015  1.00  0.00    -0.203 F 
ATOM     78  F   UNL     1     -12.972  13.455   0.411  1.00  0.00    -0.200 F 
ATOM     79  C   UNL     1     -12.059  12.107  -1.300  1.00  0.00     0.200 A 
ATOM     80  F   UNL     1     -11.183  10.719  -2.998  1.00  0.00    -0.200 F 
ATOM     81  F   UNL     1     -11.406  13.163  -1.804  1.00  0.00    -0.200 F 
ENDBRANCH  47  71
BRANCH  59  82
ATOM     82  C   UNL     1     -20.179   8.168   0.235  1.00  0.00     0.064 A 
ATOM     83  C   UNL     1     -20.547   8.317  -1.110  1.00  0.00     0.173 A 
ATOM     84  C   UNL     1     -21.050   8.667   1.215  1.00  0.00     0.173 A 
ATOM     85  F   UNL     1     -19.740   7.871  -2.084  1.00  0.00    -0.203 F 
ATOM     86  C   UNL     1     -21.731   8.961  -1.460  1.00  0.00     0.198 A 
ATOM     87  C   UNL     1     -22.247   9.284   0.862  1.00  0.00     0.198 A 
ATOM     88  F   UNL     1     -20.747   8.544   2.516  1.00  0.00    -0.203 F 
ATOM     89  F   UNL     1     -22.041   9.132  -2.753  1.00  0.00    -0.200 F 
ATOM     90  C   UNL     1     -22.583   9.436  -0.475  1.00  0.00     0.200 A 
ATOM     91  F   UNL     1     -23.076   9.730   1.816  1.00  0.00    -0.200 F 
ATOM     92  F   UNL     1     -23.726  10.048  -0.814  1.00  0.00    -0.200 F 
ENDBRANCH  59  82
ENDBRANCH  33  34
ENDBRANCH  25  28
ENDBRANCH  23  24
ENDBRANCH  22  23
ENDBRANCH  21  22
ENDBRANCH   1  21
TORSDOF 18
