REMARK SMILES C[NH2+][C@@]1(C(=O)NCCCCNC(=O)c2ccc(-c3c4nc(c(-c5c(F)c(F)c(F)c(F)c5F)c5ccc([nH]5)c(-c5c(F)c(F)c(F)c(F)c5F)c5nc(c(-c6c(F)c(F)c(F)c(F)c6F)c6ccc3[nH]6)C=C5)C=C4)cc2)CC[C@H]([NH+]2CC[NH+](C)CC2)C1
REMARK SMILES IDX 9 1 8 2 7 3 6 4 4 5 5 6 3 8 77 9 87 10 78 11 79 12 2 13 1 14
REMARK SMILES IDX 80 17 81 18 86 19 82 21 85 22 83 23 84 24 10 26 11 27 12 28
REMARK SMILES IDX 13 30 14 31 15 32 76 33 16 34 75 35 17 36 18 37 19 38 69 39
REMARK SMILES IDX 20 40 74 41 68 42 70 43 21 44 73 45 67 46 66 47 22 49 54 50
REMARK SMILES IDX 34 51 53 52 35 53 38 54 52 55 71 56 36 57 37 58 51 60 72 61
REMARK SMILES IDX 39 62 23 63 24 64 32 65 25 66 26 67 30 68 33 69 27 70 28 71
REMARK SMILES IDX 31 72 29 73 55 74 56 75 64 76 57 77 58 78 62 79 65 80 59 81
REMARK SMILES IDX 60 82 63 83 61 84 40 85 41 86 49 87 42 88 43 89 47 90 50 91
REMARK SMILES IDX 44 92 45 93 48 94 46 95
REMARK H PARENT 6 7 2 15 2 16 80 20 83 25 11 29 70 48 38 59
REMARK Flexibility Score: inf
ROOT
ATOM      1  C   UNL     1      -5.845  -2.199   3.523  1.00  0.00     0.023 C 
ENDROOT
BRANCH   1   2
ATOM      2  C   UNL     1      -5.051  -1.516   2.186  1.00  0.00     0.023 C 
BRANCH   2   3
ATOM      3  C   UNL     1      -3.635  -0.007   1.744  1.00  0.00     0.116 C 
BRANCH   3   4
ATOM      4  N   UNL     1      -2.177   0.326   2.315  1.00  0.00    -0.351 N 
ATOM      5  C   UNL     1      -0.868   0.104   2.028  1.00  0.00     0.281 C 
ATOM      6  O   UNL     1      -0.101   0.494   2.922  1.00  0.00    -0.268 OA
ATOM      7  H   UNL     1      -2.253   0.863   3.137  1.00  0.00     0.163 HD
BRANCH   5   8
ATOM      8  C   UNL     1      -0.342  -0.587   0.733  1.00  0.00     0.181 C 
ATOM      9  C   UNL     1      -1.012   0.070  -0.486  1.00  0.00     0.085 C 
ATOM     10  C   UNL     1      -0.746  -2.074   0.676  1.00  0.00     0.144 C 
ATOM     11  C   UNL     1      -1.874  -1.030  -1.096  1.00  0.00     0.072 C 
ATOM     12  C   UNL     1      -2.117  -2.089   0.009  1.00  0.00     0.191 C 
BRANCH   8  13
ATOM     13  N   UNL     1       1.137  -0.501   0.790  1.00  0.00    -0.336 N 
ATOM     14  C   UNL     1       1.878  -0.200  -0.411  1.00  0.00     0.331 C 
ATOM     15  H   UNL     1       1.366   0.225   1.469  1.00  0.00     0.346 HD
ATOM     16  H   UNL     1       1.425  -1.453   1.016  1.00  0.00     0.346 HD
ENDBRANCH   8  13
BRANCH  12  17
ATOM     17  N   UNL     1      -3.271  -1.916   0.896  1.00  0.00    -0.323 N 
ATOM     18  C   UNL     1      -4.708  -1.079   0.107  1.00  0.00     0.324 C 
ATOM     19  C   UNL     1      -3.067  -1.798   2.752  1.00  0.00     0.324 C 
ATOM     20  H   UNL     1      -3.553  -2.891   0.998  1.00  0.00     0.348 HD
ATOM     21  C   UNL     1      -5.668   0.316   1.074  1.00  0.00     0.324 C 
ATOM     22  C   UNL     1      -4.088  -0.409   3.742  1.00  0.00     0.324 C 
ATOM     23  N   UNL     1      -5.492   0.455   2.900  1.00  0.00    -0.328 N 
ATOM     24  C   UNL     1      -5.651   1.844   3.326  1.00  0.00     0.333 C 
ATOM     25  H   UNL     1      -6.266  -0.114   3.243  1.00  0.00     0.348 HD
ENDBRANCH  12  17
ENDBRANCH   5   8
ENDBRANCH   3   4
ENDBRANCH   2   3
ENDBRANCH   1   2
BRANCH   1  26
ATOM     26  C   UNL     1      -7.073  -1.497   4.121  1.00  0.00     0.116 C 
BRANCH  26  27
ATOM     27  N   UNL     1      -8.080  -1.118   3.135  1.00  0.00    -0.352 N 
ATOM     28  C   UNL     1      -9.261  -0.459   3.339  1.00  0.00     0.251 C 
ATOM     29  H   UNL     1      -7.884  -1.370   2.204  1.00  0.00     0.163 HD
ATOM     30  O   UNL     1     -10.007  -0.159   2.415  1.00  0.00    -0.269 OA
BRANCH  28  31
ATOM     31  C   UNL     1      -9.650  -0.191   4.728  1.00  0.00     0.039 A 
ATOM     32  C   UNL     1     -10.746  -0.880   5.247  1.00  0.00     0.014 A 
ATOM     33  C   UNL     1      -8.857   0.631   5.530  1.00  0.00     0.014 A 
ATOM     34  C   UNL     1     -11.014  -0.791   6.607  1.00  0.00     0.010 A 
ATOM     35  C   UNL     1      -9.079   0.656   6.898  1.00  0.00     0.010 A 
ATOM     36  C   UNL     1     -10.161  -0.051   7.443  1.00  0.00    -0.014 A 
BRANCH  36  37
ATOM     37  C   UNL     1     -10.410   0.002   8.898  1.00  0.00     0.031 A 
ATOM     38  C   UNL     1     -10.824   1.299   9.524  1.00  0.00     0.074 A 
ATOM     39  C   UNL     1     -10.229  -1.107   9.637  1.00  0.00     0.049 A 
ATOM     40  N   UNL     1     -11.100   1.561  10.775  1.00  0.00    -0.248 NA
ATOM     41  C   UNL     1     -10.911   2.466   8.632  1.00  0.00     0.031 C 
ATOM     42  C   UNL     1      -9.765  -2.398   9.124  1.00  0.00     0.029 A 
ATOM     43  N   UNL     1     -10.416  -1.330  10.976  1.00  0.00    -0.354 N 
ATOM     44  C   UNL     1     -11.383   2.919  10.817  1.00  0.00     0.074 A 
ATOM     45  C   UNL     1     -11.179   3.441   9.485  1.00  0.00     0.031 C 
ATOM     46  C   UNL     1      -9.738  -3.288  10.130  1.00  0.00     0.029 A 
ATOM     47  C   UNL     1     -10.159  -2.624  11.359  1.00  0.00     0.049 A 
ATOM     48  H   UNL     1     -10.708  -0.630  11.604  1.00  0.00     0.167 HD
ATOM     49  C   UNL     1     -11.808   3.654  11.870  1.00  0.00     0.037 A 
ATOM     50  C   UNL     1     -10.264  -3.202  12.570  1.00  0.00     0.037 A 
ATOM     51  C   UNL     1     -12.029   3.107  13.181  1.00  0.00     0.049 A 
ATOM     52  C   UNL     1     -10.760  -2.367  13.720  1.00  0.00     0.074 A 
ATOM     53  C   UNL     1     -12.509   3.739  14.313  1.00  0.00     0.029 A 
ATOM     54  N   UNL     1     -11.780   1.786  13.531  1.00  0.00    -0.354 N 
ATOM     55  N   UNL     1     -11.104  -1.101  13.735  1.00  0.00    -0.248 NA
ATOM     56  C   UNL     1     -10.894  -3.042  15.017  1.00  0.00     0.031 C 
ATOM     57  C   UNL     1     -12.511   2.810  15.359  1.00  0.00     0.029 A 
ATOM     58  C   UNL     1     -12.081   1.587  14.867  1.00  0.00     0.049 A 
ATOM     59  H   UNL     1     -11.441   1.094  12.919  1.00  0.00     0.167 HD
ATOM     60  C   UNL     1     -11.520  -0.833  15.031  1.00  0.00     0.074 A 
ATOM     61  C   UNL     1     -11.402  -2.075  15.769  1.00  0.00     0.031 C 
ATOM     62  C   UNL     1     -11.957   0.333  15.568  1.00  0.00     0.037 A 
BRANCH  49  63
ATOM     63  C   UNL     1     -12.061   5.114  11.636  1.00  0.00     0.064 A 
ATOM     64  C   UNL     1     -13.123   5.558  10.832  1.00  0.00     0.173 A 
ATOM     65  C   UNL     1     -11.236   6.085  12.223  1.00  0.00     0.173 A 
ATOM     66  F   UNL     1     -13.932   4.671  10.232  1.00  0.00    -0.203 F 
ATOM     67  C   UNL     1     -13.327   6.915  10.595  1.00  0.00     0.198 A 
ATOM     68  C   UNL     1     -11.462   7.442  12.011  1.00  0.00     0.198 A 
ATOM     69  F   UNL     1     -10.206   5.717  13.000  1.00  0.00    -0.203 F 
ATOM     70  F   UNL     1     -14.311   7.310   9.775  1.00  0.00    -0.200 F 
ATOM     71  C   UNL     1     -12.501   7.856  11.190  1.00  0.00     0.200 A 
ATOM     72  F   UNL     1     -10.669   8.351  12.594  1.00  0.00    -0.200 F 
ATOM     73  F   UNL     1     -12.699   9.162  10.964  1.00  0.00    -0.200 F 
ENDBRANCH  49  63
BRANCH  50  74
ATOM     74  C   UNL     1      -9.942  -4.643  12.740  1.00  0.00     0.064 A 
ATOM     75  C   UNL     1     -10.950  -5.580  13.010  1.00  0.00     0.173 A 
ATOM     76  C   UNL     1      -8.627  -5.116  12.630  1.00  0.00     0.173 A 
ATOM     77  F   UNL     1     -12.222  -5.177  13.138  1.00  0.00    -0.203 F 
ATOM     78  C   UNL     1     -10.651  -6.930  13.186  1.00  0.00     0.198 A 
ATOM     79  C   UNL     1      -8.332  -6.471  12.779  1.00  0.00     0.198 A 
ATOM     80  F   UNL     1      -7.626  -4.264  12.364  1.00  0.00    -0.203 F 
ATOM     81  F   UNL     1     -11.628  -7.797  13.486  1.00  0.00    -0.200 F 
ATOM     82  C   UNL     1      -9.344  -7.375  13.065  1.00  0.00     0.200 A 
ATOM     83  F   UNL     1      -7.070  -6.899  12.646  1.00  0.00    -0.200 F 
ATOM     84  F   UNL     1      -9.057  -8.674  13.230  1.00  0.00    -0.200 F 
ENDBRANCH  50  74
BRANCH  62  85
ATOM     85  C   UNL     1     -12.364   0.309  17.011  1.00  0.00     0.064 A 
ATOM     86  C   UNL     1     -11.416   0.205  18.038  1.00  0.00     0.173 A 
ATOM     87  C   UNL     1     -13.714   0.441  17.368  1.00  0.00     0.173 A 
ATOM     88  F   UNL     1     -10.114   0.063  17.745  1.00  0.00    -0.203 F 
ATOM     89  C   UNL     1     -11.809   0.209  19.373  1.00  0.00     0.198 A 
ATOM     90  C   UNL     1     -14.100   0.476  18.704  1.00  0.00     0.198 A 
ATOM     91  F   UNL     1     -14.657   0.551  16.420  1.00  0.00    -0.203 F 
ATOM     92  F   UNL     1     -10.892   0.061  20.339  1.00  0.00    -0.200 F 
ATOM     93  C   UNL     1     -13.148   0.353  19.705  1.00  0.00     0.200 A 
ATOM     94  F   UNL     1     -15.392   0.630  19.023  1.00  0.00    -0.200 F 
ATOM     95  F   UNL     1     -13.523   0.366  20.991  1.00  0.00    -0.200 F 
ENDBRANCH  62  85
ENDBRANCH  36  37
ENDBRANCH  28  31
ENDBRANCH  26  27
ENDBRANCH   1  26
TORSDOF 13
