REMARK SMILES CC[C@](C)(C(=O)NCCCCNC(=O)c1ccc(-c2c3nc(c(-c4c(F)c(F)c(F)c(F)c4F)c4ccc([nH]4)c(-c4c(F)c(F)c(F)c(F)c4F)c4nc(c(-c5c(F)c(F)c(F)c(F)c5F)c5ccc2[nH]5)C=C4)C=C3)cc1)n1nnnc1Cc1cccc(Cl)c1
REMARK SMILES IDX 9 1 8 2 7 3 5 4 6 5 3 7 4 8 2 9 1 10 78 11 79 12 82 13 80 14
REMARK SMILES IDX 81 15 83 16 84 17 85 18 90 19 86 20 88 21 87 22 89 23 10 24
REMARK SMILES IDX 11 25 12 26 13 27 14 29 15 30 16 31 77 32 17 33 76 34 18 35
REMARK SMILES IDX 19 36 20 37 70 38 21 39 75 40 69 41 71 42 22 43 74 44 68 45
REMARK SMILES IDX 67 46 23 48 55 49 35 50 54 51 36 52 39 53 53 54 72 55 37 56
REMARK SMILES IDX 38 57 52 59 73 60 40 61 24 62 25 63 33 64 26 65 27 66 31 67
REMARK SMILES IDX 34 68 28 69 29 70 32 71 30 72 56 73 57 74 65 75 58 76 59 77
REMARK SMILES IDX 63 78 66 79 60 80 61 81 64 82 62 83 41 84 42 85 50 86 43 87
REMARK SMILES IDX 44 88 48 89 51 90 45 91 46 92 49 93 47 94
REMARK H PARENT 7 6 12 28 71 47 39 58
REMARK Flexibility Score: inf
ROOT
ATOM      1  C   UNL     1      -2.713   2.693   1.051  1.00  0.00     0.023 C 
ENDROOT
BRANCH   1   2
ATOM      2  C   UNL     1      -1.866   2.991  -0.183  1.00  0.00     0.116 C 
BRANCH   2   3
ATOM      3  N   UNL     1      -0.753   3.886   0.117  1.00  0.00    -0.354 N 
ATOM      4  C   UNL     1       0.613   3.683   0.102  1.00  0.00     0.247 C 
ATOM      5  O   UNL     1       1.279   4.604   0.574  1.00  0.00    -0.272 OA
ATOM      6  H   UNL     1      -1.025   4.796   0.376  1.00  0.00     0.163 HD
BRANCH   4   7
ATOM      7  C   UNL     1       1.198   2.343  -0.455  1.00  0.00     0.142 C 
ATOM      8  C   UNL     1       0.640   1.265   0.510  1.00  0.00     0.048 C 
BRANCH   7   9
ATOM      9  C   UNL     1       0.755   2.311  -1.956  1.00  0.00     0.037 C 
ATOM     10  C   UNL     1       0.890   1.002  -2.703  1.00  0.00     0.007 C 
ENDBRANCH   7   9
BRANCH   7  11
ATOM     11  N   UNL     1       2.682   2.281  -0.442  1.00  0.00    -0.214 N 
ATOM     12  N   UNL     1       3.408   3.404  -0.622  1.00  0.00    -0.044 NA
ATOM     13  C   UNL     1       3.558   1.198  -0.459  1.00  0.00     0.156 A 
ATOM     14  N   UNL     1       4.675   3.040  -0.566  1.00  0.00    -0.024 NA
ATOM     15  N   UNL     1       4.786   1.688  -0.457  1.00  0.00    -0.113 NA
BRANCH  13  16
ATOM     16  C   UNL     1       3.245  -0.270  -0.438  1.00  0.00     0.114 C 
BRANCH  16  17
ATOM     17  C   UNL     1       3.703  -1.033  -1.669  1.00  0.00    -0.039 A 
ATOM     18  C   UNL     1       2.777  -1.746  -2.452  1.00  0.00     0.004 A 
ATOM     19  C   UNL     1       5.053  -1.057  -2.045  1.00  0.00     0.024 A 
ATOM     20  C   UNL     1       3.174  -2.387  -3.628  1.00  0.00     0.002 A 
ATOM     21  C   UNL     1       5.449  -1.719  -3.208  1.00  0.00     0.041 A 
ATOM     22  C   UNL     1       4.512  -2.367  -4.010  1.00  0.00     0.020 A 
ATOM     23  Cl  UNL     1       7.109  -1.733  -3.660  1.00  0.00    -0.084 Cl
ENDBRANCH  16  17
ENDBRANCH  13  16
ENDBRANCH   7  11
ENDBRANCH   4   7
ENDBRANCH   2   3
ENDBRANCH   1   2
BRANCH   1  24
ATOM     24  C   UNL     1      -3.531   3.877   1.554  1.00  0.00     0.023 C 
BRANCH  24  25
ATOM     25  C   UNL     1      -4.457   4.500   0.517  1.00  0.00     0.116 C 
BRANCH  25  26
ATOM     26  N   UNL     1      -5.397   3.545  -0.051  1.00  0.00    -0.352 N 
ATOM     27  C   UNL     1      -6.753   3.664  -0.228  1.00  0.00     0.251 C 
ATOM     28  H   UNL     1      -5.005   2.694  -0.351  1.00  0.00     0.163 HD
ATOM     29  O   UNL     1      -7.413   2.695  -0.593  1.00  0.00    -0.269 OA
BRANCH  27  30
ATOM     30  C   UNL     1      -7.420   4.950   0.059  1.00  0.00     0.039 A 
ATOM     31  C   UNL     1      -8.603   4.941   0.801  1.00  0.00     0.014 A 
ATOM     32  C   UNL     1      -6.870   6.160  -0.374  1.00  0.00     0.014 A 
ATOM     33  C   UNL     1      -9.193   6.150   1.171  1.00  0.00     0.010 A 
ATOM     34  C   UNL     1      -7.411   7.363   0.067  1.00  0.00     0.010 A 
ATOM     35  C   UNL     1      -8.577   7.371   0.847  1.00  0.00    -0.014 A 
BRANCH  35  36
ATOM     36  C   UNL     1      -9.134   8.657   1.341  1.00  0.00     0.031 A 
ATOM     37  C   UNL     1      -9.635   9.694   0.375  1.00  0.00     0.074 A 
ATOM     38  C   UNL     1      -9.148   8.903   2.666  1.00  0.00     0.049 A 
ATOM     39  N   UNL     1     -10.137  10.878   0.622  1.00  0.00    -0.248 NA
ATOM     40  C   UNL     1      -9.539   9.372  -1.057  1.00  0.00     0.031 C 
ATOM     41  C   UNL     1      -8.635   8.001   3.700  1.00  0.00     0.029 A 
ATOM     42  N   UNL     1      -9.607   9.987   3.373  1.00  0.00    -0.354 N 
ATOM     43  C   UNL     1     -10.417  11.437  -0.618  1.00  0.00     0.074 A 
ATOM     44  C   UNL     1      -9.971  10.492  -1.619  1.00  0.00     0.031 C 
ATOM     45  C   UNL     1      -8.837   8.553   4.906  1.00  0.00     0.029 A 
ATOM     46  C   UNL     1      -9.454   9.863   4.733  1.00  0.00     0.049 A 
ATOM     47  H   UNL     1     -10.008  10.778   2.945  1.00  0.00     0.167 HD
ATOM     48  C   UNL     1     -11.020  12.617  -0.897  1.00  0.00     0.037 A 
ATOM     49  C   UNL     1      -9.771  10.714   5.727  1.00  0.00     0.037 A 
ATOM     50  C   UNL     1     -11.474  13.551   0.101  1.00  0.00     0.049 A 
ATOM     51  C   UNL     1     -10.424  12.027   5.384  1.00  0.00     0.074 A 
ATOM     52  C   UNL     1     -12.135  14.753  -0.080  1.00  0.00     0.029 A 
ATOM     53  N   UNL     1     -11.309  13.389   1.469  1.00  0.00    -0.354 N 
ATOM     54  N   UNL     1     -10.755  12.508   4.210  1.00  0.00    -0.248 NA
ATOM     55  C   UNL     1     -10.758  12.912   6.509  1.00  0.00     0.031 C 
ATOM     56  C   UNL     1     -12.325  15.343   1.174  1.00  0.00     0.029 A 
ATOM     57  C   UNL     1     -11.836  14.480   2.142  1.00  0.00     0.049 A 
ATOM     58  H   UNL     1     -10.881  12.613   1.899  1.00  0.00     0.167 HD
ATOM     59  C   UNL     1     -11.358  13.734   4.456  1.00  0.00     0.074 A 
ATOM     60  C   UNL     1     -11.374  13.909   5.893  1.00  0.00     0.031 C 
ATOM     61  C   UNL     1     -11.849  14.638   3.573  1.00  0.00     0.037 A 
BRANCH  48  62
ATOM     62  C   UNL     1     -11.239  12.967  -2.341  1.00  0.00     0.064 A 
ATOM     63  C   UNL     1     -12.175  12.277  -3.127  1.00  0.00     0.173 A 
ATOM     64  C   UNL     1     -10.557  14.043  -2.928  1.00  0.00     0.173 A 
ATOM     65  F   UNL     1     -12.846  11.232  -2.618  1.00  0.00    -0.203 F 
ATOM     66  C   UNL     1     -12.405  12.639  -4.452  1.00  0.00     0.198 A 
ATOM     67  C   UNL     1     -10.813  14.422  -4.244  1.00  0.00     0.198 A 
ATOM     68  F   UNL     1      -9.655  14.739  -2.221  1.00  0.00    -0.203 F 
ATOM     69  F   UNL     1     -13.275  11.939  -5.194  1.00  0.00    -0.200 F 
ATOM     70  C   UNL     1     -11.732  13.717  -5.005  1.00  0.00     0.200 A 
ATOM     71  F   UNL     1     -10.172  15.473  -4.773  1.00  0.00    -0.200 F 
ATOM     72  F   UNL     1     -11.967  14.075  -6.275  1.00  0.00    -0.200 F 
ENDBRANCH  48  62
BRANCH  49  73
ATOM     73  C   UNL     1      -9.489  10.356   7.143  1.00  0.00     0.064 A 
ATOM     74  C   UNL     1     -10.530  10.147   8.059  1.00  0.00     0.173 A 
ATOM     75  C   UNL     1      -8.174  10.252   7.620  1.00  0.00     0.173 A 
ATOM     76  F   UNL     1     -11.806  10.253   7.657  1.00  0.00    -0.203 F 
ATOM     77  C   UNL     1     -10.268   9.888   9.403  1.00  0.00     0.198 A 
ATOM     78  C   UNL     1      -7.913   9.956   8.956  1.00  0.00     0.198 A 
ATOM     79  F   UNL     1      -7.139  10.434   6.786  1.00  0.00    -0.203 F 
ATOM     80  F   UNL     1     -11.283   9.761  10.268  1.00  0.00    -0.200 F 
ATOM     81  C   UNL     1      -8.960   9.789   9.850  1.00  0.00     0.200 A 
ATOM     82  F   UNL     1      -6.646   9.844   9.380  1.00  0.00    -0.200 F 
ATOM     83  F   UNL     1      -8.707   9.544  11.143  1.00  0.00    -0.200 F 
ENDBRANCH  49  73
BRANCH  61  84
ATOM     84  C   UNL     1     -12.474  15.880   4.142  1.00  0.00     0.064 A 
ATOM     85  C   UNL     1     -11.709  16.864   4.787  1.00  0.00     0.173 A 
ATOM     86  C   UNL     1     -13.857  16.095   4.031  1.00  0.00     0.173 A 
ATOM     87  F   UNL     1     -10.385  16.702   4.933  1.00  0.00    -0.203 F 
ATOM     88  C   UNL     1     -12.310  17.994   5.335  1.00  0.00     0.198 A 
ATOM     89  C   UNL     1     -14.449  17.244   4.547  1.00  0.00     0.198 A 
ATOM     90  F   UNL     1     -14.635  15.191   3.416  1.00  0.00    -0.203 F 
ATOM     91  F   UNL     1     -11.567  18.886   6.005  1.00  0.00    -0.200 F 
ATOM     92  C   UNL     1     -13.677  18.186   5.210  1.00  0.00     0.200 A 
ATOM     93  F   UNL     1     -15.768  17.436   4.410  1.00  0.00    -0.200 F 
ATOM     94  F   UNL     1     -14.254  19.275   5.737  1.00  0.00    -0.200 F 
ENDBRANCH  61  84
ENDBRANCH  35  36
ENDBRANCH  27  30
ENDBRANCH  25  26
ENDBRANCH  24  25
ENDBRANCH   1  24
TORSDOF 15
