REMARK SMILES Cc1cc(-n2nc(C)c(C(=O)NCCCCNC(=O)c3ccc(-c4c5nc(c(-c6c(F)c(F)c(F)c(F)c6F)c6ccc([nH]6)c(-c6c(F)c(F)c(F)c(F)c6F)c6nc(c(-c7c(F)c(F)c(F)c(F)c7F)c7ccc4[nH]7)C=C6)C=C5)cc3)c2Cl)nc(C)n1
REMARK SMILES IDX 15 1 14 2 13 3 12 4 10 5 11 6 9 8 5 9 6 10 83 11 7 12 84 13
REMARK SMILES IDX 8 14 4 15 1 16 2 17 3 18 88 19 86 20 85 21 87 22 16 23 17 24
REMARK SMILES IDX 18 25 19 27 20 28 21 29 82 30 22 31 81 32 23 33 24 34 25 35
REMARK SMILES IDX 75 36 26 37 80 38 74 39 76 40 27 41 79 42 73 43 72 44 28 46
REMARK SMILES IDX 60 47 40 48 59 49 41 50 44 51 58 52 77 53 42 54 43 55 57 57
REMARK SMILES IDX 78 58 45 59 29 60 30 61 38 62 31 63 32 64 36 65 39 66 33 67
REMARK SMILES IDX 34 68 37 69 35 70 61 71 62 72 70 73 63 74 64 75 68 76 71 77
REMARK SMILES IDX 65 78 66 79 69 80 67 81 46 82 47 83 55 84 48 85 49 86 53 87
REMARK SMILES IDX 56 88 50 89 51 90 54 91 52 92
REMARK H PARENT 12 7 17 26 76 45 44 56
REMARK Flexibility Score: inf
ROOT
ATOM      1  C   UNL     1       3.895  -1.753  -9.039  1.00  0.00     0.023 C 
ENDROOT
BRANCH   1   2
ATOM      2  C   UNL     1       3.155  -1.569  -7.711  1.00  0.00     0.023 C 
BRANCH   2   3
ATOM      3  C   UNL     1       1.737  -0.994  -7.751  1.00  0.00     0.116 C 
BRANCH   3   4
ATOM      4  N   UNL     1       0.723  -1.859  -8.341  1.00  0.00    -0.352 N 
ATOM      5  C   UNL     1      -0.538  -2.200  -7.879  1.00  0.00     0.256 C 
ATOM      6  O   UNL     1      -1.233  -2.932  -8.576  1.00  0.00    -0.269 OA
ATOM      7  H   UNL     1       0.973  -2.264  -9.202  1.00  0.00     0.163 HD
BRANCH   5   8
ATOM      8  C   UNL     1      -0.953  -1.789  -6.551  1.00  0.00     0.100 A 
ATOM      9  N   UNL     1      -1.061  -0.719  -4.615  1.00  0.00    -0.203 N 
ATOM     10  N   UNL     1      -1.589  -1.954  -4.359  1.00  0.00    -0.170 NA
ATOM     11  C   UNL     1      -0.929  -0.536  -5.979  1.00  0.00     0.147 A 
ATOM     12  C   UNL     1      -1.631  -2.552  -5.560  1.00  0.00     0.074 A 
ATOM     13  Cl  UNL     1      -0.681   0.994  -6.701  1.00  0.00    -0.061 Cl
ATOM     14  C   UNL     1      -2.346  -3.849  -5.703  1.00  0.00     0.070 C 
BRANCH   9  15
ATOM     15  C   UNL     1      -0.620   0.133  -3.554  1.00  0.00     0.159 A 
ATOM     16  C   UNL     1       0.834  -0.137  -0.113  1.00  0.00     0.067 C 
ATOM     17  C   UNL     1       0.279   0.400  -1.399  1.00  0.00     0.043 A 
ATOM     18  C   UNL     1      -0.321  -0.433  -2.325  1.00  0.00     0.072 A 
ATOM     19  N   UNL     1       0.499   1.709  -1.640  1.00  0.00    -0.238 NA
ATOM     20  C   UNL     1       0.133   2.182  -2.841  1.00  0.00     0.128 A 
ATOM     21  N   UNL     1      -0.388   1.434  -3.822  1.00  0.00    -0.214 NA
ATOM     22  C   UNL     1       0.351   3.631  -3.137  1.00  0.00     0.090 C 
ENDBRANCH   9  15
ENDBRANCH   5   8
ENDBRANCH   3   4
ENDBRANCH   2   3
ENDBRANCH   1   2
BRANCH   1  23
ATOM     23  C   UNL     1       3.966  -0.521  -9.932  1.00  0.00     0.116 C 
BRANCH  23  24
ATOM     24  N   UNL     1       4.639   0.617  -9.315  1.00  0.00    -0.352 N 
ATOM     25  C   UNL     1       4.879   1.859  -9.875  1.00  0.00     0.251 C 
ATOM     26  H   UNL     1       4.959   0.486  -8.394  1.00  0.00     0.163 HD
ATOM     27  O   UNL     1       5.742   2.596  -9.425  1.00  0.00    -0.269 OA
BRANCH  25  28
ATOM     28  C   UNL     1       4.074   2.286 -11.036  1.00  0.00     0.039 A 
ATOM     29  C   UNL     1       4.673   2.947 -12.113  1.00  0.00     0.014 A 
ATOM     30  C   UNL     1       2.704   2.023 -11.034  1.00  0.00     0.014 A 
ATOM     31  C   UNL     1       3.895   3.270 -13.222  1.00  0.00     0.010 A 
ATOM     32  C   UNL     1       1.959   2.244 -12.169  1.00  0.00     0.010 A 
ATOM     33  C   UNL     1       2.542   2.897 -13.249  1.00  0.00    -0.014 A 
BRANCH  33  34
ATOM     34  C   UNL     1       1.752   3.097 -14.457  1.00  0.00     0.031 A 
ATOM     35  C   UNL     1       2.264   2.393 -15.659  1.00  0.00     0.074 A 
ATOM     36  C   UNL     1       0.549   3.706 -14.463  1.00  0.00     0.049 A 
ATOM     37  N   UNL     1       2.793   2.922 -16.711  1.00  0.00    -0.248 NA
ATOM     38  C   UNL     1       2.302   0.923 -15.649  1.00  0.00     0.031 C 
ATOM     39  C   UNL     1      -0.231   4.174 -13.313  1.00  0.00     0.029 A 
ATOM     40  N   UNL     1      -0.280   3.954 -15.516  1.00  0.00    -0.354 N 
ATOM     41  C   UNL     1       3.051   1.869 -17.585  1.00  0.00     0.074 A 
ATOM     42  C   UNL     1       2.896   0.663 -16.816  1.00  0.00     0.031 C 
ATOM     43  C   UNL     1      -1.493   4.453 -13.706  1.00  0.00     0.029 A 
ATOM     44  C   UNL     1      -1.560   4.348 -15.152  1.00  0.00     0.049 A 
ATOM     45  H   UNL     1       0.005   3.862 -16.454  1.00  0.00     0.167 HD
ATOM     46  C   UNL     1       3.107   2.087 -18.929  1.00  0.00     0.037 A 
ATOM     47  C   UNL     1      -2.606   4.563 -15.984  1.00  0.00     0.037 A 
ATOM     48  C   UNL     1       3.221   3.497 -19.211  1.00  0.00     0.049 A 
ATOM     49  C   UNL     1      -2.038   4.855 -17.320  1.00  0.00     0.074 A 
ATOM     50  C   UNL     1       4.156   4.485 -18.984  1.00  0.00     0.029 A 
ATOM     51  N   UNL     1       2.046   4.133 -19.513  1.00  0.00    -0.354 N 
ATOM     52  N   UNL     1      -1.345   5.924 -17.599  1.00  0.00    -0.248 NA
ATOM     53  C   UNL     1      -1.936   3.774 -18.290  1.00  0.00     0.031 C 
ATOM     54  C   UNL     1       3.404   5.685 -18.799  1.00  0.00     0.029 A 
ATOM     55  C   UNL     1       2.050   5.386 -18.966  1.00  0.00     0.049 A 
ATOM     56  H   UNL     1       1.311   3.747 -20.043  1.00  0.00     0.167 HD
ATOM     57  C   UNL     1      -0.400   5.493 -18.512  1.00  0.00     0.074 A 
ATOM     58  C   UNL     1      -0.916   4.229 -19.021  1.00  0.00     0.031 C 
ATOM     59  C   UNL     1       0.843   6.057 -18.538  1.00  0.00     0.037 A 
BRANCH  46  60
ATOM     60  C   UNL     1       2.596   1.127 -19.989  1.00  0.00     0.064 A 
ATOM     61  C   UNL     1       2.744   1.484 -21.349  1.00  0.00     0.173 A 
ATOM     62  C   UNL     1       1.689   0.076 -19.739  1.00  0.00     0.173 A 
ATOM     63  F   UNL     1       3.572   2.475 -21.711  1.00  0.00    -0.203 F 
ATOM     64  C   UNL     1       1.964   0.908 -22.357  1.00  0.00     0.198 A 
ATOM     65  C   UNL     1       0.952  -0.533 -20.756  1.00  0.00     0.198 A 
ATOM     66  F   UNL     1       1.386  -0.331 -18.503  1.00  0.00    -0.203 F 
ATOM     67  F   UNL     1       2.036   1.383 -23.608  1.00  0.00    -0.200 F 
ATOM     68  C   UNL     1       1.061  -0.093 -22.057  1.00  0.00     0.200 A 
ATOM     69  F   UNL     1       0.068  -1.490 -20.442  1.00  0.00    -0.200 F 
ATOM     70  F   UNL     1       0.261  -0.598 -23.006  1.00  0.00    -0.200 F 
ENDBRANCH  46  60
BRANCH  47  71
ATOM     71  C   UNL     1      -4.046   4.285 -15.775  1.00  0.00     0.064 A 
ATOM     72  C   UNL     1      -5.011   4.795 -16.661  1.00  0.00     0.173 A 
ATOM     73  C   UNL     1      -4.475   3.270 -14.899  1.00  0.00     0.173 A 
ATOM     74  F   UNL     1      -4.677   5.743 -17.550  1.00  0.00    -0.203 F 
ATOM     75  C   UNL     1      -6.310   4.281 -16.708  1.00  0.00     0.198 A 
ATOM     76  C   UNL     1      -5.775   2.763 -14.941  1.00  0.00     0.198 A 
ATOM     77  F   UNL     1      -3.615   2.680 -14.056  1.00  0.00    -0.203 F 
ATOM     78  F   UNL     1      -7.176   4.735 -17.624  1.00  0.00    -0.200 F 
ATOM     79  C   UNL     1      -6.685   3.253 -15.859  1.00  0.00     0.200 A 
ATOM     80  F   UNL     1      -6.117   1.745 -14.138  1.00  0.00    -0.200 F 
ATOM     81  F   UNL     1      -7.905   2.706 -15.957  1.00  0.00    -0.200 F 
ENDBRANCH  47  71
BRANCH  59  82
ATOM     82  C   UNL     1       1.008   7.398 -17.884  1.00  0.00     0.064 A 
ATOM     83  C   UNL     1       0.889   7.633 -16.504  1.00  0.00     0.173 A 
ATOM     84  C   UNL     1       1.427   8.467 -18.688  1.00  0.00     0.173 A 
ATOM     85  F   UNL     1       0.572   6.645 -15.660  1.00  0.00    -0.203 F 
ATOM     86  C   UNL     1       1.148   8.891 -15.963  1.00  0.00     0.198 A 
ATOM     87  C   UNL     1       1.722   9.711 -18.141  1.00  0.00     0.198 A 
ATOM     88  F   UNL     1       1.599   8.287 -20.008  1.00  0.00    -0.203 F 
ATOM     89  F   UNL     1       1.018   9.096 -14.644  1.00  0.00    -0.200 F 
ATOM     90  C   UNL     1       1.575   9.926 -16.781  1.00  0.00     0.200 A 
ATOM     91  F   UNL     1       2.176  10.694 -18.930  1.00  0.00    -0.200 F 
ATOM     92  F   UNL     1       1.867  11.123 -16.255  1.00  0.00    -0.200 F 
ENDBRANCH  59  82
ENDBRANCH  33  34
ENDBRANCH  25  28
ENDBRANCH  23  24
ENDBRANCH   1  23
TORSDOF 12
