REMARK SMILES C[C@@H]1CN(C(=O)N2CC(CC(=O)NCCCCNC(=O)c3ccc(-c4c5nc(c(-c6c(F)c(F)c(F)c(F)c6F)c6ccc([nH]6)c(-c6c(F)c(F)c(F)c(F)c6F)c6nc(c(-c7c(F)c(F)c(F)c(F)c7F)c7ccc4[nH]7)C=C6)C=C5)cc3)C2)C[C@H]1C
REMARK SMILES IDX 16 1 15 2 14 3 13 4 11 5 12 6 10 8 9 9 1 10 2 11 3 12 86 13
REMARK SMILES IDX 4 14 85 15 87 16 5 17 6 18 7 19 8 20 84 21 17 22 18 23 19 24
REMARK SMILES IDX 20 26 21 27 22 28 83 29 23 30 82 31 24 32 25 33 26 34 76 35
REMARK SMILES IDX 27 36 81 37 75 38 77 39 28 40 80 41 74 42 73 43 29 45 61 46
REMARK SMILES IDX 41 47 60 48 42 49 45 50 59 51 78 52 43 53 44 54 58 56 79 57
REMARK SMILES IDX 46 58 30 59 31 60 39 61 32 62 33 63 37 64 40 65 34 66 35 67
REMARK SMILES IDX 38 68 36 69 62 70 63 71 71 72 64 73 65 74 69 75 72 76 66 77
REMARK SMILES IDX 67 78 70 79 68 80 47 81 48 82 56 83 49 84 50 85 54 86 57 87
REMARK SMILES IDX 51 88 52 89 55 90 53 91
REMARK H PARENT 13 7 18 25 77 44 45 55
REMARK Flexibility Score: inf
ROOT
ATOM      1  C   UNL     1      -1.189   5.136  -5.228  1.00  0.00     0.023 C 
ENDROOT
BRANCH   1   2
ATOM      2  C   UNL     1      -1.889   4.372  -4.110  1.00  0.00     0.023 C 
BRANCH   2   3
ATOM      3  C   UNL     1      -2.748   5.220  -3.172  1.00  0.00     0.116 C 
BRANCH   3   4
ATOM      4  N   UNL     1      -4.067   5.429  -3.730  1.00  0.00    -0.356 N 
ATOM      5  C   UNL     1      -5.203   4.697  -3.562  1.00  0.00     0.220 C 
ATOM      6  O   UNL     1      -6.183   4.976  -4.255  1.00  0.00    -0.275 OA
ATOM      7  H   UNL     1      -4.156   6.214  -4.317  1.00  0.00     0.163 HD
BRANCH   5   8
ATOM      8  C   UNL     1      -5.261   3.571  -2.549  1.00  0.00     0.107 C 
BRANCH   8   9
ATOM      9  C   UNL     1      -4.774   2.225  -3.076  1.00  0.00     0.037 C 
ATOM     10  C   UNL     1       1.002  -0.042  -0.104  1.00  0.00     0.010 C 
ATOM     11  C   UNL     1       0.350  -0.438  -1.421  1.00  0.00     0.010 C 
ATOM     12  C   UNL     1      -0.992   0.267  -1.643  1.00  0.00     0.125 C 
ATOM     13  C   UNL     1      -0.018  -1.930  -1.496  1.00  0.00     0.010 C 
ATOM     14  N   UNL     1      -1.846  -0.710  -2.307  1.00  0.00    -0.324 N 
ATOM     15  C   UNL     1      -1.123  -1.945  -2.549  1.00  0.00     0.125 C 
ATOM     16  C   UNL     1       1.157  -2.826  -1.851  1.00  0.00     0.010 C 
ATOM     17  C   UNL     1      -3.223  -0.650  -2.411  1.00  0.00     0.320 C 
ATOM     18  O   UNL     1      -3.912  -1.650  -2.605  1.00  0.00    -0.248 OA
ATOM     19  N   UNL     1      -3.787   0.589  -2.279  1.00  0.00    -0.324 N 
ATOM     20  C   UNL     1      -5.186   0.975  -2.270  1.00  0.00     0.127 C 
ATOM     21  C   UNL     1      -3.315   1.867  -2.752  1.00  0.00     0.127 C 
ENDBRANCH   8   9
ENDBRANCH   5   8
ENDBRANCH   3   4
ENDBRANCH   2   3
ENDBRANCH   1   2
BRANCH   1  22
ATOM     22  C   UNL     1      -0.140   6.134  -4.764  1.00  0.00     0.116 C 
BRANCH  22  23
ATOM     23  N   UNL     1       0.943   5.539  -3.991  1.00  0.00    -0.352 N 
ATOM     24  C   UNL     1       2.270   5.906  -3.978  1.00  0.00     0.251 C 
ATOM     25  H   UNL     1       0.697   4.785  -3.409  1.00  0.00     0.163 HD
ATOM     26  O   UNL     1       3.095   5.273  -3.327  1.00  0.00    -0.269 OA
BRANCH  24  27
ATOM     27  C   UNL     1       2.691   7.049  -4.811  1.00  0.00     0.039 A 
ATOM     28  C   UNL     1       3.702   6.863  -5.756  1.00  0.00     0.014 A 
ATOM     29  C   UNL     1       1.998   8.259  -4.734  1.00  0.00     0.014 A 
ATOM     30  C   UNL     1       3.951   7.862  -6.698  1.00  0.00     0.010 A 
ATOM     31  C   UNL     1       2.192   9.217  -5.719  1.00  0.00     0.010 A 
ATOM     32  C   UNL     1       3.159   9.022  -6.719  1.00  0.00    -0.014 A 
BRANCH  32  33
ATOM     33  C   UNL     1       3.295  10.046  -7.782  1.00  0.00     0.031 A 
ATOM     34  C   UNL     1       3.686  11.447  -7.415  1.00  0.00     0.074 A 
ATOM     35  C   UNL     1       2.935   9.752  -9.046  1.00  0.00     0.049 A 
ATOM     36  N   UNL     1       3.678  12.530  -8.149  1.00  0.00    -0.248 NA
ATOM     37  C   UNL     1       4.096  11.667  -6.020  1.00  0.00     0.031 C 
ATOM     38  C   UNL     1       2.469   8.445  -9.512  1.00  0.00     0.029 A 
ATOM     39  N   UNL     1       2.873  10.546 -10.164  1.00  0.00    -0.354 N 
ATOM     40  C   UNL     1       4.033  13.564  -7.294  1.00  0.00     0.074 A 
ATOM     41  C   UNL     1       4.217  12.985  -5.981  1.00  0.00     0.031 C 
ATOM     42  C   UNL     1       2.174   8.525 -10.820  1.00  0.00     0.029 A 
ATOM     43  C   UNL     1       2.397   9.894 -11.274  1.00  0.00     0.049 A 
ATOM     44  H   UNL     1       3.145  11.492 -10.168  1.00  0.00     0.167 HD
ATOM     45  C   UNL     1       4.202  14.876  -7.583  1.00  0.00     0.037 A 
ATOM     46  C   UNL     1       2.153  10.354 -12.516  1.00  0.00     0.037 A 
ATOM     47  C   UNL     1       4.076  15.436  -8.901  1.00  0.00     0.049 A 
ATOM     48  C   UNL     1       2.425  11.797 -12.833  1.00  0.00     0.074 A 
ATOM     49  C   UNL     1       4.323  16.732  -9.317  1.00  0.00     0.029 A 
ATOM     50  N   UNL     1       3.675  14.724 -10.022  1.00  0.00    -0.354 N 
ATOM     51  N   UNL     1       2.822  12.756 -12.032  1.00  0.00    -0.248 NA
ATOM     52  C   UNL     1       2.222  12.222 -14.225  1.00  0.00     0.031 C 
ATOM     53  C   UNL     1       4.047  16.811 -10.687  1.00  0.00     0.029 A 
ATOM     54  C   UNL     1       3.659  15.556 -11.129  1.00  0.00     0.049 A 
ATOM     55  H   UNL     1       3.436  13.769 -10.030  1.00  0.00     0.167 HD
ATOM     56  C   UNL     1       2.933  13.891 -12.822  1.00  0.00     0.074 A 
ATOM     57  C   UNL     1       2.571  13.500 -14.170  1.00  0.00     0.031 C 
ATOM     58  C   UNL     1       3.301  15.145 -12.463  1.00  0.00     0.037 A 
BRANCH  45  59
ATOM     59  C   UNL     1       4.540  15.789  -6.443  1.00  0.00     0.064 A 
ATOM     60  C   UNL     1       5.795  15.752  -5.817  1.00  0.00     0.173 A 
ATOM     61  C   UNL     1       3.594  16.707  -5.965  1.00  0.00     0.173 A 
ATOM     62  F   UNL     1       6.728  14.878  -6.226  1.00  0.00    -0.203 F 
ATOM     63  C   UNL     1       6.077  16.573  -4.729  1.00  0.00     0.198 A 
ATOM     64  C   UNL     1       3.889  17.547  -4.895  1.00  0.00     0.198 A 
ATOM     65  F   UNL     1       2.379  16.783  -6.530  1.00  0.00    -0.203 F 
ATOM     66  F   UNL     1       7.260  16.476  -4.107  1.00  0.00    -0.200 F 
ATOM     67  C   UNL     1       5.125  17.472  -4.271  1.00  0.00     0.200 A 
ATOM     68  F   UNL     1       2.971  18.420  -4.457  1.00  0.00    -0.200 F 
ATOM     69  F   UNL     1       5.395  18.257  -3.219  1.00  0.00    -0.200 F 
ENDBRANCH  45  59
BRANCH  46  70
ATOM     70  C   UNL     1       1.649   9.423 -13.554  1.00  0.00     0.064 A 
ATOM     71  C   UNL     1       2.500   8.942 -14.558  1.00  0.00     0.173 A 
ATOM     72  C   UNL     1       0.323   8.968 -13.545  1.00  0.00     0.173 A 
ATOM     73  F   UNL     1       3.771   9.364 -14.615  1.00  0.00    -0.203 F 
ATOM     74  C   UNL     1       2.041   8.045 -15.520  1.00  0.00     0.198 A 
ATOM     75  C   UNL     1      -0.130   8.056 -14.496  1.00  0.00     0.198 A 
ATOM     76  F   UNL     1      -0.526   9.394 -12.598  1.00  0.00    -0.203 F 
ATOM     77  F   UNL     1       2.869   7.619 -16.484  1.00  0.00    -0.200 F 
ATOM     78  C   UNL     1       0.729   7.597 -15.484  1.00  0.00     0.200 A 
ATOM     79  F   UNL     1      -1.394   7.616 -14.451  1.00  0.00    -0.200 F 
ATOM     80  F   UNL     1       0.291   6.726 -16.403  1.00  0.00    -0.200 F 
ENDBRANCH  46  70
BRANCH  58  81
ATOM     81  C   UNL     1       3.354  16.180 -13.544  1.00  0.00     0.064 A 
ATOM     82  C   UNL     1       2.186  16.761 -14.058  1.00  0.00     0.173 A 
ATOM     83  C   UNL     1       4.588  16.631 -14.034  1.00  0.00     0.173 A 
ATOM     84  F   UNL     1       0.983  16.349 -13.630  1.00  0.00    -0.203 F 
ATOM     85  C   UNL     1       2.252  17.750 -15.035  1.00  0.00     0.198 A 
ATOM     86  C   UNL     1       4.651  17.635 -14.995  1.00  0.00     0.198 A 
ATOM     87  F   UNL     1       5.732  16.107 -13.569  1.00  0.00    -0.203 F 
ATOM     88  F   UNL     1       1.124  18.272 -15.535  1.00  0.00    -0.200 F 
ATOM     89  C   UNL     1       3.484  18.192 -15.497  1.00  0.00     0.200 A 
ATOM     90  F   UNL     1       5.841  18.066 -15.435  1.00  0.00    -0.200 F 
ATOM     91  F   UNL     1       3.546  19.150 -16.432  1.00  0.00    -0.200 F 
ENDBRANCH  58  81
ENDBRANCH  32  33
ENDBRANCH  24  27
ENDBRANCH  22  23
ENDBRANCH   1  22
TORSDOF 12
