REMARK SMILES C[NH2+][C@]1(C(=O)NCCCCNC(=O)c2ccc(-c3c4nc(c(-c5c(F)c(F)c(F)c(F)c5F)c5ccc([nH]5)c(-c5c(F)c(F)c(F)c(F)c5F)c5nc(c(-c6c(F)c(F)c(F)c(F)c6F)c6ccc3[nH]6)C=C5)C=C4)cc2)CCC[C@@H]1CCOC[C@@H]1CCCO1
REMARK SMILES IDX 7 1 6 2 4 3 5 4 3 6 77 7 80 8 78 9 79 10 2 11 1 12 81 15
REMARK SMILES IDX 82 16 83 17 84 18 85 19 86 20 89 21 87 22 88 23 8 24 9 25
REMARK SMILES IDX 10 26 11 27 12 28 13 30 14 31 15 32 76 33 16 34 75 35 17 36
REMARK SMILES IDX 18 37 19 38 69 39 20 40 74 41 68 42 70 43 21 44 73 45 67 46
REMARK SMILES IDX 66 47 22 49 54 50 34 51 53 52 35 53 38 54 52 55 71 56 36 57
REMARK SMILES IDX 37 58 51 60 72 61 39 62 23 63 24 64 32 65 25 66 26 67 30 68
REMARK SMILES IDX 33 69 27 70 28 71 31 72 29 73 55 74 56 75 64 76 57 77 58 78
REMARK SMILES IDX 62 79 65 80 59 81 60 82 63 83 61 84 40 85 41 86 49 87 42 88
REMARK SMILES IDX 43 89 47 90 50 91 44 92 45 93 48 94 46 95
REMARK H PARENT 6 5 2 13 2 14 11 29 70 48 38 59
REMARK Flexibility Score: inf
ROOT
ATOM      1  C   UNL     1       0.430   0.404  -4.055  1.00  0.00     0.116 C 
ENDROOT
BRANCH   1   2
ATOM      2  N   UNL     1       1.092   0.345  -2.764  1.00  0.00    -0.351 N 
ATOM      3  C   UNL     1       0.657   0.314  -1.471  1.00  0.00     0.281 C 
ATOM      4  O   UNL     1       1.558   0.093  -0.654  1.00  0.00    -0.268 OA
ATOM      5  H   UNL     1       2.074   0.324  -2.837  1.00  0.00     0.163 HD
BRANCH   3   6
ATOM      6  C   UNL     1      -0.846   0.484  -1.056  1.00  0.00     0.178 C 
ATOM      7  C   UNL     1      -1.530   1.726  -1.673  1.00  0.00     0.079 C 
ATOM      8  C   UNL     1      -1.703  -0.688  -1.629  1.00  0.00     0.063 C 
ATOM      9  C   UNL     1      -2.989   1.328  -1.942  1.00  0.00     0.008 C 
ATOM     10  C   UNL     1      -3.131  -0.135  -1.518  1.00  0.00     0.011 C 
BRANCH   6  11
ATOM     11  N   UNL     1      -1.109   0.585   0.415  1.00  0.00    -0.336 N 
ATOM     12  C   UNL     1      -0.068   1.134   1.264  1.00  0.00     0.331 C 
ATOM     13  H   UNL     1      -1.936   1.169   0.534  1.00  0.00     0.346 HD
ATOM     14  H   UNL     1      -1.198  -0.384   0.721  1.00  0.00     0.346 HD
ENDBRANCH   6  11
BRANCH   8  15
ATOM     15  C   UNL     1      -1.475  -2.058  -0.958  1.00  0.00     0.039 C 
BRANCH  15  16
ATOM     16  C   UNL     1      -2.007  -3.275  -1.724  1.00  0.00     0.161 C 
BRANCH  16  17
ATOM     17  O   UNL     1      -1.083  -3.849  -2.635  1.00  0.00    -0.379 OA
BRANCH  17  18
ATOM     18  C   UNL     1      -0.879  -3.264  -3.916  1.00  0.00     0.192 C 
BRANCH  18  19
ATOM     19  C   UNL     1      -2.063  -3.229  -4.899  1.00  0.00     0.144 C 
ATOM     20  C   UNL     1      -3.025  -2.065  -4.737  1.00  0.00     0.037 C 
ATOM     21  O   UNL     1      -2.839  -4.435  -4.845  1.00  0.00    -0.376 OA
ATOM     22  C   UNL     1      -4.351  -2.643  -5.148  1.00  0.00     0.031 C 
ATOM     23  C   UNL     1      -4.222  -4.087  -4.719  1.00  0.00     0.160 C 
ENDBRANCH  18  19
ENDBRANCH  17  18
ENDBRANCH  16  17
ENDBRANCH  15  16
ENDBRANCH   8  15
ENDBRANCH   3   6
ENDBRANCH   1   2
BRANCH   1  24
ATOM     24  C   UNL     1       0.962   1.519  -4.949  1.00  0.00     0.023 C 
BRANCH  24  25
ATOM     25  C   UNL     1       2.454   1.437  -5.278  1.00  0.00     0.023 C 
BRANCH  25  26
ATOM     26  C   UNL     1       2.946   0.098  -5.822  1.00  0.00     0.116 C 
BRANCH  26  27
ATOM     27  N   UNL     1       2.286  -0.301  -7.054  1.00  0.00    -0.352 N 
ATOM     28  C   UNL     1       2.835  -0.694  -8.255  1.00  0.00     0.251 C 
ATOM     29  H   UNL     1       1.302  -0.289  -7.026  1.00  0.00     0.163 HD
ATOM     30  O   UNL     1       2.118  -0.885  -9.224  1.00  0.00    -0.269 OA
BRANCH  28  31
ATOM     31  C   UNL     1       4.303  -0.844  -8.378  1.00  0.00     0.039 A 
ATOM     32  C   UNL     1       4.947  -0.261  -9.472  1.00  0.00     0.014 A 
ATOM     33  C   UNL     1       5.042  -1.534  -7.415  1.00  0.00     0.014 A 
ATOM     34  C   UNL     1       6.341  -0.300  -9.557  1.00  0.00     0.010 A 
ATOM     35  C   UNL     1       6.434  -1.506  -7.460  1.00  0.00     0.010 A 
ATOM     36  C   UNL     1       7.098  -0.884  -8.529  1.00  0.00    -0.014 A 
BRANCH  36  37
ATOM     37  C   UNL     1       8.584  -0.843  -8.550  1.00  0.00     0.031 A 
ATOM     38  C   UNL     1       9.378  -2.117  -8.627  1.00  0.00     0.074 A 
ATOM     39  C   UNL     1       9.220   0.340  -8.432  1.00  0.00     0.049 A 
ATOM     40  N   UNL     1      10.676  -2.289  -8.595  1.00  0.00    -0.248 NA
ATOM     41  C   UNL     1       8.611  -3.369  -8.727  1.00  0.00     0.031 C 
ATOM     42  C   UNL     1       8.565   1.642  -8.298  1.00  0.00     0.029 A 
ATOM     43  N   UNL     1      10.560   0.638  -8.397  1.00  0.00    -0.354 N 
ATOM     44  C   UNL     1      10.878  -3.661  -8.658  1.00  0.00     0.074 A 
ATOM     45  C   UNL     1       9.570  -4.280  -8.672  1.00  0.00     0.031 C 
ATOM     46  C   UNL     1       9.503   2.600  -8.219  1.00  0.00     0.029 A 
ATOM     47  C   UNL     1      10.823   1.979  -8.256  1.00  0.00     0.049 A 
ATOM     48  H   UNL     1      11.266  -0.045  -8.465  1.00  0.00     0.167 HD
ATOM     49  C   UNL     1      12.047  -4.342  -8.723  1.00  0.00     0.037 A 
ATOM     50  C   UNL     1      11.996   2.633  -8.160  1.00  0.00     0.037 A 
ATOM     51  C   UNL     1      13.347  -3.722  -8.729  1.00  0.00     0.049 A 
ATOM     52  C   UNL     1      13.281   1.852  -8.225  1.00  0.00     0.074 A 
ATOM     53  C   UNL     1      14.588  -4.322  -8.852  1.00  0.00     0.029 A 
ATOM     54  N   UNL     1      13.572  -2.359  -8.601  1.00  0.00    -0.354 N 
ATOM     55  N   UNL     1      13.459   0.560  -8.360  1.00  0.00    -0.248 NA
ATOM     56  C   UNL     1      14.530   2.622  -8.131  1.00  0.00     0.031 C 
ATOM     57  C   UNL     1      15.566  -3.328  -8.746  1.00  0.00     0.029 A 
ATOM     58  C   UNL     1      14.934  -2.102  -8.617  1.00  0.00     0.049 A 
ATOM     59  H   UNL     1      12.869  -1.676  -8.511  1.00  0.00     0.167 HD
ATOM     60  C   UNL     1      14.834   0.366  -8.398  1.00  0.00     0.074 A 
ATOM     61  C   UNL     1      15.443   1.675  -8.288  1.00  0.00     0.031 C 
ATOM     62  C   UNL     1      15.528  -0.793  -8.514  1.00  0.00     0.037 A 
BRANCH  49  63
ATOM     63  C   UNL     1      11.975  -5.841  -8.795  1.00  0.00     0.064 A 
ATOM     64  C   UNL     1      11.483  -6.500  -9.933  1.00  0.00     0.173 A 
ATOM     65  C   UNL     1      12.436  -6.630  -7.730  1.00  0.00     0.173 A 
ATOM     66  F   UNL     1      11.021  -5.794 -10.976  1.00  0.00    -0.203 F 
ATOM     67  C   UNL     1      11.427  -7.890  -9.989  1.00  0.00     0.198 A 
ATOM     68  C   UNL     1      12.409  -8.020  -7.803  1.00  0.00     0.198 A 
ATOM     69  F   UNL     1      12.922  -6.052  -6.621  1.00  0.00    -0.203 F 
ATOM     70  F   UNL     1      10.905  -8.495 -11.065  1.00  0.00    -0.200 F 
ATOM     71  C   UNL     1      11.896  -8.649  -8.927  1.00  0.00     0.200 A 
ATOM     72  F   UNL     1      12.877  -8.752  -6.782  1.00  0.00    -0.200 F 
ATOM     73  F   UNL     1      11.850  -9.987  -8.986  1.00  0.00    -0.200 F 
ENDBRANCH  49  63
BRANCH  50  74
ATOM     74  C   UNL     1      12.014   4.113  -8.016  1.00  0.00     0.064 A 
ATOM     75  C   UNL     1      12.489   4.932  -9.051  1.00  0.00     0.173 A 
ATOM     76  C   UNL     1      11.568   4.739  -6.843  1.00  0.00     0.173 A 
ATOM     77  F   UNL     1      12.946   4.380 -10.184  1.00  0.00    -0.203 F 
ATOM     78  C   UNL     1      12.539   6.317  -8.909  1.00  0.00     0.198 A 
ATOM     79  C   UNL     1      11.589   6.127  -6.714  1.00  0.00     0.198 A 
ATOM     80  F   UNL     1      11.099   4.003  -5.825  1.00  0.00    -0.203 F 
ATOM     81  F   UNL     1      13.044   7.071  -9.894  1.00  0.00    -0.200 F 
ATOM     82  C   UNL     1      12.084   6.914  -7.743  1.00  0.00     0.200 A 
ATOM     83  F   UNL     1      11.134   6.700  -5.592  1.00  0.00    -0.200 F 
ATOM     84  F   UNL     1      12.128   8.246  -7.608  1.00  0.00    -0.200 F 
ENDBRANCH  50  74
BRANCH  62  85
ATOM     85  C   UNL     1      17.026  -0.697  -8.569  1.00  0.00     0.064 A 
ATOM     86  C   UNL     1      17.785  -0.351  -7.442  1.00  0.00     0.173 A 
ATOM     87  C   UNL     1      17.712  -0.993  -9.757  1.00  0.00     0.173 A 
ATOM     88  F   UNL     1      17.178  -0.044  -6.286  1.00  0.00    -0.203 F 
ATOM     89  C   UNL     1      19.174  -0.277  -7.510  1.00  0.00     0.198 A 
ATOM     90  C   UNL     1      19.102  -0.950  -9.813  1.00  0.00     0.198 A 
ATOM     91  F   UNL     1      17.034  -1.336 -10.863  1.00  0.00    -0.203 F 
ATOM     92  F   UNL     1      19.877   0.107  -6.435  1.00  0.00    -0.200 F 
ATOM     93  C   UNL     1      19.831  -0.584  -8.692  1.00  0.00     0.200 A 
ATOM     94  F   UNL     1      19.735  -1.262 -10.952  1.00  0.00    -0.200 F 
ATOM     95  F   UNL     1      21.169  -0.520  -8.754  1.00  0.00    -0.200 F 
ENDBRANCH  62  85
ENDBRANCH  36  37
ENDBRANCH  28  31
ENDBRANCH  26  27
ENDBRANCH  25  26
ENDBRANCH  24  25
ENDBRANCH   1  24
TORSDOF 17
