REMARK SMILES NC(=O)C1CC[NH+](Cc2ccc(C(=O)NCCCCNC(=O)c3ccc(-c4c5nc(c(-c6c(F)c(F)c(F)c(F)c6F)c6ccc([nH]6)c(-c6c(F)c(F)c(F)c(F)c6F)c6nc(c(-c7c(F)c(F)c(F)c(F)c7F)c7ccc4[nH]7)C=C6)C=C5)cc3)cc2)CC1
REMARK SMILES IDX 17 1 16 2 15 3 13 4 14 5 12 7 9 8 10 9 87 10 11 11 86 12
REMARK SMILES IDX 8 13 7 14 4 15 5 16 89 17 6 18 88 19 2 21 1 22 3 25 18 26
REMARK SMILES IDX 19 27 20 28 21 29 22 31 23 32 24 33 85 34 25 35 84 36 26 37
REMARK SMILES IDX 27 38 28 39 78 40 29 41 83 42 77 43 79 44 30 45 82 46 76 47
REMARK SMILES IDX 75 48 31 50 63 51 43 52 62 53 44 54 47 55 61 56 80 57 45 58
REMARK SMILES IDX 46 59 60 61 81 62 48 63 32 64 33 65 41 66 34 67 35 68 39 69
REMARK SMILES IDX 42 70 36 71 37 72 40 73 38 74 64 75 65 76 73 77 66 78 67 79
REMARK SMILES IDX 71 80 74 81 68 82 69 83 72 84 70 85 49 86 50 87 58 88 51 89
REMARK SMILES IDX 52 90 56 91 59 92 53 93 54 94 57 95 55 96
REMARK H PARENT 15 6 7 20 1 23 1 24 20 30 79 49 47 60
REMARK Flexibility Score: inf
ROOT
ATOM      1  C   UNL     1      -6.757  -1.426  -0.725  1.00  0.00     0.023 C 
ENDROOT
BRANCH   1   2
ATOM      2  C   UNL     1      -5.650  -1.432   0.332  1.00  0.00     0.116 C 
BRANCH   2   3
ATOM      3  N   UNL     1      -5.897  -2.449   1.338  1.00  0.00    -0.352 N 
ATOM      4  C   UNL     1      -5.322  -3.683   1.526  1.00  0.00     0.251 C 
ATOM      5  O   UNL     1      -5.638  -4.334   2.521  1.00  0.00    -0.269 OA
ATOM      6  H   UNL     1      -6.591  -2.216   1.996  1.00  0.00     0.163 HD
BRANCH   4   7
ATOM      7  C   UNL     1      -4.288  -4.218   0.603  1.00  0.00     0.039 A 
ATOM      8  C   UNL     1      -2.168  -5.111  -1.022  1.00  0.00     0.006 A 
ATOM      9  C   UNL     1      -2.156  -5.352   0.359  1.00  0.00     0.010 A 
ATOM     10  C   UNL     1      -3.301  -4.513  -1.589  1.00  0.00     0.010 A 
ATOM     11  C   UNL     1      -3.208  -4.908   1.165  1.00  0.00     0.014 A 
ATOM     12  C   UNL     1      -4.357  -4.083  -0.785  1.00  0.00     0.014 A 
BRANCH   8  13
ATOM     13  C   UNL     1      -0.963  -5.438  -1.881  1.00  0.00     0.299 C 
BRANCH  13  14
ATOM     14  N   UNL     1       0.005  -4.341  -2.086  1.00  0.00    -0.331 N 
ATOM     15  C   UNL     1       1.268  -1.694  -1.917  1.00  0.00     0.089 C 
ATOM     16  C   UNL     1       0.503  -2.160  -3.159  1.00  0.00     0.075 C 
ATOM     17  C   UNL     1       1.766  -2.906  -1.123  1.00  0.00     0.075 C 
ATOM     18  C   UNL     1      -0.562  -3.210  -2.831  1.00  0.00     0.263 C 
ATOM     19  C   UNL     1       0.640  -3.904  -0.840  1.00  0.00     0.263 C 
ATOM     20  H   UNL     1       0.742  -4.736  -2.671  1.00  0.00     0.348 HD
BRANCH  15  21
ATOM     21  C   UNL     1       0.434  -0.759  -1.044  1.00  0.00     0.220 C 
ATOM     22  N   UNL     1       1.126  -0.133  -0.048  1.00  0.00    -0.369 N 
ATOM     23  H   UNL     1       0.661   0.486   0.560  1.00  0.00     0.159 HD
ATOM     24  H   UNL     1       2.090  -0.301   0.063  1.00  0.00     0.159 HD
ATOM     25  O   UNL     1      -0.761  -0.537  -1.195  1.00  0.00    -0.275 OA
ENDBRANCH  15  21
ENDBRANCH  13  14
ENDBRANCH   8  13
ENDBRANCH   4   7
ENDBRANCH   2   3
ENDBRANCH   1   2
BRANCH   1  26
ATOM     26  C   UNL     1      -8.085  -0.832  -0.252  1.00  0.00     0.023 C 
BRANCH  26  27
ATOM     27  C   UNL     1      -8.036   0.644   0.123  1.00  0.00     0.116 C 
BRANCH  27  28
ATOM     28  N   UNL     1      -7.593   1.499  -0.967  1.00  0.00    -0.352 N 
ATOM     29  C   UNL     1      -8.018   2.762  -1.303  1.00  0.00     0.251 C 
ATOM     30  H   UNL     1      -6.891   1.121  -1.544  1.00  0.00     0.163 HD
ATOM     31  O   UNL     1      -7.616   3.298  -2.327  1.00  0.00    -0.269 OA
BRANCH  29  32
ATOM     32  C   UNL     1      -8.999   3.457  -0.442  1.00  0.00     0.039 A 
ATOM     33  C   UNL     1     -10.089   4.089  -1.047  1.00  0.00     0.014 A 
ATOM     34  C   UNL     1      -8.857   3.475   0.948  1.00  0.00     0.014 A 
ATOM     35  C   UNL     1     -11.071   4.681  -0.253  1.00  0.00     0.010 A 
ATOM     36  C   UNL     1      -9.873   4.002   1.740  1.00  0.00     0.010 A 
ATOM     37  C   UNL     1     -10.990   4.610   1.148  1.00  0.00    -0.014 A 
BRANCH  37  38
ATOM     38  C   UNL     1     -12.076   5.151   2.001  1.00  0.00     0.031 A 
ATOM     39  C   UNL     1     -11.816   6.306   2.925  1.00  0.00     0.074 A 
ATOM     40  C   UNL     1     -13.285   4.558   1.986  1.00  0.00     0.049 A 
ATOM     41  N   UNL     1     -12.633   6.898   3.760  1.00  0.00    -0.248 NA
ATOM     42  C   UNL     1     -10.449   6.849   2.937  1.00  0.00     0.031 C 
ATOM     43  C   UNL     1     -13.639   3.384   1.185  1.00  0.00     0.029 A 
ATOM     44  N   UNL     1     -14.437   4.853   2.670  1.00  0.00    -0.354 N 
ATOM     45  C   UNL     1     -11.877   7.870   4.403  1.00  0.00     0.074 A 
ATOM     46  C   UNL     1     -10.525   7.753   3.902  1.00  0.00     0.031 C 
ATOM     47  C   UNL     1     -14.926   3.073   1.407  1.00  0.00     0.029 A 
ATOM     48  C   UNL     1     -15.479   4.004   2.385  1.00  0.00     0.049 A 
ATOM     49  H   UNL     1     -14.510   5.601   3.305  1.00  0.00     0.167 HD
ATOM     50  C   UNL     1     -12.282   8.790   5.310  1.00  0.00     0.037 A 
ATOM     51  C   UNL     1     -16.738   3.980   2.860  1.00  0.00     0.037 A 
ATOM     52  C   UNL     1     -13.635   8.919   5.785  1.00  0.00     0.049 A 
ATOM     53  C   UNL     1     -17.170   5.030   3.846  1.00  0.00     0.074 A 
ATOM     54  C   UNL     1     -14.165   9.871   6.638  1.00  0.00     0.029 A 
ATOM     55  N   UNL     1     -14.673   8.060   5.451  1.00  0.00    -0.354 N 
ATOM     56  N   UNL     1     -16.472   6.006   4.375  1.00  0.00    -0.248 NA
ATOM     57  C   UNL     1     -18.569   4.984   4.292  1.00  0.00     0.031 C 
ATOM     58  C   UNL     1     -15.510   9.560   6.860  1.00  0.00     0.029 A 
ATOM     59  C   UNL     1     -15.834   8.445   6.103  1.00  0.00     0.049 A 
ATOM     60  H   UNL     1     -14.597   7.292   4.840  1.00  0.00     0.167 HD
ATOM     61  C   UNL     1     -17.348   6.700   5.198  1.00  0.00     0.074 A 
ATOM     62  C   UNL     1     -18.635   6.046   5.081  1.00  0.00     0.031 C 
ATOM     63  C   UNL     1     -17.107   7.780   5.982  1.00  0.00     0.037 A 
BRANCH  50  64
ATOM     64  C   UNL     1     -11.246   9.734   5.850  1.00  0.00     0.064 A 
ATOM     65  C   UNL     1     -10.664  10.729   5.048  1.00  0.00     0.173 A 
ATOM     66  C   UNL     1     -10.850   9.663   7.194  1.00  0.00     0.173 A 
ATOM     67  F   UNL     1     -10.999  10.834   3.753  1.00  0.00    -0.203 F 
ATOM     68  C   UNL     1      -9.702  11.594   5.563  1.00  0.00     0.198 A 
ATOM     69  C   UNL     1      -9.910  10.550   7.714  1.00  0.00     0.198 A 
ATOM     70  F   UNL     1     -11.377   8.735   8.007  1.00  0.00    -0.203 F 
ATOM     71  F   UNL     1      -9.122  12.501   4.764  1.00  0.00    -0.200 F 
ATOM     72  C   UNL     1      -9.331  11.508   6.896  1.00  0.00     0.200 A 
ATOM     73  F   UNL     1      -9.562  10.474   9.006  1.00  0.00    -0.200 F 
ATOM     74  F   UNL     1      -8.408  12.345   7.392  1.00  0.00    -0.200 F 
ENDBRANCH  50  64
BRANCH  51  75
ATOM     75  C   UNL     1     -17.687   2.941   2.382  1.00  0.00     0.064 A 
ATOM     76  C   UNL     1     -18.760   3.275   1.544  1.00  0.00     0.173 A 
ATOM     77  C   UNL     1     -17.534   1.595   2.743  1.00  0.00     0.173 A 
ATOM     78  F   UNL     1     -18.958   4.553   1.187  1.00  0.00    -0.203 F 
ATOM     79  C   UNL     1     -19.655   2.304   1.100  1.00  0.00     0.198 A 
ATOM     80  C   UNL     1     -18.414   0.621   2.275  1.00  0.00     0.198 A 
ATOM     81  F   UNL     1     -16.520   1.223   3.537  1.00  0.00    -0.203 F 
ATOM     82  F   UNL     1     -20.696   2.657   0.334  1.00  0.00    -0.200 F 
ATOM     83  C   UNL     1     -19.477   0.977   1.460  1.00  0.00     0.200 A 
ATOM     84  F   UNL     1     -18.230  -0.663   2.613  1.00  0.00    -0.200 F 
ATOM     85  F   UNL     1     -20.334   0.043   1.027  1.00  0.00    -0.200 F 
ENDBRANCH  51  75
BRANCH  63  86
ATOM     86  C   UNL     1     -18.266   8.332   6.760  1.00  0.00     0.064 A 
ATOM     87  C   UNL     1     -18.808   7.647   7.857  1.00  0.00     0.173 A 
ATOM     88  C   UNL     1     -18.823   9.575   6.421  1.00  0.00     0.173 A 
ATOM     89  F   UNL     1     -18.322   6.448   8.212  1.00  0.00    -0.203 F 
ATOM     90  C   UNL     1     -19.886   8.171   8.567  1.00  0.00     0.198 A 
ATOM     91  C   UNL     1     -19.879  10.110   7.153  1.00  0.00     0.198 A 
ATOM     92  F   UNL     1     -18.337  10.274   5.385  1.00  0.00    -0.203 F 
ATOM     93  F   UNL     1     -20.422   7.473   9.578  1.00  0.00    -0.200 F 
ATOM     94  C   UNL     1     -20.415   9.404   8.219  1.00  0.00     0.200 A 
ATOM     95  F   UNL     1     -20.381  11.309   6.824  1.00  0.00    -0.200 F 
ATOM     96  F   UNL     1     -21.450   9.909   8.906  1.00  0.00    -0.200 F 
ENDBRANCH  63  86
ENDBRANCH  37  38
ENDBRANCH  29  32
ENDBRANCH  27  28
ENDBRANCH  26  27
ENDBRANCH   1  26
TORSDOF 14
