REMARK SMILES CCc1cc(=O)oc2c3c(cc(OCC(=O)NCC(=O)NCCCCNC(=O)c4ccc(-c5c6nc(c(-c7c(F)c(F)c(F)c(F)c7F)c7ccc([nH]7)c(-c7c(F)c(F)c(F)c(F)c7F)c7nc(c(-c8c(F)c(F)c(F)c(F)c8F)c8ccc5[nH]8)C=C7)C=C6)cc4)c12)OC(C)(C)CC3
REMARK SMILES IDX 22 1 21 2 19 3 20 4 18 6 17 7 15 8 16 9 14 11 13 12 12 13
REMARK SMILES IDX 3 14 4 15 92 16 5 17 8 18 6 19 7 20 9 21 11 22 10 23 98 24
REMARK SMILES IDX 93 25 97 26 94 27 95 28 96 29 2 30 1 31 23 32 24 33 25 34
REMARK SMILES IDX 26 35 27 36 28 38 29 39 30 40 91 41 31 42 90 43 32 44 33 45
REMARK SMILES IDX 34 46 84 47 35 48 89 49 83 50 85 51 36 52 88 53 82 54 81 55
REMARK SMILES IDX 37 57 69 58 49 59 68 60 50 61 53 62 67 63 86 64 51 65 52 66
REMARK SMILES IDX 66 68 87 69 54 70 38 71 39 72 47 73 40 74 41 75 45 76 48 77
REMARK SMILES IDX 42 78 43 79 46 80 44 81 70 82 71 83 79 84 72 85 73 86 77 87
REMARK SMILES IDX 80 88 74 89 75 90 78 91 76 92 55 93 56 94 64 95 57 96 58 97
REMARK SMILES IDX 62 98 65 99 59 100 60 101 63 102 61 103
REMARK H PARENT 21 5 17 10 26 37 85 56 53 67
REMARK Flexibility Score: inf
ROOT
ATOM      1  C   UNL     1      -1.887   1.848   2.461  1.00  0.00     0.116 C 
ENDROOT
BRANCH   1   2
ATOM      2  N   UNL     1      -3.138   1.133   2.365  1.00  0.00    -0.355 N 
ATOM      3  C   UNL     1      -3.717   0.613   1.239  1.00  0.00     0.239 C 
ATOM      4  O   UNL     1      -4.693  -0.127   1.368  1.00  0.00    -0.273 OA
ATOM      5  H   UNL     1      -3.632   1.004   3.208  1.00  0.00     0.163 HD
BRANCH   3   6
ATOM      6  C   UNL     1      -3.114   0.904  -0.144  1.00  0.00     0.216 C 
BRANCH   6   7
ATOM      7  N   UNL     1      -3.158   2.319  -0.474  1.00  0.00    -0.344 N 
ATOM      8  C   UNL     1      -2.287   3.052  -1.222  1.00  0.00     0.258 C 
ATOM      9  O   UNL     1      -2.591   4.215  -1.494  1.00  0.00    -0.271 OA
ATOM     10  H   UNL     1      -3.924   2.816  -0.107  1.00  0.00     0.164 HD
BRANCH   8  11
ATOM     11  C   UNL     1      -0.971   2.434  -1.727  1.00  0.00     0.329 C 
BRANCH  11  12
ATOM     12  O   UNL     1      -0.044   1.963  -0.761  1.00  0.00    -0.483 OA
BRANCH  12  13
ATOM     13  C   UNL     1       0.585   2.844   0.081  1.00  0.00     0.135 A 
ATOM     14  C   UNL     1       1.594   0.853   1.410  1.00  0.00    -0.026 A 
ATOM     15  C   UNL     1       2.369   0.503   2.449  1.00  0.00     0.098 A 
ATOM     16  C   UNL     1       1.411   2.301   1.094  1.00  0.00     0.063 A 
ATOM     17  C   UNL     1       3.123   1.450   3.267  1.00  0.00     0.336 A 
ATOM     18  C   UNL     1       2.027   3.223   1.961  1.00  0.00     0.149 A 
ATOM     19  O   UNL     1       3.831   1.052   4.184  1.00  0.00    -0.246 OA
ATOM     20  O   UNL     1       2.957   2.778   2.933  1.00  0.00    -0.422 OA
ATOM     21  C   UNL     1       1.729   4.604   1.973  1.00  0.00     0.038 A 
ATOM     22  C   UNL     1       0.380   4.234   0.014  1.00  0.00     0.094 A 
ATOM     23  C   UNL     1       0.880   5.092   0.993  1.00  0.00     0.130 A 
ATOM     24  C   UNL     1       2.169   5.507   3.090  1.00  0.00     0.047 C 
ATOM     25  O   UNL     1       0.456   6.392   0.921  1.00  0.00    -0.487 OA
ATOM     26  C   UNL     1       1.933   6.975   2.787  1.00  0.00     0.053 C 
ATOM     27  C   UNL     1       0.569   7.185   2.120  1.00  0.00     0.104 C 
ATOM     28  C   UNL     1       0.462   8.653   1.684  1.00  0.00     0.056 C 
ATOM     29  C   UNL     1      -0.622   6.890   3.050  1.00  0.00     0.056 C 
BRANCH  14  30
ATOM     30  C   UNL     1       0.867  -0.262   0.697  1.00  0.00     0.033 C 
ATOM     31  C   UNL     1       1.586  -0.728  -0.560  1.00  0.00     0.009 C 
ENDBRANCH  14  30
ENDBRANCH  12  13
ENDBRANCH  11  12
ENDBRANCH   8  11
ENDBRANCH   6   7
ENDBRANCH   3   6
ENDBRANCH   1   2
BRANCH   1  32
ATOM     32  C   UNL     1      -2.013   3.199   3.150  1.00  0.00     0.023 C 
BRANCH  32  33
ATOM     33  C   UNL     1      -2.092   3.157   4.676  1.00  0.00     0.023 C 
BRANCH  33  34
ATOM     34  C   UNL     1      -0.950   2.432   5.389  1.00  0.00     0.116 C 
BRANCH  34  35
ATOM     35  N   UNL     1       0.371   2.901   5.003  1.00  0.00    -0.352 N 
ATOM     36  C   UNL     1       1.446   3.258   5.777  1.00  0.00     0.251 C 
ATOM     37  H   UNL     1       0.518   2.973   4.032  1.00  0.00     0.163 HD
ATOM     38  O   UNL     1       2.491   3.684   5.306  1.00  0.00    -0.269 OA
BRANCH  36  39
ATOM     39  C   UNL     1       1.380   3.200   7.224  1.00  0.00     0.039 A 
ATOM     40  C   UNL     1       1.870   4.310   7.926  1.00  0.00     0.014 A 
ATOM     41  C   UNL     1       0.917   2.056   7.865  1.00  0.00     0.014 A 
ATOM     42  C   UNL     1       1.843   4.297   9.304  1.00  0.00     0.010 A 
ATOM     43  C   UNL     1       0.820   2.072   9.237  1.00  0.00     0.010 A 
ATOM     44  C   UNL     1       1.286   3.190   9.949  1.00  0.00    -0.014 A 
BRANCH  44  45
ATOM     45  C   UNL     1       1.194   3.146  11.408  1.00  0.00     0.031 A 
ATOM     46  C   UNL     1       2.045   2.158  12.129  1.00  0.00     0.074 A 
ATOM     47  C   UNL     1       0.248   3.894  11.994  1.00  0.00     0.049 A 
ATOM     48  N   UNL     1       1.963   1.746  13.361  1.00  0.00    -0.248 NA
ATOM     49  C   UNL     1       3.095   1.496  11.333  1.00  0.00     0.031 C 
ATOM     50  C   UNL     1      -0.628   4.844  11.300  1.00  0.00     0.029 A 
ATOM     51  N   UNL     1      -0.162   3.947  13.293  1.00  0.00    -0.354 N 
ATOM     52  C   UNL     1       2.915   0.743  13.477  1.00  0.00     0.074 A 
ATOM     53  C   UNL     1       3.541   0.585  12.184  1.00  0.00     0.031 C 
ATOM     54  C   UNL     1      -1.480   5.382  12.185  1.00  0.00     0.029 A 
ATOM     55  C   UNL     1      -1.231   4.784  13.489  1.00  0.00     0.049 A 
ATOM     56  H   UNL     1       0.267   3.437  14.017  1.00  0.00     0.167 HD
ATOM     57  C   UNL     1       3.224   0.031  14.584  1.00  0.00     0.037 A 
ATOM     58  C   UNL     1      -1.933   5.011  14.611  1.00  0.00     0.037 A 
ATOM     59  C   UNL     1       2.581   0.261  15.851  1.00  0.00     0.049 A 
ATOM     60  C   UNL     1      -1.506   4.272  15.846  1.00  0.00     0.074 A 
ATOM     61  C   UNL     1       2.813  -0.344  17.070  1.00  0.00     0.029 A 
ATOM     62  N   UNL     1       1.573   1.201  16.050  1.00  0.00    -0.354 N 
ATOM     63  N   UNL     1      -0.592   3.337  15.969  1.00  0.00    -0.248 NA
ATOM     64  C   UNL     1      -2.186   4.623  17.094  1.00  0.00     0.031 C 
ATOM     65  C   UNL     1       1.933   0.219  18.003  1.00  0.00     0.029 A 
ATOM     66  C   UNL     1       1.177   1.200  17.374  1.00  0.00     0.049 A 
ATOM     67  H   UNL     1       1.196   1.781  15.350  1.00  0.00     0.167 HD
ATOM     68  C   UNL     1      -0.568   2.998  17.311  1.00  0.00     0.074 A 
ATOM     69  C   UNL     1      -1.552   3.846  17.962  1.00  0.00     0.031 C 
ATOM     70  C   UNL     1       0.187   2.074  17.955  1.00  0.00     0.037 A 
BRANCH  57  71
ATOM     71  C   UNL     1       4.269  -1.038  14.450  1.00  0.00     0.064 A 
ATOM     72  C   UNL     1       5.614  -0.730  14.188  1.00  0.00     0.173 A 
ATOM     73  C   UNL     1       3.920  -2.393  14.555  1.00  0.00     0.173 A 
ATOM     74  F   UNL     1       6.000   0.548  14.055  1.00  0.00    -0.203 F 
ATOM     75  C   UNL     1       6.559  -1.736  13.998  1.00  0.00     0.198 A 
ATOM     76  C   UNL     1       4.874  -3.396  14.396  1.00  0.00     0.198 A 
ATOM     77  F   UNL     1       2.649  -2.748  14.798  1.00  0.00    -0.203 F 
ATOM     78  F   UNL     1       7.822  -1.415  13.683  1.00  0.00    -0.200 F 
ATOM     79  C   UNL     1       6.190  -3.067  14.107  1.00  0.00     0.200 A 
ATOM     80  F   UNL     1       4.517  -4.683  14.508  1.00  0.00    -0.200 F 
ATOM     81  F   UNL     1       7.099  -4.034  13.921  1.00  0.00    -0.200 F 
ENDBRANCH  57  71
BRANCH  58  82
ATOM     82  C   UNL     1      -3.037   6.001  14.601  1.00  0.00     0.064 A 
ATOM     83  C   UNL     1      -2.879   7.250  15.216  1.00  0.00     0.173 A 
ATOM     84  C   UNL     1      -4.237   5.761  13.915  1.00  0.00     0.173 A 
ATOM     85  F   UNL     1      -1.749   7.527  15.884  1.00  0.00    -0.203 F 
ATOM     86  C   UNL     1      -3.881   8.216  15.158  1.00  0.00     0.198 A 
ATOM     87  C   UNL     1      -5.230   6.736  13.836  1.00  0.00     0.198 A 
ATOM     88  F   UNL     1      -4.429   4.591  13.287  1.00  0.00    -0.203 F 
ATOM     89  F   UNL     1      -3.710   9.393  15.773  1.00  0.00    -0.200 F 
ATOM     90  C   UNL     1      -5.053   7.961  14.461  1.00  0.00     0.200 A 
ATOM     91  F   UNL     1      -6.351   6.495  13.142  1.00  0.00    -0.200 F 
ATOM     92  F   UNL     1      -6.009   8.897  14.390  1.00  0.00    -0.200 F 
ENDBRANCH  58  82
BRANCH  70  93
ATOM     93  C   UNL     1      -0.023   1.969  19.432  1.00  0.00     0.064 A 
ATOM     94  C   UNL     1      -1.161   1.347  19.963  1.00  0.00     0.173 A 
ATOM     95  C   UNL     1       0.940   2.470  20.319  1.00  0.00     0.173 A 
ATOM     96  F   UNL     1      -2.113   0.870  19.147  1.00  0.00    -0.203 F 
ATOM     97  C   UNL     1      -1.342   1.256  21.338  1.00  0.00     0.198 A 
ATOM     98  C   UNL     1       0.768   2.353  21.693  1.00  0.00     0.198 A 
ATOM     99  F   UNL     1       2.046   3.067  19.850  1.00  0.00    -0.203 F 
ATOM    100  F   UNL     1      -2.459   0.703  21.829  1.00  0.00    -0.200 F 
ATOM    101  C   UNL     1      -0.375   1.753  22.201  1.00  0.00     0.200 A 
ATOM    102  F   UNL     1       1.706   2.824  22.526  1.00  0.00    -0.200 F 
ATOM    103  F   UNL     1      -0.550   1.662  23.526  1.00  0.00    -0.200 F 
ENDBRANCH  70  93
ENDBRANCH  44  45
ENDBRANCH  36  39
ENDBRANCH  34  35
ENDBRANCH  33  34
ENDBRANCH  32  33
ENDBRANCH   1  32
TORSDOF 16
