REMARK SMILES C[C@@H](Cc1ccco1)C(=O)NCCCCNC(=O)c1ccc(-c2c3nc(c(-c4c(F)c(F)c(F)c(F)c4F)c4ccc([nH]4)c(-c4c(F)c(F)c(F)c(F)c4F)c4nc(c(-c5c(F)c(F)c(F)c(F)c5F)c5ccc2[nH]5)C=C4)C=C3)cc1
REMARK SMILES IDX 13 1 12 2 11 3 9 4 10 5 2 7 1 8 3 9 4 10 5 11 8 12 6 13 7 14
REMARK SMILES IDX 14 15 15 16 16 17 17 18 18 20 19 21 20 22 81 23 21 24 80 25
REMARK SMILES IDX 22 26 23 27 24 28 74 29 25 30 79 31 73 32 75 33 26 34 78 35
REMARK SMILES IDX 72 36 71 37 27 39 59 40 39 41 58 42 40 43 43 44 57 45 76 46
REMARK SMILES IDX 41 47 42 48 56 50 77 51 44 52 28 53 29 54 37 55 30 56 31 57
REMARK SMILES IDX 35 58 38 59 32 60 33 61 36 62 34 63 60 64 61 65 69 66 62 67
REMARK SMILES IDX 63 68 67 69 70 70 64 71 65 72 68 73 66 74 45 75 46 76 54 77
REMARK SMILES IDX 47 78 48 79 52 80 55 81 49 82 50 83 53 84 51 85
REMARK H PARENT 11 6 16 19 75 38 43 49
REMARK Flexibility Score: inf
ROOT
ATOM      1  C   UNL     1      -1.990   1.927  -1.335  1.00  0.00     0.023 C 
ENDROOT
BRANCH   1   2
ATOM      2  C   UNL     1      -1.523   1.876   0.112  1.00  0.00     0.116 C 
BRANCH   2   3
ATOM      3  N   UNL     1      -1.804   0.629   0.781  1.00  0.00    -0.356 N 
ATOM      4  C   UNL     1      -0.954  -0.212   1.432  1.00  0.00     0.223 C 
ATOM      5  O   UNL     1      -1.466  -1.125   2.088  1.00  0.00    -0.275 OA
ATOM      6  H   UNL     1      -2.747   0.345   0.765  1.00  0.00     0.163 HD
BRANCH   4   7
ATOM      7  C   UNL     1       0.571  -0.092   1.356  1.00  0.00     0.083 C 
ATOM      8  C   UNL     1       1.121  -0.209  -0.064  1.00  0.00     0.018 C 
BRANCH   7   9
ATOM      9  C   UNL     1       1.196   0.988   2.255  1.00  0.00     0.088 C 
BRANCH   9  10
ATOM     10  C   UNL     1       1.218   2.392   1.758  1.00  0.00     0.104 A 
ATOM     11  C   UNL     1       1.809   3.034   0.686  1.00  0.00     0.045 A 
ATOM     12  O   UNL     1       0.525   3.300   2.507  1.00  0.00    -0.469 OA
ATOM     13  C   UNL     1       1.416   4.394   0.763  1.00  0.00     0.042 A 
ATOM     14  C   UNL     1       0.662   4.509   1.906  1.00  0.00     0.195 A 
ENDBRANCH   9  10
ENDBRANCH   7   9
ENDBRANCH   4   7
ENDBRANCH   2   3
ENDBRANCH   1   2
BRANCH   1  15
ATOM     15  C   UNL     1      -3.445   2.332  -1.536  1.00  0.00     0.023 C 
BRANCH  15  16
ATOM     16  C   UNL     1      -3.878   3.625  -0.852  1.00  0.00     0.116 C 
BRANCH  16  17
ATOM     17  N   UNL     1      -3.050   4.785  -1.156  1.00  0.00    -0.352 N 
ATOM     18  C   UNL     1      -3.445   6.094  -1.329  1.00  0.00     0.251 C 
ATOM     19  H   UNL     1      -2.085   4.612  -1.250  1.00  0.00     0.163 HD
ATOM     20  O   UNL     1      -2.631   6.965  -1.622  1.00  0.00    -0.269 OA
BRANCH  18  21
ATOM     21  C   UNL     1      -4.880   6.426  -1.214  1.00  0.00     0.039 A 
ATOM     22  C   UNL     1      -5.509   7.084  -2.274  1.00  0.00     0.014 A 
ATOM     23  C   UNL     1      -5.619   5.994  -0.110  1.00  0.00     0.014 A 
ATOM     24  C   UNL     1      -6.899   7.210  -2.276  1.00  0.00     0.010 A 
ATOM     25  C   UNL     1      -7.008   6.048  -0.152  1.00  0.00     0.010 A 
ATOM     26  C   UNL     1      -7.663   6.639  -1.244  1.00  0.00    -0.014 A 
BRANCH  26  27
ATOM     27  C   UNL     1      -9.147   6.614  -1.301  1.00  0.00     0.031 A 
ATOM     28  C   UNL     1      -9.955   7.322  -0.253  1.00  0.00     0.074 A 
ATOM     29  C   UNL     1      -9.765   5.872  -2.242  1.00  0.00     0.049 A 
ATOM     30  N   UNL     1     -11.252   7.336  -0.076  1.00  0.00    -0.248 NA
ATOM     31  C   UNL     1      -9.204   8.089   0.753  1.00  0.00     0.031 C 
ATOM     32  C   UNL     1      -9.093   5.083  -3.277  1.00  0.00     0.029 A 
ATOM     33  N   UNL     1     -11.100   5.648  -2.471  1.00  0.00    -0.354 N 
ATOM     34  C   UNL     1     -11.468   8.088   1.071  1.00  0.00     0.074 A 
ATOM     35  C   UNL     1     -10.168   8.474   1.575  1.00  0.00     0.031 C 
ATOM     36  C   UNL     1     -10.018   4.485  -4.045  1.00  0.00     0.029 A 
ATOM     37  C   UNL     1     -11.345   4.819  -3.539  1.00  0.00     0.049 A 
ATOM     38  H   UNL     1     -11.815   6.045  -1.923  1.00  0.00     0.167 HD
ATOM     39  C   UNL     1     -12.645   8.442   1.639  1.00  0.00     0.037 A 
ATOM     40  C   UNL     1     -12.510   4.376  -4.049  1.00  0.00     0.037 A 
ATOM     41  C   UNL     1     -13.937   8.095   1.113  1.00  0.00     0.049 A 
ATOM     42  C   UNL     1     -13.804   4.810  -3.416  1.00  0.00     0.074 A 
ATOM     43  C   UNL     1     -15.187   8.476   1.570  1.00  0.00     0.029 A 
ATOM     44  N   UNL     1     -14.146   7.286   0.006  1.00  0.00    -0.354 N 
ATOM     45  N   UNL     1     -13.997   5.584  -2.377  1.00  0.00    -0.248 NA
ATOM     46  C   UNL     1     -15.042   4.311  -4.032  1.00  0.00     0.031 C 
ATOM     47  C   UNL     1     -16.153   7.871   0.759  1.00  0.00     0.029 A 
ATOM     48  C   UNL     1     -15.504   7.143  -0.226  1.00  0.00     0.049 A 
ATOM     49  H   UNL     1     -13.434   6.873  -0.535  1.00  0.00     0.167 HD
ATOM     50  C   UNL     1     -15.373   5.689  -2.230  1.00  0.00     0.074 A 
ATOM     51  C   UNL     1     -15.968   4.907  -3.293  1.00  0.00     0.031 C 
ATOM     52  C   UNL     1     -16.079   6.371  -1.297  1.00  0.00     0.037 A 
BRANCH  39  53
ATOM     53  C   UNL     1     -12.585   9.260   2.895  1.00  0.00     0.064 A 
ATOM     54  C   UNL     1     -12.181  10.604   2.877  1.00  0.00     0.173 A 
ATOM     55  C   UNL     1     -12.961   8.702   4.126  1.00  0.00     0.173 A 
ATOM     56  F   UNL     1     -11.800  11.178   1.727  1.00  0.00    -0.203 F 
ATOM     57  C   UNL     1     -12.127  11.350   4.051  1.00  0.00     0.198 A 
ATOM     58  C   UNL     1     -12.932   9.460   5.293  1.00  0.00     0.198 A 
ATOM     59  F   UNL     1     -13.359   7.423   4.196  1.00  0.00    -0.203 F 
ATOM     60  F   UNL     1     -11.691  12.617   4.017  1.00  0.00    -0.200 F 
ATOM     61  C   UNL     1     -12.508  10.780   5.256  1.00  0.00     0.200 A 
ATOM     62  F   UNL     1     -13.310   8.912   6.457  1.00  0.00    -0.200 F 
ATOM     63  F   UNL     1     -12.459  11.502   6.385  1.00  0.00    -0.200 F 
ENDBRANCH  39  53
BRANCH  40  64
ATOM     64  C   UNL     1     -12.511   3.501  -5.250  1.00  0.00     0.064 A 
ATOM     65  C   UNL     1     -12.939   3.993  -6.491  1.00  0.00     0.173 A 
ATOM     66  C   UNL     1     -12.092   2.165  -5.186  1.00  0.00     0.173 A 
ATOM     67  F   UNL     1     -13.369   5.259  -6.596  1.00  0.00    -0.203 F 
ATOM     68  C   UNL     1     -12.965   3.176  -7.619  1.00  0.00     0.198 A 
ATOM     69  C   UNL     1     -12.096   1.356  -6.320  1.00  0.00     0.198 A 
ATOM     70  F   UNL     1     -11.669   1.649  -4.022  1.00  0.00    -0.203 F 
ATOM     71  F   UNL     1     -13.418   3.661  -8.784  1.00  0.00    -0.200 F 
ATOM     72  C   UNL     1     -12.540   1.860  -7.534  1.00  0.00     0.200 A 
ATOM     73  F   UNL     1     -11.674   0.087  -6.237  1.00  0.00    -0.200 F 
ATOM     74  F   UNL     1     -12.563   1.075  -8.619  1.00  0.00    -0.200 F 
ENDBRANCH  40  64
BRANCH  52  75
ATOM     75  C   UNL     1     -17.574   6.334  -1.404  1.00  0.00     0.064 A 
ATOM     76  C   UNL     1     -18.306   5.191  -1.050  1.00  0.00     0.173 A 
ATOM     77  C   UNL     1     -18.284   7.469  -1.824  1.00  0.00     0.173 A 
ATOM     78  F   UNL     1     -17.671   4.077  -0.658  1.00  0.00    -0.203 F 
ATOM     79  C   UNL     1     -19.696   5.181  -1.131  1.00  0.00     0.198 A 
ATOM     80  C   UNL     1     -19.674   7.463  -1.880  1.00  0.00     0.198 A 
ATOM     81  F   UNL     1     -17.627   8.587  -2.169  1.00  0.00    -0.203 F 
ATOM     82  F   UNL     1     -20.375   4.067  -0.825  1.00  0.00    -0.200 F 
ATOM     83  C   UNL     1     -20.379   6.318  -1.539  1.00  0.00     0.200 A 
ATOM     84  F   UNL     1     -20.332   8.565  -2.264  1.00  0.00    -0.200 F 
ATOM     85  F   UNL     1     -21.717   6.308  -1.609  1.00  0.00    -0.200 F 
ENDBRANCH  52  75
ENDBRANCH  26  27
ENDBRANCH  18  21
ENDBRANCH  16  17
ENDBRANCH  15  16
ENDBRANCH   1  15
TORSDOF 13
