REMARK SMILES C[C@H]1[C@@H](C(=O)NCCCCNC(=O)c2ccc(-c3c4nc(c(-c5c(F)c(F)c(F)c(F)c5F)c5ccc([nH]5)c(-c5c(F)c(F)c(F)c(F)c5F)c5nc(c(-c6c(F)c(F)c(F)c(F)c6F)c6ccc3[nH]6)C=C5)C=C4)cc2)CC[N@@H+]1CC(=O)NNc1ccccn1
REMARK SMILES IDX 7 1 6 2 4 3 5 4 3 6 1 7 2 8 79 9 77 10 78 11 80 13 81 14
REMARK SMILES IDX 82 15 83 16 84 18 85 20 86 21 90 22 87 23 89 24 88 25 8 26
REMARK SMILES IDX 9 27 10 28 11 29 12 30 13 32 14 33 15 34 76 35 16 36 75 37
REMARK SMILES IDX 17 38 18 39 19 40 69 41 20 42 74 43 68 44 70 45 21 46 73 47
REMARK SMILES IDX 67 48 66 49 22 51 54 52 34 53 53 54 35 55 38 56 52 57 71 58
REMARK SMILES IDX 36 59 37 60 51 62 72 63 39 64 23 65 24 66 32 67 25 68 26 69
REMARK SMILES IDX 30 70 33 71 27 72 28 73 31 74 29 75 55 76 56 77 64 78 57 79
REMARK SMILES IDX 58 80 62 81 65 82 59 83 60 84 63 85 61 86 40 87 41 88 49 89
REMARK SMILES IDX 42 90 43 91 47 92 50 93 44 94 45 95 48 96 46 97
REMARK H PARENT 6 5 79 12 83 17 84 19 11 31 70 50 38 61
REMARK Flexibility Score: inf
ROOT
ATOM      1  C   UNL     1       2.770   1.367  -1.152  1.00  0.00     0.116 C 
ENDROOT
BRANCH   1   2
ATOM      2  N   UNL     1       1.562   1.694  -1.874  1.00  0.00    -0.356 N 
ATOM      3  C   UNL     1       0.283   1.288  -1.640  1.00  0.00     0.229 C 
ATOM      4  O   UNL     1      -0.520   1.468  -2.558  1.00  0.00    -0.275 OA
ATOM      5  H   UNL     1       1.681   2.297  -2.643  1.00  0.00     0.163 HD
BRANCH   3   6
ATOM      6  C   UNL     1      -0.134   0.757  -0.268  1.00  0.00     0.142 C 
ATOM      7  C   UNL     1       1.035  -1.556  -0.773  1.00  0.00     0.076 C 
ATOM      8  C   UNL     1       0.387  -0.608   0.231  1.00  0.00     0.194 C 
ATOM      9  N   UNL     1      -0.775  -1.347   0.748  1.00  0.00    -0.324 N 
ATOM     10  C   UNL     1      -1.663   0.656  -0.144  1.00  0.00     0.081 C 
ATOM     11  C   UNL     1      -1.946  -0.820   0.057  1.00  0.00     0.263 C 
ATOM     12  H   UNL     1      -0.689  -2.341   0.535  1.00  0.00     0.348 HD
BRANCH   9  13
ATOM     13  C   UNL     1      -0.857  -1.436   2.214  1.00  0.00     0.365 C 
BRANCH  13  14
ATOM     14  C   UNL     1      -1.420  -0.206   2.921  1.00  0.00     0.293 C 
ATOM     15  O   UNL     1      -2.637  -0.039   3.053  1.00  0.00    -0.267 OA
ATOM     16  N   UNL     1      -0.572   0.735   3.441  1.00  0.00    -0.264 N 
ATOM     17  H   UNL     1      -0.970   1.507   3.905  1.00  0.00     0.191 HD
BRANCH  16  18
ATOM     18  N   UNL     1       0.820   0.672   3.356  1.00  0.00    -0.282 N 
ATOM     19  H   UNL     1       1.320  -0.172   3.279  1.00  0.00     0.190 HD
BRANCH  18  20
ATOM     20  C   UNL     1       1.439   1.938   3.392  1.00  0.00     0.144 A 
ATOM     21  C   UNL     1       1.455   2.661   4.587  1.00  0.00     0.048 A 
ATOM     22  N   UNL     1       1.986   2.426   2.260  1.00  0.00    -0.238 NA
ATOM     23  C   UNL     1       2.033   3.928   4.614  1.00  0.00     0.005 A 
ATOM     24  C   UNL     1       2.542   3.658   2.310  1.00  0.00     0.113 A 
ATOM     25  C   UNL     1       2.588   4.440   3.451  1.00  0.00     0.020 A 
ENDBRANCH  18  20
ENDBRANCH  16  18
ENDBRANCH  13  14
ENDBRANCH   9  13
ENDBRANCH   3   6
ENDBRANCH   1   2
BRANCH   1  26
ATOM     26  C   UNL     1       3.518   0.261  -1.900  1.00  0.00     0.023 C 
BRANCH  26  27
ATOM     27  C   UNL     1       4.319   0.725  -3.105  1.00  0.00     0.023 C 
BRANCH  27  28
ATOM     28  C   UNL     1       5.505   1.600  -2.758  1.00  0.00     0.116 C 
BRANCH  28  29
ATOM     29  N   UNL     1       6.458   0.952  -1.865  1.00  0.00    -0.352 N 
ATOM     30  C   UNL     1       7.819   0.804  -2.013  1.00  0.00     0.251 C 
ATOM     31  H   UNL     1       6.076   0.568  -1.042  1.00  0.00     0.163 HD
ATOM     32  O   UNL     1       8.472   0.133  -1.229  1.00  0.00    -0.269 OA
BRANCH  30  33
ATOM     33  C   UNL     1       8.467   1.448  -3.171  1.00  0.00     0.039 A 
ATOM     34  C   UNL     1       9.296   0.688  -3.998  1.00  0.00     0.014 A 
ATOM     35  C   UNL     1       8.156   2.770  -3.491  1.00  0.00     0.014 A 
ATOM     36  C   UNL     1       9.739   1.234  -5.203  1.00  0.00     0.010 A 
ATOM     37  C   UNL     1       8.495   3.263  -4.740  1.00  0.00     0.010 A 
ATOM     38  C   UNL     1       9.299   2.505  -5.606  1.00  0.00    -0.014 A 
BRANCH  38  39
ATOM     39  C   UNL     1       9.680   3.086  -6.916  1.00  0.00     0.031 A 
ATOM     40  C   UNL     1      10.434   4.387  -6.952  1.00  0.00     0.074 A 
ATOM     41  C   UNL     1       9.271   2.502  -8.058  1.00  0.00     0.049 A 
ATOM     42  N   UNL     1      10.758   5.130  -7.979  1.00  0.00    -0.248 NA
ATOM     43  C   UNL     1      10.832   4.955  -5.654  1.00  0.00     0.031 C 
ATOM     44  C   UNL     1       8.470   1.280  -8.150  1.00  0.00     0.029 A 
ATOM     45  N   UNL     1       9.465   2.869  -9.366  1.00  0.00    -0.354 N 
ATOM     46  C   UNL     1      11.360   6.261  -7.446  1.00  0.00     0.074 A 
ATOM     47  C   UNL     1      11.298   6.142  -6.008  1.00  0.00     0.031 C 
ATOM     48  C   UNL     1       8.270   0.980  -9.444  1.00  0.00     0.029 A 
ATOM     49  C   UNL     1       8.897   2.005 -10.271  1.00  0.00     0.049 A 
ATOM     50  H   UNL     1       9.963   3.675  -9.631  1.00  0.00     0.167 HD
ATOM     51  C   UNL     1      11.947   7.291  -8.099  1.00  0.00     0.037 A 
ATOM     52  C   UNL     1       8.889   2.041 -11.617  1.00  0.00     0.037 A 
ATOM     53  C   UNL     1      12.063   7.371  -9.529  1.00  0.00     0.049 A 
ATOM     54  C   UNL     1       9.594   3.170 -12.320  1.00  0.00     0.074 A 
ATOM     55  C   UNL     1      12.712   8.325 -10.291  1.00  0.00     0.029 A 
ATOM     56  N   UNL     1      11.525   6.446 -10.412  1.00  0.00    -0.354 N 
ATOM     57  N   UNL     1      10.225   4.198 -11.807  1.00  0.00    -0.248 NA
ATOM     58  C   UNL     1       9.592   3.139 -13.789  1.00  0.00     0.031 C 
ATOM     59  C   UNL     1      12.540   7.995 -11.639  1.00  0.00     0.029 A 
ATOM     60  C   UNL     1      11.819   6.813 -11.714  1.00  0.00     0.049 A 
ATOM     61  H   UNL     1      11.011   5.648 -10.152  1.00  0.00     0.167 HD
ATOM     62  C   UNL     1      10.717   4.920 -12.885  1.00  0.00     0.074 A 
ATOM     63  C   UNL     1      10.323   4.205 -14.081  1.00  0.00     0.031 C 
ATOM     64  C   UNL     1      11.427   6.075 -12.887  1.00  0.00     0.037 A 
BRANCH  51  65
ATOM     65  C   UNL     1      12.524   8.398  -7.266  1.00  0.00     0.064 A 
ATOM     66  C   UNL     1      13.662   8.200  -6.467  1.00  0.00     0.173 A 
ATOM     67  C   UNL     1      11.940   9.673  -7.271  1.00  0.00     0.173 A 
ATOM     68  F   UNL     1      14.247   6.994  -6.413  1.00  0.00    -0.203 F 
ATOM     69  C   UNL     1      14.171   9.227  -5.678  1.00  0.00     0.198 A 
ATOM     70  C   UNL     1      12.472  10.707  -6.505  1.00  0.00     0.198 A 
ATOM     71  F   UNL     1      10.853   9.916  -8.017  1.00  0.00    -0.203 F 
ATOM     72  F   UNL     1      15.221   8.996  -4.877  1.00  0.00    -0.200 F 
ATOM     73  C   UNL     1      13.580  10.481  -5.702  1.00  0.00     0.200 A 
ATOM     74  F   UNL     1      11.906  11.921  -6.537  1.00  0.00    -0.200 F 
ATOM     75  F   UNL     1      14.073  11.470  -4.943  1.00  0.00    -0.200 F 
ENDBRANCH  51  65
BRANCH  52  76
ATOM     76  C   UNL     1       8.232   0.953 -12.388  1.00  0.00     0.064 A 
ATOM     77  C   UNL     1       8.998   0.025 -13.108  1.00  0.00     0.173 A 
ATOM     78  C   UNL     1       6.838   0.817 -12.425  1.00  0.00     0.173 A 
ATOM     79  F   UNL     1      10.335   0.126 -13.119  1.00  0.00    -0.203 F 
ATOM     80  C   UNL     1       8.392  -0.985 -13.853  1.00  0.00     0.198 A 
ATOM     81  C   UNL     1       6.234  -0.209 -13.150  1.00  0.00     0.198 A 
ATOM     82  F   UNL     1       6.061   1.676 -11.748  1.00  0.00    -0.203 F 
ATOM     83  F   UNL     1       9.147  -1.832 -14.567  1.00  0.00    -0.200 F 
ATOM     84  C   UNL     1       7.011  -1.104 -13.870  1.00  0.00     0.200 A 
ATOM     85  F   UNL     1       4.899  -0.328 -13.154  1.00  0.00    -0.200 F 
ATOM     86  F   UNL     1       6.429  -2.076 -14.585  1.00  0.00    -0.200 F 
ENDBRANCH  52  76
BRANCH  64  87
ATOM     87  C   UNL     1      11.854   6.615 -14.218  1.00  0.00     0.064 A 
ATOM     88  C   UNL     1      10.940   7.223 -15.090  1.00  0.00     0.173 A 
ATOM     89  C   UNL     1      13.203   6.569 -14.602  1.00  0.00     0.173 A 
ATOM     90  F   UNL     1       9.637   7.277 -14.771  1.00  0.00    -0.203 F 
ATOM     91  C   UNL     1      11.357   7.747 -16.310  1.00  0.00     0.198 A 
ATOM     92  C   UNL     1      13.621   7.118 -15.810  1.00  0.00     0.198 A 
ATOM     93  F   UNL     1      14.116   6.004 -13.798  1.00  0.00    -0.203 F 
ATOM     94  F   UNL     1      10.461   8.287 -17.146  1.00  0.00    -0.200 F 
ATOM     95  C   UNL     1      12.697   7.701 -16.665  1.00  0.00     0.200 A 
ATOM     96  F   UNL     1      14.918   7.086 -16.146  1.00  0.00    -0.200 F 
ATOM     97  F   UNL     1      13.099   8.215 -17.836  1.00  0.00    -0.200 F 
ENDBRANCH  64  87
ENDBRANCH  38  39
ENDBRANCH  30  33
ENDBRANCH  28  29
ENDBRANCH  27  28
ENDBRANCH  26  27
ENDBRANCH   1  26
TORSDOF 15
