REMARK SMILES O=C(NCCCCNC(=O)[C@H]1C[C@H](O)CN1C(=O)CS[C@H]1CCS(=O)(=O)C1)c1ccc(-c2c3nc(c(-c4c(F)c(F)c(F)c(F)c4F)c4ccc([nH]4)c(-c4c(F)c(F)c(F)c(F)c4F)c4nc(c(-c5c(F)c(F)c(F)c(F)c5F)c5ccc2[nH]5)C=C4)C=C3)cc1
REMARK SMILES IDX 6 1 5 2 4 3 3 4 1 5 2 6 28 8 29 9 90 10 30 11 89 12 31 13
REMARK SMILES IDX 32 14 33 15 83 16 34 17 88 18 82 19 84 20 35 21 87 22 81 23
REMARK SMILES IDX 80 24 36 26 68 27 48 28 67 29 49 30 52 31 66 32 85 33 50 34
REMARK SMILES IDX 51 35 65 37 86 38 53 39 37 40 38 41 46 42 39 43 40 44 44 45
REMARK SMILES IDX 47 46 41 47 42 48 45 49 43 50 69 51 70 52 78 53 71 54 72 55
REMARK SMILES IDX 76 56 79 57 73 58 74 59 77 60 75 61 54 62 55 63 63 64 56 65
REMARK SMILES IDX 57 66 61 67 64 68 58 69 59 70 62 71 60 72 7 73 8 74 9 75
REMARK SMILES IDX 10 77 11 78 12 79 16 80 13 81 15 82 17 83 18 84 19 85 20 86
REMARK SMILES IDX 21 87 22 88 27 89 23 90 24 91 25 92 26 93 14 94
REMARK H PARENT 3 7 84 25 52 36 8 76 14 95
REMARK Flexibility Score: inf
ROOT
ATOM      1  C   UNL     1       1.158  -4.303  -0.220  1.00  0.00     0.023 C 
ENDROOT
BRANCH   1   2
ATOM      2  C   UNL     1       1.324  -4.039   1.270  1.00  0.00     0.023 C 
BRANCH   2   3
ATOM      3  C   UNL     1       0.828  -2.678   1.721  1.00  0.00     0.116 C 
BRANCH   3   4
ATOM      4  N   UNL     1      -0.611  -2.515   1.564  1.00  0.00    -0.352 N 
ATOM      5  O   UNL     1      -2.750  -2.248   2.253  1.00  0.00    -0.269 OA
ATOM      6  C   UNL     1      -1.554  -2.208   2.518  1.00  0.00     0.251 C 
ATOM      7  H   UNL     1      -0.956  -2.642   0.651  1.00  0.00     0.163 HD
BRANCH   6   8
ATOM      8  C   UNL     1      -1.105  -1.864   3.883  1.00  0.00     0.039 A 
ATOM      9  C   UNL     1      -0.025  -1.001   4.066  1.00  0.00     0.014 A 
ATOM     10  C   UNL     1      -1.726  -2.459   4.983  1.00  0.00     0.014 A 
ATOM     11  C   UNL     1       0.563  -0.899   5.316  1.00  0.00     0.010 A 
ATOM     12  C   UNL     1      -1.209  -2.247   6.264  1.00  0.00     0.010 A 
ATOM     13  C   UNL     1      -0.032  -1.502   6.436  1.00  0.00    -0.014 A 
BRANCH  13  14
ATOM     14  C   UNL     1       0.573  -1.280   7.775  1.00  0.00     0.031 A 
ATOM     15  C   UNL     1       1.098  -2.422   8.601  1.00  0.00     0.074 A 
ATOM     16  C   UNL     1       0.685  -0.014   8.222  1.00  0.00     0.049 A 
ATOM     17  N   UNL     1       1.688  -2.389   9.771  1.00  0.00    -0.248 NA
ATOM     18  C   UNL     1       0.931  -3.776   8.054  1.00  0.00     0.031 C 
ATOM     19  C   UNL     1       0.206   1.173   7.509  1.00  0.00     0.029 A 
ATOM     20  N   UNL     1       1.256   0.492   9.360  1.00  0.00    -0.354 N 
ATOM     21  C   UNL     1       1.939  -3.713  10.111  1.00  0.00     0.074 A 
ATOM     22  C   UNL     1       1.411  -4.527   9.036  1.00  0.00     0.031 C 
ATOM     23  C   UNL     1       0.563   2.270   8.189  1.00  0.00     0.029 A 
ATOM     24  C   UNL     1       1.218   1.863   9.425  1.00  0.00     0.049 A 
ATOM     25  H   UNL     1       1.654  -0.071  10.062  1.00  0.00     0.167 HD
ATOM     26  C   UNL     1       2.557  -4.199  11.215  1.00  0.00     0.037 A 
ATOM     27  C   UNL     1       1.645   2.704  10.383  1.00  0.00     0.037 A 
ATOM     28  C   UNL     1       3.090  -3.375  12.273  1.00  0.00     0.049 A 
ATOM     29  C   UNL     1       2.289   2.132  11.613  1.00  0.00     0.074 A 
ATOM     30  C   UNL     1       3.774  -3.767  13.411  1.00  0.00     0.029 A 
ATOM     31  N   UNL     1       2.988  -1.991  12.329  1.00  0.00    -0.354 N 
ATOM     32  N   UNL     1       2.560   0.883  11.902  1.00  0.00    -0.248 NA
ATOM     33  C   UNL     1       2.684   3.091  12.651  1.00  0.00     0.031 C 
ATOM     34  C   UNL     1       4.023  -2.630  14.188  1.00  0.00     0.029 A 
ATOM     35  C   UNL     1       3.564  -1.519  13.500  1.00  0.00     0.049 A 
ATOM     36  H   UNL     1       2.569  -1.428  11.639  1.00  0.00     0.167 HD
ATOM     37  C   UNL     1       3.184   0.907  13.140  1.00  0.00     0.074 A 
ATOM     38  C   UNL     1       3.269   2.298  13.536  1.00  0.00     0.031 C 
ATOM     39  C   UNL     1       3.646  -0.131  13.882  1.00  0.00     0.037 A 
BRANCH  26  40
ATOM     40  C   UNL     1       2.662  -5.693  11.360  1.00  0.00     0.064 A 
ATOM     41  C   UNL     1       3.478  -6.469  10.522  1.00  0.00     0.173 A 
ATOM     42  C   UNL     1       1.961  -6.355  12.380  1.00  0.00     0.173 A 
ATOM     43  F   UNL     1       4.167  -5.892   9.526  1.00  0.00    -0.203 F 
ATOM     44  C   UNL     1       3.558  -7.852  10.677  1.00  0.00     0.198 A 
ATOM     45  C   UNL     1       2.071  -7.733  12.555  1.00  0.00     0.198 A 
ATOM     46  F   UNL     1       1.174  -5.665  13.219  1.00  0.00    -0.203 F 
ATOM     47  F   UNL     1       4.300  -8.577   9.829  1.00  0.00    -0.200 F 
ATOM     48  C   UNL     1       2.861  -8.481  11.697  1.00  0.00     0.200 A 
ATOM     49  F   UNL     1       1.411  -8.335  13.553  1.00  0.00    -0.200 F 
ATOM     50  F   UNL     1       2.945  -9.810  11.848  1.00  0.00    -0.200 F 
ENDBRANCH  26  40
BRANCH  27  51
ATOM     51  C   UNL     1       1.476   4.170  10.213  1.00  0.00     0.064 A 
ATOM     52  C   UNL     1       2.588   5.011  10.070  1.00  0.00     0.173 A 
ATOM     53  C   UNL     1       0.203   4.761  10.184  1.00  0.00     0.173 A 
ATOM     54  F   UNL     1       3.826   4.496  10.106  1.00  0.00    -0.203 F 
ATOM     55  C   UNL     1       2.434   6.388   9.929  1.00  0.00     0.198 A 
ATOM     56  C   UNL     1       0.050   6.133  10.006  1.00  0.00     0.198 A 
ATOM     57  F   UNL     1      -0.894   3.999  10.306  1.00  0.00    -0.203 F 
ATOM     58  F   UNL     1       3.516   7.175   9.847  1.00  0.00    -0.200 F 
ATOM     59  C   UNL     1       1.166   6.947   9.890  1.00  0.00     0.200 A 
ATOM     60  F   UNL     1      -1.178   6.665   9.946  1.00  0.00    -0.200 F 
ATOM     61  F   UNL     1       1.019   8.271   9.748  1.00  0.00    -0.200 F 
ENDBRANCH  27  51
BRANCH  39  62
ATOM     62  C   UNL     1       4.330   0.208  15.176  1.00  0.00     0.064 A 
ATOM     63  C   UNL     1       3.630   0.735  16.272  1.00  0.00     0.173 A 
ATOM     64  C   UNL     1       5.709  -0.008  15.323  1.00  0.00     0.173 A 
ATOM     65  F   UNL     1       2.313   0.977  16.179  1.00  0.00    -0.203 F 
ATOM     66  C   UNL     1       4.291   1.070  17.451  1.00  0.00     0.198 A 
ATOM     67  C   UNL     1       6.360   0.291  16.517  1.00  0.00     0.198 A 
ATOM     68  F   UNL     1       6.427  -0.514  14.310  1.00  0.00    -0.203 F 
ATOM     69  F   UNL     1       3.613   1.635  18.459  1.00  0.00    -0.200 F 
ATOM     70  C   UNL     1       5.653   0.841  17.575  1.00  0.00     0.200 A 
ATOM     71  F   UNL     1       7.673   0.054  16.640  1.00  0.00    -0.200 F 
ATOM     72  F   UNL     1       6.287   1.162  18.711  1.00  0.00    -0.200 F 
ENDBRANCH  39  62
ENDBRANCH  13  14
ENDBRANCH   6   8
ENDBRANCH   3   4
ENDBRANCH   2   3
ENDBRANCH   1   2
BRANCH   1  73
ATOM     73  C   UNL     1       1.785  -3.246  -1.129  1.00  0.00     0.116 C 
BRANCH  73  74
ATOM     74  N   UNL     1       3.216  -3.095  -0.906  1.00  0.00    -0.354 N 
ATOM     75  C   UNL     1       4.267  -3.361  -1.738  1.00  0.00     0.242 C 
ATOM     76  H   UNL     1       3.465  -2.748  -0.019  1.00  0.00     0.163 HD
ATOM     77  O   UNL     1       5.412  -3.263  -1.288  1.00  0.00    -0.273 OA
BRANCH  75  78
ATOM     78  C   UNL     1       4.005  -3.794  -3.184  1.00  0.00     0.177 C 
ATOM     79  C   UNL     1       4.791  -2.941  -4.174  1.00  0.00     0.069 C 
ATOM     80  N   UNL     1       4.440  -5.167  -3.444  1.00  0.00    -0.327 N 
ATOM     81  C   UNL     1       6.063  -3.736  -4.448  1.00  0.00     0.136 C 
ATOM     82  C   UNL     1       5.678  -5.196  -4.205  1.00  0.00     0.152 C 
BRANCH  80  83
ATOM     83  C   UNL     1       3.636  -6.228  -3.087  1.00  0.00     0.233 C 
ATOM     84  O   UNL     1       2.603  -6.043  -2.441  1.00  0.00    -0.274 OA
BRANCH  83  85
ATOM     85  C   UNL     1       3.970  -7.614  -3.613  1.00  0.00     0.169 C 
BRANCH  85  86
ATOM     86  S   UNL     1       2.689  -8.159  -4.829  1.00  0.00    -0.148 SA
BRANCH  86  87
ATOM     87  C   UNL     1       3.000  -6.984  -6.180  1.00  0.00     0.063 C 
ATOM     88  C   UNL     1       2.448  -7.457  -7.532  1.00  0.00     0.031 C 
ATOM     89  C   UNL     1       2.339  -5.625  -5.997  1.00  0.00     0.151 C 
ATOM     90  C   UNL     1       2.691  -6.301  -8.516  1.00  0.00     0.138 C 
ATOM     91  S   UNL     1       2.737  -4.813  -7.520  1.00  0.00     0.151 S 
ATOM     92  O   UNL     1       4.109  -4.353  -7.405  1.00  0.00    -0.229 OA
ATOM     93  O   UNL     1       1.651  -3.926  -7.879  1.00  0.00    -0.229 OA
ENDBRANCH  86  87
ENDBRANCH  85  86
ENDBRANCH  83  85
ENDBRANCH  80  83
BRANCH  81  94
ATOM     94  O   UNL     1       6.499  -3.526  -5.786  1.00  0.00    -0.391 OA
ATOM     95  H   UNL     1       5.794  -3.783  -6.400  1.00  0.00     0.211 HD
ENDBRANCH  81  94
ENDBRANCH  75  78
ENDBRANCH  73  74
ENDBRANCH   1  73
TORSDOF 16
