REMARK SMILES O=C(NCCCCNC(=O)c1cccnc1SCC(=O)c1ccccc1Cl)c1ccc(-c2c3nc(c(-c4c(F)c(F)c(F)c(F)c4F)c4ccc([nH]4)c(-c4c(F)c(F)c(F)c(F)c4F)c4nc(c(-c5c(F)c(F)c(F)c(F)c5F)c5ccc2[nH]5)C=C4)C=C3)cc1
REMARK SMILES IDX 6 1 5 2 4 3 3 4 1 5 2 6 28 8 29 9 90 10 30 11 89 12 31 13
REMARK SMILES IDX 32 14 33 15 83 16 34 17 88 18 82 19 84 20 35 21 87 22 81 23
REMARK SMILES IDX 80 24 36 26 68 27 48 28 67 29 49 30 52 31 66 32 85 33 50 34
REMARK SMILES IDX 51 35 65 37 86 38 53 39 37 40 38 41 46 42 39 43 40 44 44 45
REMARK SMILES IDX 47 46 41 47 42 48 45 49 43 50 69 51 70 52 78 53 71 54 72 55
REMARK SMILES IDX 76 56 79 57 73 58 74 59 77 60 75 61 54 62 55 63 63 64 56 65
REMARK SMILES IDX 57 66 61 67 64 68 58 69 59 70 62 71 60 72 7 73 8 74 9 75
REMARK SMILES IDX 10 77 11 78 12 79 16 80 13 81 15 82 14 83 17 84 18 85 19 86
REMARK SMILES IDX 20 87 21 88 22 89 26 90 23 91 25 92 27 93 24 94
REMARK H PARENT 3 7 84 25 52 36 8 76
REMARK Flexibility Score: inf
ROOT
ATOM      1  C   UNL     1       4.363  -3.094  -2.226  1.00  0.00     0.023 C 
ENDROOT
BRANCH   1   2
ATOM      2  C   UNL     1       4.871  -2.381  -0.976  1.00  0.00     0.023 C 
BRANCH   2   3
ATOM      3  C   UNL     1       4.534  -0.901  -0.863  1.00  0.00     0.116 C 
BRANCH   3   4
ATOM      4  N   UNL     1       3.107  -0.621  -0.832  1.00  0.00    -0.352 N 
ATOM      5  O   UNL     1       1.154   0.171  -0.018  1.00  0.00    -0.269 OA
ATOM      6  C   UNL     1       2.375   0.102   0.083  1.00  0.00     0.251 C 
ATOM      7  H   UNL     1       2.588  -1.004  -1.575  1.00  0.00     0.163 HD
BRANCH   6   8
ATOM      8  C   UNL     1       3.058   0.756   1.221  1.00  0.00     0.039 A 
ATOM      9  C   UNL     1       4.228   1.490   1.029  1.00  0.00     0.014 A 
ATOM     10  C   UNL     1       2.532   0.600   2.507  1.00  0.00     0.014 A 
ATOM     11  C   UNL     1       4.969   1.903   2.130  1.00  0.00     0.010 A 
ATOM     12  C   UNL     1       3.229   1.104   3.609  1.00  0.00     0.010 A 
ATOM     13  C   UNL     1       4.480   1.714   3.434  1.00  0.00    -0.014 A 
BRANCH  13  14
ATOM     14  C   UNL     1       5.288   2.189   4.587  1.00  0.00     0.031 A 
ATOM     15  C   UNL     1       5.849   1.225   5.597  1.00  0.00     0.074 A 
ATOM     16  C   UNL     1       5.558   3.505   4.689  1.00  0.00     0.049 A 
ATOM     17  N   UNL     1       6.617   1.467   6.631  1.00  0.00    -0.248 NA
ATOM     18  C   UNL     1       5.495  -0.193   5.437  1.00  0.00     0.031 C 
ATOM     19  C   UNL     1       5.061   4.537   3.777  1.00  0.00     0.029 A 
ATOM     20  N   UNL     1       6.336   4.196   5.582  1.00  0.00    -0.354 N 
ATOM     21  C   UNL     1       6.815   0.243   7.257  1.00  0.00     0.074 A 
ATOM     22  C   UNL     1       6.069  -0.740   6.500  1.00  0.00     0.031 C 
ATOM     23  C   UNL     1       5.597   5.718   4.117  1.00  0.00     0.029 A 
ATOM     24  C   UNL     1       6.423   5.538   5.305  1.00  0.00     0.049 A 
ATOM     25  H   UNL     1       6.788   3.772   6.346  1.00  0.00     0.167 HD
ATOM     26  C   UNL     1       7.558  -0.034   8.357  1.00  0.00     0.037 A 
ATOM     27  C   UNL     1       7.091   6.519   5.939  1.00  0.00     0.037 A 
ATOM     28  C   UNL     1       8.326   0.942   9.087  1.00  0.00     0.049 A 
ATOM     29  C   UNL     1       7.904   6.181   7.155  1.00  0.00     0.074 A 
ATOM     30  C   UNL     1       9.151   0.749  10.182  1.00  0.00     0.029 A 
ATOM     31  N   UNL     1       8.361   2.298   8.796  1.00  0.00    -0.354 N 
ATOM     32  N   UNL     1       8.113   5.014   7.712  1.00  0.00    -0.248 NA
ATOM     33  C   UNL     1       8.569   7.301   7.833  1.00  0.00     0.031 C 
ATOM     34  C   UNL     1       9.649   1.994  10.581  1.00  0.00     0.029 A 
ATOM     35  C   UNL     1       9.174   2.957   9.706  1.00  0.00     0.049 A 
ATOM     36  H   UNL     1       7.879   2.729   8.054  1.00  0.00     0.167 HD
ATOM     37  C   UNL     1       8.947   5.253   8.793  1.00  0.00     0.074 A 
ATOM     38  C   UNL     1       9.223   6.676   8.802  1.00  0.00     0.031 C 
ATOM     39  C   UNL     1       9.439   4.373   9.700  1.00  0.00     0.037 A 
BRANCH  26  40
ATOM     40  C   UNL     1       7.563  -1.451   8.857  1.00  0.00     0.064 A 
ATOM     41  C   UNL     1       8.232  -2.477   8.174  1.00  0.00     0.173 A 
ATOM     42  C   UNL     1       6.926  -1.776  10.066  1.00  0.00     0.173 A 
ATOM     43  F   UNL     1       8.848  -2.223   7.010  1.00  0.00    -0.203 F 
ATOM     44  C   UNL     1       8.243  -3.780   8.668  1.00  0.00     0.198 A 
ATOM     45  C   UNL     1       6.962  -3.073  10.571  1.00  0.00     0.198 A 
ATOM     46  F   UNL     1       6.279  -0.832  10.764  1.00  0.00    -0.203 F 
ATOM     47  F   UNL     1       8.853  -4.752   7.977  1.00  0.00    -0.200 F 
ATOM     48  C   UNL     1       7.614  -4.075   9.869  1.00  0.00     0.200 A 
ATOM     49  F   UNL     1       6.365  -3.354  11.738  1.00  0.00    -0.200 F 
ATOM     50  F   UNL     1       7.632  -5.327  10.346  1.00  0.00    -0.200 F 
ENDBRANCH  26  40
BRANCH  27  51
ATOM     51  C   UNL     1       7.028   7.908   5.418  1.00  0.00     0.064 A 
ATOM     52  C   UNL     1       8.152   8.511   4.840  1.00  0.00     0.173 A 
ATOM     53  C   UNL     1       5.841   8.653   5.472  1.00  0.00     0.173 A 
ATOM     54  F   UNL     1       9.315   7.845   4.783  1.00  0.00    -0.203 F 
ATOM     55  C   UNL     1       8.095   9.812   4.344  1.00  0.00     0.198 A 
ATOM     56  C   UNL     1       5.777   9.942   4.950  1.00  0.00     0.198 A 
ATOM     57  F   UNL     1       4.736   8.118   6.012  1.00  0.00    -0.203 F 
ATOM     58  F   UNL     1       9.195  10.379   3.829  1.00  0.00    -0.200 F 
ATOM     59  C   UNL     1       6.906  10.523   4.392  1.00  0.00     0.200 A 
ATOM     60  F   UNL     1       4.621  10.620   4.983  1.00  0.00    -0.200 F 
ATOM     61  F   UNL     1       6.849  11.770   3.906  1.00  0.00    -0.200 F 
ENDBRANCH  27  51
BRANCH  39  62
ATOM     62  C   UNL     1      10.350   4.925  10.757  1.00  0.00     0.064 A 
ATOM     63  C   UNL     1       9.863   5.719  11.805  1.00  0.00     0.173 A 
ATOM     64  C   UNL     1      11.724   4.645  10.726  1.00  0.00     0.173 A 
ATOM     65  F   UNL     1       8.559   6.030  11.868  1.00  0.00    -0.203 F 
ATOM     66  C   UNL     1      10.724   6.239  12.768  1.00  0.00     0.198 A 
ATOM     67  C   UNL     1      12.578   5.142  11.707  1.00  0.00     0.198 A 
ATOM     68  F   UNL     1      12.239   3.887   9.746  1.00  0.00    -0.203 F 
ATOM     69  F   UNL     1      10.245   7.039  13.730  1.00  0.00    -0.200 F 
ATOM     70  C   UNL     1      12.079   5.946  12.721  1.00  0.00     0.200 A 
ATOM     71  F   UNL     1      13.885   4.850  11.665  1.00  0.00    -0.200 F 
ATOM     72  F   UNL     1      12.906   6.447  13.648  1.00  0.00    -0.200 F 
ENDBRANCH  39  62
ENDBRANCH  13  14
ENDBRANCH   6   8
ENDBRANCH   3   4
ENDBRANCH   2   3
ENDBRANCH   1   2
BRANCH   1  73
ATOM     73  C   UNL     1       4.598  -2.370  -3.544  1.00  0.00     0.116 C 
BRANCH  73  74
ATOM     74  N   UNL     1       5.974  -1.961  -3.765  1.00  0.00    -0.352 N 
ATOM     75  C   UNL     1       6.653  -2.015  -4.955  1.00  0.00     0.254 C 
ATOM     76  H   UNL     1       6.465  -1.611  -2.987  1.00  0.00     0.163 HD
ATOM     77  O   UNL     1       7.539  -1.219  -5.229  1.00  0.00    -0.269 OA
BRANCH  75  78
ATOM     78  C   UNL     1       6.223  -2.958  -5.977  1.00  0.00     0.072 A 
ATOM     79  C   UNL     1       5.365  -2.441  -6.959  1.00  0.00     0.018 A 
ATOM     80  C   UNL     1       6.537  -4.311  -5.963  1.00  0.00     0.109 A 
ATOM     81  C   UNL     1       4.791  -3.297  -7.885  1.00  0.00     0.021 A 
ATOM     82  N   UNL     1       5.989  -5.142  -6.896  1.00  0.00    -0.249 NA
ATOM     83  C   UNL     1       5.136  -4.631  -7.817  1.00  0.00     0.112 A 
BRANCH  80  84
ATOM     84  S   UNL     1       7.278  -5.221  -4.630  1.00  0.00    -0.097 SA
BRANCH  84  85
ATOM     85  C   UNL     1       8.969  -4.687  -4.267  1.00  0.00     0.157 C 
BRANCH  85  86
ATOM     86  C   UNL     1       9.652  -3.492  -4.867  1.00  0.00     0.174 C 
ATOM     87  O   UNL     1       9.675  -2.447  -4.204  1.00  0.00    -0.293 OA
BRANCH  86  88
ATOM     88  C   UNL     1      10.579  -3.563  -6.053  1.00  0.00     0.037 A 
ATOM     89  C   UNL     1      11.583  -2.564  -6.083  1.00  0.00     0.013 A 
ATOM     90  C   UNL     1      10.572  -4.496  -7.096  1.00  0.00     0.051 A 
ATOM     91  C   UNL     1      12.528  -2.486  -7.111  1.00  0.00     0.001 A 
ATOM     92  C   UNL     1      11.512  -4.398  -8.142  1.00  0.00     0.021 A 
ATOM     93  Cl  UNL     1       9.479  -5.815  -7.226  1.00  0.00    -0.084 Cl
ATOM     94  C   UNL     1      12.485  -3.400  -8.151  1.00  0.00     0.002 A 
ENDBRANCH  86  88
ENDBRANCH  85  86
ENDBRANCH  84  85
ENDBRANCH  80  84
ENDBRANCH  75  78
ENDBRANCH  73  74
ENDBRANCH   1  73
TORSDOF 15
