REMARK SMILES C=C(C)COc1cc(/C=C/c2cc(C(=O)NCCCCNC(=O)c3ccc(-c4c5nc(c(-c6c(F)c(F)c(F)c(F)c6F)c6ccc([nH]6)c(-c6c(F)c(F)c(F)c(F)c6F)c6nc(c(-c7c(F)c(F)c(F)c(F)c7F)c7ccc4[nH]7)C=C6)C=C5)cc3)ncn2)ccc1OC
REMARK SMILES IDX 17 1 16 2 14 3 15 4 13 6 11 7 12 8 89 9 88 10 87 11 10 12
REMARK SMILES IDX 9 13 8 14 6 15 7 16 92 17 91 18 90 19 5 20 4 21 2 22 1 23
REMARK SMILES IDX 3 24 93 25 94 26 18 27 19 28 20 29 21 30 22 31 23 33 24 34
REMARK SMILES IDX 25 35 86 36 26 37 85 38 27 39 28 40 29 41 79 42 30 43 84 44
REMARK SMILES IDX 78 45 80 46 31 47 83 48 77 49 76 50 32 52 64 53 44 54 63 55
REMARK SMILES IDX 45 56 48 57 62 58 81 59 46 60 47 61 61 63 82 64 49 65 33 66
REMARK SMILES IDX 34 67 42 68 35 69 36 70 40 71 43 72 37 73 38 74 41 75 39 76
REMARK SMILES IDX 65 77 66 78 74 79 67 80 68 81 72 82 75 83 69 84 70 85 73 86
REMARK SMILES IDX 71 87 50 88 51 89 59 90 52 91 53 92 57 93 60 94 54 95 55 96
REMARK SMILES IDX 58 97 56 98
REMARK H PARENT 16 5 21 32 80 51 48 62
REMARK Flexibility Score: inf
ROOT
ATOM      1  C   UNL     1       4.213   5.142   7.612  1.00  0.00     0.116 C 
ENDROOT
BRANCH   1   2
ATOM      2  N   UNL     1       5.241   6.097   7.984  1.00  0.00    -0.351 N 
ATOM      3  C   UNL     1       5.809   7.168   7.324  1.00  0.00     0.270 C 
ATOM      4  O   UNL     1       6.665   7.802   7.943  1.00  0.00    -0.268 OA
ATOM      5  H   UNL     1       5.607   5.952   8.886  1.00  0.00     0.163 HD
BRANCH   3   6
ATOM      6  C   UNL     1       5.406   7.605   5.940  1.00  0.00     0.132 A 
ATOM      7  C   UNL     1       4.383   7.320   3.849  1.00  0.00     0.067 A 
ATOM      8  C   UNL     1       4.885   6.748   5.004  1.00  0.00     0.062 A 
ATOM      9  N   UNL     1       4.535   8.617   3.550  1.00  0.00    -0.237 NA
ATOM     10  C   UNL     1       5.155   9.353   4.486  1.00  0.00     0.223 A 
ATOM     11  N   UNL     1       5.573   8.921   5.683  1.00  0.00    -0.231 NA
BRANCH   7  12
ATOM     12  C   UNL     1       3.558   6.496   2.950  1.00  0.00     0.029 C 
ATOM     13  C   UNL     1       2.471   5.904   3.474  1.00  0.00     0.010 C 
BRANCH  13  14
ATOM     14  C   UNL     1       1.614   4.830   2.942  1.00  0.00    -0.022 A 
ATOM     15  C   UNL     1       1.169   2.874   1.541  1.00  0.00     0.162 A 
ATOM     16  C   UNL     1       1.882   4.068   1.796  1.00  0.00     0.058 A 
ATOM     17  C   UNL     1       0.197   2.430   2.448  1.00  0.00     0.160 A 
ATOM     18  C   UNL     1      -0.128   3.246   3.533  1.00  0.00     0.051 A 
ATOM     19  C   UNL     1       0.564   4.428   3.778  1.00  0.00     0.012 A 
BRANCH  15  20
ATOM     20  O   UNL     1       1.599   2.099   0.495  1.00  0.00    -0.485 OA
BRANCH  20  21
ATOM     21  C   UNL     1       1.008   2.453  -0.766  1.00  0.00     0.260 C 
BRANCH  21  22
ATOM     22  C   UNL     1       0.529   1.185  -1.452  1.00  0.00    -0.043 C 
ATOM     23  C   UNL     1       1.298   0.085  -1.554  1.00  0.00     0.011 C 
ATOM     24  C   UNL     1      -0.902   1.159  -1.915  1.00  0.00     0.042 C 
ENDBRANCH  21  22
ENDBRANCH  20  21
ENDBRANCH  15  20
BRANCH  17  25
ATOM     25  O   UNL     1      -0.509   1.264   2.493  1.00  0.00    -0.493 OA
ATOM     26  C   UNL     1      -0.182   0.203   1.619  1.00  0.00     0.278 C 
ENDBRANCH  17  25
ENDBRANCH  13  14
ENDBRANCH   7  12
ENDBRANCH   3   6
ENDBRANCH   1   2
BRANCH   1  27
ATOM     27  C   UNL     1       4.842   3.835   7.121  1.00  0.00     0.023 C 
BRANCH  27  28
ATOM     28  C   UNL     1       5.325   2.911   8.243  1.00  0.00     0.023 C 
BRANCH  28  29
ATOM     29  C   UNL     1       4.229   2.400   9.172  1.00  0.00     0.116 C 
BRANCH  29  30
ATOM     30  N   UNL     1       3.173   1.682   8.477  1.00  0.00    -0.352 N 
ATOM     31  C   UNL     1       2.430   0.609   8.909  1.00  0.00     0.251 C 
ATOM     32  H   UNL     1       2.962   2.009   7.572  1.00  0.00     0.163 HD
ATOM     33  O   UNL     1       1.653   0.051   8.148  1.00  0.00    -0.269 OA
BRANCH  31  34
ATOM     34  C   UNL     1       2.607   0.106  10.288  1.00  0.00     0.039 A 
ATOM     35  C   UNL     1       2.729  -1.271  10.484  1.00  0.00     0.014 A 
ATOM     36  C   UNL     1       2.662   0.981  11.376  1.00  0.00     0.014 A 
ATOM     37  C   UNL     1       2.962  -1.766  11.768  1.00  0.00     0.010 A 
ATOM     38  C   UNL     1       2.977   0.493  12.641  1.00  0.00     0.010 A 
ATOM     39  C   UNL     1       3.122  -0.885  12.852  1.00  0.00    -0.014 A 
BRANCH  39  40
ATOM     40  C   UNL     1       3.438  -1.404  14.206  1.00  0.00     0.031 A 
ATOM     41  C   UNL     1       2.469  -1.215  15.340  1.00  0.00     0.074 A 
ATOM     42  C   UNL     1       4.617  -2.020  14.420  1.00  0.00     0.049 A 
ATOM     43  N   UNL     1       2.564  -1.611  16.585  1.00  0.00    -0.248 NA
ATOM     44  C   UNL     1       1.242  -0.459  15.046  1.00  0.00     0.031 C 
ATOM     45  C   UNL     1       5.665  -2.209  13.415  1.00  0.00     0.029 A 
ATOM     46  N   UNL     1       5.132  -2.603  15.550  1.00  0.00    -0.354 N 
ATOM     47  C   UNL     1       1.417  -1.151  17.217  1.00  0.00     0.074 A 
ATOM     48  C   UNL     1       0.674  -0.387  16.240  1.00  0.00     0.031 C 
ATOM     49  C   UNL     1       6.678  -2.899  13.962  1.00  0.00     0.029 A 
ATOM     50  C   UNL     1       6.369  -3.169  15.362  1.00  0.00     0.049 A 
ATOM     51  H   UNL     1       4.659  -2.615  16.414  1.00  0.00     0.167 HD
ATOM     52  C   UNL     1       1.005  -1.371  18.489  1.00  0.00     0.037 A 
ATOM     53  C   UNL     1       7.162  -3.836  16.222  1.00  0.00     0.037 A 
ATOM     54  C   UNL     1       1.745  -2.141  19.455  1.00  0.00     0.049 A 
ATOM     55  C   UNL     1       6.682  -4.063  17.631  1.00  0.00     0.074 A 
ATOM     56  C   UNL     1       1.395  -2.463  20.755  1.00  0.00     0.029 A 
ATOM     57  N   UNL     1       2.991  -2.706  19.227  1.00  0.00    -0.354 N 
ATOM     58  N   UNL     1       5.559  -3.692  18.195  1.00  0.00    -0.248 NA
ATOM     59  C   UNL     1       7.578  -4.817  18.517  1.00  0.00     0.031 C 
ATOM     60  C   UNL     1       2.453  -3.174  21.330  1.00  0.00     0.029 A 
ATOM     61  C   UNL     1       3.434  -3.356  20.369  1.00  0.00     0.049 A 
ATOM     62  H   UNL     1       3.489  -2.654  18.379  1.00  0.00     0.167 HD
ATOM     63  C   UNL     1       5.596  -4.195  19.489  1.00  0.00     0.074 A 
ATOM     64  C   UNL     1       6.847  -4.915  19.617  1.00  0.00     0.031 C 
ATOM     65  C   UNL     1       4.679  -4.073  20.481  1.00  0.00     0.037 A 
BRANCH  52  66
ATOM     66  C   UNL     1      -0.308  -0.770  18.906  1.00  0.00     0.064 A 
ATOM     67  C   UNL     1      -1.527  -1.216  18.370  1.00  0.00     0.173 A 
ATOM     68  C   UNL     1      -0.354   0.245  19.874  1.00  0.00     0.173 A 
ATOM     69  F   UNL     1      -1.542  -2.176  17.433  1.00  0.00    -0.203 F 
ATOM     70  C   UNL     1      -2.736  -0.644  18.760  1.00  0.00     0.198 A 
ATOM     71  C   UNL     1      -1.567   0.790  20.288  1.00  0.00     0.198 A 
ATOM     72  F   UNL     1       0.779   0.707  20.424  1.00  0.00    -0.203 F 
ATOM     73  F   UNL     1      -3.880  -1.047  18.190  1.00  0.00    -0.200 F 
ATOM     74  C   UNL     1      -2.756   0.352  19.724  1.00  0.00     0.200 A 
ATOM     75  F   UNL     1      -1.586   1.742  21.230  1.00  0.00    -0.200 F 
ATOM     76  F   UNL     1      -3.920   0.896  20.103  1.00  0.00    -0.200 F 
ENDBRANCH  52  66
BRANCH  53  77
ATOM     77  C   UNL     1       8.471  -4.372  15.766  1.00  0.00     0.064 A 
ATOM     78  C   UNL     1       8.688  -5.754  15.663  1.00  0.00     0.173 A 
ATOM     79  C   UNL     1       9.534  -3.520  15.433  1.00  0.00     0.173 A 
ATOM     80  F   UNL     1       7.710  -6.612  15.987  1.00  0.00    -0.203 F 
ATOM     81  C   UNL     1       9.925  -6.262  15.271  1.00  0.00     0.198 A 
ATOM     82  C   UNL     1      10.760  -4.028  15.010  1.00  0.00     0.198 A 
ATOM     83  F   UNL     1       9.377  -2.190  15.507  1.00  0.00    -0.203 F 
ATOM     84  F   UNL     1      10.121  -7.587  15.233  1.00  0.00    -0.200 F 
ATOM     85  C   UNL     1      10.958  -5.399  14.939  1.00  0.00     0.200 A 
ATOM     86  F   UNL     1      11.750  -3.190  14.673  1.00  0.00    -0.200 F 
ATOM     87  F   UNL     1      12.147  -5.888  14.560  1.00  0.00    -0.200 F 
ENDBRANCH  53  77
BRANCH  65  88
ATOM     88  C   UNL     1       4.974  -4.776  21.777  1.00  0.00     0.064 A 
ATOM     89  C   UNL     1       6.010  -4.362  22.627  1.00  0.00     0.173 A 
ATOM     90  C   UNL     1       4.198  -5.875  22.177  1.00  0.00     0.173 A 
ATOM     91  F   UNL     1       6.791  -3.325  22.287  1.00  0.00    -0.203 F 
ATOM     92  C   UNL     1       6.286  -5.049  23.807  1.00  0.00     0.198 A 
ATOM     93  C   UNL     1       4.452  -6.535  23.376  1.00  0.00     0.198 A 
ATOM     94  F   UNL     1       3.187  -6.307  21.408  1.00  0.00    -0.203 F 
ATOM     95  F   UNL     1       7.325  -4.678  24.568  1.00  0.00    -0.200 F 
ATOM     96  C   UNL     1       5.504  -6.131  24.183  1.00  0.00     0.200 A 
ATOM     97  F   UNL     1       3.683  -7.569  23.746  1.00  0.00    -0.200 F 
ATOM     98  F   UNL     1       5.771  -6.791  25.318  1.00  0.00    -0.200 F 
ENDBRANCH  65  88
ENDBRANCH  39  40
ENDBRANCH  31  34
ENDBRANCH  29  30
ENDBRANCH  28  29
ENDBRANCH  27  28
ENDBRANCH   1  27
TORSDOF 17
