REMARK SMILES O=C(NCCCCNC(=O)[C@H](F)[C@H](O)C1CCOCC1)c1ccc(-c2c3nc(c(-c4c(F)c(F)c(F)c(F)c4F)c4ccc([nH]4)c(-c4c(F)c(F)c(F)c(F)c4F)c4nc(c(-c5c(F)c(F)c(F)c(F)c5F)c5ccc2[nH]5)C=C4)C=C3)cc1
REMARK SMILES IDX 5 1 4 2 3 3 1 4 2 5 21 7 22 8 83 9 23 10 82 11 24 12 25 13
REMARK SMILES IDX 26 14 76 15 27 16 81 17 75 18 77 19 28 20 80 21 74 22 73 23
REMARK SMILES IDX 29 25 61 26 41 27 60 28 42 29 45 30 59 31 78 32 43 33 44 34
REMARK SMILES IDX 58 36 79 37 46 38 30 39 31 40 39 41 32 42 33 43 37 44 40 45
REMARK SMILES IDX 34 46 35 47 38 48 36 49 62 50 63 51 71 52 64 53 65 54 69 55
REMARK SMILES IDX 72 56 66 57 67 58 70 59 68 60 47 61 48 62 56 63 49 64 50 65
REMARK SMILES IDX 54 66 57 67 51 68 52 69 55 70 53 71 6 72 7 73 8 74 9 75
REMARK SMILES IDX 10 77 11 78 12 79 13 80 15 81 16 82 20 83 17 84 19 85 18 86
REMARK SMILES IDX 14 87
REMARK H PARENT 3 6 77 24 45 35 8 76 14 88
REMARK Flexibility Score: inf
ROOT
ATOM      1  C   UNL     1       9.988   2.135   5.283  1.00  0.00     0.023 C 
ENDROOT
BRANCH   1   2
ATOM      2  C   UNL     1      11.151   1.373   4.670  1.00  0.00     0.116 C 
BRANCH   2   3
ATOM      3  N   UNL     1      11.085   1.317   3.216  1.00  0.00    -0.352 N 
ATOM      4  O   UNL     1      11.771   1.706   1.099  1.00  0.00    -0.269 OA
ATOM      5  C   UNL     1      12.039   1.674   2.296  1.00  0.00     0.251 C 
ATOM      6  H   UNL     1      10.241   0.977   2.842  1.00  0.00     0.163 HD
BRANCH   5   7
ATOM      7  C   UNL     1      13.389   2.044   2.763  1.00  0.00     0.039 A 
ATOM      8  C   UNL     1      14.040   1.262   3.720  1.00  0.00     0.014 A 
ATOM      9  C   UNL     1      13.998   3.193   2.254  1.00  0.00     0.014 A 
ATOM     10  C   UNL     1      15.233   1.706   4.274  1.00  0.00     0.010 A 
ATOM     11  C   UNL     1      15.243   3.589   2.746  1.00  0.00     0.010 A 
ATOM     12  C   UNL     1      15.857   2.862   3.778  1.00  0.00    -0.014 A 
BRANCH  12  13
ATOM     13  C   UNL     1      17.191   3.241   4.301  1.00  0.00     0.031 A 
ATOM     14  C   UNL     1      17.395   4.513   5.068  1.00  0.00     0.074 A 
ATOM     15  C   UNL     1      18.219   2.398   4.086  1.00  0.00     0.049 A 
ATOM     16  N   UNL     1      18.498   4.993   5.586  1.00  0.00    -0.248 NA
ATOM     17  C   UNL     1      16.214   5.364   5.280  1.00  0.00     0.031 C 
ATOM     18  C   UNL     1      18.130   1.138   3.344  1.00  0.00     0.029 A 
ATOM     19  N   UNL     1      19.530   2.461   4.479  1.00  0.00    -0.354 N 
ATOM     20  C   UNL     1      18.152   6.207   6.163  1.00  0.00     0.074 A 
ATOM     21  C   UNL     1      16.738   6.402   5.918  1.00  0.00     0.031 C 
ATOM     22  C   UNL     1      19.322   0.526   3.372  1.00  0.00     0.029 A 
ATOM     23  C   UNL     1      20.273   1.381   4.072  1.00  0.00     0.049 A 
ATOM     24  H   UNL     1      19.902   3.207   5.001  1.00  0.00     0.167 HD
ATOM     25  C   UNL     1      18.946   7.072   6.840  1.00  0.00     0.037 A 
ATOM     26  C   UNL     1      21.582   1.116   4.226  1.00  0.00     0.037 A 
ATOM     27  C   UNL     1      20.348   6.856   7.093  1.00  0.00     0.049 A 
ATOM     28  C   UNL     1      22.439   2.105   4.958  1.00  0.00     0.074 A 
ATOM     29  C   UNL     1      21.229   7.651   7.806  1.00  0.00     0.029 A 
ATOM     30  N   UNL     1      21.074   5.764   6.639  1.00  0.00    -0.354 N 
ATOM     31  N   UNL     1      22.094   3.236   5.524  1.00  0.00    -0.248 NA
ATOM     32  C   UNL     1      23.868   1.786   5.067  1.00  0.00     0.031 C 
ATOM     33  C   UNL     1      22.497   7.064   7.745  1.00  0.00     0.029 A 
ATOM     34  C   UNL     1      22.398   5.879   7.033  1.00  0.00     0.049 A 
ATOM     35  H   UNL     1      20.704   5.019   6.114  1.00  0.00     0.167 HD
ATOM     36  C   UNL     1      23.258   3.760   6.064  1.00  0.00     0.074 A 
ATOM     37  C   UNL     1      24.316   2.812   5.778  1.00  0.00     0.031 C 
ATOM     38  C   UNL     1      23.436   4.926   6.732  1.00  0.00     0.037 A 
BRANCH  25  39
ATOM     39  C   UNL     1      18.327   8.344   7.341  1.00  0.00     0.064 A 
ATOM     40  C   UNL     1      17.445   8.357   8.432  1.00  0.00     0.173 A 
ATOM     41  C   UNL     1      18.666   9.575   6.757  1.00  0.00     0.173 A 
ATOM     42  F   UNL     1      17.081   7.207   9.019  1.00  0.00    -0.203 F 
ATOM     43  C   UNL     1      16.912   9.553   8.908  1.00  0.00     0.198 A 
ATOM     44  C   UNL     1      18.150  10.771   7.251  1.00  0.00     0.198 A 
ATOM     45  F   UNL     1      19.510   9.620   5.715  1.00  0.00    -0.203 F 
ATOM     46  F   UNL     1      16.044   9.538   9.929  1.00  0.00    -0.200 F 
ATOM     47  C   UNL     1      17.270  10.758   8.323  1.00  0.00     0.200 A 
ATOM     48  F   UNL     1      18.506  11.935   6.692  1.00  0.00    -0.200 F 
ATOM     49  F   UNL     1      16.763  11.908   8.789  1.00  0.00    -0.200 F 
ENDBRANCH  25  39
BRANCH  26  50
ATOM     50  C   UNL     1      22.149  -0.133   3.659  1.00  0.00     0.064 A 
ATOM     51  C   UNL     1      22.582  -1.171   4.492  1.00  0.00     0.173 A 
ATOM     52  C   UNL     1      22.238  -0.325   2.272  1.00  0.00     0.173 A 
ATOM     53  F   UNL     1      22.532  -1.026   5.824  1.00  0.00    -0.203 F 
ATOM     54  C   UNL     1      23.093  -2.353   3.959  1.00  0.00     0.198 A 
ATOM     55  C   UNL     1      22.721  -1.518   1.740  1.00  0.00     0.198 A 
ATOM     56  F   UNL     1      21.828   0.637   1.432  1.00  0.00    -0.203 F 
ATOM     57  F   UNL     1      23.533  -3.318   4.778  1.00  0.00    -0.200 F 
ATOM     58  C   UNL     1      23.154  -2.528   2.585  1.00  0.00     0.200 A 
ATOM     59  F   UNL     1      22.760  -1.690   0.412  1.00  0.00    -0.200 F 
ATOM     60  F   UNL     1      23.634  -3.670   2.074  1.00  0.00    -0.200 F 
ENDBRANCH  26  50
BRANCH  38  61
ATOM     61  C   UNL     1      24.824   5.227   7.210  1.00  0.00     0.064 A 
ATOM     62  C   UNL     1      25.835   5.617   6.319  1.00  0.00     0.173 A 
ATOM     63  C   UNL     1      25.140   5.150   8.574  1.00  0.00     0.173 A 
ATOM     64  F   UNL     1      25.585   5.686   5.003  1.00  0.00    -0.203 F 
ATOM     65  C   UNL     1      27.119   5.897   6.776  1.00  0.00     0.198 A 
ATOM     66  C   UNL     1      26.418   5.457   9.030  1.00  0.00     0.198 A 
ATOM     67  F   UNL     1      24.206   4.784   9.465  1.00  0.00    -0.203 F 
ATOM     68  F   UNL     1      28.082   6.224   5.903  1.00  0.00    -0.200 F 
ATOM     69  C   UNL     1      27.408   5.824   8.131  1.00  0.00     0.200 A 
ATOM     70  F   UNL     1      26.694   5.394  10.341  1.00  0.00    -0.200 F 
ATOM     71  F   UNL     1      28.645   6.097   8.569  1.00  0.00    -0.200 F 
ENDBRANCH  38  61
ENDBRANCH  12  13
ENDBRANCH   5   7
ENDBRANCH   2   3
ENDBRANCH   1   2
BRANCH   1  72
ATOM     72  C   UNL     1       8.612   1.562   4.963  1.00  0.00     0.023 C 
BRANCH  72  73
ATOM     73  C   UNL     1       8.428   0.086   5.316  1.00  0.00     0.116 C 
BRANCH  73  74
ATOM     74  N   UNL     1       8.530  -0.158   6.743  1.00  0.00    -0.353 N 
ATOM     75  C   UNL     1       7.580  -0.639   7.601  1.00  0.00     0.257 C 
ATOM     76  H   UNL     1       9.402   0.052   7.149  1.00  0.00     0.163 HD
ATOM     77  O   UNL     1       7.871  -0.722   8.799  1.00  0.00    -0.272 OA
BRANCH  75  78
ATOM     78  C   UNL     1       6.196  -1.049   7.097  1.00  0.00     0.283 C 
ATOM     79  F   UNL     1       6.251  -1.662   5.871  1.00  0.00    -0.234 F 
BRANCH  78  80
ATOM     80  C   UNL     1       5.198   0.121   7.001  1.00  0.00     0.161 C 
BRANCH  80  81
ATOM     81  C   UNL     1       4.575   0.503   8.364  1.00  0.00     0.026 C 
ATOM     82  C   UNL     1       3.430  -0.469   8.701  1.00  0.00     0.035 C 
ATOM     83  C   UNL     1       4.054   1.951   8.387  1.00  0.00     0.035 C 
ATOM     84  C   UNL     1       2.654  -0.030   9.933  1.00  0.00     0.160 C 
ATOM     85  C   UNL     1       3.259   2.234   9.652  1.00  0.00     0.160 C 
ATOM     86  O   UNL     1       2.184   1.306   9.781  1.00  0.00    -0.381 OA
ENDBRANCH  80  81
BRANCH  80  87
ATOM     87  O   UNL     1       5.782   1.279   6.403  1.00  0.00    -0.389 OA
ATOM     88  H   UNL     1       6.496   1.611   6.970  1.00  0.00     0.211 HD
ENDBRANCH  80  87
ENDBRANCH  78  80
ENDBRANCH  75  78
ENDBRANCH  73  74
ENDBRANCH  72  73
ENDBRANCH   1  72
TORSDOF 14
