REMARK SMILES CCC([NH3+])(CC)C(=O)N(CCC(=O)NCCCCNC(=O)c1ccc(-c2c3nc(c(-c4c(F)c(F)c(F)c(F)c4F)c4ccc([nH]4)c(-c4c(F)c(F)c(F)c(F)c4F)c4nc(c(-c5c(F)c(F)c(F)c(F)c5F)c5ccc2[nH]5)C=C4)C=C3)cc1)C(C)C
REMARK SMILES IDX 15 1 14 2 12 3 13 4 11 6 10 7 9 8 7 9 8 10 3 11 2 12 1 13
REMARK SMILES IDX 4 14 5 18 6 19 85 20 86 21 87 22 16 23 17 24 18 25 19 26
REMARK SMILES IDX 20 27 21 29 22 30 23 31 84 32 24 33 83 34 25 35 26 36 27 37
REMARK SMILES IDX 77 38 28 39 82 40 76 41 78 42 29 43 81 44 75 45 74 46 30 48
REMARK SMILES IDX 62 49 42 50 61 51 43 52 46 53 60 54 79 55 44 56 45 57 59 59
REMARK SMILES IDX 80 60 47 61 31 62 32 63 40 64 33 65 34 66 38 67 41 68 35 69
REMARK SMILES IDX 36 70 39 71 37 72 63 73 64 74 72 75 65 76 66 77 70 78 73 79
REMARK SMILES IDX 67 80 68 81 71 82 69 83 48 84 49 85 57 86 50 87 51 88 55 89
REMARK SMILES IDX 58 90 52 91 53 92 56 93 54 94
REMARK H PARENT 14 5 4 15 4 16 4 17 19 28 78 47 46 58
REMARK Flexibility Score: inf
ROOT
ATOM      1  C   UNL     1       6.274   5.153   1.942  1.00  0.00     0.116 C 
ENDROOT
BRANCH   1   2
ATOM      2  N   UNL     1       5.413   6.179   1.361  1.00  0.00    -0.356 N 
ATOM      3  C   UNL     1       4.063   6.315   1.240  1.00  0.00     0.221 C 
ATOM      4  O   UNL     1       3.645   7.304   0.633  1.00  0.00    -0.275 OA
ATOM      5  H   UNL     1       5.914   6.933   0.974  1.00  0.00     0.163 HD
BRANCH   3   6
ATOM      6  C   UNL     1       3.082   5.310   1.814  1.00  0.00     0.121 C 
BRANCH   6   7
ATOM      7  C   UNL     1       2.305   4.584   0.690  1.00  0.00     0.130 C 
BRANCH   7   8
ATOM      8  N   UNL     1       2.493   3.115   0.697  1.00  0.00    -0.334 N 
BRANCH   8   9
ATOM      9  C   UNL     1       1.557   2.092   0.848  1.00  0.00     0.284 C 
ATOM     10  O   UNL     1       1.964   0.927   0.962  1.00  0.00    -0.268 OA
BRANCH   9  11
ATOM     11  C   UNL     1       0.018   2.340   0.914  1.00  0.00     0.173 C 
BRANCH  11  12
ATOM     12  C   UNL     1      -0.720   0.957   1.003  1.00  0.00     0.075 C 
ATOM     13  C   UNL     1      -0.587   0.014  -0.199  1.00  0.00     0.011 C 
ENDBRANCH  11  12
BRANCH  11  14
ATOM     14  N   UNL     1      -0.452   3.010  -0.322  1.00  0.00    -0.345 N 
ATOM     15  H   UNL     1      -1.459   3.165  -0.263  1.00  0.00     0.345 HD
ATOM     16  H   UNL     1      -0.246   2.421  -1.128  1.00  0.00     0.345 HD
ATOM     17  H   UNL     1       0.024   3.906  -0.425  1.00  0.00     0.345 HD
ENDBRANCH  11  14
BRANCH  11  18
ATOM     18  C   UNL     1      -0.384   3.177   2.157  1.00  0.00     0.075 C 
ATOM     19  C   UNL     1       0.249   2.720   3.470  1.00  0.00     0.011 C 
ENDBRANCH  11  18
ENDBRANCH   9  11
ENDBRANCH   8   9
BRANCH   8  20
ATOM     20  C   UNL     1       3.889   2.685   0.624  1.00  0.00     0.079 C 
ATOM     21  C   UNL     1       4.312   1.990   1.920  1.00  0.00     0.031 C 
ATOM     22  C   UNL     1       4.249   1.913  -0.646  1.00  0.00     0.031 C 
ENDBRANCH   8  20
ENDBRANCH   7   8
ENDBRANCH   6   7
ENDBRANCH   3   6
ENDBRANCH   1   2
BRANCH   1  23
ATOM     23  C   UNL     1       7.059   4.412   0.846  1.00  0.00     0.023 C 
BRANCH  23  24
ATOM     24  C   UNL     1       8.271   3.597   1.300  1.00  0.00     0.023 C 
BRANCH  24  25
ATOM     25  C   UNL     1       8.088   2.659   2.488  1.00  0.00     0.116 C 
BRANCH  25  26
ATOM     26  N   UNL     1       7.601   1.324   2.167  1.00  0.00    -0.352 N 
ATOM     27  C   UNL     1       8.092   0.053   2.427  1.00  0.00     0.251 C 
ATOM     28  H   UNL     1       6.754   1.323   1.665  1.00  0.00     0.163 HD
ATOM     29  O   UNL     1       7.408  -0.920   2.201  1.00  0.00    -0.269 OA
BRANCH  27  30
ATOM     30  C   UNL     1       9.507  -0.113   2.820  1.00  0.00     0.039 A 
ATOM     31  C   UNL     1      10.271  -1.013   2.073  1.00  0.00     0.014 A 
ATOM     32  C   UNL     1      10.108   0.708   3.761  1.00  0.00     0.014 A 
ATOM     33  C   UNL     1      11.661  -0.947   2.137  1.00  0.00     0.010 A 
ATOM     34  C   UNL     1      11.483   0.881   3.710  1.00  0.00     0.010 A 
ATOM     35  C   UNL     1      12.273   0.079   2.871  1.00  0.00    -0.014 A 
BRANCH  35  36
ATOM     36  C   UNL     1      13.724   0.368   2.741  1.00  0.00     0.031 A 
ATOM     37  C   UNL     1      14.588   0.425   3.968  1.00  0.00     0.074 A 
ATOM     38  C   UNL     1      14.233   0.704   1.537  1.00  0.00     0.049 A 
ATOM     39  N   UNL     1      15.824   0.834   4.092  1.00  0.00    -0.248 NA
ATOM     40  C   UNL     1      13.956   0.031   5.237  1.00  0.00     0.031 C 
ATOM     41  C   UNL     1      13.481   0.780   0.281  1.00  0.00     0.029 A 
ATOM     42  N   UNL     1      15.510   1.053   1.172  1.00  0.00    -0.354 N 
ATOM     43  C   UNL     1      16.091   0.805   5.454  1.00  0.00     0.074 A 
ATOM     44  C   UNL     1      14.875   0.394   6.118  1.00  0.00     0.031 C 
ATOM     45  C   UNL     1      14.317   1.100  -0.719  1.00  0.00     0.029 A 
ATOM     46  C   UNL     1      15.654   1.297  -0.173  1.00  0.00     0.049 A 
ATOM     47  H   UNL     1      16.253   1.122   1.814  1.00  0.00     0.167 HD
ATOM     48  C   UNL     1      17.256   1.067   6.090  1.00  0.00     0.037 A 
ATOM     49  C   UNL     1      16.745   1.638  -0.883  1.00  0.00     0.037 A 
ATOM     50  C   UNL     1      18.486   1.380   5.416  1.00  0.00     0.049 A 
ATOM     51  C   UNL     1      18.054   1.814  -0.166  1.00  0.00     0.074 A 
ATOM     52  C   UNL     1      19.746   1.562   5.955  1.00  0.00     0.029 A 
ATOM     53  N   UNL     1      18.610   1.530   4.042  1.00  0.00    -0.354 N 
ATOM     54  N   UNL     1      18.309   1.728   1.117  1.00  0.00    -0.248 NA
ATOM     55  C   UNL     1      19.226   2.131  -0.993  1.00  0.00     0.031 C 
ATOM     56  C   UNL     1      20.633   1.836   4.908  1.00  0.00     0.029 A 
ATOM     57  C   UNL     1      19.928   1.798   3.715  1.00  0.00     0.049 A 
ATOM     58  H   UNL     1      17.871   1.457   3.396  1.00  0.00     0.167 HD
ATOM     59  C   UNL     1      19.671   1.955   1.250  1.00  0.00     0.074 A 
ATOM     60  C   UNL     1      20.191   2.170  -0.085  1.00  0.00     0.031 C 
ATOM     61  C   UNL     1      20.423   1.989   2.376  1.00  0.00     0.037 A 
BRANCH  48  62
ATOM     62  C   UNL     1      17.251   0.997   7.589  1.00  0.00     0.064 A 
ATOM     63  C   UNL     1      17.107  -0.222   8.268  1.00  0.00     0.173 A 
ATOM     64  C   UNL     1      17.386   2.164   8.355  1.00  0.00     0.173 A 
ATOM     65  F   UNL     1      16.956  -1.364   7.580  1.00  0.00    -0.203 F 
ATOM     66  C   UNL     1      17.052  -0.266   9.658  1.00  0.00     0.198 A 
ATOM     67  C   UNL     1      17.364   2.112   9.747  1.00  0.00     0.198 A 
ATOM     68  F   UNL     1      17.530   3.355   7.756  1.00  0.00    -0.203 F 
ATOM     69  F   UNL     1      16.844  -1.434  10.282  1.00  0.00    -0.200 F 
ATOM     70  C   UNL     1      17.186   0.900  10.396  1.00  0.00     0.200 A 
ATOM     71  F   UNL     1      17.502   3.239  10.460  1.00  0.00    -0.200 F 
ATOM     72  F   UNL     1      17.129   0.857  11.735  1.00  0.00    -0.200 F 
ENDBRANCH  48  62
BRANCH  49  73
ATOM     73  C   UNL     1      16.659   1.779  -2.360  1.00  0.00     0.064 A 
ATOM     74  C   UNL     1      17.222   0.808  -3.200  1.00  0.00     0.173 A 
ATOM     75  C   UNL     1      16.015   2.869  -2.961  1.00  0.00     0.173 A 
ATOM     76  F   UNL     1      17.863  -0.244  -2.670  1.00  0.00    -0.203 F 
ATOM     77  C   UNL     1      17.164   0.933  -4.586  1.00  0.00     0.198 A 
ATOM     78  C   UNL     1      15.937   2.982  -4.348  1.00  0.00     0.198 A 
ATOM     79  F   UNL     1      15.452   3.819  -2.200  1.00  0.00    -0.203 F 
ATOM     80  F   UNL     1      17.745   0.011  -5.365  1.00  0.00    -0.200 F 
ATOM     81  C   UNL     1      16.517   2.018  -5.159  1.00  0.00     0.200 A 
ATOM     82  F   UNL     1      15.302   4.025  -4.899  1.00  0.00    -0.200 F 
ATOM     83  F   UNL     1      16.459   2.137  -6.493  1.00  0.00    -0.200 F 
ENDBRANCH  49  73
BRANCH  61  84
ATOM     84  C   UNL     1      21.891   2.231   2.210  1.00  0.00     0.064 A 
ATOM     85  C   UNL     1      22.393   3.507   1.921  1.00  0.00     0.173 A 
ATOM     86  C   UNL     1      22.806   1.185   2.394  1.00  0.00     0.173 A 
ATOM     87  F   UNL     1      21.552   4.534   1.722  1.00  0.00    -0.203 F 
ATOM     88  C   UNL     1      23.762   3.724   1.806  1.00  0.00     0.198 A 
ATOM     89  C   UNL     1      24.176   1.410   2.301  1.00  0.00     0.198 A 
ATOM     90  F   UNL     1      22.371  -0.053   2.676  1.00  0.00    -0.203 F 
ATOM     91  F   UNL     1      24.221   4.945   1.496  1.00  0.00    -0.200 F 
ATOM     92  C   UNL     1      24.652   2.679   2.004  1.00  0.00     0.200 A 
ATOM     93  F   UNL     1      25.035   0.402   2.501  1.00  0.00    -0.200 F 
ATOM     94  F   UNL     1      25.971   2.892   1.902  1.00  0.00    -0.200 F 
ENDBRANCH  61  84
ENDBRANCH  35  36
ENDBRANCH  27  30
ENDBRANCH  25  26
ENDBRANCH  24  25
ENDBRANCH  23  24
ENDBRANCH   1  23
TORSDOF 19
