REMARK SMILES C[C@H](C(=O)NCCCCNC(=O)c1ccc(-c2c3nc(c(-c4c(F)c(F)c(F)c(F)c4F)c4ccc([nH]4)c(-c4c(F)c(F)c(F)c(F)c4F)c4nc(c(-c5c(F)c(F)c(F)c(F)c5F)c5ccc2[nH]5)C=C4)C=C3)cc1)c1ccc2c3cc(Cl)ccc3n(C(=O)c3ccc(Cl)cc3)c2c1
REMARK SMILES IDX 7 1 6 2 5 3 3 4 4 5 2 7 1 8 76 9 77 10 98 11 78 12 97 13
REMARK SMILES IDX 79 14 87 15 80 16 86 17 81 18 85 19 82 20 84 21 83 22 88 23
REMARK SMILES IDX 89 24 90 25 91 26 96 27 92 28 95 29 93 30 94 31 8 32 9 33
REMARK SMILES IDX 10 34 11 35 12 37 13 38 14 39 75 40 15 41 74 42 16 43 17 44
REMARK SMILES IDX 18 45 68 46 19 47 73 48 67 49 69 50 20 51 72 52 66 53 65 54
REMARK SMILES IDX 21 56 53 57 33 58 52 59 34 60 37 61 51 62 70 63 35 64 36 65
REMARK SMILES IDX 50 67 71 68 38 69 22 70 23 71 31 72 24 73 25 74 29 75 32 76
REMARK SMILES IDX 26 77 27 78 30 79 28 80 54 81 55 82 63 83 56 84 57 85 61 86
REMARK SMILES IDX 64 87 58 88 59 89 62 90 60 91 39 92 40 93 48 94 41 95 42 96
REMARK SMILES IDX 46 97 49 98 43 99 44 100 47 101 45 102
REMARK H PARENT 5 6 10 36 69 55 37 66
REMARK Flexibility Score: inf
ROOT
ATOM      1  C   UNL     1      -1.040  -2.348  -1.347  1.00  0.00     0.023 C 
ENDROOT
BRANCH   1   2
ATOM      2  C   UNL     1       0.322  -2.273  -0.654  1.00  0.00     0.116 C 
BRANCH   2   3
ATOM      3  N   UNL     1       0.974  -0.991  -0.862  1.00  0.00    -0.356 N 
ATOM      4  C   UNL     1       1.168   0.043   0.015  1.00  0.00     0.227 C 
ATOM      5  O   UNL     1       1.728   1.057  -0.409  1.00  0.00    -0.274 OA
ATOM      6  H   UNL     1       1.328  -0.843  -1.769  1.00  0.00     0.163 HD
BRANCH   4   7
ATOM      7  C   UNL     1       0.687  -0.085   1.469  1.00  0.00     0.105 C 
ATOM      8  C   UNL     1       1.373   0.930   2.384  1.00  0.00     0.023 C 
BRANCH   7   9
ATOM      9  C   UNL     1      -0.830   0.017   1.541  1.00  0.00    -0.034 A 
ATOM     10  C   UNL     1      -1.512   1.142   1.079  1.00  0.00     0.005 A 
ATOM     11  C   UNL     1      -1.559  -1.102   1.963  1.00  0.00     0.032 A 
ATOM     12  C   UNL     1      -2.905   1.131   0.961  1.00  0.00     0.011 A 
ATOM     13  C   UNL     1      -2.952  -1.151   1.759  1.00  0.00     0.057 A 
ATOM     14  C   UNL     1      -3.630  -0.042   1.269  1.00  0.00     0.008 A 
ATOM     15  N   UNL     1      -3.868  -2.216   1.878  1.00  0.00    -0.276 N 
ATOM     16  C   UNL     1      -5.008  -0.375   1.235  1.00  0.00     0.009 A 
ATOM     17  C   UNL     1      -5.156  -1.672   1.754  1.00  0.00     0.057 A 
ATOM     18  C   UNL     1      -6.145   0.368   0.852  1.00  0.00     0.031 A 
ATOM     19  C   UNL     1      -6.441  -2.172   2.040  1.00  0.00     0.029 A 
ATOM     20  C   UNL     1      -7.411  -0.156   1.084  1.00  0.00     0.041 A 
ATOM     21  C   UNL     1      -7.559  -1.392   1.700  1.00  0.00     0.023 A 
ATOM     22  Cl  UNL     1      -8.798   0.761   0.638  1.00  0.00    -0.084 Cl
BRANCH  15  23
ATOM     23  C   UNL     1      -3.454  -3.570   2.053  1.00  0.00     0.262 C 
ATOM     24  O   UNL     1      -2.240  -3.762   2.177  1.00  0.00    -0.268 OA
BRANCH  23  25
ATOM     25  C   UNL     1      -4.217  -4.843   2.033  1.00  0.00     0.040 A 
ATOM     26  C   UNL     1      -3.666  -5.901   2.790  1.00  0.00     0.015 A 
ATOM     27  C   UNL     1      -5.263  -5.121   1.151  1.00  0.00     0.015 A 
ATOM     28  C   UNL     1      -4.133  -7.208   2.661  1.00  0.00     0.021 A 
ATOM     29  C   UNL     1      -5.753  -6.434   1.044  1.00  0.00     0.021 A 
ATOM     30  C   UNL     1      -5.177  -7.471   1.784  1.00  0.00     0.041 A 
ATOM     31  Cl  UNL     1      -5.723  -9.088   1.578  1.00  0.00    -0.084 Cl
ENDBRANCH  23  25
ENDBRANCH  15  23
ENDBRANCH   7   9
ENDBRANCH   4   7
ENDBRANCH   2   3
ENDBRANCH   1   2
BRANCH   1  32
ATOM     32  C   UNL     1      -0.981  -2.350  -2.877  1.00  0.00     0.023 C 
BRANCH  32  33
ATOM     33  C   UNL     1      -0.158  -3.474  -3.493  1.00  0.00     0.116 C 
BRANCH  33  34
ATOM     34  N   UNL     1      -0.666  -4.797  -3.174  1.00  0.00    -0.352 N 
ATOM     35  C   UNL     1      -0.765  -5.905  -3.981  1.00  0.00     0.251 C 
ATOM     36  H   UNL     1      -0.984  -4.916  -2.250  1.00  0.00     0.163 HD
ATOM     37  O   UNL     1      -1.351  -6.904  -3.578  1.00  0.00    -0.269 OA
BRANCH  35  38
ATOM     38  C   UNL     1      -0.189  -5.891  -5.346  1.00  0.00     0.039 A 
ATOM     39  C   UNL     1      -0.907  -6.494  -6.383  1.00  0.00     0.014 A 
ATOM     40  C   UNL     1       1.059  -5.317  -5.607  1.00  0.00     0.014 A 
ATOM     41  C   UNL     1      -0.389  -6.492  -7.681  1.00  0.00     0.010 A 
ATOM     42  C   UNL     1       1.532  -5.239  -6.914  1.00  0.00     0.010 A 
ATOM     43  C   UNL     1       0.828  -5.849  -7.962  1.00  0.00    -0.014 A 
BRANCH  43  44
ATOM     44  C   UNL     1       1.397  -5.858  -9.335  1.00  0.00     0.031 A 
ATOM     45  C   UNL     1       2.706  -6.553  -9.605  1.00  0.00     0.074 A 
ATOM     46  C   UNL     1       0.755  -5.222 -10.333  1.00  0.00     0.049 A 
ATOM     47  N   UNL     1       3.365  -6.674 -10.730  1.00  0.00    -0.248 NA
ATOM     48  C   UNL     1       3.379  -7.170  -8.451  1.00  0.00     0.031 C 
ATOM     49  C   UNL     1      -0.493  -4.471 -10.193  1.00  0.00     0.029 A 
ATOM     50  N   UNL     1       1.063  -5.107 -11.666  1.00  0.00    -0.354 N 
ATOM     51  C   UNL     1       4.530  -7.363 -10.415  1.00  0.00     0.074 A 
ATOM     52  C   UNL     1       4.520  -7.577  -8.985  1.00  0.00     0.031 C 
ATOM     53  C   UNL     1      -0.864  -4.006 -11.397  1.00  0.00     0.029 A 
ATOM     54  C   UNL     1       0.135  -4.396 -12.387  1.00  0.00     0.049 A 
ATOM     55  H   UNL     1       1.872  -5.498 -12.068  1.00  0.00     0.167 HD
ATOM     56  C   UNL     1       5.505  -7.805 -11.245  1.00  0.00     0.037 A 
ATOM     57  C   UNL     1       0.093  -4.099 -13.700  1.00  0.00     0.037 A 
ATOM     58  C   UNL     1       5.499  -7.614 -12.671  1.00  0.00     0.049 A 
ATOM     59  C   UNL     1       1.189  -4.606 -14.602  1.00  0.00     0.074 A 
ATOM     60  C   UNL     1       6.407  -8.073 -13.608  1.00  0.00     0.029 A 
ATOM     61  N   UNL     1       4.533  -6.900 -13.367  1.00  0.00    -0.354 N 
ATOM     62  N   UNL     1       2.243  -5.326 -14.305  1.00  0.00    -0.248 NA
ATOM     63  C   UNL     1       1.076  -4.269 -16.028  1.00  0.00     0.031 C 
ATOM     64  C   UNL     1       6.024  -7.589 -14.864  1.00  0.00     0.029 A 
ATOM     65  C   UNL     1       4.837  -6.888 -14.719  1.00  0.00     0.049 A 
ATOM     66  H   UNL     1       3.748  -6.467 -12.960  1.00  0.00     0.167 HD
ATOM     67  C   UNL     1       2.893  -5.566 -15.509  1.00  0.00     0.074 A 
ATOM     68  C   UNL     1       2.107  -4.924 -16.541  1.00  0.00     0.031 C 
ATOM     69  C   UNL     1       4.036  -6.260 -15.739  1.00  0.00     0.037 A 
BRANCH  56  70
ATOM     70  C   UNL     1       6.665  -8.537 -10.628  1.00  0.00     0.064 A 
ATOM     71  C   UNL     1       6.514  -9.803 -10.040  1.00  0.00     0.173 A 
ATOM     72  C   UNL     1       7.951  -7.976 -10.648  1.00  0.00     0.173 A 
ATOM     73  F   UNL     1       5.304 -10.382  -9.983  1.00  0.00    -0.203 F 
ATOM     74  C   UNL     1       7.597 -10.462  -9.464  1.00  0.00     0.198 A 
ATOM     75  C   UNL     1       9.039  -8.654 -10.104  1.00  0.00     0.198 A 
ATOM     76  F   UNL     1       8.156  -6.771 -11.201  1.00  0.00    -0.203 F 
ATOM     77  F   UNL     1       7.415 -11.642  -8.856  1.00  0.00    -0.200 F 
ATOM     78  C   UNL     1       8.860  -9.891  -9.503  1.00  0.00     0.200 A 
ATOM     79  F   UNL     1      10.262  -8.107 -10.156  1.00  0.00    -0.200 F 
ATOM     80  F   UNL     1       9.903 -10.529  -8.955  1.00  0.00    -0.200 F 
ENDBRANCH  56  70
BRANCH  57  81
ATOM     81  C   UNL     1      -1.046  -3.321 -14.255  1.00  0.00     0.064 A 
ATOM     82  C   UNL     1      -1.969  -3.917 -15.127  1.00  0.00     0.173 A 
ATOM     83  C   UNL     1      -1.228  -1.966 -13.943  1.00  0.00     0.173 A 
ATOM     84  F   UNL     1      -1.828  -5.206 -15.472  1.00  0.00    -0.203 F 
ATOM     85  C   UNL     1      -3.009  -3.181 -15.690  1.00  0.00     0.198 A 
ATOM     86  C   UNL     1      -2.288  -1.239 -14.481  1.00  0.00     0.198 A 
ATOM     87  F   UNL     1      -0.379  -1.348 -13.109  1.00  0.00    -0.203 F 
ATOM     88  F   UNL     1      -3.841  -3.763 -16.565  1.00  0.00    -0.200 F 
ATOM     89  C   UNL     1      -3.171  -1.844 -15.363  1.00  0.00     0.200 A 
ATOM     90  F   UNL     1      -2.451   0.049 -14.150  1.00  0.00    -0.200 F 
ATOM     91  F   UNL     1      -4.172  -1.136 -15.903  1.00  0.00    -0.200 F 
ENDBRANCH  57  81
BRANCH  69  92
ATOM     92  C   UNL     1       4.470  -6.419 -17.170  1.00  0.00     0.064 A 
ATOM     93  C   UNL     1       4.935  -5.338 -17.933  1.00  0.00     0.173 A 
ATOM     94  C   UNL     1       4.437  -7.684 -17.778  1.00  0.00     0.173 A 
ATOM     95  F   UNL     1       4.976  -4.106 -17.404  1.00  0.00    -0.203 F 
ATOM     96  C   UNL     1       5.309  -5.510 -19.264  1.00  0.00     0.198 A 
ATOM     97  C   UNL     1       4.848  -7.859 -19.096  1.00  0.00     0.198 A 
ATOM     98  F   UNL     1       4.011  -8.755 -17.091  1.00  0.00    -0.203 F 
ATOM     99  F   UNL     1       5.686  -4.450 -19.993  1.00  0.00    -0.200 F 
ATOM    100  C   UNL     1       5.271  -6.770 -19.842  1.00  0.00     0.200 A 
ATOM    101  F   UNL     1       4.829  -9.081 -19.646  1.00  0.00    -0.200 F 
ATOM    102  F   UNL     1       5.634  -6.933 -21.122  1.00  0.00    -0.200 F 
ENDBRANCH  69  92
ENDBRANCH  43  44
ENDBRANCH  35  38
ENDBRANCH  33  34
ENDBRANCH  32  33
ENDBRANCH   1  32
TORSDOF 14
