REMARK SMILES O=C(C[NH+]1CCC(C(=O)NCCCCNC(=O)c2ccc(-c3c4nc(c(-c5c(F)c(F)c(F)c(F)c5F)c5ccc([nH]5)c(-c5c(F)c(F)c(F)c(F)c5F)c5nc(c(-c6c(F)c(F)c(F)c(F)c6F)c6ccc3[nH]6)C=C5)C=C4)cc2)CC1)Nc1ccccc1Oc1ccccc1
REMARK SMILES IDX 11 1 10 2 8 3 9 4 7 6 4 7 5 8 82 9 6 11 81 12 3 13 2 14 1 15
REMARK SMILES IDX 83 16 84 18 85 19 89 20 86 21 88 22 87 23 90 24 91 25 92 26
REMARK SMILES IDX 96 27 93 28 95 29 94 30 12 31 13 32 14 33 15 34 16 35 17 37
REMARK SMILES IDX 18 38 19 39 80 40 20 41 79 42 21 43 22 44 23 45 73 46 24 47
REMARK SMILES IDX 78 48 72 49 74 50 25 51 77 52 71 53 70 54 26 56 58 57 38 58
REMARK SMILES IDX 57 59 39 60 42 61 56 62 75 63 40 64 41 65 55 67 76 68 43 69
REMARK SMILES IDX 27 70 28 71 36 72 29 73 30 74 34 75 37 76 31 77 32 78 35 79
REMARK SMILES IDX 33 80 59 81 60 82 68 83 61 84 62 85 66 86 69 87 63 88 64 89
REMARK SMILES IDX 67 90 65 91 44 92 45 93 53 94 46 95 47 96 51 97 54 98 48 99
REMARK SMILES IDX 49 100 52 101 50 102
REMARK H PARENT 10 5 4 10 83 17 15 36 74 55 42 66
REMARK Flexibility Score: inf
ROOT
ATOM      1  C   UNL     1       6.170   4.230   1.318  1.00  0.00     0.116 C 
ENDROOT
BRANCH   1   2
ATOM      2  N   UNL     1       6.765   5.181   0.392  1.00  0.00    -0.356 N 
ATOM      3  C   UNL     1       6.640   5.285  -0.963  1.00  0.00     0.223 C 
ATOM      4  O   UNL     1       7.261   6.181  -1.537  1.00  0.00    -0.275 OA
ATOM      5  H   UNL     1       7.349   5.856   0.808  1.00  0.00     0.163 HD
BRANCH   3   6
ATOM      6  C   UNL     1       5.753   4.324  -1.743  1.00  0.00     0.089 C 
ATOM      7  N   UNL     1       4.138   2.086  -0.890  1.00  0.00    -0.327 N 
ATOM      8  C   UNL     1       5.282   1.804  -1.772  1.00  0.00     0.263 C 
ATOM      9  C   UNL     1       3.429   3.264  -1.421  1.00  0.00     0.263 C 
ATOM     10  H   UNL     1       4.454   2.256   0.065  1.00  0.00     0.348 HD
ATOM     11  C   UNL     1       6.324   2.902  -1.672  1.00  0.00     0.075 C 
ATOM     12  C   UNL     1       4.286   4.516  -1.323  1.00  0.00     0.075 C 
BRANCH   7  13
ATOM     13  C   UNL     1       3.221   0.929  -0.926  1.00  0.00     0.363 C 
BRANCH  13  14
ATOM     14  C   UNL     1       2.368   0.813   0.338  1.00  0.00     0.279 C 
ATOM     15  O   UNL     1       1.250   1.311   0.443  1.00  0.00    -0.268 OA
ATOM     16  N   UNL     1       2.998   0.065   1.317  1.00  0.00    -0.318 N 
ATOM     17  H   UNL     1       3.982   0.088   1.339  1.00  0.00     0.170 HD
BRANCH  16  18
ATOM     18  C   UNL     1       2.349  -0.725   2.284  1.00  0.00     0.084 A 
ATOM     19  C   UNL     1       2.932  -0.710   3.564  1.00  0.00     0.030 A 
ATOM     20  C   UNL     1       1.215  -1.531   2.063  1.00  0.00     0.150 A 
ATOM     21  C   UNL     1       2.351  -1.397   4.633  1.00  0.00     0.002 A 
ATOM     22  C   UNL     1       0.651  -2.226   3.149  1.00  0.00     0.049 A 
ATOM     23  C   UNL     1       1.204  -2.153   4.427  1.00  0.00     0.004 A 
BRANCH  20  24
ATOM     24  O   UNL     1       0.497  -1.726   0.905  1.00  0.00    -0.455 OA
BRANCH  24  25
ATOM     25  C   UNL     1       1.080  -1.790  -0.334  1.00  0.00     0.127 A 
ATOM     26  C   UNL     1       0.363  -1.142  -1.347  1.00  0.00     0.047 A 
ATOM     27  C   UNL     1       2.264  -2.459  -0.642  1.00  0.00     0.047 A 
ATOM     28  C   UNL     1       0.865  -1.080  -2.645  1.00  0.00     0.004 A 
ATOM     29  C   UNL     1       2.766  -2.401  -1.950  1.00  0.00     0.004 A 
ATOM     30  C   UNL     1       2.077  -1.698  -2.945  1.00  0.00     0.000 A 
ENDBRANCH  24  25
ENDBRANCH  20  24
ENDBRANCH  16  18
ENDBRANCH  13  14
ENDBRANCH   7  13
ENDBRANCH   3   6
ENDBRANCH   1   2
BRANCH   1  31
ATOM     31  C   UNL     1       7.223   3.387   2.032  1.00  0.00     0.023 C 
BRANCH  31  32
ATOM     32  C   UNL     1       8.160   4.187   2.930  1.00  0.00     0.023 C 
BRANCH  32  33
ATOM     33  C   UNL     1       7.455   5.043   3.972  1.00  0.00     0.116 C 
BRANCH  33  34
ATOM     34  N   UNL     1       6.651   4.259   4.896  1.00  0.00    -0.352 N 
ATOM     35  C   UNL     1       6.583   4.358   6.267  1.00  0.00     0.251 C 
ATOM     36  H   UNL     1       6.081   3.568   4.487  1.00  0.00     0.163 HD
ATOM     37  O   UNL     1       5.983   3.524   6.924  1.00  0.00    -0.269 OA
BRANCH  35  38
ATOM     38  C   UNL     1       7.280   5.479   6.933  1.00  0.00     0.039 A 
ATOM     39  C   UNL     1       8.081   5.215   8.045  1.00  0.00     0.014 A 
ATOM     40  C   UNL     1       7.166   6.780   6.435  1.00  0.00     0.014 A 
ATOM     41  C   UNL     1       8.812   6.252   8.627  1.00  0.00     0.010 A 
ATOM     42  C   UNL     1       7.965   7.790   6.957  1.00  0.00     0.010 A 
ATOM     43  C   UNL     1       8.782   7.541   8.070  1.00  0.00    -0.014 A 
BRANCH  43  44
ATOM     44  C   UNL     1       9.560   8.657   8.663  1.00  0.00     0.031 A 
ATOM     45  C   UNL     1       8.839   9.851   9.226  1.00  0.00     0.074 A 
ATOM     46  C   UNL     1      10.906   8.625   8.644  1.00  0.00     0.049 A 
ATOM     47  N   UNL     1       9.328  10.957   9.726  1.00  0.00    -0.248 NA
ATOM     48  C   UNL     1       7.367   9.810   9.191  1.00  0.00     0.031 C 
ATOM     49  C   UNL     1      11.721   7.546   8.083  1.00  0.00     0.029 A 
ATOM     50  N   UNL     1      11.828   9.532   9.104  1.00  0.00    -0.354 N 
ATOM     51  C   UNL     1       8.229  11.743  10.047  1.00  0.00     0.074 A 
ATOM     52  C   UNL     1       7.051  11.020   9.624  1.00  0.00     0.031 C 
ATOM     53  C   UNL     1      13.020   7.841   8.257  1.00  0.00     0.029 A 
ATOM     54  C   UNL     1      13.130   9.144   8.906  1.00  0.00     0.049 A 
ATOM     55  H   UNL     1      11.578  10.381   9.536  1.00  0.00     0.167 HD
ATOM     56  C   UNL     1       8.202  12.947  10.666  1.00  0.00     0.037 A 
ATOM     57  C   UNL     1      14.281   9.772   9.213  1.00  0.00     0.037 A 
ATOM     58  C   UNL     1       9.375  13.652  11.109  1.00  0.00     0.049 A 
ATOM     59  C   UNL     1      14.224  11.110   9.902  1.00  0.00     0.074 A 
ATOM     60  C   UNL     1       9.457  14.855  11.787  1.00  0.00     0.029 A 
ATOM     61  N   UNL     1      10.677  13.212  10.916  1.00  0.00    -0.354 N 
ATOM     62  N   UNL     1      13.178  11.816  10.258  1.00  0.00    -0.248 NA
ATOM     63  C   UNL     1      15.511  11.731  10.244  1.00  0.00     0.031 C 
ATOM     64  C   UNL     1      10.809  15.167  11.963  1.00  0.00     0.029 A 
ATOM     65  C   UNL     1      11.569  14.128  11.451  1.00  0.00     0.049 A 
ATOM     66  H   UNL     1      10.930  12.374  10.466  1.00  0.00     0.167 HD
ATOM     67  C   UNL     1      13.677  12.940  10.903  1.00  0.00     0.074 A 
ATOM     68  C   UNL     1      15.120  12.817  10.896  1.00  0.00     0.031 C 
ATOM     69  C   UNL     1      13.002  13.979  11.455  1.00  0.00     0.037 A 
BRANCH  56  70
ATOM     70  C   UNL     1       6.857  13.573  10.904  1.00  0.00     0.064 A 
ATOM     71  C   UNL     1       5.936  13.022  11.810  1.00  0.00     0.173 A 
ATOM     72  C   UNL     1       6.490  14.750  10.234  1.00  0.00     0.173 A 
ATOM     73  F   UNL     1       6.230  11.889  12.466  1.00  0.00    -0.203 F 
ATOM     74  C   UNL     1       4.687  13.604  12.008  1.00  0.00     0.198 A 
ATOM     75  C   UNL     1       5.254  15.350  10.463  1.00  0.00     0.198 A 
ATOM     76  F   UNL     1       7.332  15.323   9.361  1.00  0.00    -0.203 F 
ATOM     77  F   UNL     1       3.803  13.025  12.832  1.00  0.00    -0.200 F 
ATOM     78  C   UNL     1       4.350  14.772  11.341  1.00  0.00     0.200 A 
ATOM     79  F   UNL     1       4.935  16.486   9.828  1.00  0.00    -0.200 F 
ATOM     80  F   UNL     1       3.150  15.335  11.538  1.00  0.00    -0.200 F 
ENDBRANCH  56  70
BRANCH  57  81
ATOM     81  C   UNL     1      15.586   9.129   8.906  1.00  0.00     0.064 A 
ATOM     82  C   UNL     1      16.423   8.674   9.936  1.00  0.00     0.173 A 
ATOM     83  C   UNL     1      16.032   8.969   7.587  1.00  0.00     0.173 A 
ATOM     84  F   UNL     1      16.050   8.822  11.216  1.00  0.00    -0.203 F 
ATOM     85  C   UNL     1      17.667   8.110   9.659  1.00  0.00     0.198 A 
ATOM     86  C   UNL     1      17.262   8.376   7.309  1.00  0.00     0.198 A 
ATOM     87  F   UNL     1      15.268   9.380   6.565  1.00  0.00    -0.203 F 
ATOM     88  F   UNL     1      18.468   7.734  10.664  1.00  0.00    -0.200 F 
ATOM     89  C   UNL     1      18.083   7.957   8.345  1.00  0.00     0.200 A 
ATOM     90  F   UNL     1      17.655   8.215   6.038  1.00  0.00    -0.200 F 
ATOM     91  F   UNL     1      19.279   7.414   8.078  1.00  0.00    -0.200 F 
ENDBRANCH  57  81
BRANCH  69  92
ATOM     92  C   UNL     1      13.811  15.032  12.158  1.00  0.00     0.064 A 
ATOM     93  C   UNL     1      14.637  15.925  11.460  1.00  0.00     0.173 A 
ATOM     94  C   UNL     1      13.730  15.165  13.553  1.00  0.00     0.173 A 
ATOM     95  F   UNL     1      14.759  15.832  10.127  1.00  0.00    -0.203 F 
ATOM     96  C   UNL     1      15.380  16.890  12.137  1.00  0.00     0.198 A 
ATOM     97  C   UNL     1      14.446  16.153  14.222  1.00  0.00     0.198 A 
ATOM     98  F   UNL     1      12.948  14.343  14.268  1.00  0.00    -0.203 F 
ATOM     99  F   UNL     1      16.207  17.694  11.456  1.00  0.00    -0.200 F 
ATOM    100  C   UNL     1      15.278  17.008  13.515  1.00  0.00     0.200 A 
ATOM    101  F   UNL     1      14.334  16.276  15.552  1.00  0.00    -0.200 F 
ATOM    102  F   UNL     1      15.990  17.940  14.163  1.00  0.00    -0.200 F 
ENDBRANCH  69  92
ENDBRANCH  43  44
ENDBRANCH  35  38
ENDBRANCH  33  34
ENDBRANCH  32  33
ENDBRANCH  31  32
ENDBRANCH   1  31
TORSDOF 16
