REMARK SMILES O=C(NCCCCNC(=O)c1ccc(-c2c3nc(c(-c4c(F)c(F)c(F)c(F)c4F)c4ccc([nH]4)c(-c4c(F)c(F)c(F)c(F)c4F)c4nc(c(-c5c(F)c(F)c(F)c(F)c5F)c5ccc2[nH]5)C=C4)C=C3)cc1)c1ccc(CN2CCCCC2=O)cc1
REMARK SMILES IDX 5 1 4 2 3 3 1 4 2 5 74 7 75 8 87 9 76 10 86 11 77 12 78 13
REMARK SMILES IDX 79 14 80 15 84 16 81 17 83 18 85 19 82 20 6 21 7 22 8 23
REMARK SMILES IDX 9 24 10 26 11 27 12 28 73 29 13 30 72 31 14 32 15 33 16 34
REMARK SMILES IDX 66 35 17 36 71 37 65 38 67 39 18 40 70 41 64 42 63 43 19 45
REMARK SMILES IDX 51 46 31 47 50 48 32 49 35 50 49 51 68 52 33 53 34 54 48 56
REMARK SMILES IDX 69 57 36 58 20 59 21 60 29 61 22 62 23 63 27 64 30 65 24 66
REMARK SMILES IDX 25 67 28 68 26 69 52 70 53 71 61 72 54 73 55 74 59 75 62 76
REMARK SMILES IDX 56 77 57 78 60 79 58 80 37 81 38 82 46 83 39 84 40 85 44 86
REMARK SMILES IDX 47 87 41 88 42 89 45 90 43 91
REMARK H PARENT 3 6 8 25 67 44 35 55
REMARK Flexibility Score: inf
ROOT
ATOM      1  C   UNL     1       4.900  -1.246  -2.031  1.00  0.00     0.023 C 
ENDROOT
BRANCH   1   2
ATOM      2  C   UNL     1       4.464  -0.106  -1.114  1.00  0.00     0.116 C 
BRANCH   2   3
ATOM      3  N   UNL     1       3.018  -0.042  -0.964  1.00  0.00    -0.352 N 
ATOM      4  O   UNL     1       1.047  -0.260   0.127  1.00  0.00    -0.269 OA
ATOM      5  C   UNL     1       2.270  -0.188   0.180  1.00  0.00     0.251 C 
ATOM      6  H   UNL     1       2.509   0.128  -1.790  1.00  0.00     0.163 HD
BRANCH   5   7
ATOM      7  C   UNL     1       2.963  -0.272   1.479  1.00  0.00     0.039 A 
ATOM      8  C   UNL     1       3.766   0.785   1.907  1.00  0.00     0.014 A 
ATOM      9  C   UNL     1       2.830  -1.424   2.257  1.00  0.00     0.014 A 
ATOM     10  C   UNL     1       4.502   0.653   3.081  1.00  0.00     0.006 A 
ATOM     11  C   UNL     1       3.576  -1.553   3.434  1.00  0.00     0.006 A 
ATOM     12  C   UNL     1       4.436  -0.523   3.846  1.00  0.00    -0.029 A 
BRANCH  12  13
ATOM     13  C   UNL     1       5.306  -0.663   5.079  1.00  0.00     0.155 C 
BRANCH  13  14
ATOM     14  N   UNL     1       6.642  -1.183   4.779  1.00  0.00    -0.338 N 
ATOM     15  C   UNL     1       6.873  -2.609   4.965  1.00  0.00     0.120 C 
ATOM     16  C   UNL     1       7.593  -0.327   4.247  1.00  0.00     0.222 C 
ATOM     17  C   UNL     1       8.348  -2.941   5.117  1.00  0.00     0.022 C 
ATOM     18  C   UNL     1       8.926  -0.907   3.804  1.00  0.00     0.100 C 
ATOM     19  O   UNL     1       7.412   0.888   4.144  1.00  0.00    -0.275 OA
ATOM     20  C   UNL     1       9.082  -2.413   3.903  1.00  0.00     0.012 C 
ENDBRANCH  13  14
ENDBRANCH  12  13
ENDBRANCH   5   7
ENDBRANCH   2   3
ENDBRANCH   1   2
BRANCH   1  21
ATOM     21  C   UNL     1       4.437  -1.127  -3.483  1.00  0.00     0.023 C 
BRANCH  21  22
ATOM     22  C   UNL     1       4.798   0.178  -4.185  1.00  0.00     0.116 C 
BRANCH  22  23
ATOM     23  N   UNL     1       6.231   0.423  -4.243  1.00  0.00    -0.352 N 
ATOM     24  C   UNL     1       7.015   0.779  -5.314  1.00  0.00     0.251 C 
ATOM     25  H   UNL     1       6.710   0.318  -3.389  1.00  0.00     0.163 HD
ATOM     26  O   UNL     1       8.235   0.832  -5.194  1.00  0.00    -0.269 OA
BRANCH  24  27
ATOM     27  C   UNL     1       6.395   1.061  -6.627  1.00  0.00     0.039 A 
ATOM     28  C   UNL     1       6.954   0.486  -7.771  1.00  0.00     0.014 A 
ATOM     29  C   UNL     1       5.264   1.875  -6.733  1.00  0.00     0.014 A 
ATOM     30  C   UNL     1       6.331   0.657  -9.010  1.00  0.00     0.010 A 
ATOM     31  C   UNL     1       4.607   1.991  -7.955  1.00  0.00     0.010 A 
ATOM     32  C   UNL     1       5.128   1.375  -9.104  1.00  0.00    -0.014 A 
BRANCH  32  33
ATOM     33  C   UNL     1       4.390   1.480 -10.388  1.00  0.00     0.031 A 
ATOM     34  C   UNL     1       4.215   2.814 -11.054  1.00  0.00     0.074 A 
ATOM     35  C   UNL     1       3.813   0.383 -10.915  1.00  0.00     0.049 A 
ATOM     36  N   UNL     1       3.524   3.122 -12.123  1.00  0.00    -0.248 NA
ATOM     37  C   UNL     1       4.886   3.960 -10.421  1.00  0.00     0.031 C 
ATOM     38  C   UNL     1       3.874  -0.963 -10.344  1.00  0.00     0.029 A 
ATOM     39  N   UNL     1       3.049   0.229 -12.045  1.00  0.00    -0.354 N 
ATOM     40  C   UNL     1       3.662   4.495 -12.279  1.00  0.00     0.074 A 
ATOM     41  C   UNL     1       4.466   4.968 -11.172  1.00  0.00     0.031 C 
ATOM     42  C   UNL     1       3.195  -1.809 -11.136  1.00  0.00     0.029 A 
ATOM     43  C   UNL     1       2.621  -1.060 -12.250  1.00  0.00     0.049 A 
ATOM     44  H   UNL     1       2.829   0.972 -12.652  1.00  0.00     0.167 HD
ATOM     45  C   UNL     1       3.179   5.285 -13.267  1.00  0.00     0.037 A 
ATOM     46  C   UNL     1       1.846  -1.578 -13.222  1.00  0.00     0.037 A 
ATOM     47  C   UNL     1       2.403   4.812 -14.382  1.00  0.00     0.049 A 
ATOM     48  C   UNL     1       1.322  -0.677 -14.306  1.00  0.00     0.074 A 
ATOM     49  C   UNL     1       1.913   5.529 -15.460  1.00  0.00     0.029 A 
ATOM     50  N   UNL     1       2.007   3.495 -14.565  1.00  0.00    -0.354 N 
ATOM     51  N   UNL     1       1.500   0.610 -14.470  1.00  0.00    -0.248 NA
ATOM     52  C   UNL     1       0.490  -1.305 -15.342  1.00  0.00     0.031 C 
ATOM     53  C   UNL     1       1.192   4.652 -16.278  1.00  0.00     0.029 A 
ATOM     54  C   UNL     1       1.267   3.381 -15.731  1.00  0.00     0.049 A 
ATOM     55  H   UNL     1       2.220   2.751 -13.956  1.00  0.00     0.167 HD
ATOM     56  C   UNL     1       0.828   0.943 -15.637  1.00  0.00     0.074 A 
ATOM     57  C   UNL     1       0.245  -0.281 -16.148  1.00  0.00     0.031 C 
ATOM     58  C   UNL     1       0.704   2.154 -16.231  1.00  0.00     0.037 A 
BRANCH  45  59
ATOM     59  C   UNL     1       3.485   6.752 -13.188  1.00  0.00     0.064 A 
ATOM     60  C   UNL     1       4.776   7.244 -13.431  1.00  0.00     0.173 A 
ATOM     61  C   UNL     1       2.471   7.678 -12.901  1.00  0.00     0.173 A 
ATOM     62  F   UNL     1       5.782   6.398 -13.697  1.00  0.00    -0.203 F 
ATOM     63  C   UNL     1       5.046   8.608 -13.364  1.00  0.00     0.198 A 
ATOM     64  C   UNL     1       2.739   9.044 -12.862  1.00  0.00     0.198 A 
ATOM     65  F   UNL     1       1.218   7.259 -12.666  1.00  0.00    -0.203 F 
ATOM     66  F   UNL     1       6.296   9.052 -13.556  1.00  0.00    -0.200 F 
ATOM     67  C   UNL     1       4.027   9.507 -13.086  1.00  0.00     0.200 A 
ATOM     68  F   UNL     1       1.752   9.912 -12.603  1.00  0.00    -0.200 F 
ATOM     69  F   UNL     1       4.288  10.820 -13.027  1.00  0.00    -0.200 F 
ENDBRANCH  45  59
BRANCH  46  70
ATOM     70  C   UNL     1       1.544  -3.031 -13.231  1.00  0.00     0.064 A 
ATOM     71  C   UNL     1       2.125  -3.876 -14.187  1.00  0.00     0.173 A 
ATOM     72  C   UNL     1       0.674  -3.605 -12.293  1.00  0.00     0.173 A 
ATOM     73  F   UNL     1       2.946  -3.368 -15.117  1.00  0.00    -0.203 F 
ATOM     74  C   UNL     1       1.835  -5.238 -14.213  1.00  0.00     0.198 A 
ATOM     75  C   UNL     1       0.404  -4.971 -12.305  1.00  0.00     0.198 A 
ATOM     76  F   UNL     1       0.096  -2.838 -11.356  1.00  0.00    -0.203 F 
ATOM     77  F   UNL     1       2.374  -6.017 -15.161  1.00  0.00    -0.200 F 
ATOM     78  C   UNL     1       0.980  -5.786 -13.269  1.00  0.00     0.200 A 
ATOM     79  F   UNL     1      -0.415  -5.499 -11.385  1.00  0.00    -0.200 F 
ATOM     80  F   UNL     1       0.704  -7.097 -13.293  1.00  0.00    -0.200 F 
ENDBRANCH  46  70
BRANCH  58  81
ATOM     81  C   UNL     1      -0.061   2.212 -17.520  1.00  0.00     0.064 A 
ATOM     82  C   UNL     1      -1.459   2.111 -17.548  1.00  0.00     0.173 A 
ATOM     83  C   UNL     1       0.611   2.411 -18.735  1.00  0.00     0.173 A 
ATOM     84  F   UNL     1      -2.144   1.904 -16.413  1.00  0.00    -0.203 F 
ATOM     85  C   UNL     1      -2.156   2.189 -18.750  1.00  0.00     0.198 A 
ATOM     86  C   UNL     1      -0.091   2.513 -19.932  1.00  0.00     0.198 A 
ATOM     87  F   UNL     1       1.948   2.518 -18.759  1.00  0.00    -0.203 F 
ATOM     88  F   UNL     1      -3.490   2.051 -18.760  1.00  0.00    -0.200 F 
ATOM     89  C   UNL     1      -1.473   2.397 -19.940  1.00  0.00     0.200 A 
ATOM     90  F   UNL     1       0.569   2.724 -21.079  1.00  0.00    -0.200 F 
ATOM     91  F   UNL     1      -2.147   2.478 -21.095  1.00  0.00    -0.200 F 
ENDBRANCH  58  81
ENDBRANCH  32  33
ENDBRANCH  24  27
ENDBRANCH  22  23
ENDBRANCH  21  22
ENDBRANCH   1  21
TORSDOF 13
