REMARK SMILES C[C@@H](O)[C@@H](NC(=O)CN(C)C(=O)c1cccs1)C(=O)NCCCCNC(=O)c1ccc(-c2c3nc(c(-c4c(F)c(F)c(F)c(F)c4F)c4ccc([nH]4)c(-c4c(F)c(F)c(F)c(F)c4F)c4nc(c(-c5c(F)c(F)c(F)c(F)c5F)c5ccc2[nH]5)C=C4)C=C3)cc1
REMARK SMILES IDX 21 1 20 2 18 3 19 4 4 6 2 7 1 8 3 9 5 11 6 12 7 14 8 15 9 16
REMARK SMILES IDX 10 17 11 18 12 19 13 20 14 21 17 22 15 23 16 24 22 25 23 26
REMARK SMILES IDX 24 27 25 28 26 29 27 31 28 32 29 33 90 34 30 35 89 36 31 37
REMARK SMILES IDX 32 38 33 39 83 40 34 41 88 42 82 43 84 44 35 45 87 46 81 47
REMARK SMILES IDX 80 48 36 50 68 51 48 52 67 53 49 54 52 55 66 56 85 57 50 58
REMARK SMILES IDX 51 59 65 61 86 62 53 63 37 64 38 65 46 66 39 67 40 68 44 69
REMARK SMILES IDX 47 70 41 71 42 72 45 73 43 74 69 75 70 76 78 77 71 78 72 79
REMARK SMILES IDX 76 80 79 81 73 82 74 83 77 84 75 85 54 86 55 87 63 88 56 89
REMARK SMILES IDX 57 90 61 91 64 92 58 93 59 94 62 95 60 96
REMARK H PARENT 20 5 3 10 5 13 25 30 84 49 52 60
REMARK Flexibility Score: inf
ROOT
ATOM      1  C   UNL     1       0.736  -1.971   3.608  1.00  0.00     0.116 C 
ENDROOT
BRANCH   1   2
ATOM      2  N   UNL     1      -0.510  -1.233   3.588  1.00  0.00    -0.354 N 
ATOM      3  C   UNL     1      -1.234  -0.729   2.530  1.00  0.00     0.245 C 
ATOM      4  O   UNL     1      -2.404  -0.419   2.800  1.00  0.00    -0.273 OA
ATOM      5  H   UNL     1      -0.904  -1.065   4.475  1.00  0.00     0.163 HD
BRANCH   3   6
ATOM      6  C   UNL     1      -0.721  -0.569   1.052  1.00  0.00     0.200 C 
BRANCH   6   7
ATOM      7  C   UNL     1       0.762  -0.159   0.841  1.00  0.00     0.143 C 
ATOM      8  C   UNL     1       1.058   0.271  -0.604  1.00  0.00     0.041 C 
BRANCH   7   9
ATOM      9  O   UNL     1       1.069   1.004   1.625  1.00  0.00    -0.391 OA
ATOM     10  H   UNL     1       0.519   1.746   1.331  1.00  0.00     0.211 HD
ENDBRANCH   7   9
ENDBRANCH   6   7
BRANCH   6  11
ATOM     11  N   UNL     1      -1.322  -1.292  -0.106  1.00  0.00    -0.341 N 
ATOM     12  C   UNL     1      -1.652  -2.545  -0.501  1.00  0.00     0.240 C 
ATOM     13  H   UNL     1      -1.555  -0.648  -0.814  1.00  0.00     0.164 HD
ATOM     14  O   UNL     1      -1.903  -2.673  -1.706  1.00  0.00    -0.273 OA
BRANCH  12  15
ATOM     15  C   UNL     1      -2.027  -3.656   0.457  1.00  0.00     0.219 C 
BRANCH  15  16
ATOM     16  N   UNL     1      -1.046  -3.917   1.492  1.00  0.00    -0.332 N 
ATOM     17  C   UNL     1      -1.676  -3.839   2.800  1.00  0.00     0.147 C 
BRANCH  16  18
ATOM     18  C   UNL     1       0.110  -4.645   1.036  1.00  0.00     0.264 C 
ATOM     19  O   UNL     1       0.019  -5.199  -0.064  1.00  0.00    -0.268 OA
BRANCH  18  20
ATOM     20  C   UNL     1       1.456  -4.595   1.666  1.00  0.00     0.092 A 
ATOM     21  C   UNL     1       2.087  -5.241   2.720  1.00  0.00     0.025 A 
ATOM     22  S   UNL     1       2.687  -3.776   0.742  1.00  0.00    -0.139 S 
ATOM     23  C   UNL     1       3.494  -5.028   2.821  1.00  0.00     0.012 A 
ATOM     24  C   UNL     1       3.953  -4.273   1.778  1.00  0.00     0.065 A 
ENDBRANCH  18  20
ENDBRANCH  16  18
ENDBRANCH  15  16
ENDBRANCH  12  15
ENDBRANCH   6  11
ENDBRANCH   3   6
ENDBRANCH   1   2
BRANCH   1  25
ATOM     25  C   UNL     1       1.079  -2.862   4.844  1.00  0.00     0.023 C 
BRANCH  25  26
ATOM     26  C   UNL     1       0.209  -3.874   5.667  1.00  0.00     0.023 C 
BRANCH  26  27
ATOM     27  C   UNL     1      -0.483  -5.265   5.391  1.00  0.00     0.116 C 
BRANCH  27  28
ATOM     28  N   UNL     1      -0.346  -6.011   4.151  1.00  0.00    -0.352 N 
ATOM     29  C   UNL     1      -0.263  -7.356   3.879  1.00  0.00     0.251 C 
ATOM     30  H   UNL     1      -0.303  -5.441   3.349  1.00  0.00     0.163 HD
ATOM     31  O   UNL     1      -0.071  -7.758   2.740  1.00  0.00    -0.269 OA
BRANCH  29  32
ATOM     32  C   UNL     1      -0.398  -8.307   4.965  1.00  0.00     0.039 A 
ATOM     33  C   UNL     1       0.610  -9.244   5.215  1.00  0.00     0.014 A 
ATOM     34  C   UNL     1      -1.571  -8.250   5.707  1.00  0.00     0.014 A 
ATOM     35  C   UNL     1       0.455 -10.119   6.283  1.00  0.00     0.010 A 
ATOM     36  C   UNL     1      -1.700  -9.082   6.793  1.00  0.00     0.010 A 
ATOM     37  C   UNL     1      -0.696 -10.024   7.077  1.00  0.00    -0.014 A 
BRANCH  37  38
ATOM     38  C   UNL     1      -0.967 -10.926   8.205  1.00  0.00     0.031 A 
ATOM     39  C   UNL     1      -2.134 -11.856   8.085  1.00  0.00     0.074 A 
ATOM     40  C   UNL     1      -0.324 -10.718   9.365  1.00  0.00     0.049 A 
ATOM     41  N   UNL     1      -2.794 -12.482   9.019  1.00  0.00    -0.248 NA
ATOM     42  C   UNL     1      -2.683 -12.035   6.728  1.00  0.00     0.031 C 
ATOM     43  C   UNL     1       0.773  -9.771   9.570  1.00  0.00     0.029 A 
ATOM     44  N   UNL     1      -0.548 -11.249  10.604  1.00  0.00    -0.354 N 
ATOM     45  C   UNL     1      -3.866 -13.084   8.374  1.00  0.00     0.074 A 
ATOM     46  C   UNL     1      -3.791 -12.715   6.978  1.00  0.00     0.031 C 
ATOM     47  C   UNL     1       1.117  -9.775  10.868  1.00  0.00     0.029 A 
ATOM     48  C   UNL     1       0.242 -10.698  11.582  1.00  0.00     0.049 A 
ATOM     49  H   UNL     1      -1.211 -11.956  10.779  1.00  0.00     0.167 HD
ATOM     50  C   UNL     1      -4.818 -13.880   8.912  1.00  0.00     0.037 A 
ATOM     51  C   UNL     1       0.235 -10.916  12.908  1.00  0.00     0.037 A 
ATOM     52  C   UNL     1      -4.827 -14.262  10.299  1.00  0.00     0.049 A 
ATOM     53  C   UNL     1      -0.758 -11.902  13.458  1.00  0.00     0.074 A 
ATOM     54  C   UNL     1      -5.683 -15.124  10.957  1.00  0.00     0.029 A 
ATOM     55  N   UNL     1      -3.909 -13.808  11.238  1.00  0.00    -0.354 N 
ATOM     56  N   UNL     1      -1.740 -12.516  12.842  1.00  0.00    -0.248 NA
ATOM     57  C   UNL     1      -0.630 -12.243  14.879  1.00  0.00     0.031 C 
ATOM     58  C   UNL     1      -5.291 -15.180  12.300  1.00  0.00     0.029 A 
ATOM     59  C   UNL     1      -4.168 -14.384  12.469  1.00  0.00     0.049 A 
ATOM     60  H   UNL     1      -3.182 -13.171  11.055  1.00  0.00     0.167 HD
ATOM     61  C   UNL     1      -2.326 -13.344  13.788  1.00  0.00     0.074 A 
ATOM     62  C   UNL     1      -1.578 -13.158  15.017  1.00  0.00     0.031 C 
ATOM     63  C   UNL     1      -3.385 -14.182  13.661  1.00  0.00     0.037 A 
BRANCH  50  64
ATOM     64  C   UNL     1      -5.898 -14.389   8.003  1.00  0.00     0.064 A 
ATOM     65  C   UNL     1      -5.626 -15.303   6.973  1.00  0.00     0.173 A 
ATOM     66  C   UNL     1      -7.227 -13.970   8.168  1.00  0.00     0.173 A 
ATOM     67  F   UNL     1      -4.370 -15.725   6.759  1.00  0.00    -0.203 F 
ATOM     68  C   UNL     1      -6.634 -15.753   6.124  1.00  0.00     0.198 A 
ATOM     69  C   UNL     1      -8.239 -14.447   7.338  1.00  0.00     0.198 A 
ATOM     70  F   UNL     1      -7.546 -13.096   9.134  1.00  0.00    -0.203 F 
ATOM     71  F   UNL     1      -6.336 -16.581   5.113  1.00  0.00    -0.200 F 
ATOM     72  C   UNL     1      -7.941 -15.331   6.312  1.00  0.00     0.200 A 
ATOM     73  F   UNL     1      -9.504 -14.046   7.528  1.00  0.00    -0.200 F 
ATOM     74  F   UNL     1      -8.912 -15.769   5.499  1.00  0.00    -0.200 F 
ENDBRANCH  50  64
BRANCH  51  75
ATOM     75  C   UNL     1       1.236 -10.246  13.775  1.00  0.00     0.064 A 
ATOM     76  C   UNL     1       2.305 -10.975  14.316  1.00  0.00     0.173 A 
ATOM     77  C   UNL     1       1.172  -8.875  14.057  1.00  0.00     0.173 A 
ATOM     78  F   UNL     1       2.404 -12.291  14.077  1.00  0.00    -0.203 F 
ATOM     79  C   UNL     1       3.257 -10.364  15.127  1.00  0.00     0.198 A 
ATOM     80  C   UNL     1       2.140  -8.259  14.849  1.00  0.00     0.198 A 
ATOM     81  F   UNL     1       0.182  -8.129  13.546  1.00  0.00    -0.203 F 
ATOM     82  F   UNL     1       4.245 -11.094  15.662  1.00  0.00    -0.200 F 
ATOM     83  C   UNL     1       3.177  -9.005  15.389  1.00  0.00     0.200 A 
ATOM     84  F   UNL     1       2.072  -6.941  15.083  1.00  0.00    -0.200 F 
ATOM     85  F   UNL     1       4.098  -8.415  16.164  1.00  0.00    -0.200 F 
ENDBRANCH  51  75
BRANCH  63  86
ATOM     86  C   UNL     1      -3.748 -14.992  14.867  1.00  0.00     0.064 A 
ATOM     87  C   UNL     1      -4.369 -14.413  15.983  1.00  0.00     0.173 A 
ATOM     88  C   UNL     1      -3.487 -16.370  14.894  1.00  0.00     0.173 A 
ATOM     89  F   UNL     1      -4.623 -13.096  16.006  1.00  0.00    -0.203 F 
ATOM     90  C   UNL     1      -4.682 -15.180  17.100  1.00  0.00     0.198 A 
ATOM     91  C   UNL     1      -3.829 -17.139  16.001  1.00  0.00     0.198 A 
ATOM     92  F   UNL     1      -2.902 -16.968  13.845  1.00  0.00    -0.203 F 
ATOM     93  F   UNL     1      -5.223 -14.598  18.179  1.00  0.00    -0.200 F 
ATOM     94  C   UNL     1      -4.417 -16.542  17.106  1.00  0.00     0.200 A 
ATOM     95  F   UNL     1      -3.583 -18.456  16.001  1.00  0.00    -0.200 F 
ATOM     96  F   UNL     1      -4.719 -17.279  18.184  1.00  0.00    -0.200 F 
ENDBRANCH  63  86
ENDBRANCH  37  38
ENDBRANCH  29  32
ENDBRANCH  27  28
ENDBRANCH  26  27
ENDBRANCH  25  26
ENDBRANCH   1  25
TORSDOF 18
