REMARK SMILES Cc1ccc(S(=O)(=O)N2C[C@@H](CC(=O)NCCCCNC(=O)c3ccc(-c4c5nc(c(-c6c(F)c(F)c(F)c(F)c6F)c6ccc([nH]6)c(-c6c(F)c(F)c(F)c(F)c6F)c6nc(c(-c7c(F)c(F)c(F)c(F)c7F)c7ccc4[nH]7)C=C6)C=C5)cc3)c3ccccc32)c(C)c1
REMARK SMILES IDX 17 1 16 2 15 3 13 4 14 5 12 7 11 8 9 9 10 10 91 11 86 12
REMARK SMILES IDX 90 13 87 14 89 15 88 16 6 17 7 18 8 19 5 20 1 21 2 22 3 23
REMARK SMILES IDX 94 24 4 25 92 26 93 27 18 28 19 29 20 30 21 31 22 33 23 34
REMARK SMILES IDX 24 35 85 36 25 37 84 38 26 39 27 40 28 41 78 42 29 43 83 44
REMARK SMILES IDX 77 45 79 46 30 47 82 48 76 49 75 50 31 52 63 53 43 54 62 55
REMARK SMILES IDX 44 56 47 57 61 58 80 59 45 60 46 61 60 63 81 64 48 65 32 66
REMARK SMILES IDX 33 67 41 68 34 69 35 70 39 71 42 72 36 73 37 74 40 75 38 76
REMARK SMILES IDX 64 77 65 78 73 79 66 80 67 81 71 82 74 83 68 84 69 85 72 86
REMARK SMILES IDX 70 87 49 88 50 89 58 90 51 91 52 92 56 93 59 94 53 95 54 96
REMARK SMILES IDX 57 97 55 98
REMARK H PARENT 15 6 20 32 79 51 47 62
REMARK Flexibility Score: inf
ROOT
ATOM      1  C   UNL     1      -0.193  -7.651   1.872  1.00  0.00     0.023 C 
ENDROOT
BRANCH   1   2
ATOM      2  C   UNL     1       0.240  -7.904   0.436  1.00  0.00     0.116 C 
BRANCH   2   3
ATOM      3  N   UNL     1      -0.819  -8.616  -0.256  1.00  0.00    -0.356 N 
ATOM      4  C   UNL     1      -1.965  -8.091  -0.785  1.00  0.00     0.220 C 
ATOM      5  O   UNL     1      -2.919  -8.840  -0.993  1.00  0.00    -0.275 OA
ATOM      6  H   UNL     1      -0.698  -9.588  -0.356  1.00  0.00     0.163 HD
BRANCH   4   7
ATOM      7  C   UNL     1      -2.012  -6.631  -1.183  1.00  0.00     0.110 C 
BRANCH   7   8
ATOM      8  C   UNL     1      -3.070  -5.784  -0.453  1.00  0.00     0.051 C 
ATOM      9  N   UNL     1      -2.185  -3.512  -0.480  1.00  0.00    -0.265 N 
ATOM     10  C   UNL     1      -3.178  -4.421  -1.172  1.00  0.00     0.144 C 
ATOM     11  C   UNL     1      -2.049  -4.051   0.848  1.00  0.00     0.055 A 
ATOM     12  C   UNL     1      -2.665  -5.301   0.915  1.00  0.00    -0.018 A 
ATOM     13  C   UNL     1      -1.407  -3.507   1.950  1.00  0.00     0.027 A 
ATOM     14  C   UNL     1      -2.855  -5.916   2.143  1.00  0.00     0.006 A 
ATOM     15  C   UNL     1      -1.498  -4.179   3.170  1.00  0.00     0.002 A 
ATOM     16  C   UNL     1      -2.252  -5.354   3.275  1.00  0.00     0.000 A 
BRANCH   9  17
ATOM     17  S   UNL     1      -2.643  -1.858  -0.593  1.00  0.00     0.264 S 
ATOM     18  O   UNL     1      -3.533  -1.580   0.513  1.00  0.00    -0.201 OA
ATOM     19  O   UNL     1      -3.052  -1.618  -1.966  1.00  0.00    -0.201 OA
BRANCH  17  20
ATOM     20  C   UNL     1      -1.142  -0.919  -0.370  1.00  0.00     0.090 A 
ATOM     21  C   UNL     1       2.548   1.264   0.067  1.00  0.00     0.044 C 
ATOM     22  C   UNL     1       1.270   0.488  -0.064  1.00  0.00    -0.051 A 
ATOM     23  C   UNL     1       1.288  -0.878  -0.341  1.00  0.00     0.005 A 
ATOM     24  C   UNL     1       0.037   1.149   0.038  1.00  0.00     0.008 A 
ATOM     25  C   UNL     1       0.091  -1.576  -0.505  1.00  0.00     0.023 A 
ATOM     26  C   UNL     1      -1.184   0.463  -0.107  1.00  0.00    -0.030 A 
ATOM     27  C   UNL     1      -2.438   1.294  -0.058  1.00  0.00     0.046 C 
ENDBRANCH  17  20
ENDBRANCH   9  17
ENDBRANCH   7   8
ENDBRANCH   4   7
ENDBRANCH   2   3
ENDBRANCH   1   2
BRANCH   1  28
ATOM     28  C   UNL     1       0.213  -8.698   2.887  1.00  0.00     0.023 C 
BRANCH  28  29
ATOM     29  C   UNL     1       1.698  -8.735   3.163  1.00  0.00     0.116 C 
BRANCH  29  30
ATOM     30  N   UNL     1       2.237  -7.481   3.677  1.00  0.00    -0.352 N 
ATOM     31  C   UNL     1       3.122  -7.279   4.712  1.00  0.00     0.251 C 
ATOM     32  H   UNL     1       1.925  -6.667   3.221  1.00  0.00     0.163 HD
ATOM     33  O   UNL     1       3.409  -6.144   5.074  1.00  0.00    -0.269 OA
BRANCH  31  34
ATOM     34  C   UNL     1       3.675  -8.452   5.420  1.00  0.00     0.039 A 
ATOM     35  C   UNL     1       3.721  -8.448   6.814  1.00  0.00     0.014 A 
ATOM     36  C   UNL     1       4.045  -9.594   4.708  1.00  0.00     0.014 A 
ATOM     37  C   UNL     1       4.046  -9.625   7.489  1.00  0.00     0.010 A 
ATOM     38  C   UNL     1       4.201 -10.795   5.379  1.00  0.00     0.010 A 
ATOM     39  C   UNL     1       4.230 -10.824   6.779  1.00  0.00    -0.014 A 
BRANCH  39  40
ATOM     40  C   UNL     1       4.474 -12.110   7.479  1.00  0.00     0.031 A 
ATOM     41  C   UNL     1       5.717 -12.908   7.180  1.00  0.00     0.074 A 
ATOM     42  C   UNL     1       3.552 -12.585   8.340  1.00  0.00     0.049 A 
ATOM     43  N   UNL     1       6.105 -14.054   7.678  1.00  0.00    -0.248 NA
ATOM     44  C   UNL     1       6.625 -12.372   6.151  1.00  0.00     0.031 C 
ATOM     45  C   UNL     1       2.264 -11.955   8.639  1.00  0.00     0.029 A 
ATOM     46  N   UNL     1       3.559 -13.707   9.130  1.00  0.00    -0.354 N 
ATOM     47  C   UNL     1       7.281 -14.375   7.012  1.00  0.00     0.074 A 
ATOM     48  C   UNL     1       7.496 -13.358   6.011  1.00  0.00     0.031 C 
ATOM     49  C   UNL     1       1.635 -12.664   9.590  1.00  0.00     0.029 A 
ATOM     50  C   UNL     1       2.454 -13.818   9.940  1.00  0.00     0.049 A 
ATOM     51  H   UNL     1       4.287 -14.370   9.118  1.00  0.00     0.167 HD
ATOM     52  C   UNL     1       8.133 -15.401   7.244  1.00  0.00     0.037 A 
ATOM     53  C   UNL     1       2.148 -14.742  10.870  1.00  0.00     0.037 A 
ATOM     54  C   UNL     1       7.932 -16.390   8.268  1.00  0.00     0.049 A 
ATOM     55  C   UNL     1       3.129 -15.853  11.134  1.00  0.00     0.074 A 
ATOM     56  C   UNL     1       8.759 -17.435   8.636  1.00  0.00     0.029 A 
ATOM     57  N   UNL     1       6.817 -16.451   9.092  1.00  0.00    -0.354 N 
ATOM     58  N   UNL     1       4.283 -16.095  10.562  1.00  0.00    -0.248 NA
ATOM     59  C   UNL     1       2.770 -16.809  12.189  1.00  0.00     0.031 C 
ATOM     60  C   UNL     1       8.121 -18.160   9.648  1.00  0.00     0.029 A 
ATOM     61  C   UNL     1       6.926 -17.528   9.956  1.00  0.00     0.049 A 
ATOM     62  H   UNL     1       6.060 -15.821   9.067  1.00  0.00     0.167 HD
ATOM     63  C   UNL     1       4.802 -17.211  11.204  1.00  0.00     0.074 A 
ATOM     64  C   UNL     1       3.847 -17.579  12.229  1.00  0.00     0.031 C 
ATOM     65  C   UNL     1       5.962 -17.875  10.968  1.00  0.00     0.037 A 
BRANCH  52  66
ATOM     66  C   UNL     1       9.364 -15.489   6.385  1.00  0.00     0.064 A 
ATOM     67  C   UNL     1      10.383 -14.524   6.452  1.00  0.00     0.173 A 
ATOM     68  C   UNL     1       9.537 -16.558   5.493  1.00  0.00     0.173 A 
ATOM     69  F   UNL     1      10.263 -13.470   7.274  1.00  0.00    -0.203 F 
ATOM     70  C   UNL     1      11.507 -14.606   5.634  1.00  0.00     0.198 A 
ATOM     71  C   UNL     1      10.680 -16.657   4.704  1.00  0.00     0.198 A 
ATOM     72  F   UNL     1       8.597 -17.509   5.386  1.00  0.00    -0.203 F 
ATOM     73  F   UNL     1      12.433 -13.638   5.671  1.00  0.00    -0.200 F 
ATOM     74  C   UNL     1      11.659 -15.677   4.768  1.00  0.00     0.200 A 
ATOM     75  F   UNL     1      10.832 -17.700   3.876  1.00  0.00    -0.200 F 
ATOM     76  F   UNL     1      12.744 -15.759   3.986  1.00  0.00    -0.200 F 
ENDBRANCH  52  66
BRANCH  53  77
ATOM     77  C   UNL     1       0.888 -14.628  11.653  1.00  0.00     0.064 A 
ATOM     78  C   UNL     1       0.914 -14.344  13.026  1.00  0.00     0.173 A 
ATOM     79  C   UNL     1      -0.366 -14.808  11.052  1.00  0.00     0.173 A 
ATOM     80  F   UNL     1       2.089 -14.179  13.653  1.00  0.00    -0.203 F 
ATOM     81  C   UNL     1      -0.260 -14.276  13.773  1.00  0.00     0.198 A 
ATOM     82  C   UNL     1      -1.543 -14.706  11.793  1.00  0.00     0.198 A 
ATOM     83  F   UNL     1      -0.451 -15.072   9.739  1.00  0.00    -0.203 F 
ATOM     84  F   UNL     1      -0.200 -14.059  15.094  1.00  0.00    -0.200 F 
ATOM     85  C   UNL     1      -1.488 -14.451  13.154  1.00  0.00     0.200 A 
ATOM     86  F   UNL     1      -2.728 -14.858  11.187  1.00  0.00    -0.200 F 
ATOM     87  F   UNL     1      -2.618 -14.383  13.871  1.00  0.00    -0.200 F 
ENDBRANCH  53  77
BRANCH  65  88
ATOM     88  C   UNL     1       6.271 -19.041  11.863  1.00  0.00     0.064 A 
ATOM     89  C   UNL     1       5.522 -20.227  11.820  1.00  0.00     0.173 A 
ATOM     90  C   UNL     1       7.337 -18.971  12.773  1.00  0.00     0.173 A 
ATOM     91  F   UNL     1       4.486 -20.341  10.974  1.00  0.00    -0.203 F 
ATOM     92  C   UNL     1       5.796 -21.278  12.690  1.00  0.00     0.198 A 
ATOM     93  C   UNL     1       7.634 -20.040  13.613  1.00  0.00     0.198 A 
ATOM     94  F   UNL     1       8.094 -17.866  12.846  1.00  0.00    -0.203 F 
ATOM     95  F   UNL     1       5.020 -22.370  12.682  1.00  0.00    -0.200 F 
ATOM     96  C   UNL     1       6.854 -21.186  13.582  1.00  0.00     0.200 A 
ATOM     97  F   UNL     1       8.668 -19.956  14.461  1.00  0.00    -0.200 F 
ATOM     98  F   UNL     1       7.115 -22.198  14.421  1.00  0.00    -0.200 F 
ENDBRANCH  65  88
ENDBRANCH  39  40
ENDBRANCH  31  34
ENDBRANCH  29  30
ENDBRANCH  28  29
ENDBRANCH   1  28
TORSDOF 14
