REMARK SMILES CC(C)Cc1ccc([C@H](CC[C@@H](C)O)C(=O)NCCCCNC(=O)c2ccc(-c3c4nc(c(-c5c(F)c(F)c(F)c(F)c5F)c5ccc([nH]5)c(-c5c(F)c(F)c(F)c(F)c5F)c5nc(c(-c6c(F)c(F)c(F)c(F)c6F)c6ccc3[nH]6)C=C5)C=C4)cc2)cc1
REMARK SMILES IDX 18 1 17 2 15 3 16 4 9 6 8 7 5 8 6 9 89 10 7 11 88 12 4 13
REMARK SMILES IDX 2 14 1 15 3 16 10 17 11 18 12 19 13 20 14 21 19 23 20 24
REMARK SMILES IDX 21 25 22 26 23 27 24 29 25 30 26 31 87 32 27 33 86 34 28 35
REMARK SMILES IDX 29 36 30 37 80 38 31 39 85 40 79 41 81 42 32 43 84 44 78 45
REMARK SMILES IDX 77 46 33 48 65 49 45 50 64 51 46 52 49 53 63 54 82 55 47 56
REMARK SMILES IDX 48 57 62 59 83 60 50 61 34 62 35 63 43 64 36 65 37 66 41 67
REMARK SMILES IDX 44 68 38 69 39 70 42 71 40 72 66 73 67 74 75 75 68 76 69 77
REMARK SMILES IDX 73 78 76 79 70 80 71 81 74 82 72 83 51 84 52 85 60 86 53 87
REMARK SMILES IDX 54 88 58 89 61 90 55 91 56 92 59 93 57 94
REMARK H PARENT 17 5 14 22 22 28 81 47 49 58
REMARK Flexibility Score: inf
ROOT
ATOM      1  C   UNL     1      -0.101   5.033  -2.293  1.00  0.00     0.116 C 
ENDROOT
BRANCH   1   2
ATOM      2  N   UNL     1      -1.375   5.223  -2.965  1.00  0.00    -0.356 N 
ATOM      3  C   UNL     1      -2.638   4.981  -2.498  1.00  0.00     0.227 C 
ATOM      4  O   UNL     1      -3.588   5.210  -3.249  1.00  0.00    -0.274 OA
ATOM      5  H   UNL     1      -1.322   5.573  -3.884  1.00  0.00     0.163 HD
BRANCH   3   6
ATOM      6  C   UNL     1      -2.857   4.431  -1.077  1.00  0.00     0.108 C 
BRANCH   6   7
ATOM      7  C   UNL     1      -2.388   5.410   0.009  1.00  0.00    -0.036 A 
ATOM      8  C   UNL     1      -1.354   7.250   1.922  1.00  0.00    -0.048 A 
ATOM      9  C   UNL     1      -1.817   7.692   0.681  1.00  0.00     0.004 A 
ATOM     10  C   UNL     1      -1.442   5.880   2.205  1.00  0.00     0.004 A 
ATOM     11  C   UNL     1      -2.357   6.793  -0.243  1.00  0.00     0.005 A 
ATOM     12  C   UNL     1      -1.966   4.976   1.272  1.00  0.00     0.005 A 
BRANCH   8  13
ATOM     13  C   UNL     1      -0.713   8.170   2.938  1.00  0.00     0.038 C 
BRANCH  13  14
ATOM     14  C   UNL     1      -1.123   9.659   2.924  1.00  0.00    -0.013 C 
ATOM     15  C   UNL     1      -2.619   9.853   3.185  1.00  0.00     0.008 C 
ATOM     16  C   UNL     1      -0.321  10.425   3.981  1.00  0.00     0.008 C 
ENDBRANCH  13  14
ENDBRANCH   8  13
ENDBRANCH   6   7
BRANCH   6  17
ATOM     17  C   UNL     1      -2.242   3.006  -1.023  1.00  0.00     0.021 C 
BRANCH  17  18
ATOM     18  C   UNL     1      -3.211   1.902  -0.599  1.00  0.00     0.032 C 
BRANCH  18  19
ATOM     19  C   UNL     1      -4.291   1.541  -1.628  1.00  0.00     0.111 C 
ATOM     20  C   UNL     1      -3.755   1.208  -3.017  1.00  0.00     0.038 C 
BRANCH  19  21
ATOM     21  O   UNL     1      -4.995   0.400  -1.134  1.00  0.00    -0.393 OA
ATOM     22  H   UNL     1      -4.382  -0.347  -1.050  1.00  0.00     0.210 HD
ENDBRANCH  19  21
ENDBRANCH  18  19
ENDBRANCH  17  18
ENDBRANCH   6  17
ENDBRANCH   3   6
ENDBRANCH   1   2
BRANCH   1  23
ATOM     23  C   UNL     1       0.689   3.877  -2.901  1.00  0.00     0.023 C 
BRANCH  23  24
ATOM     24  C   UNL     1       1.267   4.175  -4.280  1.00  0.00     0.023 C 
BRANCH  24  25
ATOM     25  C   UNL     1       2.228   5.356  -4.321  1.00  0.00     0.116 C 
BRANCH  25  26
ATOM     26  N   UNL     1       3.365   5.201  -3.423  1.00  0.00    -0.352 N 
ATOM     27  C   UNL     1       4.681   5.515  -3.659  1.00  0.00     0.251 C 
ATOM     28  H   UNL     1       3.165   4.824  -2.535  1.00  0.00     0.163 HD
ATOM     29  O   UNL     1       5.558   5.227  -2.853  1.00  0.00    -0.269 OA
BRANCH  27  30
ATOM     30  C   UNL     1       5.024   6.176  -4.931  1.00  0.00     0.039 A 
ATOM     31  C   UNL     1       5.981   5.591  -5.763  1.00  0.00     0.014 A 
ATOM     32  C   UNL     1       4.325   7.317  -5.333  1.00  0.00     0.014 A 
ATOM     33  C   UNL     1       6.180   6.108  -7.043  1.00  0.00     0.010 A 
ATOM     34  C   UNL     1       4.474   7.785  -6.631  1.00  0.00     0.010 A 
ATOM     35  C   UNL     1       5.396   7.179  -7.500  1.00  0.00    -0.014 A 
BRANCH  35  36
ATOM     36  C   UNL     1       5.504   7.684  -8.889  1.00  0.00     0.031 A 
ATOM     37  C   UNL     1       5.961   9.092  -9.135  1.00  0.00     0.074 A 
ATOM     38  C   UNL     1       5.080   6.918  -9.912  1.00  0.00     0.049 A 
ATOM     39  N   UNL     1       5.988   9.772 -10.252  1.00  0.00    -0.248 NA
ATOM     40  C   UNL     1       6.412   9.850  -7.957  1.00  0.00     0.031 C 
ATOM     41  C   UNL     1       4.553   5.558  -9.790  1.00  0.00     0.029 A 
ATOM     42  N   UNL     1       4.999   7.187 -11.255  1.00  0.00    -0.354 N 
ATOM     43  C   UNL     1       6.424  11.043  -9.907  1.00  0.00     0.074 A 
ATOM     44  C   UNL     1       6.610  11.054  -8.473  1.00  0.00     0.031 C 
ATOM     45  C   UNL     1       4.205   5.111 -11.007  1.00  0.00     0.029 A 
ATOM     46  C   UNL     1       4.452   6.163 -11.988  1.00  0.00     0.049 A 
ATOM     47  H   UNL     1       5.303   8.033 -11.655  1.00  0.00     0.167 HD
ATOM     48  C   UNL     1       6.663  12.100 -10.719  1.00  0.00     0.037 A 
ATOM     49  C   UNL     1       4.166   6.088 -13.302  1.00  0.00     0.037 A 
ATOM     50  C   UNL     1       6.517  12.069 -12.149  1.00  0.00     0.049 A 
ATOM     51  C   UNL     1       4.482   7.260 -14.190  1.00  0.00     0.074 A 
ATOM     52  C   UNL     1       6.824  13.054 -13.070  1.00  0.00     0.029 A 
ATOM     53  N   UNL     1       6.020  10.990 -12.866  1.00  0.00    -0.354 N 
ATOM     54  N   UNL     1       4.971   8.432 -13.866  1.00  0.00    -0.248 NA
ATOM     55  C   UNL     1       4.215   7.096 -15.625  1.00  0.00     0.031 C 
ATOM     56  C   UNL     1       6.476  12.586 -14.342  1.00  0.00     0.029 A 
ATOM     57  C   UNL     1       5.993  11.293 -14.218  1.00  0.00     0.049 A 
ATOM     58  H   UNL     1       5.729  10.135 -12.473  1.00  0.00     0.167 HD
ATOM     59  C   UNL     1       5.091   9.138 -15.055  1.00  0.00     0.074 A 
ATOM     60  C   UNL     1       4.634   8.257 -16.111  1.00  0.00     0.031 C 
ATOM     61  C   UNL     1       5.540  10.401 -15.254  1.00  0.00     0.037 A 
BRANCH  48  62
ATOM     62  C   UNL     1       7.106  13.379 -10.072  1.00  0.00     0.064 A 
ATOM     63  C   UNL     1       8.376  13.510  -9.490  1.00  0.00     0.173 A 
ATOM     64  C   UNL     1       6.254  14.493 -10.046  1.00  0.00     0.173 A 
ATOM     65  F   UNL     1       9.223  12.469  -9.476  1.00  0.00    -0.203 F 
ATOM     66  C   UNL     1       8.763  14.697  -8.875  1.00  0.00     0.198 A 
ATOM     67  C   UNL     1       6.656  15.689  -9.456  1.00  0.00     0.198 A 
ATOM     68  F   UNL     1       5.031  14.423 -10.591  1.00  0.00    -0.203 F 
ATOM     69  F   UNL     1       9.959  14.780  -8.275  1.00  0.00    -0.200 F 
ATOM     70  C   UNL     1       7.906  15.787  -8.863  1.00  0.00     0.200 A 
ATOM     71  F   UNL     1       5.830  16.744  -9.454  1.00  0.00    -0.200 F 
ATOM     72  F   UNL     1       8.280  16.929  -8.271  1.00  0.00    -0.200 F 
ENDBRANCH  48  62
BRANCH  49  73
ATOM     73  C   UNL     1       3.566   4.847 -13.854  1.00  0.00     0.064 A 
ATOM     74  C   UNL     1       4.323   3.974 -14.647  1.00  0.00     0.173 A 
ATOM     75  C   UNL     1       2.236   4.498 -13.582  1.00  0.00     0.173 A 
ATOM     76  F   UNL     1       5.594   4.276 -14.948  1.00  0.00    -0.203 F 
ATOM     77  C   UNL     1       3.767   2.803 -15.158  1.00  0.00     0.198 A 
ATOM     78  C   UNL     1       1.688   3.315 -14.073  1.00  0.00     0.198 A 
ATOM     79  F   UNL     1       1.474   5.297 -12.821  1.00  0.00    -0.203 F 
ATOM     80  F   UNL     1       4.503   2.001 -15.940  1.00  0.00    -0.200 F 
ATOM     81  C   UNL     1       2.453   2.471 -14.865  1.00  0.00     0.200 A 
ATOM     82  F   UNL     1       0.423   2.990 -13.776  1.00  0.00    -0.200 F 
ATOM     83  F   UNL     1       1.922   1.339 -15.348  1.00  0.00    -0.200 F 
ENDBRANCH  49  73
BRANCH  61  84
ATOM     84  C   UNL     1       5.587  10.899 -16.668  1.00  0.00     0.064 A 
ATOM     85  C   UNL     1       4.421  11.258 -17.358  1.00  0.00     0.173 A 
ATOM     86  C   UNL     1       6.818  11.068 -17.319  1.00  0.00     0.173 A 
ATOM     87  F   UNL     1       3.220  11.100 -16.782  1.00  0.00    -0.203 F 
ATOM     88  C   UNL     1       4.485  11.754 -18.658  1.00  0.00     0.198 A 
ATOM     89  C   UNL     1       6.880  11.587 -18.608  1.00  0.00     0.198 A 
ATOM     90  F   UNL     1       7.962  10.743 -16.697  1.00  0.00    -0.203 F 
ATOM     91  F   UNL     1       3.357  12.057 -19.314  1.00  0.00    -0.200 F 
ATOM     92  C   UNL     1       5.714  11.925 -19.278  1.00  0.00     0.200 A 
ATOM     93  F   UNL     1       8.069  11.762 -19.202  1.00  0.00    -0.200 F 
ATOM     94  F   UNL     1       5.774  12.411 -20.526  1.00  0.00    -0.200 F 
ENDBRANCH  61  84
ENDBRANCH  35  36
ENDBRANCH  27  30
ENDBRANCH  25  26
ENDBRANCH  24  25
ENDBRANCH  23  24
ENDBRANCH   1  23
TORSDOF 18
