REMARK SMILES [NH3+][C@H]1CCCCC[C@H]1C(=O)NC[C@@H]1CCC[C@@H]1C(=O)NCCCCNC(=O)c1ccc(-c2c3nc(c(-c4c(F)c(F)c(F)c(F)c4F)c4ccc([nH]4)c(-c4c(F)c(F)c(F)c(F)c4F)c4nc(c(-c5c(F)c(F)c(F)c(F)c5F)c5ccc2[nH]5)C=C4)C=C3)cc1
REMARK SMILES IDX 18 1 19 2 20 3 17 5 13 6 14 7 15 8 16 9 12 10 11 11 9 12
REMARK SMILES IDX 10 13 8 15 2 16 1 17 3 21 7 23 6 24 5 25 4 26 21 28 22 29
REMARK SMILES IDX 23 30 24 31 25 32 26 33 27 35 28 36 29 37 90 38 30 39 89 40
REMARK SMILES IDX 31 41 32 42 33 43 83 44 34 45 88 46 82 47 84 48 35 49 87 50
REMARK SMILES IDX 81 51 80 52 36 54 68 55 48 56 67 57 49 58 52 59 66 60 85 61
REMARK SMILES IDX 50 62 51 63 65 65 86 66 53 67 37 68 38 69 46 70 39 71 40 72
REMARK SMILES IDX 44 73 47 74 41 75 42 76 45 77 43 78 69 79 70 80 78 81 71 82
REMARK SMILES IDX 72 83 76 84 79 85 73 86 74 87 77 88 75 89 54 90 55 91 63 92
REMARK SMILES IDX 56 93 57 94 61 95 64 96 58 97 59 98 62 99 60 100
REMARK H PARENT 20 4 11 14 1 18 1 19 1 20 25 34 84 53 52 64
REMARK Flexibility Score: 90.00
ROOT
ATOM      1  C   UNL     1       2.676  -1.905   2.031  1.00  0.00     0.223 C 
ATOM      2  O   UNL     1       2.681  -1.867   0.799  1.00  0.00    -0.275 OA
ATOM      3  N   UNL     1       1.686  -2.635   2.629  1.00  0.00    -0.356 N 
ATOM      4  H   UNL     1       0.825  -2.654   2.153  1.00  0.00     0.163 HD
ENDROOT
BRANCH   1   5
ATOM      5  C   UNL     1       3.729  -1.179   2.878  1.00  0.00     0.083 C 
ATOM      6  C   UNL     1       3.701   0.365   2.784  1.00  0.00     0.021 C 
ATOM      7  C   UNL     1       4.387   0.672   1.450  1.00  0.00     0.006 C 
ATOM      8  C   UNL     1       5.416  -0.440   1.259  1.00  0.00     0.001 C 
ATOM      9  C   UNL     1       5.125  -1.499   2.326  1.00  0.00     0.014 C 
BRANCH   6  10
ATOM     10  C   UNL     1       2.337   1.026   3.023  1.00  0.00     0.120 C 
BRANCH  10  11
ATOM     11  N   UNL     1       2.208   2.332   2.387  1.00  0.00    -0.355 N 
ATOM     12  C   UNL     1       1.157   2.901   1.726  1.00  0.00     0.229 C 
ATOM     13  O   UNL     1       1.352   3.998   1.191  1.00  0.00    -0.275 OA
ATOM     14  H   UNL     1       3.011   2.897   2.444  1.00  0.00     0.163 HD
BRANCH  12  15
ATOM     15  C   UNL     1      -0.229   2.243   1.643  1.00  0.00     0.136 C 
BRANCH  15  16
ATOM     16  C   UNL     1      -0.336   1.141   0.548  1.00  0.00     0.193 C 
BRANCH  16  17
ATOM     17  N   UNL     1       0.847   0.302   0.434  1.00  0.00    -0.354 N 
ATOM     18  H   UNL     1       0.703  -0.392  -0.299  1.00  0.00     0.344 HD
ATOM     19  H   UNL     1       1.014  -0.172   1.322  1.00  0.00     0.344 HD
ATOM     20  H   UNL     1       1.654   0.881   0.201  1.00  0.00     0.344 HD
ENDBRANCH  16  17
BRANCH  16  21
ATOM     21  C   UNL     1      -1.562   0.212   0.641  1.00  0.00     0.066 CG0
ATOM     22  G   UNL     1      -1.646  -0.583   1.940  1.00  0.00     0.000 G0
ENDBRANCH  16  21
ENDBRANCH  15  16
BRANCH  15  23
ATOM     23  C   UNL     1      -0.771   2.005   3.067  1.00  0.00     0.020 C 
BRANCH  23  24
ATOM     24  C   UNL     1      -2.243   1.615   3.125  1.00  0.00     0.001 C 
BRANCH  24  25
ATOM     25  C   UNL     1      -2.456   0.109   3.030  1.00  0.00     0.000 C 
BRANCH  25  26
ATOM     26  C   UNL     1      -1.646  -0.583   1.940  1.00  0.00     0.006 CG0
ATOM     27  G   UNL     1      -1.562   0.212   0.641  1.00  0.00     0.000 G0
ENDBRANCH  25  26
ENDBRANCH  24  25
ENDBRANCH  23  24
ENDBRANCH  15  23
ENDBRANCH  12  15
ENDBRANCH  10  11
ENDBRANCH   6  10
ENDBRANCH   1   5
BRANCH   3  28
ATOM     28  C   UNL     1       1.734  -3.387   3.869  1.00  0.00     0.116 C 
BRANCH  28  29
ATOM     29  C   UNL     1       0.551  -3.147   4.808  1.00  0.00     0.023 C 
BRANCH  29  30
ATOM     30  C   UNL     1      -0.863  -3.364   4.256  1.00  0.00     0.023 C 
BRANCH  30  31
ATOM     31  C   UNL     1      -1.130  -4.601   3.402  1.00  0.00     0.116 C 
BRANCH  31  32
ATOM     32  N   UNL     1      -1.266  -5.803   4.200  1.00  0.00    -0.352 N 
ATOM     33  C   UNL     1      -2.333  -6.653   4.355  1.00  0.00     0.251 C 
ATOM     34  H   UNL     1      -0.464  -6.051   4.714  1.00  0.00     0.163 HD
ATOM     35  O   UNL     1      -2.285  -7.496   5.254  1.00  0.00    -0.269 OA
BRANCH  33  36
ATOM     36  C   UNL     1      -3.537  -6.609   3.482  1.00  0.00     0.039 A 
ATOM     37  C   UNL     1      -4.777  -6.921   4.057  1.00  0.00     0.014 A 
ATOM     38  C   UNL     1      -3.464  -6.413   2.099  1.00  0.00     0.014 A 
ATOM     39  C   UNL     1      -5.924  -7.045   3.262  1.00  0.00     0.010 A 
ATOM     40  C   UNL     1      -4.621  -6.488   1.309  1.00  0.00     0.010 A 
ATOM     41  C   UNL     1      -5.857  -6.840   1.876  1.00  0.00    -0.014 A 
BRANCH  41  42
ATOM     42  C   UNL     1      -7.049  -7.093   1.016  1.00  0.00     0.031 A 
ATOM     43  C   UNL     1      -7.071  -8.280   0.085  1.00  0.00     0.074 A 
ATOM     44  C   UNL     1      -8.123  -6.281   1.071  1.00  0.00     0.049 A 
ATOM     45  N   UNL     1      -8.010  -8.674  -0.741  1.00  0.00    -0.248 NA
ATOM     46  C   UNL     1      -5.871  -9.131   0.073  1.00  0.00     0.031 C 
ATOM     47  C   UNL     1      -8.242  -5.092   1.912  1.00  0.00     0.029 A 
ATOM     48  N   UNL     1      -9.325  -6.340   0.405  1.00  0.00    -0.354 N 
ATOM     49  C   UNL     1      -7.511  -9.806  -1.373  1.00  0.00     0.074 A 
ATOM     50  C   UNL     1      -6.170 -10.013  -0.870  1.00  0.00     0.031 C 
ATOM     51  C   UNL     1      -9.457  -4.546   1.730  1.00  0.00     0.029 A 
ATOM     52  C   UNL     1     -10.195  -5.334   0.745  1.00  0.00     0.049 A 
ATOM     53  H   UNL     1      -9.541  -7.039  -0.255  1.00  0.00     0.167 HD
ATOM     54  C   UNL     1      -8.119 -10.618  -2.273  1.00  0.00     0.037 A 
ATOM     55  C   UNL     1     -11.447  -5.077   0.316  1.00  0.00     0.037 A 
ATOM     56  C   UNL     1      -9.463 -10.446  -2.758  1.00  0.00     0.049 A 
ATOM     57  C   UNL     1     -12.098  -5.992  -0.688  1.00  0.00     0.074 A 
ATOM     58  C   UNL     1     -10.168 -11.236  -3.651  1.00  0.00     0.029 A 
ATOM     59  N   UNL     1     -10.309  -9.415  -2.384  1.00  0.00    -0.354 N 
ATOM     60  N   UNL     1     -11.626  -7.077  -1.248  1.00  0.00    -0.248 NA
ATOM     61  C   UNL     1     -13.464  -5.646  -1.112  1.00  0.00     0.031 C 
ATOM     62  C   UNL     1     -11.434 -10.671  -3.834  1.00  0.00     0.029 A 
ATOM     63  C   UNL     1     -11.528  -9.546  -3.031  1.00  0.00     0.049 A 
ATOM     64  H   UNL     1     -10.080  -8.697  -1.751  1.00  0.00     0.167 HD
ATOM     65  C   UNL     1     -12.641  -7.558  -2.065  1.00  0.00     0.074 A 
ATOM     66  C   UNL     1     -13.761  -6.654  -1.920  1.00  0.00     0.031 C 
ATOM     67  C   UNL     1     -12.642  -8.651  -2.865  1.00  0.00     0.037 A 
BRANCH  54  68
ATOM     68  C   UNL     1      -7.333 -11.789  -2.787  1.00  0.00     0.064 A 
ATOM     69  C   UNL     1      -7.092 -12.913  -1.984  1.00  0.00     0.173 A 
ATOM     70  C   UNL     1      -6.856 -11.805  -4.106  1.00  0.00     0.173 A 
ATOM     71  F   UNL     1      -7.519 -12.940  -0.713  1.00  0.00    -0.203 F 
ATOM     72  C   UNL     1      -6.379 -14.003  -2.476  1.00  0.00     0.198 A 
ATOM     73  C   UNL     1      -6.164 -12.908  -4.602  1.00  0.00     0.198 A 
ATOM     74  F   UNL     1      -7.068 -10.757  -4.916  1.00  0.00    -0.203 F 
ATOM     75  F   UNL     1      -6.125 -15.051  -1.679  1.00  0.00    -0.200 F 
ATOM     76  C   UNL     1      -5.921 -14.002  -3.786  1.00  0.00     0.200 A 
ATOM     77  F   UNL     1      -5.732 -12.911  -5.870  1.00  0.00    -0.200 F 
ATOM     78  F   UNL     1      -5.240 -15.055  -4.259  1.00  0.00    -0.200 F 
ENDBRANCH  54  68
BRANCH  55  79
ATOM     79  C   UNL     1     -12.195  -3.914   0.858  1.00  0.00     0.064 A 
ATOM     80  C   UNL     1     -13.279  -4.101   1.728  1.00  0.00     0.173 A 
ATOM     81  C   UNL     1     -11.864  -2.601   0.497  1.00  0.00     0.173 A 
ATOM     82  F   UNL     1     -13.649  -5.341   2.079  1.00  0.00    -0.203 F 
ATOM     83  C   UNL     1     -14.016  -3.018   2.202  1.00  0.00     0.198 A 
ATOM     84  C   UNL     1     -12.588  -1.517   0.989  1.00  0.00     0.198 A 
ATOM     85  F   UNL     1     -10.839  -2.371  -0.336  1.00  0.00    -0.203 F 
ATOM     86  F   UNL     1     -15.075  -3.227   2.995  1.00  0.00    -0.200 F 
ATOM     87  C   UNL     1     -13.668  -1.726   1.835  1.00  0.00     0.200 A 
ATOM     88  F   UNL     1     -12.245  -0.270   0.638  1.00  0.00    -0.200 F 
ATOM     89  F   UNL     1     -14.379  -0.685   2.288  1.00  0.00    -0.200 F 
ENDBRANCH  55  79
BRANCH  67  90
ATOM     90  C   UNL     1     -13.903  -8.953  -3.619  1.00  0.00     0.064 A 
ATOM     91  C   UNL     1     -14.281  -8.205  -4.743  1.00  0.00     0.173 A 
ATOM     92  C   UNL     1     -14.722 -10.024  -3.233  1.00  0.00     0.173 A 
ATOM     93  F   UNL     1     -13.537  -7.162  -5.141  1.00  0.00    -0.203 F 
ATOM     94  C   UNL     1     -15.447  -8.507  -5.442  1.00  0.00     0.198 A 
ATOM     95  C   UNL     1     -15.876 -10.336  -3.948  1.00  0.00     0.198 A 
ATOM     96  F   UNL     1     -14.400 -10.772  -2.167  1.00  0.00    -0.203 F 
ATOM     97  F   UNL     1     -15.811  -7.755  -6.491  1.00  0.00    -0.200 F 
ATOM     98  C   UNL     1     -16.240  -9.574  -5.048  1.00  0.00     0.200 A 
ATOM     99  F   UNL     1     -16.637 -11.373  -3.570  1.00  0.00    -0.200 F 
ATOM    100  F   UNL     1     -17.360  -9.864  -5.724  1.00  0.00    -0.200 F 
ENDBRANCH  67  90
ENDBRANCH  41  42
ENDBRANCH  33  36
ENDBRANCH  31  32
ENDBRANCH  30  31
ENDBRANCH  29  30
ENDBRANCH  28  29
ENDBRANCH   3  28
TORSDOF 15
