REMARK SMILES CCOC(=O)N[C@H]1C=C[C@H](C(=O)NCCCCNC(=O)c2ccc(-c3c4nc(c(-c5c(F)c(F)c(F)c(F)c5F)c5ccc([nH]5)c(-c5c(F)c(F)c(F)c(F)c5F)c5nc(c(-c6c(F)c(F)c(F)c(F)c6F)c6ccc3[nH]6)C=C5)C=C4)cc2)C1
REMARK SMILES IDX 15 1 14 2 13 3 11 4 12 5 10 7 7 8 8 9 84 10 9 11 6 12 4 13
REMARK SMILES IDX 5 14 3 16 2 17 1 18 16 19 17 20 18 21 19 22 20 24 21 25
REMARK SMILES IDX 22 26 83 27 23 28 82 29 24 30 25 31 26 32 76 33 27 34 81 35
REMARK SMILES IDX 75 36 77 37 28 38 80 39 74 40 73 41 29 43 61 44 41 45 60 46
REMARK SMILES IDX 42 47 45 48 59 49 78 50 43 51 44 52 58 54 79 55 46 56 30 57
REMARK SMILES IDX 31 58 39 59 32 60 33 61 37 62 40 63 34 64 35 65 38 66 36 67
REMARK SMILES IDX 62 68 63 69 71 70 64 71 65 72 69 73 72 74 66 75 67 76 70 77
REMARK SMILES IDX 68 78 47 79 48 80 56 81 49 82 50 83 54 84 57 85 51 86 52 87
REMARK SMILES IDX 55 88 53 89
REMARK H PARENT 13 6 6 15 18 23 77 42 45 53
REMARK Flexibility Score: inf
ROOT
ATOM      1  C   UNL     1      -1.233   9.826   2.820  1.00  0.00     0.023 C 
ENDROOT
BRANCH   1   2
ATOM      2  C   UNL     1      -1.120   8.445   2.195  1.00  0.00     0.116 C 
BRANCH   2   3
ATOM      3  N   UNL     1      -0.838   8.501   0.771  1.00  0.00    -0.356 N 
ATOM      4  C   UNL     1       0.090   7.781   0.064  1.00  0.00     0.227 C 
ATOM      5  O   UNL     1       0.144   7.931  -1.156  1.00  0.00    -0.274 OA
ATOM      6  H   UNL     1      -1.381   9.135   0.249  1.00  0.00     0.163 HD
BRANCH   4   7
ATOM      7  C   UNL     1       1.001   6.825   0.835  1.00  0.00     0.103 C 
ATOM      8  C   UNL     1       1.605   4.672  -0.251  1.00  0.00     0.109 C 
ATOM      9  C   UNL     1       0.452   4.552   0.692  1.00  0.00    -0.006 C 
ATOM     10  C   UNL     1       2.066   6.130  -0.036  1.00  0.00     0.047 C 
ATOM     11  C   UNL     1       0.162   5.687   1.320  1.00  0.00    -0.016 C 
BRANCH   8  12
ATOM     12  N   UNL     1       2.637   3.726   0.133  1.00  0.00    -0.315 N 
ATOM     13  C   UNL     1       2.493   2.382   0.310  1.00  0.00     0.407 C 
ATOM     14  O   UNL     1       3.408   1.687   0.737  1.00  0.00    -0.225 OA
ATOM     15  H   UNL     1       3.538   4.095   0.281  1.00  0.00     0.167 HD
BRANCH  13  16
ATOM     16  O   UNL     1       1.240   1.944   0.047  1.00  0.00    -0.450 OA
BRANCH  16  17
ATOM     17  C   UNL     1       0.836   0.741   0.707  1.00  0.00     0.231 C 
ATOM     18  C   UNL     1       1.062  -0.455  -0.188  1.00  0.00     0.049 C 
ENDBRANCH  16  17
ENDBRANCH  13  16
ENDBRANCH   8  12
ENDBRANCH   4   7
ENDBRANCH   2   3
ENDBRANCH   1   2
BRANCH   1  19
ATOM     19  C   UNL     1      -2.397  10.665   2.301  1.00  0.00     0.023 C 
BRANCH  19  20
ATOM     20  C   UNL     1      -3.768  10.010   2.422  1.00  0.00     0.116 C 
BRANCH  20  21
ATOM     21  N   UNL     1      -4.119   9.686   3.796  1.00  0.00    -0.352 N 
ATOM     22  C   UNL     1      -5.238  10.023   4.516  1.00  0.00     0.251 C 
ATOM     23  H   UNL     1      -3.455   9.144   4.281  1.00  0.00     0.163 HD
ATOM     24  O   UNL     1      -5.279   9.795   5.721  1.00  0.00    -0.269 OA
BRANCH  22  25
ATOM     25  C   UNL     1      -6.386  10.678   3.852  1.00  0.00     0.039 A 
ATOM     26  C   UNL     1      -7.047  11.710   4.522  1.00  0.00     0.014 A 
ATOM     27  C   UNL     1      -6.827  10.270   2.590  1.00  0.00     0.014 A 
ATOM     28  C   UNL     1      -8.122  12.356   3.909  1.00  0.00     0.010 A 
ATOM     29  C   UNL     1      -7.833  10.980   1.941  1.00  0.00     0.010 A 
ATOM     30  C   UNL     1      -8.510  12.014   2.602  1.00  0.00    -0.014 A 
BRANCH  30  31
ATOM     31  C   UNL     1      -9.644  12.709   1.940  1.00  0.00     0.031 A 
ATOM     32  C   UNL     1     -10.879  11.944   1.546  1.00  0.00     0.074 A 
ATOM     33  C   UNL     1      -9.554  14.025   1.670  1.00  0.00     0.049 A 
ATOM     34  N   UNL     1     -11.976  12.377   0.977  1.00  0.00    -0.248 NA
ATOM     35  C   UNL     1     -10.871  10.494   1.798  1.00  0.00     0.031 C 
ATOM     36  C   UNL     1      -8.388  14.866   1.945  1.00  0.00     0.029 A 
ATOM     37  N   UNL     1     -10.460  14.888   1.107  1.00  0.00    -0.354 N 
ATOM     38  C   UNL     1     -12.777  11.256   0.796  1.00  0.00     0.074 A 
ATOM     39  C   UNL     1     -12.014  10.115   1.250  1.00  0.00     0.031 C 
ATOM     40  C   UNL     1      -8.662  16.129   1.585  1.00  0.00     0.029 A 
ATOM     41  C   UNL     1     -10.008  16.182   1.021  1.00  0.00     0.049 A 
ATOM     42  H   UNL     1     -11.350  14.607   0.794  1.00  0.00     0.167 HD
ATOM     43  C   UNL     1     -14.044  11.187   0.322  1.00  0.00     0.037 A 
ATOM     44  C   UNL     1     -10.611  17.287   0.543  1.00  0.00     0.037 A 
ATOM     45  C   UNL     1     -14.806  12.329  -0.114  1.00  0.00     0.049 A 
ATOM     46  C   UNL     1     -12.021  17.186   0.028  1.00  0.00     0.074 A 
ATOM     47  C   UNL     1     -16.117  12.375  -0.553  1.00  0.00     0.029 A 
ATOM     48  N   UNL     1     -14.319  13.627  -0.174  1.00  0.00    -0.354 N 
ATOM     49  N   UNL     1     -12.800  16.135  -0.059  1.00  0.00    -0.248 NA
ATOM     50  C   UNL     1     -12.642  18.432  -0.440  1.00  0.00     0.031 C 
ATOM     51  C   UNL     1     -16.402  13.689  -0.941  1.00  0.00     0.029 A 
ATOM     52  C   UNL     1     -15.295  14.477  -0.671  1.00  0.00     0.049 A 
ATOM     53  H   UNL     1     -13.413  13.903   0.096  1.00  0.00     0.167 HD
ATOM     54  C   UNL     1     -14.011  16.596  -0.560  1.00  0.00     0.074 A 
ATOM     55  C   UNL     1     -13.868  18.027  -0.737  1.00  0.00     0.031 C 
ATOM     56  C   UNL     1     -15.140  15.900  -0.845  1.00  0.00     0.037 A 
BRANCH  43  57
ATOM     57  C   UNL     1     -14.683   9.827   0.243  1.00  0.00     0.064 A 
ATOM     58  C   UNL     1     -14.999   9.087   1.394  1.00  0.00     0.173 A 
ATOM     59  C   UNL     1     -15.003   9.264  -1.002  1.00  0.00     0.173 A 
ATOM     60  F   UNL     1     -14.706   9.572   2.610  1.00  0.00    -0.203 F 
ATOM     61  C   UNL     1     -15.573   7.822   1.300  1.00  0.00     0.198 A 
ATOM     62  C   UNL     1     -15.612   8.014  -1.091  1.00  0.00     0.198 A 
ATOM     63  F   UNL     1     -14.729   9.926  -2.136  1.00  0.00    -0.203 F 
ATOM     64  F   UNL     1     -15.805   7.109   2.411  1.00  0.00    -0.200 F 
ATOM     65  C   UNL     1     -15.886   7.289   0.059  1.00  0.00     0.200 A 
ATOM     66  F   UNL     1     -15.928   7.508  -2.291  1.00  0.00    -0.200 F 
ATOM     67  F   UNL     1     -16.443   6.074  -0.030  1.00  0.00    -0.200 F 
ENDBRANCH  43  57
BRANCH  44  68
ATOM     68  C   UNL     1      -9.893  18.590   0.560  1.00  0.00     0.064 A 
ATOM     69  C   UNL     1     -10.307  19.635   1.398  1.00  0.00     0.173 A 
ATOM     70  C   UNL     1      -8.780  18.817  -0.263  1.00  0.00     0.173 A 
ATOM     71  F   UNL     1     -11.377  19.474   2.190  1.00  0.00    -0.203 F 
ATOM     72  C   UNL     1      -9.652  20.864   1.394  1.00  0.00     0.198 A 
ATOM     73  C   UNL     1      -8.104  20.035  -0.241  1.00  0.00     0.198 A 
ATOM     74  F   UNL     1      -8.338  17.848  -1.078  1.00  0.00    -0.203 F 
ATOM     75  F   UNL     1     -10.101  21.863   2.167  1.00  0.00    -0.200 F 
ATOM     76  C   UNL     1      -8.547  21.061   0.580  1.00  0.00     0.200 A 
ATOM     77  F   UNL     1      -7.026  20.215  -1.016  1.00  0.00    -0.200 F 
ATOM     78  F   UNL     1      -7.912  22.242   0.581  1.00  0.00    -0.200 F 
ENDBRANCH  44  68
BRANCH  56  79
ATOM     79  C   UNL     1     -16.326  16.684  -1.335  1.00  0.00     0.064 A 
ATOM     80  C   UNL     1     -16.334  17.315  -2.589  1.00  0.00     0.173 A 
ATOM     81  C   UNL     1     -17.477  16.797  -0.540  1.00  0.00     0.173 A 
ATOM     82  F   UNL     1     -15.257  17.248  -3.386  1.00  0.00    -0.203 F 
ATOM     83  C   UNL     1     -17.429  18.069  -3.005  1.00  0.00     0.198 A 
ATOM     84  C   UNL     1     -18.585  17.517  -0.977  1.00  0.00     0.198 A 
ATOM     85  F   UNL     1     -17.530  16.205   0.663  1.00  0.00    -0.203 F 
ATOM     86  F   UNL     1     -17.383  18.723  -4.174  1.00  0.00    -0.200 F 
ATOM     87  C   UNL     1     -18.555  18.165  -2.202  1.00  0.00     0.200 A 
ATOM     88  F   UNL     1     -19.680  17.591  -0.207  1.00  0.00    -0.200 F 
ATOM     89  F   UNL     1     -19.607  18.891  -2.603  1.00  0.00    -0.200 F 
ENDBRANCH  56  79
ENDBRANCH  30  31
ENDBRANCH  22  25
ENDBRANCH  20  21
ENDBRANCH  19  20
ENDBRANCH   1  19
TORSDOF 14
