REMARK SMILES C[N@H+]1CC[C@H](C[N@@H+](CC(=O)NCCCCNC(=O)c2ccc(-c3c4nc(c(-c5c(F)c(F)c(F)c(F)c5F)c5ccc([nH]5)c(-c5c(F)c(F)c(F)c(F)c5F)c5nc(c(-c6c(F)c(F)c(F)c(F)c6F)c6ccc3[nH]6)C=C5)C=C4)cc2)C2CC2)C1
REMARK SMILES IDX 13 1 12 2 11 3 9 4 10 5 8 7 7 8 6 10 5 11 1 12 2 13 3 14
REMARK SMILES IDX 85 15 4 17 82 18 83 19 84 20 14 21 15 22 16 23 17 24 18 26
REMARK SMILES IDX 19 27 20 28 81 29 21 30 80 31 22 32 23 33 24 34 74 35 25 36
REMARK SMILES IDX 79 37 73 38 75 39 26 40 78 41 72 42 71 43 27 45 59 46 39 47
REMARK SMILES IDX 58 48 40 49 43 50 57 51 76 52 41 53 42 54 56 56 77 57 44 58
REMARK SMILES IDX 28 59 29 60 37 61 30 62 31 63 35 64 38 65 32 66 33 67 36 68
REMARK SMILES IDX 34 69 60 70 61 71 69 72 62 73 63 74 67 75 70 76 64 77 65 78
REMARK SMILES IDX 68 79 66 80 45 81 46 82 54 83 47 84 48 85 52 86 55 87 49 88
REMARK SMILES IDX 50 89 53 90 51 91
REMARK H PARENT 11 6 7 9 2 16 16 25 75 44 43 55
REMARK Flexibility Score: inf
ROOT
ATOM      1  C   UNL     1       3.292   0.631  -2.531  1.00  0.00     0.023 C 
ENDROOT
BRANCH   1   2
ATOM      2  C   UNL     1       3.040  -0.426  -3.605  1.00  0.00     0.116 C 
BRANCH   2   3
ATOM      3  N   UNL     1       3.914  -1.567  -3.419  1.00  0.00    -0.351 N 
ATOM      4  C   UNL     1       3.700  -2.758  -2.784  1.00  0.00     0.275 C 
ATOM      5  O   UNL     1       4.672  -3.517  -2.701  1.00  0.00    -0.269 OA
ATOM      6  H   UNL     1       4.810  -1.468  -3.816  1.00  0.00     0.163 HD
BRANCH   4   7
ATOM      7  C   UNL     1       2.319  -3.165  -2.227  1.00  0.00     0.363 C 
BRANCH   7   8
ATOM      8  N   UNL     1       2.082  -2.855  -0.779  1.00  0.00    -0.324 N 
ATOM      9  H   UNL     1       1.254  -3.367  -0.476  1.00  0.00     0.348 HD
BRANCH   8  10
ATOM     10  C   UNL     1       1.817  -1.423  -0.592  1.00  0.00     0.272 C 
BRANCH  10  11
ATOM     11  C   UNL     1       1.028  -0.958   0.642  1.00  0.00     0.105 C 
ATOM     12  C   UNL     1      -2.507  -0.101   0.129  1.00  0.00     0.332 C 
ATOM     13  N   UNL     1      -1.061  -0.145  -0.057  1.00  0.00    -0.337 N 
ATOM     14  C   UNL     1      -0.410   1.019   0.543  1.00  0.00     0.262 C 
ATOM     15  C   UNL     1      -0.454  -1.312   0.596  1.00  0.00     0.271 C 
ATOM     16  H   UNL     1      -0.924  -0.177  -1.067  1.00  0.00     0.347 HD
ATOM     17  C   UNL     1       1.038   0.585   0.697  1.00  0.00     0.076 C 
ENDBRANCH  10  11
ENDBRANCH   8  10
BRANCH   8  18
ATOM     18  C   UNL     1       3.212  -3.317   0.065  1.00  0.00     0.184 C 
ATOM     19  C   UNL     1       3.029  -3.566   1.535  1.00  0.00     0.071 C 
ATOM     20  C   UNL     1       3.217  -4.721   0.599  1.00  0.00     0.071 C 
ENDBRANCH   8  18
ENDBRANCH   7   8
ENDBRANCH   4   7
ENDBRANCH   2   3
ENDBRANCH   1   2
BRANCH   1  21
ATOM     21  C   UNL     1       4.314   1.702  -2.849  1.00  0.00     0.023 C 
BRANCH  21  22
ATOM     22  C   UNL     1       3.888   2.675  -3.924  1.00  0.00     0.116 C 
BRANCH  22  23
ATOM     23  N   UNL     1       2.665   3.406  -3.615  1.00  0.00    -0.352 N 
ATOM     24  C   UNL     1       2.398   4.750  -3.758  1.00  0.00     0.251 C 
ATOM     25  H   UNL     1       1.927   2.864  -3.253  1.00  0.00     0.163 HD
ATOM     26  O   UNL     1       1.337   5.220  -3.375  1.00  0.00    -0.269 OA
BRANCH  24  27
ATOM     27  C   UNL     1       3.439   5.628  -4.336  1.00  0.00     0.039 A 
ATOM     28  C   UNL     1       3.711   6.853  -3.724  1.00  0.00     0.014 A 
ATOM     29  C   UNL     1       4.198   5.202  -5.426  1.00  0.00     0.014 A 
ATOM     30  C   UNL     1       4.805   7.605  -4.154  1.00  0.00     0.010 A 
ATOM     31  C   UNL     1       5.363   5.876  -5.755  1.00  0.00     0.010 A 
ATOM     32  C   UNL     1       5.667   7.098  -5.141  1.00  0.00    -0.014 A 
BRANCH  32  33
ATOM     33  C   UNL     1       6.872   7.845  -5.577  1.00  0.00     0.031 A 
ATOM     34  C   UNL     1       7.008   8.259  -7.018  1.00  0.00     0.074 A 
ATOM     35  C   UNL     1       7.864   8.089  -4.700  1.00  0.00     0.049 A 
ATOM     36  N   UNL     1       7.997   8.877  -7.613  1.00  0.00    -0.248 NA
ATOM     37  C   UNL     1       5.909   7.887  -7.925  1.00  0.00     0.031 C 
ATOM     38  C   UNL     1       7.886   7.658  -3.300  1.00  0.00     0.029 A 
ATOM     39  N   UNL     1       9.049   8.762  -4.857  1.00  0.00    -0.354 N 
ATOM     40  C   UNL     1       7.646   8.941  -8.955  1.00  0.00     0.074 A 
ATOM     41  C   UNL     1       6.397   8.230  -9.105  1.00  0.00     0.031 C 
ATOM     42  C   UNL     1       9.004   8.118  -2.715  1.00  0.00     0.029 A 
ATOM     43  C   UNL     1       9.789   8.850  -3.703  1.00  0.00     0.049 A 
ATOM     44  H   UNL     1       9.341   9.146  -5.715  1.00  0.00     0.167 HD
ATOM     45  C   UNL     1       8.284   9.573  -9.967  1.00  0.00     0.037 A 
ATOM     46  C   UNL     1      10.963   9.467  -3.471  1.00  0.00     0.037 A 
ATOM     47  C   UNL     1       9.498  10.324  -9.800  1.00  0.00     0.049 A 
ATOM     48  C   UNL     1      11.622  10.216  -4.598  1.00  0.00     0.074 A 
ATOM     49  C   UNL     1      10.195  11.062 -10.739  1.00  0.00     0.029 A 
ATOM     50  N   UNL     1      10.189  10.439  -8.603  1.00  0.00    -0.354 N 
ATOM     51  N   UNL     1      11.239  10.341  -5.846  1.00  0.00    -0.248 NA
ATOM     52  C   UNL     1      12.867  10.927  -4.278  1.00  0.00     0.031 C 
ATOM     53  C   UNL     1      11.328  11.598 -10.117  1.00  0.00     0.029 A 
ATOM     54  C   UNL     1      11.310  11.232  -8.780  1.00  0.00     0.049 A 
ATOM     55  H   UNL     1       9.922  10.020  -7.753  1.00  0.00     0.167 HD
ATOM     56  C   UNL     1      12.177  11.165  -6.453  1.00  0.00     0.074 A 
ATOM     57  C   UNL     1      13.136  11.527  -5.428  1.00  0.00     0.031 C 
ATOM     58  C   UNL     1      12.242  11.585  -7.740  1.00  0.00     0.037 A 
BRANCH  45  59
ATOM     59  C   UNL     1       7.663   9.494 -11.332  1.00  0.00     0.064 A 
ATOM     60  C   UNL     1       6.446  10.131 -11.625  1.00  0.00     0.173 A 
ATOM     61  C   UNL     1       8.291   8.780 -12.363  1.00  0.00     0.173 A 
ATOM     62  F   UNL     1       5.793  10.812 -10.670  1.00  0.00    -0.203 F 
ATOM     63  C   UNL     1       5.865  10.025 -12.886  1.00  0.00     0.198 A 
ATOM     64  C   UNL     1       7.724   8.705 -13.633  1.00  0.00     0.198 A 
ATOM     65  F   UNL     1       9.456   8.152 -12.139  1.00  0.00    -0.203 F 
ATOM     66  F   UNL     1       4.672  10.590 -13.121  1.00  0.00    -0.200 F 
ATOM     67  C   UNL     1       6.508   9.319 -13.890  1.00  0.00     0.200 A 
ATOM     68  F   UNL     1       8.351   8.030 -14.606  1.00  0.00    -0.200 F 
ATOM     69  F   UNL     1       5.949   9.220 -15.104  1.00  0.00    -0.200 F 
ENDBRANCH  45  59
BRANCH  46  70
ATOM     70  C   UNL     1      11.552   9.461  -2.107  1.00  0.00     0.064 A 
ATOM     71  C   UNL     1      11.586  10.630  -1.334  1.00  0.00     0.173 A 
ATOM     72  C   UNL     1      12.093   8.295  -1.548  1.00  0.00     0.173 A 
ATOM     73  F   UNL     1      11.096  11.775  -1.832  1.00  0.00    -0.203 F 
ATOM     74  C   UNL     1      12.161  10.640  -0.065  1.00  0.00     0.198 A 
ATOM     75  C   UNL     1      12.643   8.299  -0.267  1.00  0.00     0.198 A 
ATOM     76  F   UNL     1      12.077   7.147  -2.241  1.00  0.00    -0.203 F 
ATOM     77  F   UNL     1      12.222  11.784   0.631  1.00  0.00    -0.200 F 
ATOM     78  C   UNL     1      12.685   9.474   0.469  1.00  0.00     0.200 A 
ATOM     79  F   UNL     1      13.135   7.166   0.253  1.00  0.00    -0.200 F 
ATOM     80  F   UNL     1      13.236   9.482   1.691  1.00  0.00    -0.200 F 
ENDBRANCH  46  70
BRANCH  58  81
ATOM     81  C   UNL     1      13.365  12.513  -8.098  1.00  0.00     0.064 A 
ATOM     82  C   UNL     1      14.693  12.067  -8.174  1.00  0.00     0.173 A 
ATOM     83  C   UNL     1      13.103  13.859  -8.392  1.00  0.00     0.173 A 
ATOM     84  F   UNL     1      14.994  10.791  -7.889  1.00  0.00    -0.203 F 
ATOM     85  C   UNL     1      15.723  12.946  -8.496  1.00  0.00     0.198 A 
ATOM     86  C   UNL     1      14.132  14.727  -8.745  1.00  0.00     0.198 A 
ATOM     87  F   UNL     1      11.849  14.331  -8.343  1.00  0.00    -0.203 F 
ATOM     88  F   UNL     1      16.991  12.513  -8.506  1.00  0.00    -0.200 F 
ATOM     89  C   UNL     1      15.441  14.273  -8.786  1.00  0.00     0.200 A 
ATOM     90  F   UNL     1      13.857  16.005  -9.039  1.00  0.00    -0.200 F 
ATOM     91  F   UNL     1      16.435  15.117  -9.097  1.00  0.00    -0.200 F 
ENDBRANCH  58  81
ENDBRANCH  32  33
ENDBRANCH  24  27
ENDBRANCH  22  23
ENDBRANCH  21  22
ENDBRANCH   1  21
TORSDOF 15
