REMARK SMILES COc1ccc(NC(=O)[C@@H]2[C@@H](C(=O)NCCCCNC(=O)c3ccc(-c4c5nc(c(-c6c(F)c(F)c(F)c(F)c6F)c6ccc([nH]6)c(-c6c(F)c(F)c(F)c(F)c6F)c6nc(c(-c7c(F)c(F)c(F)c(F)c7F)c7ccc4[nH]7)C=C6)C=C5)cc3)[C@H]3C=C[C@@H]2C3)cc1O
REMARK SMILES IDX 16 1 15 2 14 3 12 4 13 5 11 7 10 8 88 9 85 10 87 11 89 12
REMARK SMILES IDX 86 13 8 14 7 15 9 17 6 18 3 19 4 20 91 21 5 22 90 23 2 24
REMARK SMILES IDX 1 25 92 26 17 28 18 29 19 30 20 31 21 33 22 34 23 35 84 36
REMARK SMILES IDX 24 37 83 38 25 39 26 40 27 41 77 42 28 43 82 44 76 45 78 46
REMARK SMILES IDX 29 47 81 48 75 49 74 50 30 52 62 53 42 54 61 55 43 56 46 57
REMARK SMILES IDX 60 58 79 59 44 60 45 61 59 63 80 64 47 65 31 66 32 67 40 68
REMARK SMILES IDX 33 69 34 70 38 71 41 72 35 73 36 74 39 75 37 76 63 77 64 78
REMARK SMILES IDX 72 79 65 80 66 81 70 82 73 83 67 84 68 85 71 86 69 87 48 88
REMARK SMILES IDX 49 89 57 90 50 91 51 92 55 93 58 94 52 95 53 96 56 97 54 98
REMARK H PARENT 14 6 7 16 92 27 19 32 78 51 46 62
REMARK Flexibility Score: inf
ROOT
ATOM      1  C   UNL     1      -4.593  -5.220   7.071  1.00  0.00     0.023 C 
ENDROOT
BRANCH   1   2
ATOM      2  C   UNL     1      -4.607  -4.021   6.123  1.00  0.00     0.116 C 
BRANCH   2   3
ATOM      3  N   UNL     1      -4.528  -2.758   6.832  1.00  0.00    -0.356 N 
ATOM      4  C   UNL     1      -3.645  -1.726   6.731  1.00  0.00     0.224 C 
ATOM      5  O   UNL     1      -3.958  -0.681   7.303  1.00  0.00    -0.275 OA
ATOM      6  H   UNL     1      -5.237  -2.623   7.502  1.00  0.00     0.163 HD
BRANCH   4   7
ATOM      7  C   UNL     1      -2.402  -1.851   5.848  1.00  0.00     0.098 C 
ATOM      8  C   UNL     1      -1.416  -2.968   6.254  1.00  0.00     0.099 C 
ATOM      9  C   UNL     1      -0.087  -2.209   6.532  1.00  0.00     0.025 C 
ATOM     10  C   UNL     1      -1.487  -0.583   5.902  1.00  0.00     0.025 C 
ATOM     11  C   UNL     1      -0.293  -1.301   7.732  1.00  0.00    -0.027 C 
ATOM     12  C   UNL     1      -0.110  -1.107   5.481  1.00  0.00     0.017 C 
ATOM     13  C   UNL     1      -1.108  -0.308   7.341  1.00  0.00    -0.027 C 
BRANCH   8  14
ATOM     14  C   UNL     1      -1.285  -4.192   5.331  1.00  0.00     0.228 C 
ATOM     15  N   UNL     1      -0.984  -4.267   4.007  1.00  0.00    -0.326 N 
ATOM     16  H   UNL     1      -0.947  -5.200   3.694  1.00  0.00     0.169 HD
ATOM     17  O   UNL     1      -1.400  -5.307   5.875  1.00  0.00    -0.274 OA
BRANCH  15  18
ATOM     18  C   UNL     1      -0.712  -3.362   2.970  1.00  0.00     0.045 A 
ATOM     19  C   UNL     1       0.320  -1.397   1.274  1.00  0.00     0.160 A 
ATOM     20  C   UNL     1      -0.927  -1.212   1.855  1.00  0.00     0.052 A 
ATOM     21  C   UNL     1       0.953  -2.631   1.389  1.00  0.00     0.159 A 
ATOM     22  C   UNL     1      -1.463  -2.226   2.664  1.00  0.00     0.030 A 
ATOM     23  C   UNL     1       0.430  -3.626   2.207  1.00  0.00     0.076 A 
BRANCH  19  24
ATOM     24  O   UNL     1       1.025  -0.336   0.781  1.00  0.00    -0.493 OA
ATOM     25  C   UNL     1       0.727  -0.033  -0.575  1.00  0.00     0.278 C 
ENDBRANCH  19  24
BRANCH  21  26
ATOM     26  O   UNL     1       2.146  -2.868   0.768  1.00  0.00    -0.504 OA
ATOM     27  H   UNL     1       2.522  -2.215   0.211  1.00  0.00     0.293 HD
ENDBRANCH  21  26
ENDBRANCH  15  18
ENDBRANCH   8  14
ENDBRANCH   4   7
ENDBRANCH   2   3
ENDBRANCH   1   2
BRANCH   1  28
ATOM     28  C   UNL     1      -5.734  -5.248   8.093  1.00  0.00     0.023 C 
BRANCH  28  29
ATOM     29  C   UNL     1      -7.141  -5.196   7.508  1.00  0.00     0.116 C 
BRANCH  29  30
ATOM     30  N   UNL     1      -7.486  -6.385   6.744  1.00  0.00    -0.352 N 
ATOM     31  C   UNL     1      -8.616  -7.170   6.828  1.00  0.00     0.251 C 
ATOM     32  H   UNL     1      -6.820  -6.668   6.076  1.00  0.00     0.163 HD
ATOM     33  O   UNL     1      -8.700  -8.212   6.200  1.00  0.00    -0.269 OA
BRANCH  31  34
ATOM     34  C   UNL     1      -9.723  -6.752   7.719  1.00  0.00     0.039 A 
ATOM     35  C   UNL     1     -10.249  -7.677   8.626  1.00  0.00     0.014 A 
ATOM     36  C   UNL     1     -10.218  -5.447   7.678  1.00  0.00     0.014 A 
ATOM     37  C   UNL     1     -11.218  -7.270   9.548  1.00  0.00     0.010 A 
ATOM     38  C   UNL     1     -11.132  -5.027   8.640  1.00  0.00     0.010 A 
ATOM     39  C   UNL     1     -11.636  -5.931   9.589  1.00  0.00    -0.014 A 
BRANCH  39  40
ATOM     40  C   UNL     1     -12.597  -5.438  10.611  1.00  0.00     0.031 A 
ATOM     41  C   UNL     1     -13.930  -4.892  10.179  1.00  0.00     0.074 A 
ATOM     42  C   UNL     1     -12.234  -5.384  11.908  1.00  0.00     0.049 A 
ATOM     43  N   UNL     1     -14.837  -4.263  10.883  1.00  0.00    -0.248 NA
ATOM     44  C   UNL     1     -14.274  -5.048   8.757  1.00  0.00     0.031 C 
ATOM     45  C   UNL     1     -10.962  -5.858  12.454  1.00  0.00     0.029 A 
ATOM     46  N   UNL     1     -12.897  -4.882  13.002  1.00  0.00    -0.354 N 
ATOM     47  C   UNL     1     -15.839  -3.920   9.985  1.00  0.00     0.074 A 
ATOM     48  C   UNL     1     -15.416  -4.380   8.680  1.00  0.00     0.031 C 
ATOM     49  C   UNL     1     -10.940  -5.634  13.778  1.00  0.00     0.029 A 
ATOM     50  C   UNL     1     -12.173  -4.957  14.168  1.00  0.00     0.049 A 
ATOM     51  H   UNL     1     -13.805  -4.503  12.955  1.00  0.00     0.167 HD
ATOM     52  C   UNL     1     -17.011  -3.288  10.231  1.00  0.00     0.037 A 
ATOM     53  C   UNL     1     -12.463  -4.512  15.406  1.00  0.00     0.037 A 
ATOM     54  C   UNL     1     -17.449  -2.873  11.537  1.00  0.00     0.049 A 
ATOM     55  C   UNL     1     -13.770  -3.801  15.647  1.00  0.00     0.074 A 
ATOM     56  C   UNL     1     -18.654  -2.296  11.898  1.00  0.00     0.029 A 
ATOM     57  N   UNL     1     -16.698  -2.991  12.696  1.00  0.00    -0.354 N 
ATOM     58  N   UNL     1     -14.736  -3.536  14.802  1.00  0.00    -0.248 NA
ATOM     59  C   UNL     1     -14.024  -3.325  17.015  1.00  0.00     0.031 C 
ATOM     60  C   UNL     1     -18.614  -2.021  13.268  1.00  0.00     0.029 A 
ATOM     61  C   UNL     1     -17.406  -2.476  13.770  1.00  0.00     0.049 A 
ATOM     62  H   UNL     1     -15.796  -3.383  12.749  1.00  0.00     0.167 HD
ATOM     63  C   UNL     1     -15.727  -2.905  15.542  1.00  0.00     0.074 A 
ATOM     64  C   UNL     1     -15.248  -2.826  16.905  1.00  0.00     0.031 C 
ATOM     65  C   UNL     1     -16.929  -2.435  15.128  1.00  0.00     0.037 A 
BRANCH  52  66
ATOM     66  C   UNL     1     -17.910  -3.000   9.064  1.00  0.00     0.064 A 
ATOM     67  C   UNL     1     -18.605  -4.019   8.398  1.00  0.00     0.173 A 
ATOM     68  C   UNL     1     -18.122  -1.677   8.645  1.00  0.00     0.173 A 
ATOM     69  F   UNL     1     -18.428  -5.301   8.753  1.00  0.00    -0.203 F 
ATOM     70  C   UNL     1     -19.462  -3.728   7.340  1.00  0.00     0.198 A 
ATOM     71  C   UNL     1     -19.003  -1.387   7.606  1.00  0.00     0.198 A 
ATOM     72  F   UNL     1     -17.487  -0.664   9.253  1.00  0.00    -0.203 F 
ATOM     73  F   UNL     1     -20.083  -4.722   6.690  1.00  0.00    -0.200 F 
ATOM     74  C   UNL     1     -19.667  -2.412   6.951  1.00  0.00     0.200 A 
ATOM     75  F   UNL     1     -19.210  -0.114   7.242  1.00  0.00    -0.200 F 
ATOM     76  F   UNL     1     -20.502  -2.133   5.941  1.00  0.00    -0.200 F 
ENDBRANCH  52  66
BRANCH  53  77
ATOM     77  C   UNL     1     -11.509  -4.731  16.526  1.00  0.00     0.064 A 
ATOM     78  C   UNL     1     -11.829  -5.602  17.578  1.00  0.00     0.173 A 
ATOM     79  C   UNL     1     -10.281  -4.057  16.588  1.00  0.00     0.173 A 
ATOM     80  F   UNL     1     -13.003  -6.250  17.575  1.00  0.00    -0.203 F 
ATOM     81  C   UNL     1     -10.970  -5.770  18.661  1.00  0.00     0.198 A 
ATOM     82  C   UNL     1      -9.409  -4.249  17.658  1.00  0.00     0.198 A 
ATOM     83  F   UNL     1      -9.927  -3.213  15.608  1.00  0.00    -0.203 F 
ATOM     84  F   UNL     1     -11.326  -6.566  19.678  1.00  0.00    -0.200 F 
ATOM     85  C   UNL     1      -9.758  -5.097  18.699  1.00  0.00     0.200 A 
ATOM     86  F   UNL     1      -8.234  -3.605  17.686  1.00  0.00    -0.200 F 
ATOM     87  F   UNL     1      -8.934  -5.256  19.743  1.00  0.00    -0.200 F 
ENDBRANCH  53  77
BRANCH  65  88
ATOM     88  C   UNL     1     -17.845  -1.855  16.165  1.00  0.00     0.064 A 
ATOM     89  C   UNL     1     -17.608  -0.599  16.742  1.00  0.00     0.173 A 
ATOM     90  C   UNL     1     -19.013  -2.539  16.535  1.00  0.00     0.173 A 
ATOM     91  F   UNL     1     -16.497   0.087  16.433  1.00  0.00    -0.203 F 
ATOM     92  C   UNL     1     -18.500  -0.057  17.663  1.00  0.00     0.198 A 
ATOM     93  C   UNL     1     -19.918  -1.981  17.433  1.00  0.00     0.198 A 
ATOM     94  F   UNL     1     -19.289  -3.741  16.006  1.00  0.00    -0.203 F 
ATOM     95  F   UNL     1     -18.237   1.129  18.229  1.00  0.00    -0.200 F 
ATOM     96  C   UNL     1     -19.658  -0.742  17.999  1.00  0.00     0.200 A 
ATOM     97  F   UNL     1     -21.043  -2.638  17.745  1.00  0.00    -0.200 F 
ATOM     98  F   UNL     1     -20.524  -0.210  18.873  1.00  0.00    -0.200 F 
ENDBRANCH  65  88
ENDBRANCH  39  40
ENDBRANCH  31  34
ENDBRANCH  29  30
ENDBRANCH  28  29
ENDBRANCH   1  28
TORSDOF 15
