REMARK SMILES C[C@H]1[C@H](C(=O)NCCCCNC(=O)c2ccc(-c3c4nc(c(-c5c(F)c(F)c(F)c(F)c5F)c5ccc([nH]5)c(-c5c(F)c(F)c(F)c(F)c5F)c5nc(c(-c6c(F)c(F)c(F)c(F)c6F)c6ccc3[nH]6)C=C5)C=C4)cc2)CCN1C(=O)CC[NH2+]C1CC1
REMARK SMILES IDX 7 1 6 2 4 3 5 4 3 6 1 7 2 8 79 9 77 10 78 11 80 12 81 13
REMARK SMILES IDX 82 14 83 15 84 16 85 19 86 20 87 21 8 22 9 23 10 24 11 25
REMARK SMILES IDX 12 26 13 28 14 29 15 30 76 31 16 32 75 33 17 34 18 35 19 36
REMARK SMILES IDX 69 37 20 38 74 39 68 40 70 41 21 42 73 43 67 44 66 45 22 47
REMARK SMILES IDX 54 48 34 49 53 50 35 51 38 52 52 53 71 54 36 55 37 56 51 58
REMARK SMILES IDX 72 59 39 60 23 61 24 62 32 63 25 64 26 65 30 66 33 67 27 68
REMARK SMILES IDX 28 69 31 70 29 71 55 72 56 73 64 74 57 75 58 76 62 77 65 78
REMARK SMILES IDX 59 79 60 80 63 81 61 82 40 83 41 84 49 85 42 86 43 87 47 88
REMARK SMILES IDX 50 89 44 90 45 91 48 92 46 93
REMARK H PARENT 6 5 84 17 84 18 11 27 70 46 38 57
REMARK Flexibility Score: inf
ROOT
ATOM      1  C   UNL     1      -1.070   0.383   3.024  1.00  0.00     0.116 C 
ENDROOT
BRANCH   1   2
ATOM      2  N   UNL     1      -0.799   1.732   2.570  1.00  0.00    -0.356 N 
ATOM      3  C   UNL     1      -0.649   2.242   1.322  1.00  0.00     0.225 C 
ATOM      4  O   UNL     1      -0.417   3.452   1.236  1.00  0.00    -0.275 OA
ATOM      5  H   UNL     1      -0.709   2.393   3.293  1.00  0.00     0.163 HD
BRANCH   3   6
ATOM      6  C   UNL     1      -0.718   1.396   0.062  1.00  0.00     0.102 C 
ATOM      7  C   UNL     1       1.202   0.596  -1.327  1.00  0.00     0.032 C 
ATOM      8  C   UNL     1       0.430   0.380  -0.023  1.00  0.00     0.094 C 
ATOM      9  N   UNL     1      -0.226  -0.927  -0.036  1.00  0.00    -0.339 N 
ATOM     10  C   UNL     1      -2.016   0.608  -0.143  1.00  0.00     0.037 C 
ATOM     11  C   UNL     1      -1.581  -0.799  -0.535  1.00  0.00     0.120 C 
BRANCH   9  12
ATOM     12  C   UNL     1       0.283  -2.161   0.315  1.00  0.00     0.228 C 
ATOM     13  O   UNL     1      -0.343  -3.200   0.094  1.00  0.00    -0.275 OA
BRANCH  12  14
ATOM     14  C   UNL     1       1.616  -2.230   1.042  1.00  0.00     0.161 C 
BRANCH  14  15
ATOM     15  C   UNL     1       2.800  -2.406   0.094  1.00  0.00     0.270 C 
BRANCH  15  16
ATOM     16  N   UNL     1       3.713  -1.260   0.178  1.00  0.00    -0.343 N 
ATOM     17  H   UNL     1       4.140  -1.258   1.104  1.00  0.00     0.346 HD
ATOM     18  H   UNL     1       3.156  -0.424   0.001  1.00  0.00     0.346 HD
BRANCH  16  19
ATOM     19  C   UNL     1       4.783  -1.277  -0.823  1.00  0.00     0.182 C 
ATOM     20  C   UNL     1       4.500  -1.282  -2.301  1.00  0.00     0.071 C 
ATOM     21  C   UNL     1       5.004  -0.032  -1.646  1.00  0.00     0.071 C 
ENDBRANCH  16  19
ENDBRANCH  15  16
ENDBRANCH  14  15
ENDBRANCH  12  14
ENDBRANCH   9  12
ENDBRANCH   3   6
ENDBRANCH   1   2
BRANCH   1  22
ATOM     22  C   UNL     1       0.027  -0.143   3.944  1.00  0.00     0.023 C 
BRANCH  22  23
ATOM     23  C   UNL     1       0.152   0.580   5.284  1.00  0.00     0.023 C 
BRANCH  23  24
ATOM     24  C   UNL     1      -1.148   0.746   6.061  1.00  0.00     0.116 C 
BRANCH  24  25
ATOM     25  N   UNL     1      -1.845  -0.507   6.301  1.00  0.00    -0.352 N 
ATOM     26  C   UNL     1      -2.545  -0.896   7.417  1.00  0.00     0.251 C 
ATOM     27  H   UNL     1      -1.812  -1.162   5.566  1.00  0.00     0.163 HD
ATOM     28  O   UNL     1      -3.012  -2.027   7.500  1.00  0.00    -0.269 OA
BRANCH  26  29
ATOM     29  C   UNL     1      -2.689   0.048   8.542  1.00  0.00     0.039 A 
ATOM     30  C   UNL     1      -2.344  -0.380   9.826  1.00  0.00     0.014 A 
ATOM     31  C   UNL     1      -3.114   1.361   8.322  1.00  0.00     0.014 A 
ATOM     32  C   UNL     1      -2.356   0.531  10.881  1.00  0.00     0.010 A 
ATOM     33  C   UNL     1      -3.059   2.284   9.361  1.00  0.00     0.010 A 
ATOM     34  C   UNL     1      -2.676   1.879  10.649  1.00  0.00    -0.014 A 
BRANCH  34  35
ATOM     35  C   UNL     1      -2.611   2.882  11.739  1.00  0.00     0.031 A 
ATOM     36  C   UNL     1      -3.863   3.568  12.206  1.00  0.00     0.074 A 
ATOM     37  C   UNL     1      -1.416   3.224  12.258  1.00  0.00     0.049 A 
ATOM     38  N   UNL     1      -4.004   4.520  13.092  1.00  0.00    -0.248 NA
ATOM     39  C   UNL     1      -5.121   3.148  11.569  1.00  0.00     0.031 C 
ATOM     40  C   UNL     1      -0.125   2.667  11.850  1.00  0.00     0.029 A 
ATOM     41  N   UNL     1      -1.091   4.132  13.235  1.00  0.00    -0.354 N 
ATOM     42  C   UNL     1      -5.358   4.823  13.107  1.00  0.00     0.074 A 
ATOM     43  C   UNL     1      -5.990   3.991  12.106  1.00  0.00     0.031 C 
ATOM     44  C   UNL     1       0.848   3.229  12.583  1.00  0.00     0.029 A 
ATOM     45  C   UNL     1       0.256   4.209  13.489  1.00  0.00     0.049 A 
ATOM     46  H   UNL     1      -1.761   4.677  13.708  1.00  0.00     0.167 HD
ATOM     47  C   UNL     1      -6.018   5.699  13.901  1.00  0.00     0.037 A 
ATOM     48  C   UNL     1       0.935   4.986  14.353  1.00  0.00     0.037 A 
ATOM     49  C   UNL     1      -5.390   6.502  14.917  1.00  0.00     0.049 A 
ATOM     50  C   UNL     1       0.176   5.943  15.232  1.00  0.00     0.074 A 
ATOM     51  C   UNL     1      -5.980   7.370  15.819  1.00  0.00     0.029 A 
ATOM     52  N   UNL     1      -4.026   6.532  15.165  1.00  0.00    -0.354 N 
ATOM     53  N   UNL     1      -1.113   6.170  15.287  1.00  0.00    -0.248 NA
ATOM     54  C   UNL     1       0.968   6.747  16.174  1.00  0.00     0.031 C 
ATOM     55  C   UNL     1      -4.968   7.955  16.588  1.00  0.00     0.029 A 
ATOM     56  C   UNL     1      -3.753   7.419  16.194  1.00  0.00     0.049 A 
ATOM     57  H   UNL     1      -3.351   6.003  14.681  1.00  0.00     0.167 HD
ATOM     58  C   UNL     1      -1.291   7.120  16.283  1.00  0.00     0.074 A 
ATOM     59  C   UNL     1       0.022   7.417  16.817  1.00  0.00     0.031 C 
ATOM     60  C   UNL     1      -2.439   7.695  16.717  1.00  0.00     0.037 A 
BRANCH  47  61
ATOM     61  C   UNL     1      -7.500   5.829  13.706  1.00  0.00     0.064 A 
ATOM     62  C   UNL     1      -8.382   4.803  14.078  1.00  0.00     0.173 A 
ATOM     63  C   UNL     1      -8.048   7.003  13.169  1.00  0.00     0.173 A 
ATOM     64  F   UNL     1      -7.907   3.655  14.583  1.00  0.00    -0.203 F 
ATOM     65  C   UNL     1      -9.755   4.936  13.893  1.00  0.00     0.198 A 
ATOM     66  C   UNL     1      -9.425   7.144  13.012  1.00  0.00     0.198 A 
ATOM     67  F   UNL     1      -7.250   8.016  12.801  1.00  0.00    -0.203 F 
ATOM     68  F   UNL     1     -10.574   3.923  14.210  1.00  0.00    -0.200 F 
ATOM     69  C   UNL     1     -10.276   6.109  13.367  1.00  0.00     0.200 A 
ATOM     70  F   UNL     1      -9.928   8.283  12.514  1.00  0.00    -0.200 F 
ATOM     71  F   UNL     1     -11.599   6.238  13.194  1.00  0.00    -0.200 F 
ENDBRANCH  47  61
BRANCH  48  72
ATOM     72  C   UNL     1       2.413   4.870  14.453  1.00  0.00     0.064 A 
ATOM     73  C   UNL     1       3.013   4.299  15.584  1.00  0.00     0.173 A 
ATOM     74  C   UNL     1       3.253   5.325  13.426  1.00  0.00     0.173 A 
ATOM     75  F   UNL     1       2.251   3.868  16.600  1.00  0.00    -0.203 F 
ATOM     76  C   UNL     1       4.399   4.206  15.693  1.00  0.00     0.198 A 
ATOM     77  C   UNL     1       4.638   5.207  13.526  1.00  0.00     0.198 A 
ATOM     78  F   UNL     1       2.727   5.873  12.322  1.00  0.00    -0.203 F 
ATOM     79  F   UNL     1       4.948   3.695  16.804  1.00  0.00    -0.200 F 
ATOM     80  C   UNL     1       5.210   4.655  14.662  1.00  0.00     0.200 A 
ATOM     81  F   UNL     1       5.418   5.631  12.522  1.00  0.00    -0.200 F 
ATOM     82  F   UNL     1       6.543   4.562  14.766  1.00  0.00    -0.200 F 
ENDBRANCH  48  72
BRANCH  60  83
ATOM     83  C   UNL     1      -2.330   8.680  17.843  1.00  0.00     0.064 A 
ATOM     84  C   UNL     1      -1.796   9.962  17.648  1.00  0.00     0.173 A 
ATOM     85  C   UNL     1      -2.804   8.351  19.122  1.00  0.00     0.173 A 
ATOM     86  F   UNL     1      -1.316  10.318  16.447  1.00  0.00    -0.203 F 
ATOM     87  C   UNL     1      -1.720  10.871  18.699  1.00  0.00     0.198 A 
ATOM     88  C   UNL     1      -2.751   9.272  20.163  1.00  0.00     0.198 A 
ATOM     89  F   UNL     1      -3.329   7.139  19.357  1.00  0.00    -0.203 F 
ATOM     90  F   UNL     1      -1.165  12.076  18.502  1.00  0.00    -0.200 F 
ATOM     91  C   UNL     1      -2.203  10.529  19.953  1.00  0.00     0.200 A 
ATOM     92  F   UNL     1      -3.230   8.944  21.371  1.00  0.00    -0.200 F 
ATOM     93  F   UNL     1      -2.135  11.408  20.962  1.00  0.00    -0.200 F 
ENDBRANCH  60  83
ENDBRANCH  34  35
ENDBRANCH  26  29
ENDBRANCH  24  25
ENDBRANCH  23  24
ENDBRANCH  22  23
ENDBRANCH   1  22
TORSDOF 16
