REMARK SMILES CC[C@@](C)(NC(=O)N(C)[C@@H](C)C(C)C)C(=O)NCCCCNC(=O)c1ccc(-c2c3nc(c(-c4c(F)c(F)c(F)c(F)c4F)c4ccc([nH]4)c(-c4c(F)c(F)c(F)c(F)c4F)c4nc(c(-c5c(F)c(F)c(F)c(F)c5F)c5ccc2[nH]5)C=C4)C=C3)cc1
REMARK SMILES IDX 18 1 17 2 15 3 16 4 3 6 4 7 2 8 1 9 5 10 6 11 7 13 8 14 9 15
REMARK SMILES IDX 10 16 11 17 12 18 13 19 14 20 19 21 20 22 21 23 22 24 23 25
REMARK SMILES IDX 24 27 25 28 26 29 87 30 27 31 86 32 28 33 29 34 30 35 80 36
REMARK SMILES IDX 31 37 85 38 79 39 81 40 32 41 84 42 78 43 77 44 33 46 65 47
REMARK SMILES IDX 45 48 64 49 46 50 49 51 63 52 82 53 47 54 48 55 62 57 83 58
REMARK SMILES IDX 50 59 34 60 35 61 43 62 36 63 37 64 41 65 44 66 38 67 39 68
REMARK SMILES IDX 42 69 40 70 66 71 67 72 75 73 68 74 69 75 73 76 76 77 70 78
REMARK SMILES IDX 71 79 74 80 72 81 51 82 52 83 60 84 53 85 54 86 58 87 61 88
REMARK SMILES IDX 55 89 56 90 59 91 57 92
REMARK H PARENT 17 5 5 12 22 26 81 45 49 56
REMARK Flexibility Score: inf
ROOT
ATOM      1  C   UNL     1       2.065   4.652   2.209  1.00  0.00     0.116 C 
ENDROOT
BRANCH   1   2
ATOM      2  N   UNL     1       2.674   3.560   1.473  1.00  0.00    -0.354 N 
ATOM      3  C   UNL     1       2.297   2.269   1.239  1.00  0.00     0.245 C 
ATOM      4  O   UNL     1       3.037   1.647   0.468  1.00  0.00    -0.272 OA
ATOM      5  H   UNL     1       3.533   3.798   1.057  1.00  0.00     0.163 HD
BRANCH   3   6
ATOM      6  C   UNL     1       0.985   1.639   1.804  1.00  0.00     0.117 C 
ATOM      7  C   UNL     1      -0.181   2.380   1.084  1.00  0.00     0.045 C 
BRANCH   6   8
ATOM      8  C   UNL     1       0.776   0.125   1.480  1.00  0.00     0.035 C 
ATOM      9  C   UNL     1       0.893  -0.304   0.019  1.00  0.00     0.007 C 
ENDBRANCH   6   8
BRANCH   6  10
ATOM     10  N   UNL     1       0.819   1.821   3.279  1.00  0.00    -0.324 N 
ATOM     11  C   UNL     1       1.461   1.536   4.437  1.00  0.00     0.318 C 
ATOM     12  H   UNL     1      -0.021   2.299   3.467  1.00  0.00     0.166 HD
ATOM     13  O   UNL     1       0.750   1.637   5.442  1.00  0.00    -0.249 OA
BRANCH  11  14
ATOM     14  N   UNL     1       2.809   1.310   4.533  1.00  0.00    -0.325 N 
ATOM     15  C   UNL     1       3.676   0.863   3.453  1.00  0.00     0.149 C 
BRANCH  14  16
ATOM     16  C   UNL     1       3.518   1.501   5.840  1.00  0.00     0.086 C 
ATOM     17  C   UNL     1       3.070   2.735   6.656  1.00  0.00     0.031 C 
BRANCH  16  18
ATOM     18  C   UNL     1       3.525   0.257   6.780  1.00  0.00     0.005 C 
ATOM     19  C   UNL     1       3.801  -1.071   6.075  1.00  0.00     0.009 C 
ATOM     20  C   UNL     1       4.577   0.435   7.891  1.00  0.00     0.009 C 
ENDBRANCH  16  18
ENDBRANCH  14  16
ENDBRANCH  11  14
ENDBRANCH   6  10
ENDBRANCH   3   6
ENDBRANCH   1   2
BRANCH   1  21
ATOM     21  C   UNL     1       2.526   4.762   3.651  1.00  0.00     0.023 C 
BRANCH  21  22
ATOM     22  C   UNL     1       4.035   4.803   3.864  1.00  0.00     0.023 C 
BRANCH  22  23
ATOM     23  C   UNL     1       4.722   5.959   3.165  1.00  0.00     0.116 C 
BRANCH  23  24
ATOM     24  N   UNL     1       4.181   7.245   3.585  1.00  0.00    -0.352 N 
ATOM     25  C   UNL     1       4.810   8.314   4.162  1.00  0.00     0.251 C 
ATOM     26  H   UNL     1       3.216   7.362   3.430  1.00  0.00     0.163 HD
ATOM     27  O   UNL     1       4.143   9.227   4.652  1.00  0.00    -0.269 OA
BRANCH  25  28
ATOM     28  C   UNL     1       6.283   8.369   4.209  1.00  0.00     0.039 A 
ATOM     29  C   UNL     1       6.911   8.897   5.340  1.00  0.00     0.014 A 
ATOM     30  C   UNL     1       7.046   7.906   3.135  1.00  0.00     0.014 A 
ATOM     31  C   UNL     1       8.304   8.909   5.411  1.00  0.00     0.010 A 
ATOM     32  C   UNL     1       8.423   7.807   3.258  1.00  0.00     0.010 A 
ATOM     33  C   UNL     1       9.069   8.332   4.385  1.00  0.00    -0.014 A 
BRANCH  33  34
ATOM     34  C   UNL     1      10.550   8.298   4.441  1.00  0.00     0.031 A 
ATOM     35  C   UNL     1      11.350   8.989   3.370  1.00  0.00     0.074 A 
ATOM     36  C   UNL     1      11.165   7.584   5.403  1.00  0.00     0.049 A 
ATOM     37  N   UNL     1      12.644   8.995   3.175  1.00  0.00    -0.248 NA
ATOM     38  C   UNL     1      10.591   9.742   2.357  1.00  0.00     0.031 C 
ATOM     39  C   UNL     1      10.491   6.828   6.460  1.00  0.00     0.029 A 
ATOM     40  N   UNL     1      12.499   7.370   5.641  1.00  0.00    -0.354 N 
ATOM     41  C   UNL     1      12.845   9.722   2.009  1.00  0.00     0.074 A 
ATOM     42  C   UNL     1      11.541  10.087   1.504  1.00  0.00     0.031 C 
ATOM     43  C   UNL     1      11.415   6.261   7.252  1.00  0.00     0.029 A 
ATOM     44  C   UNL     1      12.742   6.576   6.734  1.00  0.00     0.049 A 
ATOM     45  H   UNL     1      13.214   7.751   5.081  1.00  0.00     0.167 HD
ATOM     46  C   UNL     1      14.015  10.079   1.429  1.00  0.00     0.037 A 
ATOM     47  C   UNL     1      13.908   6.147   7.253  1.00  0.00     0.037 A 
ATOM     48  C   UNL     1      15.307   9.749   1.967  1.00  0.00     0.049 A 
ATOM     49  C   UNL     1      15.194   6.566   6.594  1.00  0.00     0.074 A 
ATOM     50  C   UNL     1      16.555  10.125   1.504  1.00  0.00     0.029 A 
ATOM     51  N   UNL     1      15.514   8.965   3.092  1.00  0.00    -0.354 N 
ATOM     52  N   UNL     1      15.376   7.317   5.534  1.00  0.00    -0.248 NA
ATOM     53  C   UNL     1      16.438   6.084   7.208  1.00  0.00     0.031 C 
ATOM     54  C   UNL     1      17.520   9.525   2.320  1.00  0.00     0.029 A 
ATOM     55  C   UNL     1      16.872   8.825   3.326  1.00  0.00     0.049 A 
ATOM     56  H   UNL     1      14.802   8.568   3.644  1.00  0.00     0.167 HD
ATOM     57  C   UNL     1      16.750   7.424   5.373  1.00  0.00     0.074 A 
ATOM     58  C   UNL     1      17.355   6.673   6.454  1.00  0.00     0.031 C 
ATOM     59  C   UNL     1      17.451   8.082   4.417  1.00  0.00     0.037 A 
BRANCH  46  60
ATOM     60  C   UNL     1      13.950  10.871   0.154  1.00  0.00     0.064 A 
ATOM     61  C   UNL     1      13.480  12.194   0.128  1.00  0.00     0.173 A 
ATOM     62  C   UNL     1      14.392  10.310  -1.054  1.00  0.00     0.173 A 
ATOM     63  F   UNL     1      13.032  12.774   1.251  1.00  0.00    -0.203 F 
ATOM     64  C   UNL     1      13.426  12.913  -1.064  1.00  0.00     0.198 A 
ATOM     65  C   UNL     1      14.369  11.044  -2.237  1.00  0.00     0.198 A 
ATOM     66  F   UNL     1      14.854   9.051  -1.086  1.00  0.00    -0.203 F 
ATOM     67  F   UNL     1      12.922  14.154  -1.072  1.00  0.00    -0.200 F 
ATOM     68  C   UNL     1      13.879  12.341  -2.243  1.00  0.00     0.200 A 
ATOM     69  F   UNL     1      14.820  10.494  -3.373  1.00  0.00    -0.200 F 
ATOM     70  F   UNL     1      13.835  13.037  -3.387  1.00  0.00    -0.200 F 
ENDBRANCH  46  60
BRANCH  47  71
ATOM     71  C   UNL     1      13.914   5.301   8.475  1.00  0.00     0.064 A 
ATOM     72  C   UNL     1      14.410   5.798   9.689  1.00  0.00     0.173 A 
ATOM     73  C   UNL     1      13.435   3.983   8.459  1.00  0.00     0.173 A 
ATOM     74  F   UNL     1      14.895   7.047   9.752  1.00  0.00    -0.203 F 
ATOM     75  C   UNL     1      14.451   5.002  10.832  1.00  0.00     0.198 A 
ATOM     76  C   UNL     1      13.448   3.198   9.610  1.00  0.00     0.198 A 
ATOM     77  F   UNL     1      12.943   3.461   7.326  1.00  0.00    -0.203 F 
ATOM     78  F   UNL     1      14.977   5.487  11.964  1.00  0.00    -0.200 F 
ATOM     79  C   UNL     1      13.965   3.704  10.793  1.00  0.00     0.200 A 
ATOM     80  F   UNL     1      12.962   1.949   9.572  1.00  0.00    -0.200 F 
ATOM     81  F   UNL     1      14.002   2.939  11.892  1.00  0.00    -0.200 F 
ENDBRANCH  47  71
BRANCH  59  82
ATOM     82  C   UNL     1      18.948   8.056   4.521  1.00  0.00     0.064 A 
ATOM     83  C   UNL     1      19.686   6.893   4.260  1.00  0.00     0.173 A 
ATOM     84  C   UNL     1      19.654   9.225   4.845  1.00  0.00     0.173 A 
ATOM     85  F   UNL     1      19.056   5.747   3.960  1.00  0.00    -0.203 F 
ATOM     86  C   UNL     1      21.075   6.894   4.347  1.00  0.00     0.198 A 
ATOM     87  C   UNL     1      21.044   9.231   4.898  1.00  0.00     0.198 A 
ATOM     88  F   UNL     1      18.995  10.367   5.096  1.00  0.00    -0.203 F 
ATOM     89  F   UNL     1      21.757   5.759   4.143  1.00  0.00    -0.200 F 
ATOM     90  C   UNL     1      21.753   8.064   4.657  1.00  0.00     0.200 A 
ATOM     91  F   UNL     1      21.698  10.366   5.181  1.00  0.00    -0.200 F 
ATOM     92  F   UNL     1      23.091   8.065   4.730  1.00  0.00    -0.200 F 
ENDBRANCH  59  82
ENDBRANCH  33  34
ENDBRANCH  25  28
ENDBRANCH  23  24
ENDBRANCH  22  23
ENDBRANCH  21  22
ENDBRANCH   1  21
TORSDOF 16
