REMARK SMILES O=C(CCC(=O)N1CCC[C@@]2(CCC(=O)N(Cc3ccncc3)C2)C1)NCCCCNC(=O)c1ccc(-c2c3nc(c(-c4c(F)c(F)c(F)c(F)c4F)c4ccc([nH]4)c(-c4c(F)c(F)c(F)c(F)c4F)c4nc(c(-c5c(F)c(F)c(F)c(F)c5F)c5ccc2[nH]5)C=C4)C=C3)cc1
REMARK SMILES IDX 27 1 26 2 1 3 2 4 3 6 4 7 5 8 6 9 7 10 8 11 25 12 9 13 11 14
REMARK SMILES IDX 10 15 12 16 24 17 13 18 16 19 14 20 15 21 17 22 18 23 19 24
REMARK SMILES IDX 23 25 20 26 22 27 21 28 28 29 29 30 30 31 31 32 32 33 33 35
REMARK SMILES IDX 34 36 35 37 96 38 36 39 95 40 37 41 38 42 39 43 89 44 40 45
REMARK SMILES IDX 94 46 88 47 90 48 41 49 93 50 87 51 86 52 42 54 74 55 54 56
REMARK SMILES IDX 73 57 55 58 58 59 72 60 91 61 56 62 57 63 71 65 92 66 59 67
REMARK SMILES IDX 43 68 44 69 52 70 45 71 46 72 50 73 53 74 47 75 48 76 51 77
REMARK SMILES IDX 49 78 75 79 76 80 84 81 77 82 78 83 82 84 85 85 79 86 80 87
REMARK SMILES IDX 83 88 81 89 60 90 61 91 69 92 62 93 63 94 67 95 70 96 64 97
REMARK SMILES IDX 65 98 68 99 66 100
REMARK H PARENT 26 5 31 34 90 53 58 64
REMARK Flexibility Score: inf
ROOT
ATOM      1  C   UNL     1       1.998  -0.092  -2.796  1.00  0.00     0.116 C 
ENDROOT
BRANCH   1   2
ATOM      2  N   UNL     1       2.876   0.406  -1.754  1.00  0.00    -0.356 N 
ATOM      3  O   UNL     1       1.203   0.827  -0.238  1.00  0.00    -0.275 OA
ATOM      4  C   UNL     1       2.394   0.809  -0.529  1.00  0.00     0.220 C 
ATOM      5  H   UNL     1       3.843   0.457  -1.929  1.00  0.00     0.163 HD
BRANCH   4   6
ATOM      6  C   UNL     1       3.470   1.176   0.469  1.00  0.00     0.110 C 
BRANCH   6   7
ATOM      7  C   UNL     1       3.567   0.133   1.572  1.00  0.00     0.110 C 
BRANCH   7   8
ATOM      8  C   UNL     1       4.301  -1.126   1.128  1.00  0.00     0.223 C 
ATOM      9  O   UNL     1       5.506  -1.070   0.873  1.00  0.00    -0.275 OA
BRANCH   8  10
ATOM     10  N   UNL     1       3.597  -2.319   1.075  1.00  0.00    -0.342 N 
ATOM     11  C   UNL     1       2.150  -2.418   0.921  1.00  0.00     0.119 C 
ATOM     12  C   UNL     1       4.309  -3.601   1.179  1.00  0.00     0.128 C 
ATOM     13  C   UNL     1       1.828  -3.242  -0.316  1.00  0.00     0.022 C 
ATOM     14  C   UNL     1       3.974  -4.598   0.037  1.00  0.00     0.006 C 
ATOM     15  C   UNL     1       2.442  -4.630  -0.206  1.00  0.00     0.012 C 
ATOM     16  C   UNL     1       4.786  -4.197  -1.211  1.00  0.00     0.020 C 
ATOM     17  C   UNL     1       4.441  -6.020   0.416  1.00  0.00     0.128 C 
ATOM     18  C   UNL     1       4.648  -5.204  -2.337  1.00  0.00     0.101 C 
ATOM     19  N   UNL     1       4.346  -6.965  -0.698  1.00  0.00    -0.338 N 
ATOM     20  C   UNL     1       4.898  -6.630  -1.925  1.00  0.00     0.222 C 
ATOM     21  O   UNL     1       5.360  -7.436  -2.729  1.00  0.00    -0.275 OA
BRANCH  19  22
ATOM     22  C   UNL     1       3.329  -8.012  -0.679  1.00  0.00     0.155 C 
BRANCH  22  23
ATOM     23  C   UNL     1       3.796  -9.348  -1.190  1.00  0.00    -0.026 A 
ATOM     24  C   UNL     1       4.717 -10.106  -0.467  1.00  0.00     0.025 A 
ATOM     25  C   UNL     1       3.355  -9.836  -2.426  1.00  0.00     0.025 A 
ATOM     26  C   UNL     1       5.145 -11.311  -1.000  1.00  0.00     0.111 A 
ATOM     27  C   UNL     1       3.848 -11.050  -2.877  1.00  0.00     0.111 A 
ATOM     28  N   UNL     1       4.723 -11.808  -2.183  1.00  0.00    -0.265 NA
ENDBRANCH  22  23
ENDBRANCH  19  22
ENDBRANCH   8  10
ENDBRANCH   7   8
ENDBRANCH   6   7
ENDBRANCH   4   6
ENDBRANCH   1   2
BRANCH   1  29
ATOM     29  C   UNL     1       2.501   0.151  -4.219  1.00  0.00     0.023 C 
BRANCH  29  30
ATOM     30  C   UNL     1       3.967  -0.189  -4.501  1.00  0.00     0.023 C 
BRANCH  30  31
ATOM     31  C   UNL     1       4.416  -1.603  -4.148  1.00  0.00     0.116 C 
BRANCH  31  32
ATOM     32  N   UNL     1       3.977  -2.608  -5.095  1.00  0.00    -0.352 N 
ATOM     33  C   UNL     1       4.648  -3.564  -5.822  1.00  0.00     0.251 C 
ATOM     34  H   UNL     1       3.005  -2.606  -5.250  1.00  0.00     0.163 HD
ATOM     35  O   UNL     1       3.983  -4.225  -6.621  1.00  0.00    -0.269 OA
BRANCH  33  36
ATOM     36  C   UNL     1       6.114  -3.836  -5.713  1.00  0.00     0.039 A 
ATOM     37  C   UNL     1       6.747  -4.426  -6.821  1.00  0.00     0.014 A 
ATOM     38  C   UNL     1       6.875  -3.614  -4.563  1.00  0.00     0.014 A 
ATOM     39  C   UNL     1       8.116  -4.725  -6.796  1.00  0.00     0.010 A 
ATOM     40  C   UNL     1       8.240  -3.906  -4.530  1.00  0.00     0.010 A 
ATOM     41  C   UNL     1       8.874  -4.438  -5.656  1.00  0.00    -0.014 A 
BRANCH  41  42
ATOM     42  C   UNL     1      10.351  -4.509  -5.664  1.00  0.00     0.031 A 
ATOM     43  C   UNL     1      11.094  -5.624  -4.996  1.00  0.00     0.074 A 
ATOM     44  C   UNL     1      11.011  -3.450  -6.167  1.00  0.00     0.049 A 
ATOM     45  N   UNL     1      12.387  -5.785  -4.868  1.00  0.00    -0.248 NA
ATOM     46  C   UNL     1      10.287  -6.682  -4.375  1.00  0.00     0.031 C 
ATOM     47  C   UNL     1      10.374  -2.275  -6.767  1.00  0.00     0.029 A 
ATOM     48  N   UNL     1      12.351  -3.167  -6.219  1.00  0.00    -0.354 N 
ATOM     49  C   UNL     1      12.554  -6.969  -4.164  1.00  0.00     0.074 A 
ATOM     50  C   UNL     1      11.227  -7.465  -3.856  1.00  0.00     0.031 C 
ATOM     51  C   UNL     1      11.320  -1.388  -7.105  1.00  0.00     0.029 A 
ATOM     52  C   UNL     1      12.625  -1.928  -6.741  1.00  0.00     0.049 A 
ATOM     53  H   UNL     1      13.047  -3.791  -5.911  1.00  0.00     0.167 HD
ATOM     54  C   UNL     1      13.712  -7.584  -3.822  1.00  0.00     0.037 A 
ATOM     55  C   UNL     1      13.800  -1.295  -6.905  1.00  0.00     0.037 A 
ATOM     56  C   UNL     1      15.025  -7.070  -4.127  1.00  0.00     0.049 A 
ATOM     57  C   UNL     1      15.067  -2.001  -6.522  1.00  0.00     0.074 A 
ATOM     58  C   UNL     1      16.259  -7.659  -3.905  1.00  0.00     0.029 A 
ATOM     59  N   UNL     1      15.274  -5.832  -4.703  1.00  0.00    -0.354 N 
ATOM     60  N   UNL     1      15.219  -3.179  -5.970  1.00  0.00    -0.248 NA
ATOM     61  C   UNL     1      16.325  -1.300  -6.806  1.00  0.00     0.031 C 
ATOM     62  C   UNL     1      17.254  -6.758  -4.306  1.00  0.00     0.029 A 
ATOM     63  C   UNL     1      16.641  -5.626  -4.817  1.00  0.00     0.049 A 
ATOM     64  H   UNL     1      14.582  -5.193  -4.989  1.00  0.00     0.167 HD
ATOM     65  C   UNL     1      16.587  -3.377  -5.867  1.00  0.00     0.074 A 
ATOM     66  C   UNL     1      17.221  -2.197  -6.421  1.00  0.00     0.031 C 
ATOM     67  C   UNL     1      17.255  -4.444  -5.367  1.00  0.00     0.037 A 
BRANCH  54  68
ATOM     68  C   UNL     1      13.622  -8.890  -3.087  1.00  0.00     0.064 A 
ATOM     69  C   UNL     1      13.208 -10.064  -3.733  1.00  0.00     0.173 A 
ATOM     70  C   UNL     1      14.021  -8.986  -1.746  1.00  0.00     0.173 A 
ATOM     71  F   UNL     1      12.819 -10.027  -5.016  1.00  0.00    -0.203 F 
ATOM     72  C   UNL     1      13.179 -11.283  -3.058  1.00  0.00     0.198 A 
ATOM     73  C   UNL     1      14.013 -10.209  -1.080  1.00  0.00     0.198 A 
ATOM     74  F   UNL     1      14.438  -7.896  -1.084  1.00  0.00    -0.203 F 
ATOM     75  F   UNL     1      12.757 -12.387  -3.689  1.00  0.00    -0.200 F 
ATOM     76  C   UNL     1      13.588 -11.355  -1.735  1.00  0.00     0.200 A 
ATOM     77  F   UNL     1      14.423 -10.281   0.194  1.00  0.00    -0.200 F 
ATOM     78  F   UNL     1      13.573 -12.531  -1.091  1.00  0.00    -0.200 F 
ENDBRANCH  54  68
BRANCH  55  79
ATOM     79  C   UNL     1      13.818   0.056  -7.513  1.00  0.00     0.064 A 
ATOM     80  C   UNL     1      14.238   0.237  -8.837  1.00  0.00     0.173 A 
ATOM     81  C   UNL     1      13.374   1.182  -6.804  1.00  0.00     0.173 A 
ATOM     82  F   UNL     1      14.681  -0.811  -9.547  1.00  0.00    -0.203 F 
ATOM     83  C   UNL     1      14.223   1.497  -9.429  1.00  0.00     0.198 A 
ATOM     84  C   UNL     1      13.340   2.438  -7.404  1.00  0.00     0.198 A 
ATOM     85  F   UNL     1      12.949   1.055  -5.539  1.00  0.00    -0.203 F 
ATOM     86  F   UNL     1      14.653   1.648 -10.688  1.00  0.00    -0.200 F 
ATOM     87  C   UNL     1      13.768   2.595  -8.714  1.00  0.00     0.200 A 
ATOM     88  F   UNL     1      12.884   3.495  -6.717  1.00  0.00    -0.200 F 
ATOM     89  F   UNL     1      13.743   3.806  -9.288  1.00  0.00    -0.200 F 
ENDBRANCH  55  79
BRANCH  67  90
ATOM     90  C   UNL     1      18.753  -4.389  -5.420  1.00  0.00     0.064 A 
ATOM     91  C   UNL     1      19.487  -3.566  -4.555  1.00  0.00     0.173 A 
ATOM     92  C   UNL     1      19.459  -5.181  -6.338  1.00  0.00     0.173 A 
ATOM     93  F   UNL     1      18.854  -2.776  -3.675  1.00  0.00    -0.203 F 
ATOM     94  C   UNL     1      20.877  -3.519  -4.623  1.00  0.00     0.198 A 
ATOM     95  C   UNL     1      20.850  -5.149  -6.386  1.00  0.00     0.198 A 
ATOM     96  F   UNL     1      18.801  -5.985  -7.185  1.00  0.00    -0.203 F 
ATOM     97  F   UNL     1      21.558  -2.690  -3.820  1.00  0.00    -0.200 F 
ATOM     98  C   UNL     1      21.557  -4.314  -5.534  1.00  0.00     0.200 A 
ATOM     99  F   UNL     1      21.506  -5.923  -7.262  1.00  0.00    -0.200 F 
ATOM    100  F   UNL     1      22.895  -4.267  -5.598  1.00  0.00    -0.200 F 
ENDBRANCH  67  90
ENDBRANCH  41  42
ENDBRANCH  33  36
ENDBRANCH  31  32
ENDBRANCH  30  31
ENDBRANCH  29  30
ENDBRANCH   1  29
TORSDOF 16
