REMARK SMILES O=C(NCCCCNC(=O)[C@H]1[C@H]2CC[C@H](C2)[C@@H]1C(=O)N1CCN(c2cccc(Cl)c2)CC1)c1ccc(-c2c3nc(c(-c4c(F)c(F)c(F)c(F)c4F)c4ccc([nH]4)c(-c4c(F)c(F)c(F)c(F)c4F)c4nc(c(-c5c(F)c(F)c(F)c(F)c5F)c5ccc2[nH]5)C=C4)C=C3)cc1
REMARK SMILES IDX 5 1 4 2 3 3 1 4 2 5 33 7 34 8 95 9 35 10 94 11 36 12 37 13
REMARK SMILES IDX 38 14 88 15 39 16 93 17 87 18 89 19 40 20 92 21 86 22 85 23
REMARK SMILES IDX 41 25 73 26 53 27 72 28 54 29 57 30 71 31 90 32 55 33 56 34
REMARK SMILES IDX 70 36 91 37 58 38 42 39 43 40 51 41 44 42 45 43 49 44 52 45
REMARK SMILES IDX 46 46 47 47 50 48 48 49 74 50 75 51 83 52 76 53 77 54 81 55
REMARK SMILES IDX 84 56 78 57 79 58 82 59 80 60 59 61 60 62 68 63 61 64 62 65
REMARK SMILES IDX 66 66 69 67 63 68 64 69 67 70 65 71 6 72 7 73 8 74 9 75
REMARK SMILES IDX 10 77 11 78 12 79 17 80 13 81 16 82 15 83 14 84 18 85 19 86
REMARK SMILES IDX 20 87 21 88 32 89 22 90 31 91 23 92 24 93 25 94 30 95 26 96
REMARK SMILES IDX 28 97 27 98 29 99
REMARK H PARENT 3 6 89 24 57 35 8 76
REMARK Flexibility Score: inf
ROOT
ATOM      1  C   UNL     1       4.568  -3.996   5.006  1.00  0.00     0.023 C 
ENDROOT
BRANCH   1   2
ATOM      2  C   UNL     1       5.571  -3.240   5.868  1.00  0.00     0.116 C 
BRANCH   2   3
ATOM      3  N   UNL     1       5.628  -1.820   5.564  1.00  0.00    -0.352 N 
ATOM      4  O   UNL     1       5.567   0.395   6.009  1.00  0.00    -0.269 OA
ATOM      5  C   UNL     1       5.638  -0.755   6.432  1.00  0.00     0.251 C 
ATOM      6  H   UNL     1       5.665  -1.590   4.607  1.00  0.00     0.163 HD
BRANCH   5   7
ATOM      7  C   UNL     1       5.703  -1.003   7.888  1.00  0.00     0.039 A 
ATOM      8  C   UNL     1       6.630  -1.903   8.418  1.00  0.00     0.014 A 
ATOM      9  C   UNL     1       4.814  -0.329   8.729  1.00  0.00     0.014 A 
ATOM     10  C   UNL     1       6.581  -2.228   9.769  1.00  0.00     0.010 A 
ATOM     11  C   UNL     1       4.816  -0.601  10.100  1.00  0.00     0.010 A 
ATOM     12  C   UNL     1       5.680  -1.574  10.626  1.00  0.00    -0.014 A 
BRANCH  12  13
ATOM     13  C   UNL     1       5.695  -1.884  12.077  1.00  0.00     0.031 A 
ATOM     14  C   UNL     1       4.524  -2.549  12.741  1.00  0.00     0.074 A 
ATOM     15  C   UNL     1       6.792  -1.571  12.792  1.00  0.00     0.049 A 
ATOM     16  N   UNL     1       4.372  -2.889  13.998  1.00  0.00    -0.248 NA
ATOM     17  C   UNL     1       3.369  -2.870  11.890  1.00  0.00     0.031 C 
ATOM     18  C   UNL     1       7.985  -0.912  12.255  1.00  0.00     0.029 A 
ATOM     19  N   UNL     1       7.089  -1.770  14.116  1.00  0.00    -0.354 N 
ATOM     20  C   UNL     1       3.104  -3.446  14.091  1.00  0.00     0.074 A 
ATOM     21  C   UNL     1       2.516  -3.377  12.770  1.00  0.00     0.031 C 
ATOM     22  C   UNL     1       8.898  -0.795  13.230  1.00  0.00     0.029 A 
ATOM     23  C   UNL     1       8.335  -1.317  14.471  1.00  0.00     0.049 A 
ATOM     24  H   UNL     1       6.469  -2.198  14.750  1.00  0.00     0.167 HD
ATOM     25  C   UNL     1       2.493  -3.973  15.180  1.00  0.00     0.037 A 
ATOM     26  C   UNL     1       8.951  -1.306  15.667  1.00  0.00     0.037 A 
ATOM     27  C   UNL     1       3.090  -4.052  16.489  1.00  0.00     0.049 A 
ATOM     28  C   UNL     1       8.241  -1.876  16.860  1.00  0.00     0.074 A 
ATOM     29  C   UNL     1       2.566  -4.603  17.646  1.00  0.00     0.029 A 
ATOM     30  N   UNL     1       4.346  -3.561  16.816  1.00  0.00    -0.354 N 
ATOM     31  N   UNL     1       7.055  -2.431  16.928  1.00  0.00    -0.248 NA
ATOM     32  C   UNL     1       8.953  -1.817  18.142  1.00  0.00     0.031 C 
ATOM     33  C   UNL     1       3.486  -4.407  18.682  1.00  0.00     0.029 A 
ATOM     34  C   UNL     1       4.604  -3.776  18.161  1.00  0.00     0.049 A 
ATOM     35  H   UNL     1       4.964  -3.125  16.185  1.00  0.00     0.167 HD
ATOM     36  C   UNL     1       6.884  -2.801  18.254  1.00  0.00     0.074 A 
ATOM     37  C   UNL     1       8.097  -2.426  18.951  1.00  0.00     0.031 C 
ATOM     38  C   UNL     1       5.817  -3.395  18.840  1.00  0.00     0.037 A 
BRANCH  25  39
ATOM     39  C   UNL     1       1.094  -4.493  15.012  1.00  0.00     0.064 A 
ATOM     40  C   UNL     1       0.829  -5.682  14.317  1.00  0.00     0.173 A 
ATOM     41  C   UNL     1       0.011  -3.820  15.598  1.00  0.00     0.173 A 
ATOM     42  F   UNL     1       1.827  -6.359  13.730  1.00  0.00    -0.203 F 
ATOM     43  C   UNL     1      -0.472  -6.166  14.196  1.00  0.00     0.198 A 
ATOM     44  C   UNL     1      -1.285  -4.321  15.497  1.00  0.00     0.198 A 
ATOM     45  F   UNL     1       0.210  -2.682  16.280  1.00  0.00    -0.203 F 
ATOM     46  F   UNL     1      -0.707  -7.284  13.495  1.00  0.00    -0.200 F 
ATOM     47  C   UNL     1      -1.526  -5.490  14.792  1.00  0.00     0.200 A 
ATOM     48  F   UNL     1      -2.300  -3.672  16.084  1.00  0.00    -0.200 F 
ATOM     49  F   UNL     1      -2.776  -5.962  14.681  1.00  0.00    -0.200 F 
ENDBRANCH  25  39
BRANCH  26  50
ATOM     50  C   UNL     1      10.315  -0.732  15.783  1.00  0.00     0.064 A 
ATOM     51  C   UNL     1      11.424  -1.552  16.023  1.00  0.00     0.173 A 
ATOM     52  C   UNL     1      10.539   0.645  15.632  1.00  0.00     0.173 A 
ATOM     53  F   UNL     1      11.257  -2.872  16.192  1.00  0.00    -0.203 F 
ATOM     54  C   UNL     1      12.706  -1.016  16.119  1.00  0.00     0.198 A 
ATOM     55  C   UNL     1      11.824   1.176  15.699  1.00  0.00     0.198 A 
ATOM     56  F   UNL     1       9.509   1.471  15.395  1.00  0.00    -0.203 F 
ATOM     57  F   UNL     1      13.747  -1.818  16.383  1.00  0.00    -0.200 F 
ATOM     58  C   UNL     1      12.906   0.346  15.948  1.00  0.00     0.200 A 
ATOM     59  F   UNL     1      12.014   2.490  15.518  1.00  0.00    -0.200 F 
ATOM     60  F   UNL     1      14.141   0.859  16.029  1.00  0.00    -0.200 F 
ENDBRANCH  26  50
BRANCH  38  61
ATOM     61  C   UNL     1       5.925  -3.697  20.305  1.00  0.00     0.064 A 
ATOM     62  C   UNL     1       5.861  -2.682  21.270  1.00  0.00     0.173 A 
ATOM     63  C   UNL     1       6.070  -5.020  20.749  1.00  0.00     0.173 A 
ATOM     64  F   UNL     1       5.742  -1.399  20.894  1.00  0.00    -0.203 F 
ATOM     65  C   UNL     1       5.962  -2.978  22.627  1.00  0.00     0.198 A 
ATOM     66  C   UNL     1       6.143  -5.315  22.107  1.00  0.00     0.198 A 
ATOM     67  F   UNL     1       6.133  -6.027  19.865  1.00  0.00    -0.203 F 
ATOM     68  F   UNL     1       5.946  -1.988  23.530  1.00  0.00    -0.200 F 
ATOM     69  C   UNL     1       6.097  -4.294  23.044  1.00  0.00     0.200 A 
ATOM     70  F   UNL     1       6.263  -6.588  22.509  1.00  0.00    -0.200 F 
ATOM     71  F   UNL     1       6.191  -4.577  24.351  1.00  0.00    -0.200 F 
ENDBRANCH  38  61
ENDBRANCH  12  13
ENDBRANCH   5   7
ENDBRANCH   2   3
ENDBRANCH   1   2
BRANCH   1  72
ATOM     72  C   UNL     1       4.856  -3.979   3.503  1.00  0.00     0.023 C 
BRANCH  72  73
ATOM     73  C   UNL     1       6.248  -4.472   3.120  1.00  0.00     0.116 C 
BRANCH  73  74
ATOM     74  N   UNL     1       6.454  -5.853   3.485  1.00  0.00    -0.356 N 
ATOM     75  C   UNL     1       6.639  -6.955   2.716  1.00  0.00     0.224 C 
ATOM     76  H   UNL     1       6.462  -6.024   4.455  1.00  0.00     0.163 HD
ATOM     77  O   UNL     1       6.951  -7.984   3.319  1.00  0.00    -0.275 OA
BRANCH  75  78
ATOM     78  C   UNL     1       6.580  -6.888   1.189  1.00  0.00     0.094 C 
ATOM     79  C   UNL     1       6.821  -8.294   0.557  1.00  0.00     0.002 C 
ATOM     80  C   UNL     1       5.236  -6.473   0.532  1.00  0.00     0.094 C 
ATOM     81  C   UNL     1       5.735  -9.322   0.953  1.00  0.00     0.005 C 
ATOM     82  C   UNL     1       6.428  -8.034  -0.890  1.00  0.00     0.009 C 
ATOM     83  C   UNL     1       5.010  -7.581  -0.525  1.00  0.00     0.002 C 
ATOM     84  C   UNL     1       4.491  -8.834   0.201  1.00  0.00     0.005 C 
BRANCH  80  85
ATOM     85  C   UNL     1       5.211  -5.042  -0.035  1.00  0.00     0.226 C 
ATOM     86  O   UNL     1       4.414  -4.215   0.414  1.00  0.00    -0.275 OA
ATOM     87  N   UNL     1       6.209  -4.656  -0.908  1.00  0.00    -0.339 N 
ATOM     88  C   UNL     1       6.838  -3.348  -0.687  1.00  0.00     0.141 C 
ATOM     89  C   UNL     1       6.130  -4.987  -2.336  1.00  0.00     0.141 C 
ATOM     90  C   UNL     1       8.258  -3.317  -1.276  1.00  0.00     0.138 C 
ATOM     91  C   UNL     1       7.512  -4.945  -3.015  1.00  0.00     0.138 C 
ATOM     92  N   UNL     1       8.213  -3.685  -2.700  1.00  0.00    -0.368 N 
BRANCH  92  93
ATOM     93  C   UNL     1       9.259  -3.329  -3.540  1.00  0.00     0.038 A 
ATOM     94  C   UNL     1       8.984  -3.006  -4.877  1.00  0.00     0.026 A 
ATOM     95  C   UNL     1      10.591  -3.265  -3.112  1.00  0.00     0.046 A 
ATOM     96  C   UNL     1       9.996  -2.624  -5.761  1.00  0.00     0.004 A 
ATOM     97  C   UNL     1      11.606  -2.895  -3.998  1.00  0.00     0.043 A 
ATOM     98  C   UNL     1      11.314  -2.570  -5.319  1.00  0.00     0.020 A 
ATOM     99  Cl  UNL     1      13.238  -2.844  -3.450  1.00  0.00    -0.084 Cl
ENDBRANCH  92  93
ENDBRANCH  80  85
ENDBRANCH  75  78
ENDBRANCH  73  74
ENDBRANCH  72  73
ENDBRANCH   1  72
TORSDOF 13
