REMARK SMILES Cc1nnc(/[NH+]=C2/S/C(=C/c3cccc(O[C@@H](C)C(=O)NCCCCNC(=O)c4ccc(-c5c6nc(c(-c7c(F)c(F)c(F)c(F)c7F)c7ccc([nH]7)c(-c7c(F)c(F)c(F)c(F)c7F)c7nc(c(-c8c(F)c(F)c(F)c(F)c8F)c8ccc5[nH]8)C=C7)C=C6)cc4)c3)C(=O)N2C)s1
REMARK SMILES IDX 22 1 21 2 19 3 20 4 17 6 18 7 16 8 15 9 11 10 12 11 92 12
REMARK SMILES IDX 13 13 14 14 10 15 6 16 7 17 8 19 95 20 9 21 93 22 96 23
REMARK SMILES IDX 94 24 5 25 1 26 2 27 3 28 97 29 4 30 23 31 24 32 25 33 26 34
REMARK SMILES IDX 27 35 28 37 29 38 30 39 91 40 31 41 90 42 32 43 33 44 34 45
REMARK SMILES IDX 84 46 35 47 89 48 83 49 85 50 36 51 88 52 82 53 81 54 37 56
REMARK SMILES IDX 69 57 49 58 68 59 50 60 53 61 67 62 86 63 51 64 52 65 66 67
REMARK SMILES IDX 87 68 54 69 38 70 39 71 47 72 40 73 41 74 45 75 48 76 42 77
REMARK SMILES IDX 43 78 46 79 44 80 70 81 71 82 79 83 72 84 73 85 77 86 80 87
REMARK SMILES IDX 74 88 75 89 78 90 76 91 55 92 56 93 64 94 57 95 58 96 62 97
REMARK SMILES IDX 65 98 59 99 60 100 63 101 61 102
REMARK H PARENT 21 5 6 18 26 36 85 55 53 66
REMARK Flexibility Score: inf
ROOT
ATOM      1  C   UNL     1       5.979  -0.719  -4.321  1.00  0.00     0.116 C 
ENDROOT
BRANCH   1   2
ATOM      2  N   UNL     1       5.439  -1.198  -5.573  1.00  0.00    -0.353 N 
ATOM      3  C   UNL     1       5.179  -2.452  -6.030  1.00  0.00     0.260 C 
ATOM      4  O   UNL     1       4.830  -2.523  -7.217  1.00  0.00    -0.271 OA
ATOM      5  H   UNL     1       5.219  -0.484  -6.214  1.00  0.00     0.163 HD
BRANCH   3   6
ATOM      6  C   UNL     1       5.221  -3.738  -5.157  1.00  0.00     0.258 C 
ATOM      7  C   UNL     1       4.081  -3.798  -4.141  1.00  0.00     0.064 C 
BRANCH   6   8
ATOM      8  O   UNL     1       6.468  -4.322  -4.793  1.00  0.00    -0.481 OA
BRANCH   8   9
ATOM      9  C   UNL     1       7.236  -3.956  -3.737  1.00  0.00     0.121 A 
ATOM     10  C   UNL     1       7.675  -2.979  -1.541  1.00  0.00    -0.021 A 
ATOM     11  C   UNL     1       9.048  -3.146  -1.753  1.00  0.00     0.008 A 
ATOM     12  C   UNL     1       6.785  -3.444  -2.526  1.00  0.00     0.054 A 
ATOM     13  C   UNL     1       9.512  -3.748  -2.925  1.00  0.00     0.004 A 
ATOM     14  C   UNL     1       8.608  -4.139  -3.914  1.00  0.00     0.046 A 
BRANCH  10  15
ATOM     15  C   UNL     1       7.220  -2.043  -0.492  1.00  0.00     0.031 C 
ATOM     16  N   UNL     1       2.937   0.041   0.644  1.00  0.00    -0.226 N 
ATOM     17  C   UNL     1       3.803  -0.915   0.629  1.00  0.00     0.271 C 
ATOM     18  H   UNL     1       3.197   0.937   0.959  1.00  0.00     0.268 HD
ATOM     19  S   UNL     1       5.497  -0.484   0.864  1.00  0.00    -0.012 SA
ATOM     20  N   UNL     1       3.713  -2.272   0.442  1.00  0.00    -0.222 N 
ATOM     21  C   UNL     1       6.024  -1.951   0.109  1.00  0.00     0.100 C 
ATOM     22  C   UNL     1       4.894  -2.919   0.122  1.00  0.00     0.321 C 
ATOM     23  C   UNL     1       2.527  -3.083   0.638  1.00  0.00     0.252 C 
ATOM     24  O   UNL     1       5.013  -4.116  -0.095  1.00  0.00    -0.250 OA
BRANCH  16  25
ATOM     25  C   UNL     1       1.672  -0.188   0.226  1.00  0.00     0.345 A 
ATOM     26  C   UNL     1      -2.177  -0.001   0.042  1.00  0.00     0.083 C 
ATOM     27  C   UNL     1      -0.706  -0.185  -0.049  1.00  0.00     0.135 A 
ATOM     28  N   UNL     1      -0.104  -0.945  -0.938  1.00  0.00    -0.067 NA
ATOM     29  S   UNL     1       0.365   0.608   1.030  1.00  0.00    -0.044 S 
ATOM     30  N   UNL     1       1.268  -0.908  -0.804  1.00  0.00     0.023 NA
ENDBRANCH  16  25
ENDBRANCH  10  15
ENDBRANCH   8   9
ENDBRANCH   6   8
ENDBRANCH   3   6
ENDBRANCH   1   2
BRANCH   1  31
ATOM     31  C   UNL     1       7.499  -0.561  -4.403  1.00  0.00     0.023 C 
BRANCH  31  32
ATOM     32  C   UNL     1       7.990   0.888  -4.427  1.00  0.00     0.023 C 
BRANCH  32  33
ATOM     33  C   UNL     1       7.739   1.669  -3.138  1.00  0.00     0.116 C 
BRANCH  33  34
ATOM     34  N   UNL     1       8.392   1.102  -1.966  1.00  0.00    -0.352 N 
ATOM     35  C   UNL     1       8.696   1.711  -0.769  1.00  0.00     0.251 C 
ATOM     36  H   UNL     1       8.650   0.155  -2.039  1.00  0.00     0.163 HD
ATOM     37  O   UNL     1       9.274   1.083   0.114  1.00  0.00    -0.269 OA
BRANCH  35  38
ATOM     38  C   UNL     1       8.414   3.154  -0.594  1.00  0.00     0.039 A 
ATOM     39  C   UNL     1       9.458   3.982  -0.172  1.00  0.00     0.014 A 
ATOM     40  C   UNL     1       7.180   3.703  -0.947  1.00  0.00     0.014 A 
ATOM     41  C   UNL     1       9.310   5.369  -0.238  1.00  0.00     0.010 A 
ATOM     42  C   UNL     1       7.056   5.084  -1.078  1.00  0.00     0.010 A 
ATOM     43  C   UNL     1       8.134   5.926  -0.766  1.00  0.00    -0.014 A 
BRANCH  43  44
ATOM     44  C   UNL     1       8.057   7.371  -1.100  1.00  0.00     0.031 A 
ATOM     45  C   UNL     1       7.081   8.272  -0.404  1.00  0.00     0.074 A 
ATOM     46  C   UNL     1       8.804   7.842  -2.120  1.00  0.00     0.049 A 
ATOM     47  N   UNL     1       6.824   9.536  -0.626  1.00  0.00    -0.248 NA
ATOM     48  C   UNL     1       6.264   7.668   0.659  1.00  0.00     0.031 C 
ATOM     49  C   UNL     1       9.729   7.046  -2.930  1.00  0.00     0.029 A 
ATOM     50  N   UNL     1       8.890   9.100  -2.663  1.00  0.00    -0.354 N 
ATOM     51  C   UNL     1       5.800   9.872   0.247  1.00  0.00     0.074 A 
ATOM     52  C   UNL     1       5.463   8.673   0.986  1.00  0.00     0.031 C 
ATOM     53  C   UNL     1      10.302   7.836  -3.853  1.00  0.00     0.029 A 
ATOM     54  C   UNL     1       9.765   9.186  -3.719  1.00  0.00     0.049 A 
ATOM     55  H   UNL     1       8.374   9.868  -2.328  1.00  0.00     0.167 HD
ATOM     56  C   UNL     1       5.206  11.076   0.424  1.00  0.00     0.037 A 
ATOM     57  C   UNL     1      10.097  10.235  -4.495  1.00  0.00     0.037 A 
ATOM     58  C   UNL     1       5.575  12.278  -0.275  1.00  0.00     0.049 A 
ATOM     59  C   UNL     1       9.467  11.573  -4.229  1.00  0.00     0.074 A 
ATOM     60  C   UNL     1       5.098  13.564  -0.091  1.00  0.00     0.029 A 
ATOM     61  N   UNL     1       6.515  12.340  -1.292  1.00  0.00    -0.354 N 
ATOM     62  N   UNL     1       8.568  11.898  -3.333  1.00  0.00    -0.248 NA
ATOM     63  C   UNL     1       9.903  12.692  -5.077  1.00  0.00     0.031 C 
ATOM     64  C   UNL     1       5.732  14.402  -1.015  1.00  0.00     0.029 A 
ATOM     65  C   UNL     1       6.623  13.642  -1.755  1.00  0.00     0.049 A 
ATOM     66  H   UNL     1       7.030  11.574  -1.633  1.00  0.00     0.167 HD
ATOM     67  C   UNL     1       8.350  13.259  -3.491  1.00  0.00     0.074 A 
ATOM     68  C   UNL     1       9.218  13.703  -4.562  1.00  0.00     0.031 C 
ATOM     69  C   UNL     1       7.504  14.067  -2.809  1.00  0.00     0.037 A 
BRANCH  56  70
ATOM     70  C   UNL     1       4.094  11.160   1.425  1.00  0.00     0.064 A 
ATOM     71  C   UNL     1       4.349  11.148   2.804  1.00  0.00     0.173 A 
ATOM     72  C   UNL     1       2.766  11.306   1.000  1.00  0.00     0.173 A 
ATOM     73  F   UNL     1       5.602  10.999   3.257  1.00  0.00    -0.203 F 
ATOM     74  C   UNL     1       3.309  11.261   3.723  1.00  0.00     0.198 A 
ATOM     75  C   UNL     1       1.731  11.440   1.922  1.00  0.00     0.198 A 
ATOM     76  F   UNL     1       2.473  11.327  -0.309  1.00  0.00    -0.203 F 
ATOM     77  F   UNL     1       3.571  11.214   5.037  1.00  0.00    -0.200 F 
ATOM     78  C   UNL     1       2.003  11.413   3.282  1.00  0.00     0.200 A 
ATOM     79  F   UNL     1       0.470  11.594   1.495  1.00  0.00    -0.200 F 
ATOM     80  F   UNL     1       1.005  11.529   4.168  1.00  0.00    -0.200 F 
ENDBRANCH  56  70
BRANCH  57  81
ATOM     81  C   UNL     1      11.098  10.072  -5.579  1.00  0.00     0.064 A 
ATOM     82  C   UNL     1      12.383  10.617  -5.453  1.00  0.00     0.173 A 
ATOM     83  C   UNL     1      10.790   9.386  -6.761  1.00  0.00     0.173 A 
ATOM     84  F   UNL     1      12.715  11.299  -4.347  1.00  0.00    -0.203 F 
ATOM     85  C   UNL     1      13.317  10.501  -6.480  1.00  0.00     0.198 A 
ATOM     86  C   UNL     1      11.732   9.251  -7.779  1.00  0.00     0.198 A 
ATOM     87  F   UNL     1       9.575   8.842  -6.926  1.00  0.00    -0.203 F 
ATOM     88  F   UNL     1      14.524  11.069  -6.353  1.00  0.00    -0.200 F 
ATOM     89  C   UNL     1      12.992   9.816  -7.641  1.00  0.00     0.200 A 
ATOM     90  F   UNL     1      11.418   8.580  -8.896  1.00  0.00    -0.200 F 
ATOM     91  F   UNL     1      13.889   9.707  -8.630  1.00  0.00    -0.200 F 
ENDBRANCH  57  81
BRANCH  69  92
ATOM     92  C   UNL     1       7.501  15.519  -3.178  1.00  0.00     0.064 A 
ATOM     93  C   UNL     1       6.868  15.974  -4.343  1.00  0.00     0.173 A 
ATOM     94  C   UNL     1       8.103  16.466  -2.338  1.00  0.00     0.173 A 
ATOM     95  F   UNL     1       6.295  15.101  -5.185  1.00  0.00    -0.203 F 
ATOM     96  C   UNL     1       6.852  17.329  -4.662  1.00  0.00     0.198 A 
ATOM     97  C   UNL     1       8.067  17.821  -2.649  1.00  0.00     0.198 A 
ATOM     98  F   UNL     1       8.719  16.076  -1.212  1.00  0.00    -0.203 F 
ATOM     99  F   UNL     1       6.271  17.741  -5.797  1.00  0.00    -0.200 F 
ATOM    100  C   UNL     1       7.445  18.251  -3.812  1.00  0.00     0.200 A 
ATOM    101  F   UNL     1       8.635  18.712  -1.825  1.00  0.00    -0.200 F 
ATOM    102  F   UNL     1       7.424  19.556  -4.119  1.00  0.00    -0.200 F 
ENDBRANCH  69  92
ENDBRANCH  43  44
ENDBRANCH  35  38
ENDBRANCH  33  34
ENDBRANCH  32  33
ENDBRANCH  31  32
ENDBRANCH   1  31
TORSDOF 15
