REMARK SMILES CC(C)[C@H](CNc1ncnc2c1CCCCC2)C(=O)NCCCCNC(=O)c1ccc(-c2c3nc(c(-c4c(F)c(F)c(F)c(F)c4F)c4ccc([nH]4)c(-c4c(F)c(F)c(F)c(F)c4F)c4nc(c(-c5c(F)c(F)c(F)c(F)c5F)c5ccc2[nH]5)C=C4)C=C3)cc1
REMARK SMILES IDX 18 1 19 2 20 3 4 5 2 6 1 7 3 8 5 9 6 10 7 12 8 13 12 14 9 15
REMARK SMILES IDX 11 16 10 17 13 18 14 19 15 20 16 21 17 23 21 25 22 26 23 27
REMARK SMILES IDX 24 28 25 29 26 30 27 32 28 33 29 34 90 35 30 36 89 37 31 38
REMARK SMILES IDX 32 39 33 40 83 41 34 42 88 43 82 44 84 45 35 46 87 47 81 48
REMARK SMILES IDX 80 49 36 51 68 52 48 53 67 54 49 55 52 56 66 57 85 58 50 59
REMARK SMILES IDX 51 60 65 62 86 63 53 64 37 65 38 66 46 67 39 68 40 69 44 70
REMARK SMILES IDX 47 71 41 72 42 73 45 74 43 75 69 76 70 77 78 78 71 79 72 80
REMARK SMILES IDX 76 81 79 82 73 83 74 84 77 85 75 86 54 87 55 88 63 89 56 90
REMARK SMILES IDX 57 91 61 92 64 93 58 94 59 95 62 96 60 97
REMARK H PARENT 20 4 6 11 25 31 84 50 52 61
REMARK Flexibility Score: 80.00
ROOT
ATOM      1  C   UNL     1      -1.388  -2.450  -1.154  1.00  0.00     0.225 C 
ATOM      2  O   UNL     1      -1.909  -3.232  -0.350  1.00  0.00    -0.275 OA
ATOM      3  N   UNL     1      -1.151  -2.945  -2.397  1.00  0.00    -0.356 N 
ATOM      4  H   UNL     1      -1.396  -3.893  -2.501  1.00  0.00     0.163 HD
ENDROOT
BRANCH   1   5
ATOM      5  C   UNL     1      -1.018  -1.033  -0.692  1.00  0.00     0.100 C 
BRANCH   5   6
ATOM      6  C   UNL     1      -1.550   0.165  -1.524  1.00  0.00    -0.003 C 
ATOM      7  C   UNL     1      -2.937  -0.094  -2.127  1.00  0.00     0.008 C 
ATOM      8  C   UNL     1      -1.649   1.426  -0.648  1.00  0.00     0.008 C 
ENDBRANCH   5   6
BRANCH   5   9
ATOM      9  C   UNL     1       0.461  -0.936  -0.241  1.00  0.00     0.128 C 
BRANCH   9  10
ATOM     10  N   UNL     1       1.429  -1.240  -1.283  1.00  0.00    -0.369 N 
ATOM     11  H   UNL     1       1.606  -2.182  -1.511  1.00  0.00     0.162 HD
BRANCH  10  12
ATOM     12  C   UNL     1       2.108  -0.247  -1.962  1.00  0.00     0.132 A 
ATOM     13  N   UNL     1       1.693  -0.040  -3.221  1.00  0.00    -0.219 NA
ATOM     14  C   UNL     1       3.225   0.387  -1.435  1.00  0.00     0.016 A 
ATOM     15  C   UNL     1       2.384   0.841  -3.953  1.00  0.00     0.224 A 
ATOM     16  C   UNL     1       3.893   1.250  -2.301  1.00  0.00     0.049 A 
ATOM     17  N   UNL     1       3.469   1.503  -3.556  1.00  0.00    -0.241 NA
BRANCH  14  18
ATOM     18  C   UNL     1       3.801   0.034  -0.093  1.00  0.00     0.041 C 
BRANCH  18  19
ATOM     19  C   UNL     1       5.083  -0.792  -0.227  1.00  0.00     0.005 C 
BRANCH  19  20
ATOM     20  C   UNL     1       6.330   0.048  -0.505  1.00  0.00     0.001 C 
BRANCH  20  21
ATOM     21  C   UNL     1       6.324   0.812  -1.830  1.00  0.00     0.006 CG0
ATOM     22  G   UNL     1       5.219   1.865  -1.935  1.00  0.00     0.000 G0
ENDBRANCH  20  21
ENDBRANCH  19  20
ENDBRANCH  18  19
ENDBRANCH  14  18
BRANCH  16  23
ATOM     23  C   UNL     1       5.219   1.865  -1.935  1.00  0.00     0.057 CG0
ATOM     24  G   UNL     1       6.324   0.812  -1.830  1.00  0.00     0.000 G0
ENDBRANCH  16  23
ENDBRANCH  10  12
ENDBRANCH   9  10
ENDBRANCH   5   9
ENDBRANCH   1   5
BRANCH   3  25
ATOM     25  C   UNL     1      -0.605  -2.346  -3.600  1.00  0.00     0.116 C 
BRANCH  25  26
ATOM     26  C   UNL     1       0.693  -3.040  -4.025  1.00  0.00     0.023 C 
BRANCH  26  27
ATOM     27  C   UNL     1       0.504  -4.231  -4.950  1.00  0.00     0.023 C 
BRANCH  27  28
ATOM     28  C   UNL     1      -0.162  -3.896  -6.274  1.00  0.00     0.116 C 
BRANCH  28  29
ATOM     29  N   UNL     1       0.497  -2.820  -7.003  1.00  0.00    -0.352 N 
ATOM     30  C   UNL     1       0.854  -2.779  -8.329  1.00  0.00     0.251 C 
ATOM     31  H   UNL     1       0.716  -2.017  -6.477  1.00  0.00     0.163 HD
ATOM     32  O   UNL     1       1.499  -1.842  -8.786  1.00  0.00    -0.269 OA
BRANCH  30  33
ATOM     33  C   UNL     1       0.468  -3.910  -9.191  1.00  0.00     0.039 A 
ATOM     34  C   UNL     1       1.444  -4.550  -9.957  1.00  0.00     0.014 A 
ATOM     35  C   UNL     1      -0.847  -4.379  -9.165  1.00  0.00     0.014 A 
ATOM     36  C   UNL     1       1.112  -5.714 -10.649  1.00  0.00     0.010 A 
ATOM     37  C   UNL     1      -1.151  -5.585  -9.775  1.00  0.00     0.010 A 
ATOM     38  C   UNL     1      -0.178  -6.255 -10.534  1.00  0.00    -0.014 A 
BRANCH  38  39
ATOM     39  C   UNL     1      -0.578  -7.489 -11.246  1.00  0.00     0.031 A 
ATOM     40  C   UNL     1      -1.661  -7.405 -12.283  1.00  0.00     0.074 A 
ATOM     41  C   UNL     1      -0.051  -8.677 -10.898  1.00  0.00     0.049 A 
ATOM     42  N   UNL     1      -2.302  -8.367 -12.894  1.00  0.00    -0.248 NA
ATOM     43  C   UNL     1      -2.117  -6.052 -12.643  1.00  0.00     0.031 C 
ATOM     44  C   UNL     1       0.977  -8.885  -9.878  1.00  0.00     0.029 A 
ATOM     45  N   UNL     1      -0.326  -9.940 -11.358  1.00  0.00    -0.354 N 
ATOM     46  C   UNL     1      -3.259  -7.735 -13.676  1.00  0.00     0.074 A 
ATOM     47  C   UNL     1      -3.151  -6.316 -13.425  1.00  0.00     0.031 C 
ATOM     48  C   UNL     1       1.261 -10.196  -9.803  1.00  0.00     0.029 A 
ATOM     49  C   UNL     1       0.407 -10.922 -10.739  1.00  0.00     0.049 A 
ATOM     50  H   UNL     1      -0.986 -10.124 -12.064  1.00  0.00     0.167 HD
ATOM     51  C   UNL     1      -4.134  -8.291 -14.546  1.00  0.00     0.037 A 
ATOM     52  C   UNL     1       0.380 -12.257 -10.905  1.00  0.00     0.037 A 
ATOM     53  C   UNL     1      -4.193  -9.698 -14.833  1.00  0.00     0.049 A 
ATOM     54  C   UNL     1      -0.577 -12.850 -11.902  1.00  0.00     0.074 A 
ATOM     55  C   UNL     1      -4.988 -10.359 -15.751  1.00  0.00     0.029 A 
ATOM     56  N   UNL     1      -3.412 -10.660 -14.209  1.00  0.00    -0.354 N 
ATOM     57  N   UNL     1      -1.460 -12.246 -12.661  1.00  0.00    -0.248 NA
ATOM     58  C   UNL     1      -0.545 -14.310 -12.064  1.00  0.00     0.031 C 
ATOM     59  C   UNL     1      -4.708 -11.727 -15.662  1.00  0.00     0.029 A 
ATOM     60  C   UNL     1      -3.714 -11.913 -14.714  1.00  0.00     0.049 A 
ATOM     61  H   UNL     1      -2.742 -10.478 -13.510  1.00  0.00     0.167 HD
ATOM     62  C   UNL     1      -2.084 -13.246 -13.393  1.00  0.00     0.074 A 
ATOM     63  C   UNL     1      -1.460 -14.495 -13.006  1.00  0.00     0.031 C 
ATOM     64  C   UNL     1      -3.087 -13.142 -14.299  1.00  0.00     0.037 A 
BRANCH  51  65
ATOM     65  C   UNL     1      -5.083  -7.369 -15.251  1.00  0.00     0.064 A 
ATOM     66  C   UNL     1      -4.640  -6.468 -16.233  1.00  0.00     0.173 A 
ATOM     67  C   UNL     1      -6.452  -7.388 -14.947  1.00  0.00     0.173 A 
ATOM     68  F   UNL     1      -3.337  -6.397 -16.545  1.00  0.00    -0.203 F 
ATOM     69  C   UNL     1      -5.528  -5.598 -16.860  1.00  0.00     0.198 A 
ATOM     70  C   UNL     1      -7.341  -6.538 -15.598  1.00  0.00     0.198 A 
ATOM     71  F   UNL     1      -6.926  -8.229 -14.016  1.00  0.00    -0.203 F 
ATOM     72  F   UNL     1      -5.073  -4.708 -17.751  1.00  0.00    -0.200 F 
ATOM     73  C   UNL     1      -6.878  -5.638 -16.547  1.00  0.00     0.200 A 
ATOM     74  F   UNL     1      -8.648  -6.582 -15.300  1.00  0.00    -0.200 F 
ATOM     75  F   UNL     1      -7.732  -4.801 -17.152  1.00  0.00    -0.200 F 
ENDBRANCH  51  65
BRANCH  52  76
ATOM     76  C   UNL     1       1.311 -13.114 -10.129  1.00  0.00     0.064 A 
ATOM     77  C   UNL     1       2.415 -13.713 -10.750  1.00  0.00     0.173 A 
ATOM     78  C   UNL     1       1.139 -13.327  -8.754  1.00  0.00     0.173 A 
ATOM     79  F   UNL     1       2.609 -13.553 -12.068  1.00  0.00    -0.203 F 
ATOM     80  C   UNL     1       3.310 -14.498 -10.027  1.00  0.00     0.198 A 
ATOM     81  C   UNL     1       2.046 -14.095  -8.027  1.00  0.00     0.198 A 
ATOM     82  F   UNL     1       0.100 -12.772  -8.113  1.00  0.00    -0.203 F 
ATOM     83  F   UNL     1       4.343 -15.081 -10.650  1.00  0.00    -0.200 F 
ATOM     84  C   UNL     1       3.129 -14.682  -8.664  1.00  0.00     0.200 A 
ATOM     85  F   UNL     1       1.875 -14.261  -6.708  1.00  0.00    -0.200 F 
ATOM     86  F   UNL     1       3.997 -15.428  -7.966  1.00  0.00    -0.200 F 
ENDBRANCH  52  76
BRANCH  64  87
ATOM     87  C   UNL     1      -3.575 -14.413 -14.926  1.00  0.00     0.064 A 
ATOM     88  C   UNL     1      -4.368 -15.321 -14.209  1.00  0.00     0.173 A 
ATOM     89  C   UNL     1      -3.294 -14.700 -16.270  1.00  0.00     0.173 A 
ATOM     90  F   UNL     1      -4.651 -15.095 -12.917  1.00  0.00    -0.203 F 
ATOM     91  C   UNL     1      -4.847 -16.481 -14.810  1.00  0.00     0.198 A 
ATOM     92  C   UNL     1      -3.797 -15.848 -16.875  1.00  0.00     0.198 A 
ATOM     93  F   UNL     1      -2.547 -13.859 -17.000  1.00  0.00    -0.203 F 
ATOM     94  F   UNL     1      -5.571 -17.353 -14.095  1.00  0.00    -0.200 F 
ATOM     95  C   UNL     1      -4.568 -16.740 -16.144  1.00  0.00     0.200 A 
ATOM     96  F   UNL     1      -3.538 -16.091 -18.167  1.00  0.00    -0.200 F 
ATOM     97  F   UNL     1      -5.038 -17.853 -16.723  1.00  0.00    -0.200 F 
ENDBRANCH  64  87
ENDBRANCH  38  39
ENDBRANCH  30  33
ENDBRANCH  28  29
ENDBRANCH  27  28
ENDBRANCH  26  27
ENDBRANCH  25  26
ENDBRANCH   3  25
TORSDOF 15
