REMARK SMILES CC[C@@H](Oc1ccc(/C=C2\SC(=S)N(NC(=O)c3ccccc3O)C2=O)cc1)C(=O)NCCCCNC(=O)c1ccc(-c2c3nc(c(-c4c(F)c(F)c(F)c(F)c4F)c4ccc([nH]4)c(-c4c(F)c(F)c(F)c(F)c4F)c4nc(c(-c5c(F)c(F)c(F)c(F)c5F)c5ccc2[nH]5)C=C4)C=C3)cc1
REMARK SMILES IDX 29 1 30 2 31 3 3 5 2 6 1 7 4 8 5 9 6 10 28 11 7 12 27 13
REMARK SMILES IDX 8 14 9 15 10 16 11 17 25 18 12 19 14 20 26 21 13 22 15 23
REMARK SMILES IDX 16 24 17 26 18 27 19 28 23 29 20 30 22 31 21 32 24 33 32 35
REMARK SMILES IDX 33 36 34 37 35 38 36 39 37 40 38 42 39 43 40 44 101 45 41 46
REMARK SMILES IDX 100 47 42 48 43 49 44 50 94 51 45 52 99 53 93 54 95 55 46 56
REMARK SMILES IDX 98 57 92 58 91 59 47 61 79 62 59 63 78 64 60 65 63 66 77 67
REMARK SMILES IDX 96 68 61 69 62 70 76 72 97 73 64 74 48 75 49 76 57 77 50 78
REMARK SMILES IDX 51 79 55 80 58 81 52 82 53 83 56 84 54 85 80 86 81 87 89 88
REMARK SMILES IDX 82 89 83 90 87 91 90 92 84 93 85 94 88 95 86 96 65 97 66 98
REMARK SMILES IDX 74 99 67 100 68 101 72 102 75 103 69 104 70 105 73 106
REMARK SMILES IDX 71 107
REMARK H PARENT 31 4 15 25 24 34 36 41 95 60 63 71
REMARK Flexibility Score: inf
ROOT
ATOM      1  C   UNL     1       0.470   3.674  -0.238  1.00  0.00     0.261 C 
ATOM      2  O   UNL     1       1.222   4.629  -0.026  1.00  0.00    -0.271 OA
ATOM      3  N   UNL     1      -0.882   3.887  -0.132  1.00  0.00    -0.353 N 
ATOM      4  H   UNL     1      -1.144   4.794   0.148  1.00  0.00     0.163 HD
ENDROOT
BRANCH   1   5
ATOM      5  C   UNL     1       1.025   2.272  -0.546  1.00  0.00     0.261 C 
BRANCH   5   6
ATOM      6  C   UNL     1       0.775   1.385   0.687  1.00  0.00     0.052 C 
ATOM      7  C   UNL     1       1.924   0.422   0.964  1.00  0.00     0.008 C 
ENDBRANCH   5   6
BRANCH   5   8
ATOM      8  O   UNL     1       0.354   1.892  -1.755  1.00  0.00    -0.481 OA
BRANCH   8   9
ATOM      9  C   UNL     1       0.772   0.770  -2.395  1.00  0.00     0.120 A 
ATOM     10  C   UNL     1       1.339   0.910  -3.657  1.00  0.00     0.047 A 
ATOM     11  C   UNL     1       0.423  -0.492  -1.934  1.00  0.00     0.047 A 
ATOM     12  C   UNL     1       1.531  -0.217  -4.465  1.00  0.00     0.012 A 
ATOM     13  C   UNL     1       0.665  -1.619  -2.718  1.00  0.00     0.012 A 
ATOM     14  C   UNL     1       1.151  -1.494  -4.023  1.00  0.00    -0.024 A 
BRANCH  14  15
ATOM     15  C   UNL     1       1.267  -2.626  -4.961  1.00  0.00     0.029 C 
ATOM     16  C   UNL     1       0.530  -3.746  -5.037  1.00  0.00     0.082 C 
ATOM     17  S   UNL     1      -0.751  -4.290  -4.021  1.00  0.00    -0.052 SA
ATOM     18  C   UNL     1       0.791  -4.770  -6.091  1.00  0.00     0.285 C 
ATOM     19  C   UNL     1      -0.653  -5.933  -4.621  1.00  0.00     0.168 C 
ATOM     20  N   UNL     1       0.232  -5.973  -5.680  1.00  0.00    -0.198 N 
ATOM     21  O   UNL     1       1.363  -4.531  -7.144  1.00  0.00    -0.266 OA
ATOM     22  S   UNL     1      -1.537  -7.198  -3.987  1.00  0.00    -0.050 S 
BRANCH  20  23
ATOM     23  N   UNL     1       0.426  -7.165  -6.392  1.00  0.00    -0.254 N 
ATOM     24  C   UNL     1       1.637  -7.751  -6.688  1.00  0.00     0.274 C 
ATOM     25  H   UNL     1      -0.382  -7.629  -6.710  1.00  0.00     0.192 HD
ATOM     26  O   UNL     1       1.676  -8.892  -7.143  1.00  0.00    -0.267 OA
BRANCH  24  27
ATOM     27  C   UNL     1       2.903  -7.012  -6.525  1.00  0.00     0.083 A 
ATOM     28  C   UNL     1       3.634  -6.770  -7.697  1.00  0.00     0.018 A 
ATOM     29  C   UNL     1       3.362  -6.516  -5.303  1.00  0.00     0.128 A 
ATOM     30  C   UNL     1       4.787  -5.988  -7.651  1.00  0.00     0.001 A 
ATOM     31  C   UNL     1       4.507  -5.722  -5.261  1.00  0.00     0.047 A 
ATOM     32  C   UNL     1       5.216  -5.456  -6.436  1.00  0.00     0.004 A 
BRANCH  29  33
ATOM     33  O   UNL     1       2.731  -6.753  -4.114  1.00  0.00    -0.507 OA
ATOM     34  H   UNL     1       1.958  -7.282  -4.091  1.00  0.00     0.293 HD
ENDBRANCH  29  33
ENDBRANCH  24  27
ENDBRANCH  20  23
ENDBRANCH  14  15
ENDBRANCH   8   9
ENDBRANCH   5   8
ENDBRANCH   1   5
BRANCH   3  35
ATOM     35  C   UNL     1      -1.984   2.968  -0.372  1.00  0.00     0.116 C 
BRANCH  35  36
ATOM     36  C   UNL     1      -2.774   2.661   0.896  1.00  0.00     0.023 C 
BRANCH  36  37
ATOM     37  C   UNL     1      -3.592   3.830   1.445  1.00  0.00     0.023 C 
BRANCH  37  38
ATOM     38  C   UNL     1      -4.569   4.470   0.462  1.00  0.00     0.116 C 
BRANCH  38  39
ATOM     39  N   UNL     1      -5.517   3.528  -0.113  1.00  0.00    -0.352 N 
ATOM     40  C   UNL     1      -6.857   3.689  -0.369  1.00  0.00     0.251 C 
ATOM     41  H   UNL     1      -5.145   2.649  -0.353  1.00  0.00     0.163 HD
ATOM     42  O   UNL     1      -7.523   2.743  -0.778  1.00  0.00    -0.269 OA
BRANCH  40  43
ATOM     43  C   UNL     1      -7.512   4.991  -0.113  1.00  0.00     0.039 A 
ATOM     44  C   UNL     1      -8.730   5.001   0.572  1.00  0.00     0.014 A 
ATOM     45  C   UNL     1      -6.932   6.192  -0.531  1.00  0.00     0.014 A 
ATOM     46  C   UNL     1      -9.327   6.218   0.907  1.00  0.00     0.010 A 
ATOM     47  C   UNL     1      -7.496   7.405  -0.143  1.00  0.00     0.010 A 
ATOM     48  C   UNL     1      -8.693   7.429   0.588  1.00  0.00    -0.014 A 
BRANCH  48  49
ATOM     49  C   UNL     1      -9.257   8.726   1.038  1.00  0.00     0.031 A 
ATOM     50  C   UNL     1      -9.776   9.720   0.039  1.00  0.00     0.074 A 
ATOM     51  C   UNL     1      -9.244   9.032   2.350  1.00  0.00     0.049 A 
ATOM     52  N   UNL     1     -10.255  10.922   0.241  1.00  0.00    -0.248 NA
ATOM     53  C   UNL     1      -9.730   9.322  -1.376  1.00  0.00     0.031 C 
ATOM     54  C   UNL     1      -8.715   8.174   3.413  1.00  0.00     0.029 A 
ATOM     55  N   UNL     1      -9.677  10.152   3.013  1.00  0.00    -0.354 N 
ATOM     56  C   UNL     1     -10.556  11.426  -1.016  1.00  0.00     0.074 A 
ATOM     57  C   UNL     1     -10.166  10.419  -1.980  1.00  0.00     0.031 C 
ATOM     58  C   UNL     1      -8.873   8.791   4.595  1.00  0.00     0.029 A 
ATOM     59  C   UNL     1      -9.486  10.096   4.372  1.00  0.00     0.049 A 
ATOM     60  H   UNL     1     -10.087  10.923   2.558  1.00  0.00     0.167 HD
ATOM     61  C   UNL     1     -11.127  12.612  -1.337  1.00  0.00     0.037 A 
ATOM     62  C   UNL     1      -9.772  10.998   5.330  1.00  0.00     0.037 A 
ATOM     63  C   UNL     1     -11.539  13.603  -0.378  1.00  0.00     0.049 A 
ATOM     64  C   UNL     1     -10.423  12.298   4.947  1.00  0.00     0.074 A 
ATOM     65  C   UNL     1     -12.175  14.812  -0.603  1.00  0.00     0.029 A 
ATOM     66  N   UNL     1     -11.359  13.496   0.993  1.00  0.00    -0.354 N 
ATOM     67  N   UNL     1     -10.760  12.735   3.759  1.00  0.00    -0.248 NA
ATOM     68  C   UNL     1     -10.740  13.227   6.041  1.00  0.00     0.031 C 
ATOM     69  C   UNL     1     -12.353  15.450   0.629  1.00  0.00     0.029 A 
ATOM     70  C   UNL     1     -11.860  14.623   1.625  1.00  0.00     0.049 A 
ATOM     71  H   UNL     1     -10.937  12.733   1.450  1.00  0.00     0.167 HD
ATOM     72  C   UNL     1     -11.347  13.976   3.962  1.00  0.00     0.074 A 
ATOM     73  C   UNL     1     -11.337  14.215   5.390  1.00  0.00     0.031 C 
ATOM     74  C   UNL     1     -11.846  14.842   3.047  1.00  0.00     0.037 A 
BRANCH  61  75
ATOM     75  C   UNL     1     -11.355  12.900  -2.790  1.00  0.00     0.064 A 
ATOM     76  C   UNL     1     -12.362  12.246  -3.515  1.00  0.00     0.173 A 
ATOM     77  C   UNL     1     -10.594  13.875  -3.453  1.00  0.00     0.173 A 
ATOM     78  F   UNL     1     -13.108  11.298  -2.928  1.00  0.00    -0.203 F 
ATOM     79  C   UNL     1     -12.588  12.544  -4.856  1.00  0.00     0.198 A 
ATOM     80  C   UNL     1     -10.839  14.187  -4.788  1.00  0.00     0.198 A 
ATOM     81  F   UNL     1      -9.622  14.532  -2.803  1.00  0.00    -0.203 F 
ATOM     82  F   UNL     1     -13.531  11.880  -5.538  1.00  0.00    -0.200 F 
ATOM     83  C   UNL     1     -11.831  13.518  -5.489  1.00  0.00     0.200 A 
ATOM     84  F   UNL     1     -10.114  15.136  -5.396  1.00  0.00    -0.200 F 
ATOM     85  F   UNL     1     -12.056  13.810  -6.778  1.00  0.00    -0.200 F 
ENDBRANCH  61  75
BRANCH  62  86
ATOM     86  C   UNL     1      -9.470  10.693   6.751  1.00  0.00     0.064 A 
ATOM     87  C   UNL     1     -10.501  10.431   7.664  1.00  0.00     0.173 A 
ATOM     88  C   UNL     1      -8.152  10.670   7.229  1.00  0.00     0.173 A 
ATOM     89  F   UNL     1     -11.779  10.463   7.257  1.00  0.00    -0.203 F 
ATOM     90  C   UNL     1     -10.227  10.180   9.006  1.00  0.00     0.198 A 
ATOM     91  C   UNL     1      -7.878  10.395   8.566  1.00  0.00     0.198 A 
ATOM     92  F   UNL     1      -7.131  10.910   6.393  1.00  0.00    -0.203 F 
ATOM     93  F   UNL     1     -11.234   9.979   9.867  1.00  0.00    -0.200 F 
ATOM     94  C   UNL     1      -8.915  10.158   9.456  1.00  0.00     0.200 A 
ATOM     95  F   UNL     1      -6.608  10.363   8.995  1.00  0.00    -0.200 F 
ATOM     96  F   UNL     1      -8.652   9.918  10.747  1.00  0.00    -0.200 F 
ENDBRANCH  62  86
BRANCH  74  97
ATOM     97  C   UNL     1     -12.444  16.115   3.568  1.00  0.00     0.064 A 
ATOM     98  C   UNL     1     -11.639  17.153   4.060  1.00  0.00     0.173 A 
ATOM     99  C   UNL     1     -13.833  16.307   3.553  1.00  0.00     0.173 A 
ATOM    100  F   UNL     1     -10.307  17.008   4.110  1.00  0.00    -0.203 F 
ATOM    101  C   UNL     1     -12.207  18.329   4.542  1.00  0.00     0.198 A 
ATOM    102  C   UNL     1     -14.396  17.494   4.012  1.00  0.00     0.198 A 
ATOM    103  F   UNL     1     -14.644  15.344   3.088  1.00  0.00    -0.203 F 
ATOM    104  F   UNL     1     -11.423  19.289   5.051  1.00  0.00    -0.200 F 
ATOM    105  C   UNL     1     -13.583  18.500   4.513  1.00  0.00     0.200 A 
ATOM    106  F   UNL     1     -15.725  17.662   3.976  1.00  0.00    -0.200 F 
ATOM    107  F   UNL     1     -14.128  19.634   4.977  1.00  0.00    -0.200 F 
ENDBRANCH  74  97
ENDBRANCH  48  49
ENDBRANCH  40  43
ENDBRANCH  38  39
ENDBRANCH  37  38
ENDBRANCH  36  37
ENDBRANCH  35  36
ENDBRANCH   3  35
TORSDOF 18
