REMARK SMILES CC(C)[C@H](CO)Nc1ccc(C(=O)NCCCCNC(=O)c2ccc(-c3c4nc(c(-c5c(F)c(F)c(F)c(F)c5F)c5ccc([nH]5)c(-c5c(F)c(F)c(F)c(F)c5F)c5nc(c(-c6c(F)c(F)c(F)c(F)c6F)c6ccc3[nH]6)C=C5)C=C4)cc2)cc1
REMARK SMILES IDX 15 1 14 2 12 3 13 4 11 6 8 7 9 8 86 9 10 10 85 11 7 12 4 14
REMARK SMILES IDX 2 15 1 16 3 17 5 18 6 19 16 21 17 22 18 23 19 24 20 25 21 27
REMARK SMILES IDX 22 28 23 29 84 30 24 31 83 32 25 33 26 34 27 35 77 36 28 37
REMARK SMILES IDX 82 38 76 39 78 40 29 41 81 42 75 43 74 44 30 46 62 47 42 48
REMARK SMILES IDX 61 49 43 50 46 51 60 52 79 53 44 54 45 55 59 57 80 58 47 59
REMARK SMILES IDX 31 60 32 61 40 62 33 63 34 64 38 65 41 66 35 67 36 68 39 69
REMARK SMILES IDX 37 70 63 71 64 72 72 73 65 74 66 75 70 76 73 77 67 78 68 79
REMARK SMILES IDX 71 80 69 81 48 82 49 83 57 84 50 85 51 86 55 87 58 88 52 89
REMARK SMILES IDX 53 90 56 91 54 92
REMARK H PARENT 14 5 7 13 6 20 19 26 78 45 46 56
REMARK Flexibility Score: inf
ROOT
ATOM      1  C   UNL     1      -6.108  -4.410  -2.449  1.00  0.00     0.116 C 
ENDROOT
BRANCH   1   2
ATOM      2  N   UNL     1      -5.866  -4.483  -3.876  1.00  0.00    -0.352 N 
ATOM      3  C   UNL     1      -5.035  -3.764  -4.698  1.00  0.00     0.251 C 
ATOM      4  O   UNL     1      -5.021  -4.060  -5.893  1.00  0.00    -0.269 OA
ATOM      5  H   UNL     1      -6.392  -5.173  -4.339  1.00  0.00     0.163 HD
BRANCH   3   6
ATOM      6  C   UNL     1      -4.115  -2.702  -4.201  1.00  0.00     0.039 A 
ATOM      7  C   UNL     1      -2.191  -0.816  -3.321  1.00  0.00     0.034 A 
ATOM      8  C   UNL     1      -1.988  -1.560  -4.487  1.00  0.00     0.026 A 
ATOM      9  C   UNL     1      -3.390  -0.993  -2.634  1.00  0.00     0.026 A 
ATOM     10  C   UNL     1      -2.930  -2.500  -4.917  1.00  0.00     0.016 A 
ATOM     11  C   UNL     1      -4.360  -1.891  -3.093  1.00  0.00     0.016 A 
BRANCH   7  12
ATOM     12  N   UNL     1      -1.180  -0.005  -2.855  1.00  0.00    -0.380 N 
ATOM     13  H   UNL     1      -0.701   0.559  -3.504  1.00  0.00     0.160 HD
BRANCH  12  14
ATOM     14  C   UNL     1      -0.775   0.067  -1.442  1.00  0.00     0.107 C 
BRANCH  14  15
ATOM     15  C   UNL     1      -1.369   1.305  -0.724  1.00  0.00     0.007 C 
ATOM     16  C   UNL     1      -0.654   1.618   0.595  1.00  0.00     0.009 C 
ATOM     17  C   UNL     1      -1.418   2.565  -1.592  1.00  0.00     0.009 C 
ENDBRANCH  14  15
BRANCH  14  18
ATOM     18  C   UNL     1       0.771  -0.017  -1.416  1.00  0.00     0.181 C 
BRANCH  18  19
ATOM     19  O   UNL     1       1.215  -1.185  -2.116  1.00  0.00    -0.394 OA
ATOM     20  H   UNL     1       0.851  -1.976  -1.688  1.00  0.00     0.210 HD
ENDBRANCH  18  19
ENDBRANCH  14  18
ENDBRANCH  12  14
ENDBRANCH   7  12
ENDBRANCH   3   6
ENDBRANCH   1   2
BRANCH   1  21
ATOM     21  C   UNL     1      -7.347  -3.558  -2.160  1.00  0.00     0.023 C 
BRANCH  21  22
ATOM     22  C   UNL     1      -8.673  -4.272  -2.427  1.00  0.00     0.023 C 
BRANCH  22  23
ATOM     23  C   UNL     1      -8.941  -5.467  -1.523  1.00  0.00     0.116 C 
BRANCH  23  24
ATOM     24  N   UNL     1      -8.976  -5.122  -0.110  1.00  0.00    -0.352 N 
ATOM     25  C   UNL     1      -9.698  -5.726   0.893  1.00  0.00     0.251 C 
ATOM     26  H   UNL     1      -8.413  -4.362   0.162  1.00  0.00     0.163 HD
ATOM     27  O   UNL     1      -9.710  -5.266   2.024  1.00  0.00    -0.269 OA
BRANCH  25  28
ATOM     28  C   UNL     1     -10.499  -6.923   0.564  1.00  0.00     0.039 A 
ATOM     29  C   UNL     1     -11.850  -6.948   0.918  1.00  0.00     0.014 A 
ATOM     30  C   UNL     1      -9.925  -7.989  -0.132  1.00  0.00     0.014 A 
ATOM     31  C   UNL     1     -12.645  -8.021   0.516  1.00  0.00     0.010 A 
ATOM     32  C   UNL     1     -10.732  -9.022  -0.591  1.00  0.00     0.010 A 
ATOM     33  C   UNL     1     -12.098  -9.049  -0.268  1.00  0.00    -0.014 A 
BRANCH  33  34
ATOM     34  C   UNL     1     -12.922 -10.185  -0.745  1.00  0.00     0.031 A 
ATOM     35  C   UNL     1     -12.628 -11.572  -0.251  1.00  0.00     0.074 A 
ATOM     36  C   UNL     1     -13.874  -9.981  -1.673  1.00  0.00     0.049 A 
ATOM     37  N   UNL     1     -13.147 -12.713  -0.624  1.00  0.00    -0.248 NA
ATOM     38  C   UNL     1     -11.584 -11.691   0.779  1.00  0.00     0.031 C 
ATOM     39  C   UNL     1     -14.231  -8.684  -2.251  1.00  0.00     0.029 A 
ATOM     40  N   UNL     1     -14.709 -10.868  -2.305  1.00  0.00    -0.354 N 
ATOM     41  C   UNL     1     -12.479 -13.685   0.109  1.00  0.00     0.074 A 
ATOM     42  C   UNL     1     -11.480 -13.005   0.905  1.00  0.00     0.031 C 
ATOM     43  C   UNL     1     -15.228  -8.857  -3.134  1.00  0.00     0.029 A 
ATOM     44  C   UNL     1     -15.553 -10.278  -3.213  1.00  0.00     0.049 A 
ATOM     45  H   UNL     1     -14.703 -11.836  -2.123  1.00  0.00     0.167 HD
ATOM     46  C   UNL     1     -12.695 -15.022   0.133  1.00  0.00     0.037 A 
ATOM     47  C   UNL     1     -16.479 -10.828  -4.021  1.00  0.00     0.037 A 
ATOM     48  C   UNL     1     -13.706 -15.689  -0.642  1.00  0.00     0.049 A 
ATOM     49  C   UNL     1     -16.690 -12.317  -3.990  1.00  0.00     0.074 A 
ATOM     50  C   UNL     1     -14.037 -17.032  -0.660  1.00  0.00     0.029 A 
ATOM     51  N   UNL     1     -14.552 -15.055  -1.542  1.00  0.00    -0.354 N 
ATOM     52  N   UNL     1     -16.087 -13.223  -3.259  1.00  0.00    -0.248 NA
ATOM     53  C   UNL     1     -17.712 -12.859  -4.895  1.00  0.00     0.031 C 
ATOM     54  C   UNL     1     -15.061 -17.216  -1.596  1.00  0.00     0.029 A 
ATOM     55  C   UNL     1     -15.398 -15.982  -2.129  1.00  0.00     0.049 A 
ATOM     56  H   UNL     1     -14.552 -14.089  -1.733  1.00  0.00     0.167 HD
ATOM     57  C   UNL     1     -16.680 -14.435  -3.587  1.00  0.00     0.074 A 
ATOM     58  C   UNL     1     -17.692 -14.148  -4.583  1.00  0.00     0.031 C 
ATOM     59  C   UNL     1     -16.414 -15.672  -3.103  1.00  0.00     0.037 A 
BRANCH  46  60
ATOM     60  C   UNL     1     -11.813 -15.841   1.030  1.00  0.00     0.064 A 
ATOM     61  C   UNL     1     -11.902 -15.753   2.428  1.00  0.00     0.173 A 
ATOM     62  C   UNL     1     -10.864 -16.720   0.487  1.00  0.00     0.173 A 
ATOM     63  F   UNL     1     -12.782 -14.916   2.997  1.00  0.00    -0.203 F 
ATOM     64  C   UNL     1     -11.044 -16.481   3.248  1.00  0.00     0.198 A 
ATOM     65  C   UNL     1     -10.030 -17.472   1.312  1.00  0.00     0.198 A 
ATOM     66  F   UNL     1     -10.741 -16.847  -0.842  1.00  0.00    -0.203 F 
ATOM     67  F   UNL     1     -11.103 -16.329   4.579  1.00  0.00    -0.200 F 
ATOM     68  C   UNL     1     -10.113 -17.343   2.690  1.00  0.00     0.200 A 
ATOM     69  F   UNL     1      -9.138 -18.313   0.771  1.00  0.00    -0.200 F 
ATOM     70  F   UNL     1      -9.285 -18.040   3.481  1.00  0.00    -0.200 F 
ENDBRANCH  46  60
BRANCH  47  71
ATOM     71  C   UNL     1     -17.309  -9.958  -4.893  1.00  0.00     0.064 A 
ATOM     72  C   UNL     1     -18.665  -9.751  -4.606  1.00  0.00     0.173 A 
ATOM     73  C   UNL     1     -16.771  -9.310  -6.013  1.00  0.00     0.173 A 
ATOM     74  F   UNL     1     -19.228 -10.366  -3.555  1.00  0.00    -0.203 F 
ATOM     75  C   UNL     1     -19.456  -8.938  -5.414  1.00  0.00     0.198 A 
ATOM     76  C   UNL     1     -17.558  -8.479  -6.808  1.00  0.00     0.198 A 
ATOM     77  F   UNL     1     -15.478  -9.473  -6.327  1.00  0.00    -0.203 F 
ATOM     78  F   UNL     1     -20.758  -8.785  -5.137  1.00  0.00    -0.200 F 
ATOM     79  C   UNL     1     -18.901  -8.298  -6.511  1.00  0.00     0.200 A 
ATOM     80  F   UNL     1     -17.015  -7.851  -7.860  1.00  0.00    -0.200 F 
ATOM     81  F   UNL     1     -19.660  -7.511  -7.285  1.00  0.00    -0.200 F 
ENDBRANCH  47  71
BRANCH  59  82
ATOM     82  C   UNL     1     -17.264 -16.804  -3.598  1.00  0.00     0.064 A 
ATOM     83  C   UNL     1     -17.111 -17.332  -4.888  1.00  0.00     0.173 A 
ATOM     84  C   UNL     1     -18.206 -17.402  -2.748  1.00  0.00     0.173 A 
ATOM     85  F   UNL     1     -16.235 -16.784  -5.742  1.00  0.00    -0.203 F 
ATOM     86  C   UNL     1     -17.885 -18.409  -5.314  1.00  0.00     0.198 A 
ATOM     87  C   UNL     1     -18.959 -18.495  -3.168  1.00  0.00     0.198 A 
ATOM     88  F   UNL     1     -18.385 -16.936  -1.503  1.00  0.00    -0.203 F 
ATOM     89  F   UNL     1     -17.751 -18.875  -6.564  1.00  0.00    -0.200 F 
ATOM     90  C   UNL     1     -18.801 -18.994  -4.452  1.00  0.00     0.200 A 
ATOM     91  F   UNL     1     -19.834 -19.067  -2.330  1.00  0.00    -0.200 F 
ATOM     92  F   UNL     1     -19.537 -20.037  -4.861  1.00  0.00    -0.200 F 
ENDBRANCH  59  82
ENDBRANCH  33  34
ENDBRANCH  25  28
ENDBRANCH  23  24
ENDBRANCH  22  23
ENDBRANCH  21  22
ENDBRANCH   1  21
TORSDOF 16
