REMARK SMILES CC(C)[C@H](NC(=O)CCNC(=O)c1ccoc1)C(=O)NCCCCNC(=O)c1ccc(-c2c3nc(c(-c4c(F)c(F)c(F)c(F)c4F)c4ccc([nH]4)c(-c4c(F)c(F)c(F)c(F)c4F)c4nc(c(-c5c(F)c(F)c(F)c(F)c5F)c5ccc2[nH]5)C=C4)C=C3)cc1
REMARK SMILES IDX 21 1 20 2 18 3 19 4 4 6 2 7 1 8 3 9 5 10 6 11 7 13 8 14 9 15
REMARK SMILES IDX 10 16 11 17 12 19 13 20 14 21 17 22 15 23 16 24 22 25 23 26
REMARK SMILES IDX 24 27 25 28 26 29 27 31 28 32 29 33 90 34 30 35 89 36 31 37
REMARK SMILES IDX 32 38 33 39 83 40 34 41 88 42 82 43 84 44 35 45 87 46 81 47
REMARK SMILES IDX 80 48 36 50 68 51 48 52 67 53 49 54 52 55 66 56 85 57 50 58
REMARK SMILES IDX 51 59 65 61 86 62 53 63 37 64 38 65 46 66 39 67 40 68 44 69
REMARK SMILES IDX 47 70 41 71 42 72 45 73 43 74 69 75 70 76 78 77 71 78 72 79
REMARK SMILES IDX 76 80 79 81 73 82 74 83 77 84 75 85 54 86 55 87 63 88 56 89
REMARK SMILES IDX 57 90 61 91 64 92 58 93 59 94 62 95 60 96
REMARK H PARENT 20 5 5 12 10 18 25 30 84 49 52 60
REMARK Flexibility Score: inf
ROOT
ATOM      1  C   UNL     1      -0.172   2.435   3.624  1.00  0.00     0.116 C 
ENDROOT
BRANCH   1   2
ATOM      2  N   UNL     1      -0.421   2.873   2.261  1.00  0.00    -0.354 N 
ATOM      3  C   UNL     1      -1.024   2.188   1.235  1.00  0.00     0.242 C 
ATOM      4  O   UNL     1      -1.865   2.812   0.581  1.00  0.00    -0.273 OA
ATOM      5  H   UNL     1      -0.117   3.784   2.044  1.00  0.00     0.163 HD
BRANCH   3   6
ATOM      6  C   UNL     1      -0.574   0.751   0.793  1.00  0.00     0.173 C 
BRANCH   6   7
ATOM      7  C   UNL     1      -1.667  -0.325   0.530  1.00  0.00     0.015 C 
ATOM      8  C   UNL     1      -3.060   0.189   0.165  1.00  0.00     0.010 C 
ATOM      9  C   UNL     1      -1.200  -1.324  -0.540  1.00  0.00     0.010 C 
ENDBRANCH   6   7
BRANCH   6  10
ATOM     10  N   UNL     1       0.635   0.292   1.506  1.00  0.00    -0.344 N 
ATOM     11  C   UNL     1       0.930  -0.540   2.533  1.00  0.00     0.222 C 
ATOM     12  H   UNL     1       1.449   0.703   1.133  1.00  0.00     0.164 HD
ATOM     13  O   UNL     1       2.050  -0.414   3.037  1.00  0.00    -0.275 OA
BRANCH  11  14
ATOM     14  C   UNL     1      -0.016  -1.590   3.074  1.00  0.00     0.121 C 
BRANCH  14  15
ATOM     15  C   UNL     1      -0.959  -1.122   4.184  1.00  0.00     0.126 C 
BRANCH  15  16
ATOM     16  N   UNL     1      -2.000  -0.204   3.746  1.00  0.00    -0.351 N 
ATOM     17  C   UNL     1      -3.226   0.075   4.272  1.00  0.00     0.254 C 
ATOM     18  H   UNL     1      -1.781   0.301   2.930  1.00  0.00     0.163 HD
ATOM     19  O   UNL     1      -3.889   0.988   3.792  1.00  0.00    -0.269 OA
BRANCH  17  20
ATOM     20  C   UNL     1      -3.684  -0.720   5.371  1.00  0.00     0.077 A 
ATOM     21  C   UNL     1      -3.371  -0.614   6.750  1.00  0.00     0.056 A 
ATOM     22  C   UNL     1      -4.605  -1.738   5.264  1.00  0.00     0.208 A 
ATOM     23  C   UNL     1      -4.115  -1.581   7.383  1.00  0.00     0.195 A 
ATOM     24  O   UNL     1      -4.861  -2.275   6.483  1.00  0.00    -0.472 OA
ENDBRANCH  17  20
ENDBRANCH  15  16
ENDBRANCH  14  15
ENDBRANCH  11  14
ENDBRANCH   6  10
ENDBRANCH   3   6
ENDBRANCH   1   2
BRANCH   1  25
ATOM     25  C   UNL     1       1.141   2.902   4.243  1.00  0.00     0.023 C 
BRANCH  25  26
ATOM     26  C   UNL     1       1.034   3.290   5.727  1.00  0.00     0.023 C 
BRANCH  26  27
ATOM     27  C   UNL     1       0.216   2.395   6.664  1.00  0.00     0.116 C 
BRANCH  27  28
ATOM     28  N   UNL     1       0.880   1.179   7.096  1.00  0.00    -0.352 N 
ATOM     29  C   UNL     1       0.960   0.628   8.360  1.00  0.00     0.251 C 
ATOM     30  H   UNL     1       1.339   0.675   6.387  1.00  0.00     0.163 HD
ATOM     31  O   UNL     1       1.576  -0.422   8.525  1.00  0.00    -0.269 OA
BRANCH  29  32
ATOM     32  C   UNL     1       0.365   1.308   9.543  1.00  0.00     0.039 A 
ATOM     33  C   UNL     1       1.138   1.406  10.706  1.00  0.00     0.014 A 
ATOM     34  C   UNL     1      -0.921   1.854   9.532  1.00  0.00     0.014 A 
ATOM     35  C   UNL     1       0.666   2.130  11.808  1.00  0.00     0.010 A 
ATOM     36  C   UNL     1      -1.367   2.630  10.608  1.00  0.00     0.010 A 
ATOM     37  C   UNL     1      -0.571   2.795  11.751  1.00  0.00    -0.014 A 
BRANCH  37  38
ATOM     38  C   UNL     1      -0.986   3.715  12.847  1.00  0.00     0.031 A 
ATOM     39  C   UNL     1      -2.189   3.429  13.704  1.00  0.00     0.074 A 
ATOM     40  C   UNL     1      -0.294   4.856  13.044  1.00  0.00     0.049 A 
ATOM     41  N   UNL     1      -2.660   4.109  14.722  1.00  0.00    -0.248 NA
ATOM     42  C   UNL     1      -2.982   2.241  13.360  1.00  0.00     0.031 C 
ATOM     43  C   UNL     1       0.841   5.304  12.235  1.00  0.00     0.029 A 
ATOM     44  N   UNL     1      -0.443   5.850  13.982  1.00  0.00    -0.354 N 
ATOM     45  C   UNL     1      -3.801   3.435  15.136  1.00  0.00     0.074 A 
ATOM     46  C   UNL     1      -3.982   2.323  14.226  1.00  0.00     0.031 C 
ATOM     47  C   UNL     1       1.307   6.461  12.731  1.00  0.00     0.029 A 
ATOM     48  C   UNL     1       0.493   6.850  13.879  1.00  0.00     0.049 A 
ATOM     49  H   UNL     1      -1.153   5.845  14.664  1.00  0.00     0.167 HD
ATOM     50  C   UNL     1      -4.612   3.704  16.189  1.00  0.00     0.037 A 
ATOM     51  C   UNL     1       0.686   7.951  14.630  1.00  0.00     0.037 A 
ATOM     52  C   UNL     1      -4.428   4.801  17.107  1.00  0.00     0.049 A 
ATOM     53  C   UNL     1      -0.200   8.203  15.819  1.00  0.00     0.074 A 
ATOM     54  C   UNL     1      -5.159   5.111  18.241  1.00  0.00     0.029 A 
ATOM     55  N   UNL     1      -3.444   5.771  16.992  1.00  0.00    -0.354 N 
ATOM     56  N   UNL     1      -1.214   7.500  16.259  1.00  0.00    -0.248 NA
ATOM     57  C   UNL     1       0.101   9.393  16.627  1.00  0.00     0.031 C 
ATOM     58  C   UNL     1      -4.643   6.290  18.791  1.00  0.00     0.029 A 
ATOM     59  C   UNL     1      -3.560   6.690  18.025  1.00  0.00     0.049 A 
ATOM     60  H   UNL     1      -2.763   5.804  16.282  1.00  0.00     0.167 HD
ATOM     61  C   UNL     1      -1.655   8.145  17.407  1.00  0.00     0.074 A 
ATOM     62  C   UNL     1      -0.785   9.285  17.607  1.00  0.00     0.031 C 
ATOM     63  C   UNL     1      -2.689   7.820  18.220  1.00  0.00     0.037 A 
BRANCH  50  64
ATOM     64  C   UNL     1      -5.777   2.784  16.420  1.00  0.00     0.064 A 
ATOM     65  C   UNL     1      -5.592   1.470  16.877  1.00  0.00     0.173 A 
ATOM     66  C   UNL     1      -7.092   3.232  16.228  1.00  0.00     0.173 A 
ATOM     67  F   UNL     1      -4.354   0.990  17.070  1.00  0.00    -0.203 F 
ATOM     68  C   UNL     1      -6.680   0.631  17.106  1.00  0.00     0.198 A 
ATOM     69  C   UNL     1      -8.178   2.399  16.485  1.00  0.00     0.198 A 
ATOM     70  F   UNL     1      -7.326   4.482  15.801  1.00  0.00    -0.203 F 
ATOM     71  F   UNL     1      -6.476  -0.634  17.499  1.00  0.00    -0.200 F 
ATOM     72  C   UNL     1      -7.971   1.098  16.916  1.00  0.00     0.200 A 
ATOM     73  F   UNL     1      -9.427   2.856  16.314  1.00  0.00    -0.200 F 
ATOM     74  F   UNL     1      -9.017   0.291  17.144  1.00  0.00    -0.200 F 
ENDBRANCH  50  64
BRANCH  51  75
ATOM     75  C   UNL     1       1.807   8.874  14.314  1.00  0.00     0.064 A 
ATOM     76  C   UNL     1       2.934   8.948  15.145  1.00  0.00     0.173 A 
ATOM     77  C   UNL     1       1.774   9.701  13.182  1.00  0.00     0.173 A 
ATOM     78  F   UNL     1       3.000   8.191  16.250  1.00  0.00    -0.203 F 
ATOM     79  C   UNL     1       3.976   9.829  14.867  1.00  0.00     0.198 A 
ATOM     80  C   UNL     1       2.829  10.562  12.890  1.00  0.00     0.198 A 
ATOM     81  F   UNL     1       0.720   9.663  12.353  1.00  0.00    -0.203 F 
ATOM     82  F   UNL     1       5.021   9.911  15.702  1.00  0.00    -0.200 F 
ATOM     83  C   UNL     1       3.926  10.631  13.737  1.00  0.00     0.200 A 
ATOM     84  F   UNL     1       2.784  11.326  11.791  1.00  0.00    -0.200 F 
ATOM     85  F   UNL     1       4.931  11.476  13.468  1.00  0.00    -0.200 F 
ENDBRANCH  51  75
BRANCH  63  86
ATOM     86  C   UNL     1      -2.916   8.694  19.421  1.00  0.00     0.064 A 
ATOM     87  C   UNL     1      -3.410  10.001  19.300  1.00  0.00     0.173 A 
ATOM     88  C   UNL     1      -2.641   8.213  20.710  1.00  0.00     0.173 A 
ATOM     89  F   UNL     1      -3.674  10.513  18.088  1.00  0.00    -0.203 F 
ATOM     90  C   UNL     1      -3.587  10.807  20.422  1.00  0.00     0.198 A 
ATOM     91  C   UNL     1      -2.846   9.012  21.832  1.00  0.00     0.198 A 
ATOM     92  F   UNL     1      -2.172   6.969  20.883  1.00  0.00    -0.203 F 
ATOM     93  F   UNL     1      -4.005  12.072  20.276  1.00  0.00    -0.200 F 
ATOM     94  C   UNL     1      -3.309  10.311  21.686  1.00  0.00     0.200 A 
ATOM     95  F   UNL     1      -2.587   8.528  23.055  1.00  0.00    -0.200 F 
ATOM     96  F   UNL     1      -3.476  11.090  22.765  1.00  0.00    -0.200 F 
ENDBRANCH  63  86
ENDBRANCH  37  38
ENDBRANCH  29  32
ENDBRANCH  27  28
ENDBRANCH  26  27
ENDBRANCH  25  26
ENDBRANCH   1  25
TORSDOF 17
