REMARK SMILES CCc1cc(OC(F)(F)F)cc2c1O[C@@H](C(F)(F)F)C(C(=O)NCCCCNC(=O)c1ccc(-c3c4nc(c(-c5c(F)c(F)c(F)c(F)c5F)c5ccc([nH]5)c(-c5c(F)c(F)c(F)c(F)c5F)c5nc(c(-c6c(F)c(F)c(F)c(F)c6F)c6ccc3[nH]6)C=C5)C=C4)cc1)=C2
REMARK SMILES IDX 25 1 24 2 23 3 21 4 22 5 20 7 3 8 4 9 13 10 5 11 12 12 14 13
REMARK SMILES IDX 11 14 94 15 15 16 2 17 1 18 6 19 7 20 8 21 9 22 10 23 16 24
REMARK SMILES IDX 17 25 18 26 19 27 26 28 27 29 28 30 29 31 30 33 31 34 32 35
REMARK SMILES IDX 93 36 33 37 92 38 34 39 35 40 36 41 86 42 37 43 91 44 85 45
REMARK SMILES IDX 87 46 38 47 90 48 84 49 83 50 39 52 71 53 51 54 70 55 52 56
REMARK SMILES IDX 55 57 69 58 88 59 53 60 54 61 68 63 89 64 56 65 40 66 41 67
REMARK SMILES IDX 49 68 42 69 43 70 47 71 50 72 44 73 45 74 48 75 46 76 72 77
REMARK SMILES IDX 73 78 81 79 74 80 75 81 79 82 82 83 76 84 77 85 80 86 78 87
REMARK SMILES IDX 57 88 58 89 66 90 59 91 60 92 64 93 67 94 61 95 62 96 65 97
REMARK SMILES IDX 63 98
REMARK H PARENT 23 6 28 32 87 51 55 62
REMARK Flexibility Score: inf
ROOT
ATOM      1  C   UNL     1       0.624   7.729   3.821  1.00  0.00     0.023 C 
ENDROOT
BRANCH   1   2
ATOM      2  C   UNL     1      -0.689   7.066   3.386  1.00  0.00     0.116 C 
BRANCH   2   3
ATOM      3  N   UNL     1      -0.777   7.049   1.937  1.00  0.00    -0.352 N 
ATOM      4  C   UNL     1      -0.365   6.146   1.009  1.00  0.00     0.251 C 
ATOM      5  O   UNL     1      -0.411   6.476  -0.173  1.00  0.00    -0.270 OA
ATOM      6  H   UNL     1      -1.220   7.840   1.555  1.00  0.00     0.163 HD
BRANCH   4   7
ATOM      7  C   UNL     1       0.068   4.768   1.360  1.00  0.00     0.067 C 
ATOM      8  C   UNL     1       0.944   0.745   2.219  1.00  0.00    -0.002 A 
ATOM      9  C   UNL     1       1.706   0.442   3.364  1.00  0.00     0.054 A 
ATOM     10  C   UNL     1       0.648   2.085   1.933  1.00  0.00     0.131 A 
ATOM     11  C   UNL     1       2.165   1.457   4.206  1.00  0.00     0.130 A 
ATOM     12  C   UNL     1       1.135   3.104   2.746  1.00  0.00     0.021 A 
ATOM     13  O   UNL     1      -0.201   2.340   0.894  1.00  0.00    -0.475 OA
ATOM     14  C   UNL     1       1.891   2.787   3.879  1.00  0.00     0.058 A 
ATOM     15  C   UNL     1       0.783   4.486   2.459  1.00  0.00     0.025 C 
ATOM     16  C   UNL     1      -0.195   3.680   0.323  1.00  0.00     0.314 C 
BRANCH   8  17
ATOM     17  C   UNL     1       0.455  -0.375   1.327  1.00  0.00     0.036 C 
ATOM     18  C   UNL     1       1.095  -0.347  -0.056  1.00  0.00     0.009 C 
ENDBRANCH   8  17
BRANCH  11  19
ATOM     19  O   UNL     1       2.872   1.303   5.364  1.00  0.00    -0.406 OA
BRANCH  19  20
ATOM     20  C   UNL     1       3.123  -0.016   5.819  1.00  0.00     0.573 C 
ATOM     21  F   UNL     1       1.974  -0.698   6.006  1.00  0.00    -0.132 F 
ATOM     22  F   UNL     1       3.910  -0.683   4.950  1.00  0.00    -0.132 F 
ATOM     23  F   UNL     1       3.768   0.053   7.005  1.00  0.00    -0.132 F 
ENDBRANCH  19  20
ENDBRANCH  11  19
BRANCH  16  24
ATOM     24  C   UNL     1      -1.484   3.808  -0.520  1.00  0.00     0.429 C 
ATOM     25  F   UNL     1      -1.334   4.621  -1.589  1.00  0.00    -0.167 F 
ATOM     26  F   UNL     1      -1.846   2.601  -1.035  1.00  0.00    -0.167 F 
ATOM     27  F   UNL     1      -2.535   4.250   0.208  1.00  0.00    -0.167 F 
ENDBRANCH  16  24
ENDBRANCH   4   7
ENDBRANCH   2   3
ENDBRANCH   1   2
BRANCH   1  28
ATOM     28  C   UNL     1       0.616   9.257   3.731  1.00  0.00     0.023 C 
BRANCH  28  29
ATOM     29  C   UNL     1      -0.368   9.945   4.668  1.00  0.00     0.116 C 
BRANCH  29  30
ATOM     30  N   UNL     1      -0.150   9.618   6.069  1.00  0.00    -0.352 N 
ATOM     31  C   UNL     1      -0.376  10.400   7.176  1.00  0.00     0.251 C 
ATOM     32  H   UNL     1       0.206   8.718   6.246  1.00  0.00     0.163 HD
ATOM     33  O   UNL     1      -0.043  10.015   8.288  1.00  0.00    -0.269 OA
BRANCH  31  34
ATOM     34  C   UNL     1      -0.982  11.735   7.000  1.00  0.00     0.039 A 
ATOM     35  C   UNL     1      -0.352  12.836   7.582  1.00  0.00     0.014 A 
ATOM     36  C   UNL     1      -2.135  11.900   6.228  1.00  0.00     0.014 A 
ATOM     37  C   UNL     1      -0.838  14.119   7.327  1.00  0.00     0.010 A 
ATOM     38  C   UNL     1      -2.580  13.181   5.923  1.00  0.00     0.010 A 
ATOM     39  C   UNL     1      -1.929  14.302   6.462  1.00  0.00    -0.014 A 
BRANCH  39  40
ATOM     40  C   UNL     1      -2.385  15.661   6.085  1.00  0.00     0.031 A 
ATOM     41  C   UNL     1      -3.744  16.145   6.499  1.00  0.00     0.074 A 
ATOM     42  C   UNL     1      -1.600  16.426   5.303  1.00  0.00     0.049 A 
ATOM     43  N   UNL     1      -4.343  17.272   6.210  1.00  0.00    -0.248 NA
ATOM     44  C   UNL     1      -4.546  15.232   7.327  1.00  0.00     0.031 C 
ATOM     45  C   UNL     1      -0.284  16.039   4.791  1.00  0.00     0.029 A 
ATOM     46  N   UNL     1      -1.799  17.682   4.790  1.00  0.00    -0.354 N 
ATOM     47  C   UNL     1      -5.594  17.198   6.807  1.00  0.00     0.074 A 
ATOM     48  C   UNL     1      -5.688  15.896   7.433  1.00  0.00     0.031 C 
ATOM     49  C   UNL     1       0.214  17.044   4.053  1.00  0.00     0.029 A 
ATOM     50  C   UNL     1      -0.760  18.130   4.012  1.00  0.00     0.049 A 
ATOM     51  H   UNL     1      -2.610  18.213   4.963  1.00  0.00     0.167 HD
ATOM     52  C   UNL     1      -6.566  18.140   6.847  1.00  0.00     0.037 A 
ATOM     53  C   UNL     1      -0.614  19.285   3.335  1.00  0.00     0.037 A 
ATOM     54  C   UNL     1      -6.456  19.441   6.243  1.00  0.00     0.049 A 
ATOM     55  C   UNL     1      -1.709  20.313   3.396  1.00  0.00     0.074 A 
ATOM     56  C   UNL     1      -7.353  20.494   6.292  1.00  0.00     0.029 A 
ATOM     57  N   UNL     1      -5.383  19.866   5.474  1.00  0.00    -0.354 N 
ATOM     58  N   UNL     1      -2.855  20.264   4.030  1.00  0.00    -0.248 NA
ATOM     59  C   UNL     1      -1.489  21.559   2.649  1.00  0.00     0.031 C 
ATOM     60  C   UNL     1      -6.843  21.540   5.516  1.00  0.00     0.029 A 
ATOM     61  C   UNL     1      -5.607  21.156   5.020  1.00  0.00     0.049 A 
ATOM     62  H   UNL     1      -4.580  19.330   5.279  1.00  0.00     0.167 HD
ATOM     63  C   UNL     1      -3.484  21.474   3.776  1.00  0.00     0.074 A 
ATOM     64  C   UNL     1      -2.583  22.246   2.945  1.00  0.00     0.031 C 
ATOM     65  C   UNL     1      -4.700  21.907   4.191  1.00  0.00     0.037 A 
BRANCH  52  66
ATOM     66  C   UNL     1      -7.832  17.797   7.576  1.00  0.00     0.064 A 
ATOM     67  C   UNL     1      -7.867  17.683   8.974  1.00  0.00     0.173 A 
ATOM     68  C   UNL     1      -9.032  17.616   6.872  1.00  0.00     0.173 A 
ATOM     69  F   UNL     1      -6.743  17.834   9.692  1.00  0.00    -0.203 F 
ATOM     70  C   UNL     1      -9.050  17.371   9.638  1.00  0.00     0.198 A 
ATOM     71  C   UNL     1     -10.219  17.334   7.543  1.00  0.00     0.198 A 
ATOM     72  F   UNL     1      -9.055  17.720   5.535  1.00  0.00    -0.203 F 
ATOM     73  F   UNL     1      -9.049  17.220  10.970  1.00  0.00    -0.200 F 
ATOM     74  C   UNL     1     -10.226  17.204   8.923  1.00  0.00     0.200 A 
ATOM     75  F   UNL     1     -11.358  17.183   6.851  1.00  0.00    -0.200 F 
ATOM     76  F   UNL     1     -11.366  16.910   9.565  1.00  0.00    -0.200 F 
ENDBRANCH  52  66
BRANCH  53  77
ATOM     77  C   UNL     1       0.628  19.537   2.561  1.00  0.00     0.064 A 
ATOM     78  C   UNL     1       1.561  20.490   2.992  1.00  0.00     0.173 A 
ATOM     79  C   UNL     1       0.910  18.833   1.382  1.00  0.00     0.173 A 
ATOM     80  F   UNL     1       1.325  21.202   4.104  1.00  0.00    -0.203 F 
ATOM     81  C   UNL     1       2.721  20.742   2.264  1.00  0.00     0.198 A 
ATOM     82  C   UNL     1       2.083  19.068   0.668  1.00  0.00     0.198 A 
ATOM     83  F   UNL     1       0.052  17.907   0.930  1.00  0.00    -0.203 F 
ATOM     84  F   UNL     1       3.577  21.688   2.677  1.00  0.00    -0.200 F 
ATOM     85  C   UNL     1       2.984  20.027   1.105  1.00  0.00     0.200 A 
ATOM     86  F   UNL     1       2.341  18.365  -0.444  1.00  0.00    -0.200 F 
ATOM     87  F   UNL     1       4.103  20.266   0.407  1.00  0.00    -0.200 F 
ENDBRANCH  53  77
BRANCH  65  88
ATOM     88  C   UNL     1      -5.118  23.283   3.763  1.00  0.00     0.064 A 
ATOM     89  C   UNL     1      -5.496  23.555   2.440  1.00  0.00     0.173 A 
ATOM     90  C   UNL     1      -5.177  24.331   4.694  1.00  0.00     0.173 A 
ATOM     91  F   UNL     1      -5.441  22.590   1.510  1.00  0.00    -0.203 F 
ATOM     92  C   UNL     1      -5.896  24.833   2.060  1.00  0.00     0.198 A 
ATOM     93  C   UNL     1      -5.604  25.601   4.316  1.00  0.00     0.198 A 
ATOM     94  F   UNL     1      -4.830  24.120   5.973  1.00  0.00    -0.203 F 
ATOM     95  F   UNL     1      -6.210  25.082   0.781  1.00  0.00    -0.200 F 
ATOM     96  C   UNL     1      -5.956  25.852   2.999  1.00  0.00     0.200 A 
ATOM     97  F   UNL     1      -5.673  26.581   5.227  1.00  0.00    -0.200 F 
ATOM     98  F   UNL     1      -6.347  27.080   2.632  1.00  0.00    -0.200 F 
ENDBRANCH  65  88
ENDBRANCH  39  40
ENDBRANCH  31  34
ENDBRANCH  29  30
ENDBRANCH  28  29
ENDBRANCH   1  28
TORSDOF 15
