REMARK SMILES [NH3+]CCOCC(=O)N1C[C@@H](C(=O)NCCCCNC(=O)c2ccc(-c3c4nc(c(-c5c(F)c(F)c(F)c(F)c5F)c5ccc([nH]5)c(-c5c(F)c(F)c(F)c(F)c5F)c5nc(c(-c6c(F)c(F)c(F)c(F)c6F)c6ccc3[nH]6)C=C5)C=C4)cc2)Oc2ccccc21
REMARK SMILES IDX 11 1 12 2 13 3 10 5 8 6 9 7 90 8 85 9 89 10 84 11 86 12
REMARK SMILES IDX 88 13 87 14 6 15 7 16 5 17 4 18 3 19 2 20 1 21 14 25 15 26
REMARK SMILES IDX 16 27 17 28 18 29 19 30 20 32 21 33 22 34 83 35 23 36 82 37
REMARK SMILES IDX 24 38 25 39 26 40 76 41 27 42 81 43 75 44 77 45 28 46 80 47
REMARK SMILES IDX 74 48 73 49 29 51 61 52 41 53 60 54 42 55 45 56 59 57 78 58
REMARK SMILES IDX 43 59 44 60 58 62 79 63 46 64 30 65 31 66 39 67 32 68 33 69
REMARK SMILES IDX 37 70 40 71 34 72 35 73 38 74 36 75 62 76 63 77 71 78 64 79
REMARK SMILES IDX 65 80 69 81 72 82 66 83 67 84 70 85 68 86 47 87 48 88 56 89
REMARK SMILES IDX 49 90 50 91 54 92 57 93 51 94 52 95 55 96 53 97
REMARK H PARENT 13 4 1 22 1 23 1 24 18 31 77 50 45 61
REMARK Flexibility Score: inf
ROOT
ATOM      1  C   UNL     1       4.549   4.106   1.570  1.00  0.00     0.262 C 
ATOM      2  O   UNL     1       4.404   4.273   2.789  1.00  0.00    -0.271 OA
ATOM      3  N   UNL     1       5.218   2.978   1.214  1.00  0.00    -0.353 N 
ATOM      4  H   UNL     1       5.720   2.568   1.955  1.00  0.00     0.163 HD
ENDROOT
BRANCH   1   5
ATOM      5  C   UNL     1       3.974   5.159   0.592  1.00  0.00     0.281 C 
ATOM      6  N   UNL     1       2.772   4.032  -1.274  1.00  0.00    -0.303 N 
ATOM      7  C   UNL     1       2.631   4.807  -0.043  1.00  0.00     0.181 C 
ATOM      8  C   UNL     1       3.855   4.466  -2.113  1.00  0.00     0.086 A 
ATOM      9  C   UNL     1       4.835   5.332  -1.596  1.00  0.00     0.144 A 
ATOM     10  C   UNL     1       3.992   4.046  -3.443  1.00  0.00     0.030 A 
ATOM     11  O   UNL     1       4.906   5.748  -0.296  1.00  0.00    -0.477 OA
ATOM     12  C   UNL     1       5.897   5.781  -2.388  1.00  0.00     0.049 A 
ATOM     13  C   UNL     1       5.072   4.473  -4.226  1.00  0.00     0.002 A 
ATOM     14  C   UNL     1       6.022   5.344  -3.701  1.00  0.00     0.004 A 
BRANCH   6  15
ATOM     15  C   UNL     1       2.010   2.894  -1.545  1.00  0.00     0.253 C 
ATOM     16  O   UNL     1       2.414   1.956  -2.240  1.00  0.00    -0.272 OA
BRANCH  15  17
ATOM     17  C   UNL     1       0.575   2.825  -0.973  1.00  0.00     0.260 C 
BRANCH  17  18
ATOM     18  O   UNL     1       0.308   2.851   0.411  1.00  0.00    -0.366 OA
BRANCH  18  19
ATOM     19  C   UNL     1       0.986   1.880   1.206  1.00  0.00     0.222 C 
BRANCH  19  20
ATOM     20  C   UNL     1       0.396   0.465   1.132  1.00  0.00     0.287 C 
BRANCH  20  21
ATOM     21  N   UNL     1       0.929  -0.352   0.042  1.00  0.00    -0.356 N 
ATOM     22  H   UNL     1       0.489  -1.272   0.060  1.00  0.00     0.344 HD
ATOM     23  H   UNL     1       1.937  -0.455   0.156  1.00  0.00     0.344 HD
ATOM     24  H   UNL     1       0.732   0.101  -0.851  1.00  0.00     0.344 HD
ENDBRANCH  20  21
ENDBRANCH  19  20
ENDBRANCH  18  19
ENDBRANCH  17  18
ENDBRANCH  15  17
ENDBRANCH   6  15
ENDBRANCH   1   5
BRANCH   3  25
ATOM     25  C   UNL     1       5.340   2.258  -0.037  1.00  0.00     0.116 C 
BRANCH  25  26
ATOM     26  C   UNL     1       6.617   2.555  -0.820  1.00  0.00     0.023 C 
BRANCH  26  27
ATOM     27  C   UNL     1       7.594   1.382  -0.909  1.00  0.00     0.023 C 
BRANCH  27  28
ATOM     28  C   UNL     1       7.028   0.086  -1.485  1.00  0.00     0.116 C 
BRANCH  28  29
ATOM     29  N   UNL     1       6.497   0.189  -2.834  1.00  0.00    -0.352 N 
ATOM     30  C   UNL     1       6.479  -0.784  -3.815  1.00  0.00     0.251 C 
ATOM     31  H   UNL     1       6.103   1.057  -3.079  1.00  0.00     0.163 HD
ATOM     32  O   UNL     1       6.065  -0.538  -4.937  1.00  0.00    -0.269 OA
BRANCH  30  33
ATOM     33  C   UNL     1       7.030  -2.127  -3.506  1.00  0.00     0.039 A 
ATOM     34  C   UNL     1       7.956  -2.693  -4.385  1.00  0.00     0.014 A 
ATOM     35  C   UNL     1       6.686  -2.792  -2.327  1.00  0.00     0.014 A 
ATOM     36  C   UNL     1       8.604  -3.880  -4.033  1.00  0.00     0.010 A 
ATOM     37  C   UNL     1       7.398  -3.923  -1.937  1.00  0.00     0.010 A 
ATOM     38  C   UNL     1       8.368  -4.478  -2.783  1.00  0.00    -0.014 A 
BRANCH  38  39
ATOM     39  C   UNL     1       9.147  -5.669  -2.349  1.00  0.00     0.031 A 
ATOM     40  C   UNL     1       8.459  -6.977  -2.074  1.00  0.00     0.074 A 
ATOM     41  C   UNL     1      10.476  -5.556  -2.151  1.00  0.00     0.049 A 
ATOM     42  N   UNL     1       8.976  -8.123  -1.703  1.00  0.00    -0.248 NA
ATOM     43  C   UNL     1       6.993  -6.996  -2.196  1.00  0.00     0.031 C 
ATOM     44  C   UNL     1      11.252  -4.323  -2.294  1.00  0.00     0.029 A 
ATOM     45  N   UNL     1      11.411  -6.494  -1.788  1.00  0.00    -0.354 N 
ATOM     46  C   UNL     1       7.902  -8.988  -1.541  1.00  0.00     0.074 A 
ATOM     47  C   UNL     1       6.700  -8.220  -1.786  1.00  0.00     0.031 C 
ATOM     48  C   UNL     1      12.548  -4.588  -2.065  1.00  0.00     0.029 A 
ATOM     49  C   UNL     1      12.693  -6.003  -1.738  1.00  0.00     0.049 A 
ATOM     50  H   UNL     1      11.185  -7.430  -1.584  1.00  0.00     0.167 HD
ATOM     51  C   UNL     1       7.915 -10.310  -1.247  1.00  0.00     0.037 A 
ATOM     52  C   UNL     1      13.857  -6.627  -1.474  1.00  0.00     0.037 A 
ATOM     53  C   UNL     1       9.112 -11.081  -1.033  1.00  0.00     0.049 A 
ATOM     54  C   UNL     1      13.850  -8.106  -1.198  1.00  0.00     0.074 A 
ATOM     55  C   UNL     1       9.236 -12.439  -0.796  1.00  0.00     0.029 A 
ATOM     56  N   UNL     1      10.396 -10.557  -1.030  1.00  0.00    -0.354 N 
ATOM     57  N   UNL     1      12.835  -8.933  -1.142  1.00  0.00    -0.248 NA
ATOM     58  C   UNL     1      15.155  -8.741  -0.969  1.00  0.00     0.031 C 
ATOM     59  C   UNL     1      10.592 -12.730  -0.614  1.00  0.00     0.029 A 
ATOM     60  C   UNL     1      11.318 -11.562  -0.783  1.00  0.00     0.049 A 
ATOM     61  H   UNL     1      10.620  -9.610  -1.181  1.00  0.00     0.167 HD
ATOM     62  C   UNL     1      13.378 -10.187  -0.896  1.00  0.00     0.074 A 
ATOM     63  C   UNL     1      14.815 -10.015  -0.839  1.00  0.00     0.031 C 
ATOM     64  C   UNL     1      12.745 -11.374  -0.730  1.00  0.00     0.037 A 
BRANCH  51  65
ATOM     65  C   UNL     1       6.589 -11.011  -1.159  1.00  0.00     0.064 A 
ATOM     66  C   UNL     1       5.799 -11.232  -2.298  1.00  0.00     0.173 A 
ATOM     67  C   UNL     1       6.114 -11.491   0.071  1.00  0.00     0.173 A 
ATOM     68  F   UNL     1       6.202 -10.782  -3.496  1.00  0.00    -0.203 F 
ATOM     69  C   UNL     1       4.568 -11.875  -2.204  1.00  0.00     0.198 A 
ATOM     70  C   UNL     1       4.897 -12.162   0.156  1.00  0.00     0.198 A 
ATOM     71  F   UNL     1       6.831 -11.313   1.190  1.00  0.00    -0.203 F 
ATOM     72  F   UNL     1       3.808 -12.025  -3.297  1.00  0.00    -0.200 F 
ATOM     73  C   UNL     1       4.121 -12.346  -0.979  1.00  0.00     0.200 A 
ATOM     74  F   UNL     1       4.471 -12.628   1.338  1.00  0.00    -0.200 F 
ATOM     75  F   UNL     1       2.938 -12.970  -0.891  1.00  0.00    -0.200 F 
ENDBRANCH  51  65
BRANCH  52  76
ATOM     76  C   UNL     1      15.135  -5.869  -1.516  1.00  0.00     0.064 A 
ATOM     77  C   UNL     1      16.063  -6.084  -2.545  1.00  0.00     0.173 A 
ATOM     78  C   UNL     1      15.459  -4.925  -0.532  1.00  0.00     0.173 A 
ATOM     79  F   UNL     1      15.807  -6.991  -3.498  1.00  0.00    -0.203 F 
ATOM     80  C   UNL     1      17.278  -5.402  -2.574  1.00  0.00     0.198 A 
ATOM     81  C   UNL     1      16.662  -4.223  -0.577  1.00  0.00     0.198 A 
ATOM     82  F   UNL     1      14.602  -4.677   0.470  1.00  0.00    -0.203 F 
ATOM     83  F   UNL     1      18.167  -5.663  -3.541  1.00  0.00    -0.200 F 
ATOM     84  C   UNL     1      17.574  -4.468  -1.593  1.00  0.00     0.200 A 
ATOM     85  F   UNL     1      16.939  -3.311   0.365  1.00  0.00    -0.200 F 
ATOM     86  F   UNL     1      18.741  -3.811  -1.621  1.00  0.00    -0.200 F 
ENDBRANCH  52  76
BRANCH  64  87
ATOM     87  C   UNL     1      13.607 -12.581  -0.497  1.00  0.00     0.064 A 
ATOM     88  C   UNL     1      14.306 -12.766   0.705  1.00  0.00     0.173 A 
ATOM     89  C   UNL     1      13.730 -13.567  -1.487  1.00  0.00     0.173 A 
ATOM     90  F   UNL     1      14.233 -11.843   1.677  1.00  0.00    -0.203 F 
ATOM     91  C   UNL     1      15.126 -13.875   0.893  1.00  0.00     0.198 A 
ATOM     92  C   UNL     1      14.526 -14.691  -1.284  1.00  0.00     0.198 A 
ATOM     93  F   UNL     1      13.077 -13.443  -2.652  1.00  0.00    -0.203 F 
ATOM     94  F   UNL     1      15.831 -14.000   2.026  1.00  0.00    -0.200 F 
ATOM     95  C   UNL     1      15.231 -14.839  -0.099  1.00  0.00     0.200 A 
ATOM     96  F   UNL     1      14.617 -15.628  -2.238  1.00  0.00    -0.200 F 
ATOM     97  F   UNL     1      16.023 -15.905   0.083  1.00  0.00    -0.200 F 
ENDBRANCH  64  87
ENDBRANCH  38  39
ENDBRANCH  30  33
ENDBRANCH  28  29
ENDBRANCH  27  28
ENDBRANCH  26  27
ENDBRANCH  25  26
ENDBRANCH   3  25
TORSDOF 17
