REMARK SMILES CSc1ccc(C=C2C(C)=C(CC(=O)NCCCCNC(=O)c3ccc(-c4c5nc(c(-c6c(F)c(F)c(F)c(F)c6F)c6ccc([nH]6)c(-c6c(F)c(F)c(F)c(F)c6F)c6nc(c(-c7c(F)c(F)c(F)c(F)c7F)c7ccc4[nH]7)C=C6)C=C5)cc3)c3cc(F)ccc32)cc1
REMARK SMILES IDX 17 1 16 2 15 3 13 4 14 5 12 7 11 8 7 9 8 10 9 11 92 12 10 13
REMARK SMILES IDX 86 14 91 15 87 16 90 17 88 18 89 19 6 20 3 21 4 22 94 23
REMARK SMILES IDX 5 24 93 25 2 26 1 27 18 28 19 29 20 30 21 31 22 33 23 34
REMARK SMILES IDX 24 35 85 36 25 37 84 38 26 39 27 40 28 41 78 42 29 43 83 44
REMARK SMILES IDX 77 45 79 46 30 47 82 48 76 49 75 50 31 52 63 53 43 54 62 55
REMARK SMILES IDX 44 56 47 57 61 58 80 59 45 60 46 61 60 63 81 64 48 65 32 66
REMARK SMILES IDX 33 67 41 68 34 69 35 70 39 71 42 72 36 73 37 74 40 75 38 76
REMARK SMILES IDX 64 77 65 78 73 79 66 80 67 81 71 82 74 83 68 84 69 85 72 86
REMARK SMILES IDX 70 87 49 88 50 89 58 90 51 91 52 92 56 93 59 94 53 95 54 96
REMARK SMILES IDX 57 97 55 98
REMARK H PARENT 15 6 20 32 79 51 47 62
REMARK Flexibility Score: inf
ROOT
ATOM      1  C   UNL     1       2.496   6.439   3.993  1.00  0.00     0.023 C 
ENDROOT
BRANCH   1   2
ATOM      2  C   UNL     1       2.876   7.783   3.371  1.00  0.00     0.116 C 
BRANCH   2   3
ATOM      3  N   UNL     1       4.127   8.279   3.906  1.00  0.00    -0.356 N 
ATOM      4  C   UNL     1       5.306   8.281   3.217  1.00  0.00     0.224 C 
ATOM      5  O   UNL     1       6.336   8.695   3.745  1.00  0.00    -0.275 OA
ATOM      6  H   UNL     1       4.128   8.636   4.824  1.00  0.00     0.163 HD
BRANCH   4   7
ATOM      7  C   UNL     1       5.255   7.674   1.827  1.00  0.00     0.136 C 
BRANCH   7   8
ATOM      8  C   UNL     1       4.875   6.193   2.043  1.00  0.00    -0.027 C 
ATOM      9  C   UNL     1       3.694   5.615  -0.719  1.00  0.00     0.017 C 
ATOM     10  C   UNL     1       4.896   5.330  -0.018  1.00  0.00    -0.014 C 
ATOM     11  C   UNL     1       4.216   5.245   1.308  1.00  0.00    -0.039 C 
ATOM     12  C   UNL     1       6.287   4.927   0.887  1.00  0.00    -0.010 A 
ATOM     13  C   UNL     1       4.054   3.652   1.454  1.00  0.00     0.045 C 
ATOM     14  C   UNL     1       6.121   5.535   2.158  1.00  0.00    -0.011 A 
ATOM     15  C   UNL     1       7.070   3.771   1.039  1.00  0.00     0.012 A 
ATOM     16  C   UNL     1       6.683   5.303   3.417  1.00  0.00     0.048 A 
ATOM     17  C   UNL     1       7.635   3.415   2.341  1.00  0.00     0.040 A 
ATOM     18  C   UNL     1       7.471   4.202   3.493  1.00  0.00     0.123 A 
ATOM     19  F   UNL     1       7.928   3.812   4.692  1.00  0.00    -0.207 F 
BRANCH   9  20
ATOM     20  C   UNL     1       2.143   5.142  -0.628  1.00  0.00    -0.025 A 
ATOM     21  C   UNL     1       0.683   2.785  -1.135  1.00  0.00     0.007 A 
ATOM     22  C   UNL     1       1.209   3.068   0.105  1.00  0.00     0.015 A 
ATOM     23  C   UNL     1       0.524   3.892  -1.972  1.00  0.00     0.015 A 
ATOM     24  C   UNL     1       1.656   4.359   0.405  1.00  0.00     0.009 A 
ATOM     25  C   UNL     1       1.294   5.070  -1.740  1.00  0.00     0.009 A 
BRANCH  21  26
ATOM     26  S   UNL     1       0.214   1.135  -1.633  1.00  0.00    -0.130 SA
ATOM     27  C   UNL     1       0.884   0.073  -0.294  1.00  0.00     0.091 C 
ENDBRANCH  21  26
ENDBRANCH   9  20
ENDBRANCH   7   8
ENDBRANCH   4   7
ENDBRANCH   2   3
ENDBRANCH   1   2
BRANCH   1  28
ATOM     28  C   UNL     1       2.169   6.571   5.465  1.00  0.00     0.023 C 
BRANCH  28  29
ATOM     29  C   UNL     1       1.178   7.685   5.713  1.00  0.00     0.116 C 
BRANCH  29  30
ATOM     30  N   UNL     1      -0.078   7.448   5.017  1.00  0.00    -0.352 N 
ATOM     31  C   UNL     1      -1.335   7.426   5.555  1.00  0.00     0.251 C 
ATOM     32  H   UNL     1      -0.015   7.285   4.048  1.00  0.00     0.163 HD
ATOM     33  O   UNL     1      -2.288   6.989   4.921  1.00  0.00    -0.269 OA
BRANCH  31  34
ATOM     34  C   UNL     1      -1.505   7.919   6.932  1.00  0.00     0.039 A 
ATOM     35  C   UNL     1      -2.279   7.177   7.818  1.00  0.00     0.014 A 
ATOM     36  C   UNL     1      -0.843   9.078   7.353  1.00  0.00     0.014 A 
ATOM     37  C   UNL     1      -2.367   7.591   9.143  1.00  0.00     0.010 A 
ATOM     38  C   UNL     1      -0.815   9.402   8.699  1.00  0.00     0.010 A 
ATOM     39  C   UNL     1      -1.600   8.678   9.604  1.00  0.00    -0.014 A 
BRANCH  39  40
ATOM     40  C   UNL     1      -1.611   9.061  11.034  1.00  0.00     0.031 A 
ATOM     41  C   UNL     1      -2.057  10.432  11.449  1.00  0.00     0.074 A 
ATOM     42  C   UNL     1      -1.199   8.174  11.959  1.00  0.00     0.049 A 
ATOM     43  N   UNL     1      -2.128  10.939  12.653  1.00  0.00    -0.248 NA
ATOM     44  C   UNL     1      -2.462  11.361  10.382  1.00  0.00     0.031 C 
ATOM     45  C   UNL     1      -0.714   6.824  11.672  1.00  0.00     0.029 A 
ATOM     46  N   UNL     1      -1.128   8.269  13.326  1.00  0.00    -0.354 N 
ATOM     47  C   UNL     1      -2.595  12.233  12.489  1.00  0.00     0.074 A 
ATOM     48  C   UNL     1      -2.718  12.464  11.066  1.00  0.00     0.031 C 
ATOM     49  C   UNL     1      -0.447   6.199  12.827  1.00  0.00     0.029 A 
ATOM     50  C   UNL     1      -0.669   7.125  13.931  1.00  0.00     0.049 A 
ATOM     51  H   UNL     1      -1.381   9.079  13.825  1.00  0.00     0.167 HD
ATOM     52  C   UNL     1      -2.921  13.135  13.443  1.00  0.00     0.037 A 
ATOM     53  C   UNL     1      -0.431   6.855  15.228  1.00  0.00     0.037 A 
ATOM     54  C   UNL     1      -2.775  12.908  14.854  1.00  0.00     0.049 A 
ATOM     55  C   UNL     1      -0.702   7.920  16.256  1.00  0.00     0.074 A 
ATOM     56  C   UNL     1      -3.091  13.763  15.894  1.00  0.00     0.029 A 
ATOM     57  N   UNL     1      -2.251  11.758  15.424  1.00  0.00    -0.354 N 
ATOM     58  N   UNL     1      -1.192   9.123  16.090  1.00  0.00    -0.248 NA
ATOM     59  C   UNL     1      -0.392   7.587  17.654  1.00  0.00     0.031 C 
ATOM     60  C   UNL     1      -2.666  13.175  17.085  1.00  0.00     0.029 A 
ATOM     61  C   UNL     1      -2.195  11.904  16.801  1.00  0.00     0.049 A 
ATOM     62  H   UNL     1      -1.962  10.959  14.927  1.00  0.00     0.167 HD
ATOM     63  C   UNL     1      -1.294   9.671  17.362  1.00  0.00     0.074 A 
ATOM     64  C   UNL     1      -0.829   8.663  18.289  1.00  0.00     0.031 C 
ATOM     65  C   UNL     1      -1.740  10.898  17.723  1.00  0.00     0.037 A 
BRANCH  52  66
ATOM     66  C   UNL     1      -3.449  14.464  12.990  1.00  0.00     0.064 A 
ATOM     67  C   UNL     1      -4.674  14.578  12.314  1.00  0.00     0.173 A 
ATOM     68  C   UNL     1      -2.743  15.644  13.270  1.00  0.00     0.173 A 
ATOM     69  F   UNL     1      -5.397  13.482  12.036  1.00  0.00    -0.203 F 
ATOM     70  C   UNL     1      -5.138  15.814  11.879  1.00  0.00     0.198 A 
ATOM     71  C   UNL     1      -3.241  16.885  12.887  1.00  0.00     0.198 A 
ATOM     72  F   UNL     1      -1.578  15.597  13.933  1.00  0.00    -0.203 F 
ATOM     73  F   UNL     1      -6.264  15.886  11.157  1.00  0.00    -0.200 F 
ATOM     74  C   UNL     1      -4.427  16.967  12.174  1.00  0.00     0.200 A 
ATOM     75  F   UNL     1      -2.571  18.000  13.207  1.00  0.00    -0.200 F 
ATOM     76  F   UNL     1      -4.881  18.159  11.764  1.00  0.00    -0.200 F 
ENDBRANCH  52  66
BRANCH  53  77
ATOM     77  C   UNL     1       0.111   5.532  15.638  1.00  0.00     0.064 A 
ATOM     78  C   UNL     1      -0.600   4.698  16.513  1.00  0.00     0.173 A 
ATOM     79  C   UNL     1       1.381   5.104  15.222  1.00  0.00     0.173 A 
ATOM     80  F   UNL     1      -1.816   5.062  16.947  1.00  0.00    -0.203 F 
ATOM     81  C   UNL     1      -0.035   3.525  17.007  1.00  0.00     0.198 A 
ATOM     82  C   UNL     1       1.918   3.901  15.667  1.00  0.00     0.198 A 
ATOM     83  F   UNL     1       2.103   5.858  14.379  1.00  0.00    -0.203 F 
ATOM     84  F   UNL     1      -0.691   2.807  17.929  1.00  0.00    -0.200 F 
ATOM     85  C   UNL     1       1.220   3.124  16.578  1.00  0.00     0.200 A 
ATOM     86  F   UNL     1       3.120   3.504  15.227  1.00  0.00    -0.200 F 
ATOM     87  F   UNL     1       1.766   1.998  17.057  1.00  0.00    -0.200 F 
ENDBRANCH  53  77
BRANCH  65  88
ATOM     88  C   UNL     1      -1.829  11.202  19.193  1.00  0.00     0.064 A 
ATOM     89  C   UNL     1      -0.696  11.271  20.016  1.00  0.00     0.173 A 
ATOM     90  C   UNL     1      -3.081  11.453  19.781  1.00  0.00     0.173 A 
ATOM     91  F   UNL     1       0.526  11.052  19.506  1.00  0.00    -0.203 F 
ATOM     92  C   UNL     1      -0.820  11.505  21.382  1.00  0.00     0.198 A 
ATOM     93  C   UNL     1      -3.192  11.756  21.133  1.00  0.00     0.198 A 
ATOM     94  F   UNL     1      -4.199  11.422  19.039  1.00  0.00    -0.203 F 
ATOM     95  F   UNL     1       0.267  11.463  22.166  1.00  0.00    -0.200 F 
ATOM     96  C   UNL     1      -2.065  11.758  21.937  1.00  0.00     0.200 A 
ATOM     97  F   UNL     1      -4.393  12.040  21.655  1.00  0.00    -0.200 F 
ATOM     98  F   UNL     1      -2.180  11.994  23.251  1.00  0.00    -0.200 F 
ENDBRANCH  65  88
ENDBRANCH  39  40
ENDBRANCH  31  34
ENDBRANCH  29  30
ENDBRANCH  28  29
ENDBRANCH   1  28
TORSDOF 14
