REMARK SMILES CCCC[N@H+](CC)[C@H]1CCC[C@]([NH3+])(C(=O)NCCCCNC(=O)c2ccc(-c3c4nc(c(-c5c(F)c(F)c(F)c(F)c5F)c5ccc([nH]5)c(-c5c(F)c(F)c(F)c(F)c5F)c5nc(c(-c6c(F)c(F)c(F)c(F)c6F)c6ccc3[nH]6)C=C5)C=C4)cc2)C1
REMARK SMILES IDX 17 1 16 2 14 3 15 4 12 6 8 7 9 8 87 9 10 10 11 11 5 12 4 14
REMARK SMILES IDX 3 15 2 16 1 17 6 18 7 19 13 20 18 24 19 25 20 26 21 27 22 28
REMARK SMILES IDX 23 30 24 31 25 32 86 33 26 34 85 35 27 36 28 37 29 38 79 39
REMARK SMILES IDX 30 40 84 41 78 42 80 43 31 44 83 45 77 46 76 47 32 49 64 50
REMARK SMILES IDX 44 51 63 52 45 53 48 54 62 55 81 56 46 57 47 58 61 60 82 61
REMARK SMILES IDX 49 62 33 63 34 64 42 65 35 66 36 67 40 68 43 69 37 70 38 71
REMARK SMILES IDX 41 72 39 73 65 74 66 75 74 76 67 77 68 78 72 79 75 80 69 81
REMARK SMILES IDX 70 82 73 83 71 84 50 85 51 86 59 87 52 88 53 89 57 90 60 91
REMARK SMILES IDX 54 92 55 93 58 94 56 95
REMARK H PARENT 16 5 5 13 13 21 13 22 13 23 21 29 80 48 48 59
REMARK Flexibility Score: inf
ROOT
ATOM      1  C   UNL     1      -4.129  -0.569  -6.035  1.00  0.00     0.116 C 
ENDROOT
BRANCH   1   2
ATOM      2  N   UNL     1      -3.510  -1.831  -6.384  1.00  0.00    -0.351 N 
ATOM      3  C   UNL     1      -3.121  -2.903  -5.641  1.00  0.00     0.281 C 
ATOM      4  O   UNL     1      -2.615  -3.833  -6.280  1.00  0.00    -0.268 OA
ATOM      5  H   UNL     1      -3.336  -1.934  -7.347  1.00  0.00     0.163 HD
BRANCH   3   6
ATOM      6  C   UNL     1      -3.394  -3.019  -4.101  1.00  0.00     0.179 C 
ATOM      7  C   UNL     1      -1.386  -1.651  -3.246  1.00  0.00     0.190 C 
ATOM      8  C   UNL     1      -0.702  -2.949  -2.765  1.00  0.00     0.065 C 
ATOM      9  C   UNL     1      -2.922  -1.828  -3.255  1.00  0.00     0.144 C 
ATOM     10  C   UNL     1      -1.198  -4.189  -3.506  1.00  0.00     0.013 C 
ATOM     11  C   UNL     1      -2.723  -4.292  -3.534  1.00  0.00     0.079 C 
BRANCH   7  12
ATOM     12  N   UNL     1      -0.961  -0.403  -2.550  1.00  0.00    -0.333 N 
ATOM     13  H   UNL     1      -1.293   0.344  -3.162  1.00  0.00     0.348 HD
BRANCH  12  14
ATOM     14  C   UNL     1       0.503  -0.231  -2.513  1.00  0.00     0.262 C 
BRANCH  14  15
ATOM     15  C   UNL     1       1.081   1.121  -2.037  1.00  0.00     0.061 C 
BRANCH  15  16
ATOM     16  C   UNL     1       1.193   1.374  -0.526  1.00  0.00     0.002 C 
ATOM     17  C   UNL     1       1.990   0.336   0.250  1.00  0.00     0.004 C 
ENDBRANCH  15  16
ENDBRANCH  14  15
ENDBRANCH  12  14
BRANCH  12  18
ATOM     18  C   UNL     1      -1.683  -0.053  -1.327  1.00  0.00     0.258 C 
ATOM     19  C   UNL     1      -1.487  -0.973  -0.130  1.00  0.00     0.071 C 
ENDBRANCH  12  18
ENDBRANCH   7  12
BRANCH   6  20
ATOM     20  N   UNL     1      -4.860  -3.201  -3.918  1.00  0.00    -0.345 N 
ATOM     21  H   UNL     1      -5.071  -3.280  -2.923  1.00  0.00     0.345 HD
ATOM     22  H   UNL     1      -5.159  -4.050  -4.397  1.00  0.00     0.345 HD
ATOM     23  H   UNL     1      -5.354  -2.398  -4.308  1.00  0.00     0.345 HD
ENDBRANCH   6  20
ENDBRANCH   3   6
ENDBRANCH   1   2
BRANCH   1  24
ATOM     24  C   UNL     1      -3.107   0.566  -5.973  1.00  0.00     0.023 C 
BRANCH  24  25
ATOM     25  C   UNL     1      -2.464   0.922  -7.316  1.00  0.00     0.023 C 
BRANCH  25  26
ATOM     26  C   UNL     1      -3.442   1.268  -8.432  1.00  0.00     0.116 C 
BRANCH  26  27
ATOM     27  N   UNL     1      -4.344   2.357  -8.089  1.00  0.00    -0.352 N 
ATOM     28  C   UNL     1      -4.837   3.349  -8.900  1.00  0.00     0.251 C 
ATOM     29  H   UNL     1      -4.640   2.386  -7.150  1.00  0.00     0.163 HD
ATOM     30  O   UNL     1      -5.509   4.261  -8.429  1.00  0.00    -0.269 OA
BRANCH  28  31
ATOM     31  C   UNL     1      -4.517   3.333 -10.341  1.00  0.00     0.039 A 
ATOM     32  C   UNL     1      -4.033   4.502 -10.934  1.00  0.00     0.014 A 
ATOM     33  C   UNL     1      -4.664   2.166 -11.095  1.00  0.00     0.014 A 
ATOM     34  C   UNL     1      -3.631   4.482 -12.270  1.00  0.00     0.010 A 
ATOM     35  C   UNL     1      -4.199   2.129 -12.406  1.00  0.00     0.010 A 
ATOM     36  C   UNL     1      -3.676   3.286 -13.005  1.00  0.00    -0.014 A 
BRANCH  36  37
ATOM     37  C   UNL     1      -3.177   3.224 -14.401  1.00  0.00     0.031 A 
ATOM     38  C   UNL     1      -4.126   2.925 -15.527  1.00  0.00     0.074 A 
ATOM     39  C   UNL     1      -1.860   3.370 -14.645  1.00  0.00     0.049 A 
ATOM     40  N   UNL     1      -3.872   2.752 -16.800  1.00  0.00    -0.248 NA
ATOM     41  C   UNL     1      -5.546   2.773 -15.172  1.00  0.00     0.031 C 
ATOM     42  C   UNL     1      -0.834   3.615 -13.630  1.00  0.00     0.029 A 
ATOM     43  N   UNL     1      -1.157   3.322 -15.822  1.00  0.00    -0.354 N 
ATOM     44  C   UNL     1      -5.094   2.462 -17.392  1.00  0.00     0.074 A 
ATOM     45  C   UNL     1      -6.081   2.427 -16.334  1.00  0.00     0.031 C 
ATOM     46  C   UNL     1       0.363   3.711 -14.229  1.00  0.00     0.029 A 
ATOM     47  C   UNL     1       0.196   3.500 -15.663  1.00  0.00     0.049 A 
ATOM     48  H   UNL     1      -1.581   3.173 -16.698  1.00  0.00     0.167 HD
ATOM     49  C   UNL     1      -5.372   2.267 -18.703  1.00  0.00     0.037 A 
ATOM     50  C   UNL     1       1.190   3.484 -16.572  1.00  0.00     0.037 A 
ATOM     51  C   UNL     1      -4.392   2.326 -19.755  1.00  0.00     0.049 A 
ATOM     52  C   UNL     1       0.852   3.262 -18.023  1.00  0.00     0.074 A 
ATOM     53  C   UNL     1      -4.582   2.193 -21.119  1.00  0.00     0.029 A 
ATOM     54  N   UNL     1      -3.035   2.537 -19.558  1.00  0.00    -0.354 N 
ATOM     55  N   UNL     1      -0.316   3.054 -18.579  1.00  0.00    -0.248 NA
ATOM     56  C   UNL     1       1.973   3.280 -18.973  1.00  0.00     0.031 C 
ATOM     57  C   UNL     1      -3.334   2.282 -21.745  1.00  0.00     0.029 A 
ATOM     58  C   UNL     1      -2.373   2.521 -20.776  1.00  0.00     0.049 A 
ATOM     59  H   UNL     1      -2.606   2.677 -18.684  1.00  0.00     0.167 HD
ATOM     60  C   UNL     1      -0.077   2.947 -19.942  1.00  0.00     0.074 A 
ATOM     61  C   UNL     1       1.347   3.129 -20.131  1.00  0.00     0.031 C 
ATOM     62  C   UNL     1      -0.957   2.717 -20.947  1.00  0.00     0.037 A 
BRANCH  49  63
ATOM     63  C   UNL     1      -6.797   1.982 -19.077  1.00  0.00     0.064 A 
ATOM     64  C   UNL     1      -7.787   2.974 -18.998  1.00  0.00     0.173 A 
ATOM     65  C   UNL     1      -7.169   0.721 -19.564  1.00  0.00     0.173 A 
ATOM     66  F   UNL     1      -7.486   4.193 -18.527  1.00  0.00    -0.203 F 
ATOM     67  C   UNL     1      -9.102   2.705 -19.371  1.00  0.00     0.198 A 
ATOM     68  C   UNL     1      -8.478   0.465 -19.964  1.00  0.00     0.198 A 
ATOM     69  F   UNL     1      -6.261  -0.261 -19.665  1.00  0.00    -0.203 F 
ATOM     70  F   UNL     1     -10.039   3.655 -19.245  1.00  0.00    -0.200 F 
ATOM     71  C   UNL     1      -9.444   1.454 -19.861  1.00  0.00     0.200 A 
ATOM     72  F   UNL     1      -8.806  -0.741 -20.450  1.00  0.00    -0.200 F 
ATOM     73  F   UNL     1     -10.708   1.201 -20.229  1.00  0.00    -0.200 F 
ENDBRANCH  49  63
BRANCH  50  74
ATOM     74  C   UNL     1       2.597   3.702 -16.145  1.00  0.00     0.064 A 
ATOM     75  C   UNL     1       3.287   4.867 -16.507  1.00  0.00     0.173 A 
ATOM     76  C   UNL     1       3.286   2.745 -15.386  1.00  0.00     0.173 A 
ATOM     77  F   UNL     1       2.677   5.803 -17.250  1.00  0.00    -0.203 F 
ATOM     78  C   UNL     1       4.621   5.055 -16.150  1.00  0.00     0.198 A 
ATOM     79  C   UNL     1       4.610   2.947 -15.004  1.00  0.00     0.198 A 
ATOM     80  F   UNL     1       2.669   1.615 -15.009  1.00  0.00    -0.203 F 
ATOM     81  F   UNL     1       5.272   6.153 -16.556  1.00  0.00    -0.200 F 
ATOM     82  C   UNL     1       5.280   4.097 -15.395  1.00  0.00     0.200 A 
ATOM     83  F   UNL     1       5.239   2.026 -14.262  1.00  0.00    -0.200 F 
ATOM     84  F   UNL     1       6.563   4.277 -15.053  1.00  0.00    -0.200 F 
ENDBRANCH  50  74
BRANCH  62  85
ATOM     85  C   UNL     1      -0.413   2.690 -22.345  1.00  0.00     0.064 A 
ATOM     86  C   UNL     1       0.373   1.625 -22.809  1.00  0.00     0.173 A 
ATOM     87  C   UNL     1      -0.717   3.724 -23.244  1.00  0.00     0.173 A 
ATOM     88  F   UNL     1       0.704   0.621 -21.984  1.00  0.00    -0.203 F 
ATOM     89  C   UNL     1       0.856   1.609 -24.115  1.00  0.00     0.198 A 
ATOM     90  C   UNL     1      -0.258   3.689 -24.557  1.00  0.00     0.198 A 
ATOM     91  F   UNL     1      -1.471   4.762 -22.851  1.00  0.00    -0.203 F 
ATOM     92  F   UNL     1       1.645   0.606 -24.523  1.00  0.00    -0.200 F 
ATOM     93  C   UNL     1       0.534   2.637 -24.989  1.00  0.00     0.200 A 
ATOM     94  F   UNL     1      -0.582   4.676 -25.405  1.00  0.00    -0.200 F 
ATOM     95  F   UNL     1       0.993   2.615 -26.248  1.00  0.00    -0.200 F 
ENDBRANCH  62  85
ENDBRANCH  36  37
ENDBRANCH  28  31
ENDBRANCH  26  27
ENDBRANCH  25  26
ENDBRANCH  24  25
ENDBRANCH   1  24
TORSDOF 17
