REMARK SMILES C[C@H](CSc1ccc(C(=O)N(C)C)cn1)C(=O)NCCCCNC(=O)c1ccc(-c2c3nc(c(-c4c(F)c(F)c(F)c(F)c4F)c4ccc([nH]4)c(-c4c(F)c(F)c(F)c(F)c4F)c4nc(c(-c5c(F)c(F)c(F)c(F)c5F)c5ccc2[nH]5)C=C4)C=C3)cc1
REMARK SMILES IDX 19 1 18 2 16 3 17 4 2 6 1 7 3 8 4 9 5 10 6 11 15 12 7 13
REMARK SMILES IDX 14 14 8 15 9 16 10 17 11 18 12 19 13 20 20 21 21 22 22 23
REMARK SMILES IDX 23 24 24 25 25 27 26 28 27 29 88 30 28 31 87 32 29 33 30 34
REMARK SMILES IDX 31 35 81 36 32 37 86 38 80 39 82 40 33 41 85 42 79 43 78 44
REMARK SMILES IDX 34 46 66 47 46 48 65 49 47 50 50 51 64 52 83 53 48 54 49 55
REMARK SMILES IDX 63 57 84 58 51 59 35 60 36 61 44 62 37 63 38 64 42 65 45 66
REMARK SMILES IDX 39 67 40 68 43 69 41 70 67 71 68 72 76 73 69 74 70 75 74 76
REMARK SMILES IDX 77 77 71 78 72 79 75 80 73 81 52 82 53 83 61 84 54 85 55 86
REMARK SMILES IDX 59 87 62 88 56 89 57 90 60 91 58 92
REMARK H PARENT 18 5 23 26 82 45 50 56
REMARK Flexibility Score: inf
ROOT
ATOM      1  C   UNL     1      -1.162  -0.324   2.151  1.00  0.00     0.116 C 
ENDROOT
BRANCH   1   2
ATOM      2  N   UNL     1      -1.647  -0.756   0.858  1.00  0.00    -0.356 N 
ATOM      3  C   UNL     1      -0.958  -1.193  -0.230  1.00  0.00     0.223 C 
ATOM      4  O   UNL     1      -1.599  -1.373  -1.269  1.00  0.00    -0.275 OA
ATOM      5  H   UNL     1      -2.625  -0.730   0.750  1.00  0.00     0.163 HD
BRANCH   3   6
ATOM      6  C   UNL     1       0.523  -1.569  -0.159  1.00  0.00     0.085 C 
ATOM      7  C   UNL     1       0.638  -2.885   0.607  1.00  0.00     0.019 C 
BRANCH   6   8
ATOM      8  C   UNL     1       1.455  -0.399   0.224  1.00  0.00     0.089 C 
BRANCH   8   9
ATOM      9  S   UNL     1       3.082  -0.784   0.995  1.00  0.00    -0.106 SA
BRANCH   9  10
ATOM     10  C   UNL     1       2.611  -1.327   2.628  1.00  0.00     0.096 A 
ATOM     11  C   UNL     1       2.964  -2.609   3.039  1.00  0.00     0.036 A 
ATOM     12  N   UNL     1       1.914  -0.489   3.421  1.00  0.00    -0.249 NA
ATOM     13  C   UNL     1       2.521  -3.086   4.278  1.00  0.00     0.018 A 
ATOM     14  C   UNL     1       1.506  -0.977   4.629  1.00  0.00     0.126 A 
ATOM     15  C   UNL     1       1.727  -2.277   5.086  1.00  0.00     0.058 A 
BRANCH  15  16
ATOM     16  C   UNL     1       1.172  -2.646   6.418  1.00  0.00     0.254 C 
ATOM     17  O   UNL     1       0.913  -1.708   7.176  1.00  0.00    -0.269 OA
ATOM     18  N   UNL     1       0.935  -3.966   6.815  1.00  0.00    -0.345 N 
ATOM     19  C   UNL     1       0.925  -5.161   5.986  1.00  0.00     0.146 C 
ATOM     20  C   UNL     1       0.542  -4.158   8.205  1.00  0.00     0.146 C 
ENDBRANCH  15  16
ENDBRANCH   9  10
ENDBRANCH   8   9
ENDBRANCH   6   8
ENDBRANCH   3   6
ENDBRANCH   1   2
BRANCH   1  21
ATOM     21  C   UNL     1      -1.307   1.189   2.312  1.00  0.00     0.023 C 
BRANCH  21  22
ATOM     22  C   UNL     1      -2.751   1.636   2.541  1.00  0.00     0.023 C 
BRANCH  22  23
ATOM     23  C   UNL     1      -3.396   1.055   3.792  1.00  0.00     0.116 C 
BRANCH  23  24
ATOM     24  N   UNL     1      -2.716   1.452   5.015  1.00  0.00    -0.352 N 
ATOM     25  C   UNL     1      -3.268   1.900   6.191  1.00  0.00     0.251 C 
ATOM     26  H   UNL     1      -1.734   1.393   4.998  1.00  0.00     0.163 HD
ATOM     27  O   UNL     1      -2.560   2.357   7.082  1.00  0.00    -0.269 OA
BRANCH  25  28
ATOM     28  C   UNL     1      -4.734   1.864   6.355  1.00  0.00     0.039 A 
ATOM     29  C   UNL     1      -5.388   3.006   6.821  1.00  0.00     0.014 A 
ATOM     30  C   UNL     1      -5.462   0.723   6.006  1.00  0.00     0.014 A 
ATOM     31  C   UNL     1      -6.782   3.028   6.871  1.00  0.00     0.010 A 
ATOM     32  C   UNL     1      -6.851   0.776   5.977  1.00  0.00     0.010 A 
ATOM     33  C   UNL     1      -7.525   1.928   6.411  1.00  0.00    -0.014 A 
BRANCH  33  34
ATOM     34  C   UNL     1      -9.008   1.966   6.375  1.00  0.00     0.031 A 
ATOM     35  C   UNL     1      -9.808   1.006   7.209  1.00  0.00     0.074 A 
ATOM     36  C   UNL     1      -9.633   2.823   5.544  1.00  0.00     0.049 A 
ATOM     37  N   UNL     1     -11.105   0.839   7.267  1.00  0.00    -0.248 NA
ATOM     38  C   UNL     1      -9.047   0.090   8.074  1.00  0.00     0.031 C 
ATOM     39  C   UNL     1      -8.967   3.769   4.647  1.00  0.00     0.029 A 
ATOM     40  N   UNL     1     -10.970   3.031   5.311  1.00  0.00    -0.354 N 
ATOM     41  C   UNL     1     -11.312  -0.201   8.163  1.00  0.00     0.074 A 
ATOM     42  C   UNL     1     -10.007  -0.671   8.575  1.00  0.00     0.031 C 
ATOM     43  C   UNL     1      -9.896   4.470   3.979  1.00  0.00     0.029 A 
ATOM     44  C   UNL     1     -11.221   3.997   4.368  1.00  0.00     0.049 A 
ATOM     45  H   UNL     1     -11.681   2.534   5.776  1.00  0.00     0.167 HD
ATOM     46  C   UNL     1     -12.484  -0.700   8.622  1.00  0.00     0.037 A 
ATOM     47  C   UNL     1     -12.389   4.444   3.867  1.00  0.00     0.037 A 
ATOM     48  C   UNL     1     -13.780  -0.218   8.220  1.00  0.00     0.049 A 
ATOM     49  C   UNL     1     -13.678   3.861   4.381  1.00  0.00     0.074 A 
ATOM     50  C   UNL     1     -15.026  -0.623   8.664  1.00  0.00     0.029 A 
ATOM     51  N   UNL     1     -13.995   0.773   7.274  1.00  0.00    -0.354 N 
ATOM     52  N   UNL     1     -13.863   2.926   5.281  1.00  0.00    -0.248 NA
ATOM     53  C   UNL     1     -14.921   4.403   3.816  1.00  0.00     0.031 C 
ATOM     54  C   UNL     1     -15.996   0.086   7.948  1.00  0.00     0.029 A 
ATOM     55  C   UNL     1     -15.355   0.976   7.102  1.00  0.00     0.049 A 
ATOM     56  H   UNL     1     -13.286   1.261   6.795  1.00  0.00     0.167 HD
ATOM     57  C   UNL     1     -15.238   2.788   5.411  1.00  0.00     0.074 A 
ATOM     58  C   UNL     1     -15.840   3.748   4.510  1.00  0.00     0.031 C 
ATOM     59  C   UNL     1     -15.940   1.941   6.205  1.00  0.00     0.037 A 
BRANCH  46  60
ATOM     60  C   UNL     1     -12.417  -1.825   9.615  1.00  0.00     0.064 A 
ATOM     61  C   UNL     1     -11.931  -1.630  10.918  1.00  0.00     0.173 A 
ATOM     62  C   UNL     1     -12.871  -3.108   9.272  1.00  0.00     0.173 A 
ATOM     63  F   UNL     1     -11.473  -0.427  11.295  1.00  0.00    -0.203 F 
ATOM     64  C   UNL     1     -11.870  -2.683  11.826  1.00  0.00     0.198 A 
ATOM     65  C   UNL     1     -12.841  -4.150  10.195  1.00  0.00     0.198 A 
ATOM     66  F   UNL     1     -13.351  -3.350   8.043  1.00  0.00    -0.203 F 
ATOM     67  F   UNL     1     -11.348  -2.485  13.045  1.00  0.00    -0.200 F 
ATOM     68  C   UNL     1     -12.332  -3.940  11.467  1.00  0.00     0.200 A 
ATOM     69  F   UNL     1     -13.301  -5.361   9.851  1.00  0.00    -0.200 F 
ATOM     70  F   UNL     1     -12.279  -4.951  12.345  1.00  0.00    -0.200 F 
ENDBRANCH  46  60
BRANCH  47  71
ATOM     71  C   UNL     1     -12.392   5.511   2.832  1.00  0.00     0.064 A 
ATOM     72  C   UNL     1     -12.882   6.793   3.118  1.00  0.00     0.173 A 
ATOM     73  C   UNL     1     -11.912   5.272   1.536  1.00  0.00     0.173 A 
ATOM     74  F   UNL     1     -13.370   7.067   4.337  1.00  0.00    -0.203 F 
ATOM     75  C   UNL     1     -12.914   7.787   2.142  1.00  0.00     0.198 A 
ATOM     76  C   UNL     1     -11.915   6.276   0.569  1.00  0.00     0.198 A 
ATOM     77  F   UNL     1     -11.428   4.064   1.211  1.00  0.00    -0.203 F 
ATOM     78  F   UNL     1     -13.435   8.988   2.428  1.00  0.00    -0.200 F 
ATOM     79  C   UNL     1     -12.425   7.529   0.870  1.00  0.00     0.200 A 
ATOM     80  F   UNL     1     -11.427   6.027  -0.653  1.00  0.00    -0.200 F 
ATOM     81  F   UNL     1     -12.452   8.486  -0.068  1.00  0.00    -0.200 F 
ENDBRANCH  47  71
BRANCH  59  82
ATOM     82  C   UNL     1     -17.438   2.040   6.165  1.00  0.00     0.064 A 
ATOM     83  C   UNL     1     -18.177   1.618   5.050  1.00  0.00     0.173 A 
ATOM     84  C   UNL     1     -18.145   2.526   7.275  1.00  0.00     0.173 A 
ATOM     85  F   UNL     1     -17.548   1.159   3.957  1.00  0.00    -0.203 F 
ATOM     86  C   UNL     1     -19.567   1.706   5.037  1.00  0.00     0.198 A 
ATOM     87  C   UNL     1     -19.536   2.580   7.273  1.00  0.00     0.198 A 
ATOM     88  F   UNL     1     -17.488   2.935   8.371  1.00  0.00    -0.203 F 
ATOM     89  F   UNL     1     -20.249   1.345   3.942  1.00  0.00    -0.200 F 
ATOM     90  C   UNL     1     -20.245   2.178   6.151  1.00  0.00     0.200 A 
ATOM     91  F   UNL     1     -20.190   3.021   8.356  1.00  0.00    -0.200 F 
ATOM     92  F   UNL     1     -21.583   2.253   6.141  1.00  0.00    -0.200 F 
ENDBRANCH  59  82
ENDBRANCH  33  34
ENDBRANCH  25  28
ENDBRANCH  23  24
ENDBRANCH  22  23
ENDBRANCH  21  22
ENDBRANCH   1  21
TORSDOF 15
