REMARK SMILES COc1ccc(NC(=O)[C@@H]2CC=CC[C@H]2C(=O)NCCCCNC(=O)c2ccc(-c3c4nc(c(-c5c(F)c(F)c(F)c(F)c5F)c5ccc([nH]5)c(-c5c(F)c(F)c(F)c(F)c5F)c5nc(c(-c6c(F)c(F)c(F)c(F)c6F)c6ccc3[nH]6)C=C5)C=C4)cc2)cc1Cl
REMARK SMILES IDX 20 1 19 2 18 3 16 4 17 5 15 7 10 8 11 9 12 10 14 11 13 12
REMARK SMILES IDX 8 13 7 14 9 16 6 17 3 18 4 19 90 20 5 21 89 22 91 23 2 24
REMARK SMILES IDX 1 25 21 26 22 27 23 28 24 29 25 31 26 32 27 33 88 34 28 35
REMARK SMILES IDX 87 36 29 37 30 38 31 39 81 40 32 41 86 42 80 43 82 44 33 45
REMARK SMILES IDX 85 46 79 47 78 48 34 50 66 51 46 52 65 53 47 54 50 55 64 56
REMARK SMILES IDX 83 57 48 58 49 59 63 61 84 62 51 63 35 64 36 65 44 66 37 67
REMARK SMILES IDX 38 68 42 69 45 70 39 71 40 72 43 73 41 74 67 75 68 76 76 77
REMARK SMILES IDX 69 78 70 79 74 80 77 81 71 82 72 83 75 84 73 85 52 86 53 87
REMARK SMILES IDX 61 88 54 89 55 90 59 91 62 92 56 93 57 94 60 95 58 96
REMARK H PARENT 18 6 7 15 23 30 82 49 50 60
REMARK Flexibility Score: inf
ROOT
ATOM      1  C   UNL     1       2.798  -6.244   5.661  1.00  0.00     0.023 C 
ENDROOT
BRANCH   1   2
ATOM      2  C   UNL     1       2.062  -7.227   4.760  1.00  0.00     0.116 C 
BRANCH   2   3
ATOM      3  N   UNL     1       1.015  -7.916   5.485  1.00  0.00    -0.356 N 
ATOM      4  C   UNL     1      -0.332  -7.883   5.340  1.00  0.00     0.224 C 
ATOM      5  O   UNL     1      -0.994  -8.588   6.103  1.00  0.00    -0.275 OA
ATOM      6  H   UNL     1       1.335  -8.507   6.204  1.00  0.00     0.163 HD
BRANCH   4   7
ATOM      7  C   UNL     1      -1.000  -7.048   4.263  1.00  0.00     0.095 C 
ATOM      8  C   UNL     1      -0.843  -5.530   4.452  1.00  0.00     0.095 C 
ATOM      9  C   UNL     1      -1.468  -4.721   3.307  1.00  0.00     0.041 C 
ATOM     10  C   UNL     1      -1.211  -5.312   1.954  1.00  0.00    -0.030 C 
ATOM     11  C   UNL     1      -0.623  -7.571   2.860  1.00  0.00     0.041 C 
ATOM     12  C   UNL     1      -0.821  -6.577   1.757  1.00  0.00    -0.030 C 
BRANCH   8  13
ATOM     13  C   UNL     1      -1.154  -4.814   5.773  1.00  0.00     0.228 C 
ATOM     14  N   UNL     1      -2.080  -5.110   6.716  1.00  0.00    -0.326 N 
ATOM     15  H   UNL     1      -2.094  -4.454   7.449  1.00  0.00     0.169 HD
ATOM     16  O   UNL     1      -0.469  -3.809   6.038  1.00  0.00    -0.274 OA
BRANCH  14  17
ATOM     17  C   UNL     1      -3.022  -6.128   6.892  1.00  0.00     0.042 A 
ATOM     18  C   UNL     1      -4.368  -8.523   7.364  1.00  0.00     0.137 A 
ATOM     19  C   UNL     1      -4.337  -7.977   6.081  1.00  0.00     0.050 A 
ATOM     20  C   UNL     1      -3.871  -7.787   8.439  1.00  0.00     0.085 A 
ATOM     21  C   UNL     1      -3.713  -6.745   5.860  1.00  0.00     0.030 A 
ATOM     22  C   UNL     1      -3.217  -6.576   8.205  1.00  0.00     0.050 A 
ATOM     23  Cl  UNL     1      -3.984  -8.366  10.061  1.00  0.00    -0.080 Cl
BRANCH  18  24
ATOM     24  O   UNL     1      -4.704  -9.841   7.515  1.00  0.00    -0.495 OA
ATOM     25  C   UNL     1      -6.109 -10.045   7.553  1.00  0.00     0.278 C 
ENDBRANCH  18  24
ENDBRANCH  14  17
ENDBRANCH   8  13
ENDBRANCH   4   7
ENDBRANCH   2   3
ENDBRANCH   1   2
BRANCH   1  26
ATOM     26  C   UNL     1       3.535  -6.900   6.829  1.00  0.00     0.023 C 
BRANCH  26  27
ATOM     27  C   UNL     1       4.391  -8.103   6.452  1.00  0.00     0.116 C 
BRANCH  27  28
ATOM     28  N   UNL     1       5.308  -7.821   5.359  1.00  0.00    -0.352 N 
ATOM     29  C   UNL     1       6.619  -8.189   5.205  1.00  0.00     0.251 C 
ATOM     30  H   UNL     1       4.932  -7.287   4.622  1.00  0.00     0.163 HD
ATOM     31  O   UNL     1       7.276  -7.752   4.270  1.00  0.00    -0.269 OA
BRANCH  29  32
ATOM     32  C   UNL     1       7.245  -9.085   6.197  1.00  0.00     0.039 A 
ATOM     33  C   UNL     1       8.513  -8.755   6.675  1.00  0.00     0.014 A 
ATOM     34  C   UNL     1       6.586 -10.227   6.662  1.00  0.00     0.014 A 
ATOM     35  C   UNL     1       9.101  -9.548   7.657  1.00  0.00     0.010 A 
ATOM     36  C   UNL     1       7.136 -10.966   7.704  1.00  0.00     0.010 A 
ATOM     37  C   UNL     1       8.404 -10.640   8.205  1.00  0.00    -0.014 A 
BRANCH  37  38
ATOM     38  C   UNL     1       9.008 -11.428   9.307  1.00  0.00     0.031 A 
ATOM     39  C   UNL     1       9.359 -12.875   9.111  1.00  0.00     0.074 A 
ATOM     40  C   UNL     1       9.232 -10.828  10.492  1.00  0.00     0.049 A 
ATOM     41  N   UNL     1       9.957 -13.698   9.935  1.00  0.00    -0.248 NA
ATOM     42  C   UNL     1       8.969 -13.489   7.832  1.00  0.00     0.031 C 
ATOM     43  C   UNL     1       8.867  -9.449  10.822  1.00  0.00     0.029 A 
ATOM     44  N   UNL     1       9.833 -11.295  11.633  1.00  0.00    -0.354 N 
ATOM     45  C   UNL     1      10.017 -14.918   9.275  1.00  0.00     0.074 A 
ATOM     46  C   UNL     1       9.332 -14.750   8.013  1.00  0.00     0.031 C 
ATOM     47  C   UNL     1       9.294  -9.166  12.062  1.00  0.00     0.029 A 
ATOM     48  C   UNL     1       9.932 -10.351  12.625  1.00  0.00     0.049 A 
ATOM     49  H   UNL     1      10.162 -12.217  11.731  1.00  0.00     0.167 HD
ATOM     50  C   UNL     1      10.619 -16.065   9.673  1.00  0.00     0.037 A 
ATOM     51  C   UNL     1      10.486 -10.431  13.850  1.00  0.00     0.037 A 
ATOM     52  C   UNL     1      11.304 -16.222  10.930  1.00  0.00     0.049 A 
ATOM     53  C   UNL     1      11.149 -11.716  14.265  1.00  0.00     0.074 A 
ATOM     54  C   UNL     1      11.987 -17.326  11.410  1.00  0.00     0.029 A 
ATOM     55  N   UNL     1      11.384 -15.245  11.913  1.00  0.00    -0.354 N 
ATOM     56  N   UNL     1      11.279 -12.836  13.596  1.00  0.00    -0.248 NA
ATOM     57  C   UNL     1      11.758 -11.740  15.601  1.00  0.00     0.031 C 
ATOM     58  C   UNL     1      12.431 -17.037  12.705  1.00  0.00     0.029 A 
ATOM     59  C   UNL     1      12.083 -15.730  13.008  1.00  0.00     0.049 A 
ATOM     60  H   UNL     1      11.001 -14.341  11.843  1.00  0.00     0.167 HD
ATOM     61  C   UNL     1      12.001 -13.690  14.419  1.00  0.00     0.074 A 
ATOM     62  C   UNL     1      12.308 -12.944  15.622  1.00  0.00     0.031 C 
ATOM     63  C   UNL     1      12.371 -14.977  14.203  1.00  0.00     0.037 A 
BRANCH  50  64
ATOM     64  C   UNL     1      10.565 -17.237   8.734  1.00  0.00     0.064 A 
ATOM     65  C   UNL     1      11.253 -17.233   7.510  1.00  0.00     0.173 A 
ATOM     66  C   UNL     1       9.847 -18.393   9.074  1.00  0.00     0.173 A 
ATOM     67  F   UNL     1      11.946 -16.149   7.128  1.00  0.00    -0.203 F 
ATOM     68  C   UNL     1      11.197 -18.326   6.649  1.00  0.00     0.198 A 
ATOM     69  C   UNL     1       9.822 -19.499   8.227  1.00  0.00     0.198 A 
ATOM     70  F   UNL     1       9.174 -18.456  10.233  1.00  0.00    -0.203 F 
ATOM     71  F   UNL     1      11.817 -18.275   5.462  1.00  0.00    -0.200 F 
ATOM     72  C   UNL     1      10.489 -19.461   7.012  1.00  0.00     0.200 A 
ATOM     73  F   UNL     1       9.149 -20.601   8.586  1.00  0.00    -0.200 F 
ATOM     74  F   UNL     1      10.443 -20.517   6.188  1.00  0.00    -0.200 F 
ENDBRANCH  50  64
BRANCH  51  75
ATOM     75  C   UNL     1      10.465  -9.251  14.754  1.00  0.00     0.064 A 
ATOM     76  C   UNL     1      11.647  -8.579  15.096  1.00  0.00     0.173 A 
ATOM     77  C   UNL     1       9.264  -8.774  15.300  1.00  0.00     0.173 A 
ATOM     78  F   UNL     1      12.824  -9.006  14.613  1.00  0.00    -0.203 F 
ATOM     79  C   UNL     1      11.633  -7.495  15.971  1.00  0.00     0.198 A 
ATOM     80  C   UNL     1       9.247  -7.669  16.148  1.00  0.00     0.198 A 
ATOM     81  F   UNL     1       8.104  -9.375  14.999  1.00  0.00    -0.203 F 
ATOM     82  F   UNL     1      12.784  -6.906  16.324  1.00  0.00    -0.200 F 
ATOM     83  C   UNL     1      10.432  -7.037  16.492  1.00  0.00     0.200 A 
ATOM     84  F   UNL     1       8.082  -7.219  16.634  1.00  0.00    -0.200 F 
ATOM     85  F   UNL     1      10.418  -5.992  17.330  1.00  0.00    -0.200 F 
ENDBRANCH  51  75
BRANCH  63  86
ATOM     86  C   UNL     1      13.170 -15.646  15.287  1.00  0.00     0.064 A 
ATOM     87  C   UNL     1      12.609 -15.953  16.536  1.00  0.00     0.173 A 
ATOM     88  C   UNL     1      14.516 -15.982  15.073  1.00  0.00     0.173 A 
ATOM     89  F   UNL     1      11.330 -15.642  16.796  1.00  0.00    -0.203 F 
ATOM     90  C   UNL     1      13.377 -16.526  17.545  1.00  0.00     0.198 A 
ATOM     91  C   UNL     1      15.270 -16.591  16.072  1.00  0.00     0.198 A 
ATOM     92  F   UNL     1      15.101 -15.722  13.895  1.00  0.00    -0.203 F 
ATOM     93  F   UNL     1      12.839 -16.741  18.754  1.00  0.00    -0.200 F 
ATOM     94  C   UNL     1      14.705 -16.849  17.312  1.00  0.00     0.200 A 
ATOM     95  F   UNL     1      16.549 -16.919  15.838  1.00  0.00    -0.200 F 
ATOM     96  F   UNL     1      15.444 -17.397  18.286  1.00  0.00    -0.200 F 
ENDBRANCH  63  86
ENDBRANCH  37  38
ENDBRANCH  29  32
ENDBRANCH  27  28
ENDBRANCH  26  27
ENDBRANCH   1  26
TORSDOF 14
