REMARK SMILES CC[NH2+][C@@]1(C(=O)NCCCCNC(=O)c2ccc(-c3c4nc(c(-c5c(F)c(F)c(F)c(F)c5F)c5ccc([nH]5)c(-c5c(F)c(F)c(F)c(F)c5F)c5nc(c(-c6c(F)c(F)c(F)c(F)c6F)c6ccc3[nH]6)C=C5)C=C4)cc2)CCC[C@@H](Sc2ncc(C)cn2)C1
REMARK SMILES IDX 9 1 8 2 7 3 5 4 6 5 4 7 78 8 90 9 79 10 81 11 80 12 3 13
REMARK SMILES IDX 2 16 1 17 82 18 83 19 84 20 89 21 85 22 88 23 86 24 87 25
REMARK SMILES IDX 10 26 11 27 12 28 13 29 14 31 15 32 16 33 77 34 17 35 76 36
REMARK SMILES IDX 18 37 19 38 20 39 70 40 21 41 75 42 69 43 71 44 22 45 74 46
REMARK SMILES IDX 68 47 67 48 23 50 55 51 35 52 54 53 36 54 39 55 53 56 72 57
REMARK SMILES IDX 37 58 38 59 52 61 73 62 40 63 24 64 25 65 33 66 26 67 27 68
REMARK SMILES IDX 31 69 34 70 28 71 29 72 32 73 30 74 56 75 57 76 65 77 58 78
REMARK SMILES IDX 59 79 63 80 66 81 60 82 61 83 64 84 62 85 41 86 42 87 50 88
REMARK SMILES IDX 43 89 44 90 48 91 51 92 45 93 46 94 49 95 47 96
REMARK H PARENT 7 6 3 14 3 15 12 30 71 49 39 60
REMARK Flexibility Score: inf
ROOT
ATOM      1  C   UNL     1      -1.876   2.644   6.584  1.00  0.00     0.023 C 
ENDROOT
BRANCH   1   2
ATOM      2  C   UNL     1      -1.752   1.304   5.851  1.00  0.00     0.116 C 
BRANCH   2   3
ATOM      3  N   UNL     1      -1.813   1.473   4.420  1.00  0.00    -0.351 N 
ATOM      4  C   UNL     1      -0.906   1.542   3.416  1.00  0.00     0.281 C 
ATOM      5  O   UNL     1      -1.434   1.871   2.340  1.00  0.00    -0.268 OA
ATOM      6  H   UNL     1      -2.738   1.558   4.093  1.00  0.00     0.163 HD
BRANCH   4   7
ATOM      7  C   UNL     1       0.677   1.302   3.526  1.00  0.00     0.176 C 
ATOM      8  C   UNL     1       1.158   0.042   4.295  1.00  0.00     0.079 C 
ATOM      9  C   UNL     1       1.352   2.607   4.026  1.00  0.00     0.094 C 
ATOM     10  C   UNL     1       1.640   0.172   5.744  1.00  0.00     0.008 C 
ATOM     11  C   UNL     1       1.453   2.681   5.544  1.00  0.00     0.061 C 
ATOM     12  C   UNL     1       2.257   1.516   6.111  1.00  0.00     0.015 C 
BRANCH   7  13
ATOM     13  N   UNL     1       1.171   1.164   2.103  1.00  0.00    -0.334 N 
ATOM     14  H   UNL     1       0.866   1.989   1.586  1.00  0.00     0.347 HD
ATOM     15  H   UNL     1       2.184   1.064   2.174  1.00  0.00     0.347 HD
BRANCH  13  16
ATOM     16  C   UNL     1       0.712  -0.017   1.370  1.00  0.00     0.257 C 
ATOM     17  C   UNL     1       1.143   0.101  -0.086  1.00  0.00     0.071 C 
ENDBRANCH  13  16
ENDBRANCH   7  13
BRANCH  11  18
ATOM     18  S   UNL     1       1.945   4.341   6.141  1.00  0.00    -0.083 SA
BRANCH  18  19
ATOM     19  C   UNL     1       3.701   4.207   6.070  1.00  0.00     0.187 A 
ATOM     20  N   UNL     1       4.279   4.146   4.861  1.00  0.00    -0.231 NA
ATOM     21  N   UNL     1       4.347   4.127   7.244  1.00  0.00    -0.231 NA
ATOM     22  C   UNL     1       5.617   4.006   4.852  1.00  0.00     0.119 A 
ATOM     23  C   UNL     1       5.682   3.985   7.177  1.00  0.00     0.119 A 
ATOM     24  C   UNL     1       6.384   3.912   5.993  1.00  0.00    -0.014 A 
ATOM     25  C   UNL     1       7.864   3.754   5.964  1.00  0.00     0.048 C 
ENDBRANCH  18  19
ENDBRANCH  11  18
ENDBRANCH   4   7
ENDBRANCH   2   3
ENDBRANCH   1   2
BRANCH   1  26
ATOM     26  C   UNL     1      -3.264   2.970   7.119  1.00  0.00     0.023 C 
BRANCH  26  27
ATOM     27  C   UNL     1      -3.805   1.979   8.140  1.00  0.00     0.116 C 
BRANCH  27  28
ATOM     28  N   UNL     1      -2.942   1.758   9.293  1.00  0.00    -0.352 N 
ATOM     29  C   UNL     1      -3.326   1.379  10.561  1.00  0.00     0.251 C 
ATOM     30  H   UNL     1      -1.978   1.894   9.151  1.00  0.00     0.163 HD
ATOM     31  O   UNL     1      -2.510   1.257  11.468  1.00  0.00    -0.269 OA
BRANCH  29  32
ATOM     32  C   UNL     1      -4.765   1.183  10.816  1.00  0.00     0.039 A 
ATOM     33  C   UNL     1      -5.389   1.970  11.786  1.00  0.00     0.014 A 
ATOM     34  C   UNL     1      -5.508   0.334   9.993  1.00  0.00     0.014 A 
ATOM     35  C   UNL     1      -6.781   1.976  11.866  1.00  0.00     0.010 A 
ATOM     36  C   UNL     1      -6.894   0.405  10.019  1.00  0.00     0.010 A 
ATOM     37  C   UNL     1      -7.543   1.234  10.948  1.00  0.00    -0.014 A 
BRANCH  37  38
ATOM     38  C   UNL     1      -9.023   1.313  10.930  1.00  0.00     0.031 A 
ATOM     39  C   UNL     1      -9.835   0.084  11.216  1.00  0.00     0.074 A 
ATOM     40  C   UNL     1      -9.629   2.459  10.563  1.00  0.00     0.049 A 
ATOM     41  N   UNL     1     -11.130  -0.090  11.141  1.00  0.00    -0.248 NA
ATOM     42  C   UNL     1      -9.087  -1.124  11.600  1.00  0.00     0.031 C 
ATOM     43  C   UNL     1      -8.946   3.700  10.192  1.00  0.00     0.029 A 
ATOM     44  N   UNL     1     -10.961   2.760  10.427  1.00  0.00    -0.354 N 
ATOM     45  C   UNL     1     -11.345  -1.429  11.436  1.00  0.00     0.074 A 
ATOM     46  C   UNL     1     -10.048  -2.034  11.643  1.00  0.00     0.031 C 
ATOM     47  C   UNL     1      -9.864   4.635   9.894  1.00  0.00     0.029 A 
ATOM     48  C   UNL     1     -11.195   4.052  10.024  1.00  0.00     0.049 A 
ATOM     49  H   UNL     1     -11.680   2.112  10.602  1.00  0.00     0.167 HD
ATOM     50  C   UNL     1     -12.521  -2.089  11.549  1.00  0.00     0.037 A 
ATOM     51  C   UNL     1     -12.357   4.691   9.788  1.00  0.00     0.037 A 
ATOM     52  C   UNL     1     -13.811  -1.473  11.394  1.00  0.00     0.049 A 
ATOM     53  C   UNL     1     -13.652   3.951   9.977  1.00  0.00     0.074 A 
ATOM     54  C   UNL     1     -15.063  -2.036  11.559  1.00  0.00     0.029 A 
ATOM     55  N   UNL     1     -14.009  -0.144  11.047  1.00  0.00    -0.354 N 
ATOM     56  N   UNL     1     -13.847   2.701  10.319  1.00  0.00    -0.248 NA
ATOM     57  C   UNL     1     -14.889   4.713   9.756  1.00  0.00     0.031 C 
ATOM     58  C   UNL     1     -16.022  -1.052  11.291  1.00  0.00     0.029 A 
ATOM     59  C   UNL     1     -15.365   0.130  10.990  1.00  0.00     0.049 A 
ATOM     60  H   UNL     1     -13.293   0.507  10.869  1.00  0.00     0.167 HD
ATOM     61  C   UNL     1     -15.223   2.531  10.376  1.00  0.00     0.074 A 
ATOM     62  C   UNL     1     -15.816   3.811  10.047  1.00  0.00     0.031 C 
ATOM     63  C   UNL     1     -15.932   1.415  10.673  1.00  0.00     0.037 A 
BRANCH  50  64
ATOM     64  C   UNL     1     -12.459  -3.551  11.872  1.00  0.00     0.064 A 
ATOM     65  C   UNL     1     -12.071  -4.005  13.142  1.00  0.00     0.173 A 
ATOM     66  C   UNL     1     -12.799  -4.510  10.907  1.00  0.00     0.173 A 
ATOM     67  F   UNL     1     -11.719  -3.126  14.094  1.00  0.00    -0.203 F 
ATOM     68  C   UNL     1     -11.994  -5.365  13.424  1.00  0.00     0.198 A 
ATOM     69  C   UNL     1     -12.748  -5.870  11.201  1.00  0.00     0.198 A 
ATOM     70  F   UNL     1     -13.178  -4.128   9.678  1.00  0.00    -0.203 F 
ATOM     71  F   UNL     1     -11.568  -5.776  14.626  1.00  0.00    -0.200 F 
ATOM     72  C   UNL     1     -12.338  -6.296  12.455  1.00  0.00     0.200 A 
ATOM     73  F   UNL     1     -13.087  -6.769  10.267  1.00  0.00    -0.200 F 
ATOM     74  F   UNL     1     -12.263  -7.606  12.728  1.00  0.00    -0.200 F 
ENDBRANCH  50  64
BRANCH  51  75
ATOM     75  C   UNL     1     -12.348   6.121   9.388  1.00  0.00     0.064 A 
ATOM     76  C   UNL     1     -12.746   7.117  10.291  1.00  0.00     0.173 A 
ATOM     77  C   UNL     1     -11.947   6.521   8.107  1.00  0.00     0.173 A 
ATOM     78  F   UNL     1     -13.157   6.778  11.522  1.00  0.00    -0.203 F 
ATOM     79  C   UNL     1     -12.758   8.460   9.921  1.00  0.00     0.198 A 
ATOM     80  C   UNL     1     -11.939   7.867   7.744  1.00  0.00     0.198 A 
ATOM     81  F   UNL     1     -11.554   5.606   7.209  1.00  0.00    -0.203 F 
ATOM     82  F   UNL     1     -13.179   9.388  10.791  1.00  0.00    -0.200 F 
ATOM     83  C   UNL     1     -12.351   8.834   8.649  1.00  0.00     0.200 A 
ATOM     84  F   UNL     1     -11.536   8.227   6.518  1.00  0.00    -0.200 F 
ATOM     85  F   UNL     1     -12.362  10.126   8.294  1.00  0.00    -0.200 F 
ENDBRANCH  51  75
BRANCH  63  86
ATOM     86  C   UNL     1     -17.425   1.536  10.686  1.00  0.00     0.064 A 
ATOM     87  C   UNL     1     -18.163   1.605   9.497  1.00  0.00     0.173 A 
ATOM     88  C   UNL     1     -18.125   1.534  11.901  1.00  0.00     0.173 A 
ATOM     89  F   UNL     1     -17.535   1.625   8.312  1.00  0.00    -0.203 F 
ATOM     90  C   UNL     1     -19.553   1.684   9.524  1.00  0.00     0.198 A 
ATOM     91  C   UNL     1     -19.516   1.590  11.924  1.00  0.00     0.198 A 
ATOM     92  F   UNL     1     -17.461   1.465  13.065  1.00  0.00    -0.203 F 
ATOM     93  F   UNL     1     -20.239   1.783   8.377  1.00  0.00    -0.200 F 
ATOM     94  C   UNL     1     -20.228   1.669  10.736  1.00  0.00     0.200 A 
ATOM     95  F   UNL     1     -20.167   1.567  13.095  1.00  0.00    -0.200 F 
ATOM     96  F   UNL     1     -21.566   1.738  10.760  1.00  0.00    -0.200 F 
ENDBRANCH  63  86
ENDBRANCH  37  38
ENDBRANCH  29  32
ENDBRANCH  27  28
ENDBRANCH  26  27
ENDBRANCH   1  26
TORSDOF 15
