REMARK SMILES Cn1c(SCC(=O)NCCCCNC(=O)c2ccc(-c3c4nc(c(-c5c(F)c(F)c(F)c(F)c5F)c5ccc([nH]5)c(-c5c(F)c(F)c(F)c(F)c5F)c5nc(c(-c6c(F)c(F)c(F)c(F)c6F)c6ccc3[nH]6)C=C5)C=C4)cc2)nnc1-c1ccccc1Br
REMARK SMILES IDX 10 1 9 2 8 3 6 4 7 5 5 7 4 8 3 9 1 10 2 11 81 12 79 13 80 14
REMARK SMILES IDX 82 15 83 16 87 17 84 18 86 19 88 20 85 21 11 22 12 23 13 24
REMARK SMILES IDX 14 25 15 27 16 28 17 29 78 30 18 31 77 32 19 33 20 34 21 35
REMARK SMILES IDX 71 36 22 37 76 38 70 39 72 40 23 41 75 42 69 43 68 44 24 46
REMARK SMILES IDX 56 47 36 48 55 49 37 50 40 51 54 52 73 53 38 54 39 55 53 57
REMARK SMILES IDX 74 58 41 59 25 60 26 61 34 62 27 63 28 64 32 65 35 66 29 67
REMARK SMILES IDX 30 68 33 69 31 70 57 71 58 72 66 73 59 74 60 75 64 76 67 77
REMARK SMILES IDX 61 78 62 79 65 80 63 81 42 82 43 83 51 84 44 85 45 86 49 87
REMARK SMILES IDX 52 88 46 89 47 90 50 91 48 92
REMARK H PARENT 8 6 13 26 72 45 40 56
REMARK Flexibility Score: inf
ROOT
ATOM      1  C   UNL     1       0.277   3.540   3.238  1.00  0.00     0.023 C 
ENDROOT
BRANCH   1   2
ATOM      2  C   UNL     1       1.476   4.126   2.495  1.00  0.00     0.116 C 
BRANCH   2   3
ATOM      3  N   UNL     1       2.487   3.122   2.232  1.00  0.00    -0.355 N 
ATOM      4  C   UNL     1       2.887   2.580   1.053  1.00  0.00     0.230 C 
ATOM      5  O   UNL     1       3.821   1.774   1.087  1.00  0.00    -0.274 OA
ATOM      6  H   UNL     1       2.954   2.780   3.029  1.00  0.00     0.163 HD
BRANCH   4   7
ATOM      7  C   UNL     1       2.301   3.016  -0.269  1.00  0.00     0.178 C 
BRANCH   7   8
ATOM      8  S   UNL     1       0.573   2.659  -0.552  1.00  0.00    -0.076 SA
BRANCH   8   9
ATOM      9  C   UNL     1       0.170   1.028  -0.159  1.00  0.00     0.191 A 
ATOM     10  C   UNL     1       2.312  -0.305  -0.512  1.00  0.00     0.154 C 
ATOM     11  N   UNL     1       0.922  -0.114  -0.197  1.00  0.00    -0.305 N 
ATOM     12  C   UNL     1       0.049  -1.150   0.097  1.00  0.00     0.165 A 
ATOM     13  N   UNL     1      -1.079   0.706   0.110  1.00  0.00    -0.123 NA
ATOM     14  N   UNL     1      -1.159  -0.653   0.257  1.00  0.00    -0.129 NA
BRANCH  12  15
ATOM     15  C   UNL     1       0.400  -2.566   0.147  1.00  0.00     0.034 A 
ATOM     16  C   UNL     1       0.016  -3.385  -0.927  1.00  0.00     0.013 A 
ATOM     17  C   UNL     1       1.122  -3.135   1.208  1.00  0.00     0.029 A 
ATOM     18  C   UNL     1       0.382  -4.732  -0.964  1.00  0.00     0.001 A 
ATOM     19  C   UNL     1       1.491  -4.484   1.167  1.00  0.00     0.016 A 
ATOM     20  Br  UNL     1       1.621  -2.139   2.750  1.00  0.00    -0.050 Br
ATOM     21  C   UNL     1       1.129  -5.278   0.078  1.00  0.00     0.001 A 
ENDBRANCH  12  15
ENDBRANCH   8   9
ENDBRANCH   7   8
ENDBRANCH   4   7
ENDBRANCH   2   3
ENDBRANCH   1   2
BRANCH   1  22
ATOM     22  C   UNL     1       0.591   2.950   4.618  1.00  0.00     0.023 C 
BRANCH  22  23
ATOM     23  C   UNL     1       1.336   3.868   5.583  1.00  0.00     0.116 C 
BRANCH  23  24
ATOM     24  N   UNL     1       0.655   5.131   5.813  1.00  0.00    -0.352 N 
ATOM     25  C   UNL     1       0.451   5.821   6.979  1.00  0.00     0.251 C 
ATOM     26  H   UNL     1       0.284   5.557   5.007  1.00  0.00     0.163 HD
ATOM     27  O   UNL     1      -0.252   6.834   6.968  1.00  0.00    -0.269 OA
BRANCH  25  28
ATOM     28  C   UNL     1       1.031   5.355   8.258  1.00  0.00     0.039 A 
ATOM     29  C   UNL     1       0.241   5.426   9.410  1.00  0.00     0.014 A 
ATOM     30  C   UNL     1       2.342   4.879   8.345  1.00  0.00     0.014 A 
ATOM     31  C   UNL     1       0.745   4.973  10.631  1.00  0.00     0.010 A 
ATOM     32  C   UNL     1       2.819   4.360   9.549  1.00  0.00     0.010 A 
ATOM     33  C   UNL     1       2.027   4.406  10.707  1.00  0.00    -0.014 A 
BRANCH  33  34
ATOM     34  C   UNL     1       2.536   3.856  11.991  1.00  0.00     0.031 A 
ATOM     35  C   UNL     1       3.722   4.477  12.677  1.00  0.00     0.074 A 
ATOM     36  C   UNL     1       1.942   2.772  12.527  1.00  0.00     0.049 A 
ATOM     37  N   UNL     1       4.297   4.138  13.804  1.00  0.00    -0.248 NA
ATOM     38  C   UNL     1       4.362   5.613  11.997  1.00  0.00     0.031 C 
ATOM     39  C   UNL     1       0.821   2.043  11.932  1.00  0.00     0.029 A 
ATOM     40  N   UNL     1       2.198   2.093  13.692  1.00  0.00    -0.354 N 
ATOM     41  C   UNL     1       5.365   5.012  13.963  1.00  0.00     0.074 A 
ATOM     42  C   UNL     1       5.394   5.858  12.790  1.00  0.00     0.031 C 
ATOM     43  C   UNL     1       0.463   1.042  12.751  1.00  0.00     0.029 A 
ATOM     44  C   UNL     1       1.348   1.037  13.912  1.00  0.00     0.049 A 
ATOM     45  H   UNL     1       2.922   2.340  14.312  1.00  0.00     0.167 HD
ATOM     46  C   UNL     1       6.225   5.117  15.005  1.00  0.00     0.037 A 
ATOM     47  C   UNL     1       1.286   0.164  14.936  1.00  0.00     0.037 A 
ATOM     48  C   UNL     1       6.184   4.285  16.180  1.00  0.00     0.049 A 
ATOM     49  C   UNL     1       2.251   0.307  16.081  1.00  0.00     0.074 A 
ATOM     50  C   UNL     1       6.979   4.348  17.312  1.00  0.00     0.029 A 
ATOM     51  N   UNL     1       5.301   3.232  16.372  1.00  0.00    -0.354 N 
ATOM     52  N   UNL     1       3.207   1.186  16.256  1.00  0.00    -0.248 NA
ATOM     53  C   UNL     1       2.118  -0.660  17.180  1.00  0.00     0.031 C 
ATOM     54  C   UNL     1       6.609   3.304  18.167  1.00  0.00     0.029 A 
ATOM     55  C   UNL     1       5.545   2.625  17.595  1.00  0.00     0.049 A 
ATOM     56  H   UNL     1       4.603   2.957  15.734  1.00  0.00     0.167 HD
ATOM     57  C   UNL     1       3.769   0.899  17.493  1.00  0.00     0.074 A 
ATOM     58  C   UNL     1       3.032  -0.224  18.034  1.00  0.00     0.031 C 
ATOM     59  C   UNL     1       4.803   1.509  18.123  1.00  0.00     0.037 A 
BRANCH  46  60
ATOM     60  C   UNL     1       7.287   6.178  14.923  1.00  0.00     0.064 A 
ATOM     61  C   UNL     1       6.970   7.543  15.000  1.00  0.00     0.173 A 
ATOM     62  C   UNL     1       8.640   5.827  14.805  1.00  0.00     0.173 A 
ATOM     63  F   UNL     1       5.691   7.935  15.103  1.00  0.00    -0.203 F 
ATOM     64  C   UNL     1       7.964   8.516  14.931  1.00  0.00     0.198 A 
ATOM     65  C   UNL     1       9.634   6.801  14.769  1.00  0.00     0.198 A 
ATOM     66  F   UNL     1       9.001   4.536  14.735  1.00  0.00    -0.203 F 
ATOM     67  F   UNL     1       7.632   9.815  14.954  1.00  0.00    -0.200 F 
ATOM     68  C   UNL     1       9.296   8.145  14.823  1.00  0.00     0.200 A 
ATOM     69  F   UNL     1      10.922   6.440  14.679  1.00  0.00    -0.200 F 
ATOM     70  F   UNL     1      10.252   9.082  14.764  1.00  0.00    -0.200 F 
ENDBRANCH  46  60
BRANCH  47  71
ATOM     71  C   UNL     1       0.248  -0.900  14.943  1.00  0.00     0.064 A 
ATOM     72  C   UNL     1      -0.807  -0.871  15.865  1.00  0.00     0.173 A 
ATOM     73  C   UNL     1       0.295  -1.971  14.038  1.00  0.00     0.173 A 
ATOM     74  F   UNL     1      -0.883   0.121  16.765  1.00  0.00    -0.203 F 
ATOM     75  C   UNL     1      -1.763  -1.884  15.898  1.00  0.00     0.198 A 
ATOM     76  C   UNL     1      -0.679  -2.967  14.052  1.00  0.00     0.198 A 
ATOM     77  F   UNL     1       1.281  -2.043  13.133  1.00  0.00    -0.203 F 
ATOM     78  F   UNL     1      -2.732  -1.858  16.824  1.00  0.00    -0.200 F 
ATOM     79  C   UNL     1      -1.702  -2.928  14.988  1.00  0.00     0.200 A 
ATOM     80  F   UNL     1      -0.624  -3.967  13.162  1.00  0.00    -0.200 F 
ATOM     81  F   UNL     1      -2.622  -3.901  15.019  1.00  0.00    -0.200 F 
ENDBRANCH  47  71
BRANCH  59  82
ATOM     82  C   UNL     1       5.175   0.994  19.485  1.00  0.00     0.064 A 
ATOM     83  C   UNL     1       5.773  -0.263  19.662  1.00  0.00     0.173 A 
ATOM     84  C   UNL     1       4.939   1.774  20.627  1.00  0.00     0.173 A 
ATOM     85  F   UNL     1       6.007  -1.054  18.604  1.00  0.00    -0.203 F 
ATOM     86  C   UNL     1       6.085  -0.735  20.934  1.00  0.00     0.198 A 
ATOM     87  C   UNL     1       5.284   1.313  21.894  1.00  0.00     0.198 A 
ATOM     88  F   UNL     1       4.377   2.987  20.514  1.00  0.00    -0.203 F 
ATOM     89  F   UNL     1       6.598  -1.964  21.083  1.00  0.00    -0.200 F 
ATOM     90  C   UNL     1       5.846   0.055  22.048  1.00  0.00     0.200 A 
ATOM     91  F   UNL     1       5.065   2.084  22.968  1.00  0.00    -0.200 F 
ATOM     92  F   UNL     1       6.146  -0.401  23.272  1.00  0.00    -0.200 F 
ENDBRANCH  59  82
ENDBRANCH  33  34
ENDBRANCH  25  28
ENDBRANCH  23  24
ENDBRANCH  22  23
ENDBRANCH   1  22
TORSDOF 14
