REMARK SMILES O=C(NCCCCNC(=O)c1ccc(-c2c3nc(c(-c4c(F)c(F)c(F)c(F)c4F)c4ccc([nH]4)c(-c4c(F)c(F)c(F)c(F)c4F)c4nc(c(-c5c(F)c(F)c(F)c(F)c5F)c5ccc2[nH]5)C=C4)C=C3)cc1)c1ccc(Cc2nc3ccccc3s2)cc1
REMARK SMILES IDX 5 1 4 2 3 3 1 4 2 5 74 7 75 8 89 9 76 10 88 11 77 12 78 13
REMARK SMILES IDX 79 14 80 15 87 16 81 17 86 18 82 19 85 20 83 21 84 22 6 23
REMARK SMILES IDX 7 24 8 25 9 26 10 28 11 29 12 30 73 31 13 32 72 33 14 34
REMARK SMILES IDX 15 35 16 36 66 37 17 38 71 39 65 40 67 41 18 42 70 43 64 44
REMARK SMILES IDX 63 45 19 47 51 48 31 49 50 50 32 51 35 52 49 53 68 54 33 55
REMARK SMILES IDX 34 56 48 58 69 59 36 60 20 61 21 62 29 63 22 64 23 65 27 66
REMARK SMILES IDX 30 67 24 68 25 69 28 70 26 71 52 72 53 73 61 74 54 75 55 76
REMARK SMILES IDX 59 77 62 78 56 79 57 80 60 81 58 82 37 83 38 84 46 85 39 86
REMARK SMILES IDX 40 87 44 88 47 89 41 90 42 91 45 92 43 93
REMARK H PARENT 3 6 8 27 67 46 35 57
REMARK Flexibility Score: inf
ROOT
ATOM      1  C   UNL     1       5.055  -0.310   2.277  1.00  0.00     0.023 C 
ENDROOT
BRANCH   1   2
ATOM      2  C   UNL     1       4.683  -0.697   0.848  1.00  0.00     0.116 C 
BRANCH   2   3
ATOM      3  N   UNL     1       3.244  -0.766   0.646  1.00  0.00    -0.352 N 
ATOM      4  O   UNL     1       1.224  -0.090  -0.097  1.00  0.00    -0.269 OA
ATOM      5  C   UNL     1       2.445  -0.005  -0.173  1.00  0.00     0.251 C 
ATOM      6  H   UNL     1       2.776  -1.455   1.171  1.00  0.00     0.163 HD
BRANCH   5   7
ATOM      7  C   UNL     1       3.061   0.938  -1.128  1.00  0.00     0.039 A 
ATOM      8  C   UNL     1       4.029   0.504  -2.038  1.00  0.00     0.014 A 
ATOM      9  C   UNL     1       2.667   2.276  -1.097  1.00  0.00     0.014 A 
ATOM     10  C   UNL     1       4.678   1.433  -2.851  1.00  0.00     0.005 A 
ATOM     11  C   UNL     1       3.310   3.203  -1.919  1.00  0.00     0.005 A 
ATOM     12  C   UNL     1       4.338   2.793  -2.783  1.00  0.00    -0.041 A 
BRANCH  12  13
ATOM     13  C   UNL     1       5.126   3.813  -3.579  1.00  0.00     0.103 C 
BRANCH  13  14
ATOM     14  C   UNL     1       6.457   4.149  -2.958  1.00  0.00     0.098 A 
ATOM     15  N   UNL     1       6.755   4.020  -1.681  1.00  0.00    -0.241 NA
ATOM     16  S   UNL     1       7.718   4.776  -3.945  1.00  0.00    -0.118 S 
ATOM     17  C   UNL     1       8.061   4.413  -1.450  1.00  0.00     0.082 A 
ATOM     18  C   UNL     1       8.755   4.866  -2.573  1.00  0.00     0.055 A 
ATOM     19  C   UNL     1       8.722   4.393  -0.205  1.00  0.00     0.030 A 
ATOM     20  C   UNL     1      10.087   5.307  -2.493  1.00  0.00     0.021 A 
ATOM     21  C   UNL     1      10.048   4.827  -0.115  1.00  0.00     0.002 A 
ATOM     22  C   UNL     1      10.720   5.279  -1.246  1.00  0.00     0.002 A 
ENDBRANCH  13  14
ENDBRANCH  12  13
ENDBRANCH   5   7
ENDBRANCH   2   3
ENDBRANCH   1   2
BRANCH   1  23
ATOM     23  C   UNL     1       4.585  -1.281   3.359  1.00  0.00     0.023 C 
BRANCH  23  24
ATOM     24  C   UNL     1       4.991  -2.735   3.155  1.00  0.00     0.116 C 
BRANCH  24  25
ATOM     25  N   UNL     1       6.432  -2.927   3.120  1.00  0.00    -0.352 N 
ATOM     26  C   UNL     1       7.209  -3.842   3.789  1.00  0.00     0.251 C 
ATOM     27  H   UNL     1       6.923  -2.312   2.529  1.00  0.00     0.163 HD
ATOM     28  O   UNL     1       8.432  -3.764   3.730  1.00  0.00    -0.269 OA
BRANCH  26  29
ATOM     29  C   UNL     1       6.580  -4.907   4.604  1.00  0.00     0.039 A 
ATOM     30  C   UNL     1       7.146  -5.229   5.841  1.00  0.00     0.014 A 
ATOM     31  C   UNL     1       5.458  -5.605   4.150  1.00  0.00     0.014 A 
ATOM     32  C   UNL     1       6.563  -6.217   6.638  1.00  0.00     0.010 A 
ATOM     33  C   UNL     1       4.826  -6.526   4.983  1.00  0.00     0.010 A 
ATOM     34  C   UNL     1       5.383  -6.859   6.227  1.00  0.00    -0.014 A 
BRANCH  34  35
ATOM     35  C   UNL     1       4.755  -7.920   7.058  1.00  0.00     0.031 A 
ATOM     36  C   UNL     1       4.651  -9.326   6.525  1.00  0.00     0.074 A 
ATOM     37  C   UNL     1       4.252  -7.622   8.271  1.00  0.00     0.049 A 
ATOM     38  N   UNL     1       4.093 -10.381   7.066  1.00  0.00    -0.248 NA
ATOM     39  C   UNL     1       5.230  -9.575   5.194  1.00  0.00     0.031 C 
ATOM     40  C   UNL     1       4.249  -6.293   8.884  1.00  0.00     0.029 A 
ATOM     41  N   UNL     1       3.636  -8.418   9.206  1.00  0.00    -0.354 N 
ATOM     42  C   UNL     1       4.252 -11.408   6.144  1.00  0.00     0.074 A 
ATOM     43  C   UNL     1       4.890 -10.837   4.979  1.00  0.00     0.031 C 
ATOM     44  C   UNL     1       3.680  -6.369  10.099  1.00  0.00     0.029 A 
ATOM     45  C   UNL     1       3.245  -7.742  10.336  1.00  0.00     0.049 A 
ATOM     46  H   UNL     1       3.490  -9.383   9.078  1.00  0.00     0.167 HD
ATOM     47  C   UNL     1       3.932 -12.718   6.269  1.00  0.00     0.037 A 
ATOM     48  C   UNL     1       2.601  -8.180  11.435  1.00  0.00     0.037 A 
ATOM     49  C   UNL     1       3.311 -13.292   7.434  1.00  0.00     0.049 A 
ATOM     50  C   UNL     1       2.243  -9.641  11.540  1.00  0.00     0.074 A 
ATOM     51  C   UNL     1       2.954 -14.609   7.663  1.00  0.00     0.029 A 
ATOM     52  N   UNL     1       2.961 -12.579   8.571  1.00  0.00    -0.354 N 
ATOM     53  N   UNL     1       2.444 -10.611  10.681  1.00  0.00    -0.248 NA
ATOM     54  C   UNL     1       1.584 -10.072  12.782  1.00  0.00     0.031 C 
ATOM     55  C   UNL     1       2.354 -14.688   8.924  1.00  0.00     0.029 A 
ATOM     56  C   UNL     1       2.393 -13.431   9.505  1.00  0.00     0.049 A 
ATOM     57  H   UNL     1       3.096 -11.612   8.697  1.00  0.00     0.167 HD
ATOM     58  C   UNL     1       1.981 -11.768  11.295  1.00  0.00     0.074 A 
ATOM     59  C   UNL     1       1.505 -11.382  12.605  1.00  0.00     0.031 C 
ATOM     60  C   UNL     1       1.952 -13.037  10.818  1.00  0.00     0.037 A 
BRANCH  47  61
ATOM     61  C   UNL     1       4.270 -13.629   5.124  1.00  0.00     0.064 A 
ATOM     62  C   UNL     1       5.601 -13.943   4.809  1.00  0.00     0.173 A 
ATOM     63  C   UNL     1       3.258 -14.235   4.365  1.00  0.00     0.173 A 
ATOM     64  F   UNL     1       6.608 -13.380   5.494  1.00  0.00    -0.203 F 
ATOM     65  C   UNL     1       5.907 -14.810   3.764  1.00  0.00     0.198 A 
ATOM     66  C   UNL     1       3.566 -15.129   3.342  1.00  0.00     0.198 A 
ATOM     67  F   UNL     1       1.968 -13.974   4.625  1.00  0.00    -0.203 F 
ATOM     68  F   UNL     1       7.187 -15.058   3.453  1.00  0.00    -0.200 F 
ATOM     69  C   UNL     1       4.890 -15.410   3.038  1.00  0.00     0.200 A 
ATOM     70  F   UNL     1       2.582 -15.719   2.650  1.00  0.00    -0.200 F 
ATOM     71  F   UNL     1       5.185 -16.257   2.042  1.00  0.00    -0.200 F 
ENDBRANCH  47  61
BRANCH  48  72
ATOM     72  C   UNL     1       2.260  -7.240  12.538  1.00  0.00     0.064 A 
ATOM     73  C   UNL     1       2.845  -7.367  13.807  1.00  0.00     0.173 A 
ATOM     74  C   UNL     1       1.302  -6.231  12.363  1.00  0.00     0.173 A 
ATOM     75  F   UNL     1       3.755  -8.326  14.032  1.00  0.00    -0.203 F 
ATOM     76  C   UNL     1       2.450  -6.555  14.868  1.00  0.00     0.198 A 
ATOM     77  C   UNL     1       0.934  -5.395  13.416  1.00  0.00     0.198 A 
ATOM     78  F   UNL     1       0.716  -6.059  11.169  1.00  0.00    -0.203 F 
ATOM     79  F   UNL     1       2.969  -6.751  16.088  1.00  0.00    -0.200 F 
ATOM     80  C   UNL     1       1.496  -5.569  14.672  1.00  0.00     0.200 A 
ATOM     81  F   UNL     1       0.024  -4.432  13.217  1.00  0.00    -0.200 F 
ATOM     82  F   UNL     1       1.108  -4.796  15.695  1.00  0.00    -0.200 F 
ENDBRANCH  48  72
BRANCH  60  83
ATOM     83  C   UNL     1       1.462 -14.112  11.747  1.00  0.00     0.064 A 
ATOM     84  C   UNL     1       0.121 -14.197  12.149  1.00  0.00     0.173 A 
ATOM     85  C   UNL     1       2.354 -15.082  12.232  1.00  0.00     0.173 A 
ATOM     86  F   UNL     1      -0.771 -13.290  11.724  1.00  0.00    -0.203 F 
ATOM     87  C   UNL     1      -0.298 -15.184  13.039  1.00  0.00     0.198 A 
ATOM     88  C   UNL     1       1.924 -16.090  13.089  1.00  0.00     0.198 A 
ATOM     89  F   UNL     1       3.646 -15.055  11.869  1.00  0.00    -0.203 F 
ATOM     90  F   UNL     1      -1.569 -15.202  13.464  1.00  0.00    -0.200 F 
ATOM     91  C   UNL     1       0.602 -16.132  13.503  1.00  0.00     0.200 A 
ATOM     92  F   UNL     1       2.791 -17.015  13.522  1.00  0.00    -0.200 F 
ATOM     93  F   UNL     1       0.196 -17.080  14.359  1.00  0.00    -0.200 F 
ENDBRANCH  60  83
ENDBRANCH  34  35
ENDBRANCH  26  29
ENDBRANCH  24  25
ENDBRANCH  23  24
ENDBRANCH   1  23
TORSDOF 13
