REMARK SMILES Cc1c(NC(=O)C(F)(F)F)cccc1C(=O)NCCCCNC(=O)c1ccc(-c2c3nc(c(-c4c(F)c(F)c(F)c(F)c4F)c4ccc([nH]4)c(-c4c(F)c(F)c(F)c(F)c4F)c4nc(c(-c5c(F)c(F)c(F)c(F)c5F)c5ccc2[nH]5)C=C4)C=C3)cc1
REMARK SMILES IDX 19 1 18 2 17 3 15 4 16 5 14 7 1 8 2 9 3 10 11 11 13 12 12 13
REMARK SMILES IDX 4 14 5 15 6 17 7 18 8 19 9 20 10 21 20 22 21 23 22 24 23 25
REMARK SMILES IDX 24 27 25 28 26 29 87 30 27 31 86 32 28 33 29 34 30 35 80 36
REMARK SMILES IDX 31 37 85 38 79 39 81 40 32 41 84 42 78 43 77 44 33 46 65 47
REMARK SMILES IDX 45 48 64 49 46 50 49 51 63 52 82 53 47 54 48 55 62 57 83 58
REMARK SMILES IDX 50 59 34 60 35 61 43 62 36 63 37 64 41 65 44 66 38 67 39 68
REMARK SMILES IDX 42 69 40 70 66 71 67 72 75 73 68 74 69 75 73 76 76 77 70 78
REMARK SMILES IDX 71 79 74 80 72 81 51 82 52 83 60 84 53 85 54 86 58 87 61 88
REMARK SMILES IDX 55 89 56 90 59 91 57 92
REMARK H PARENT 17 6 4 16 22 26 81 45 49 56
REMARK Flexibility Score: inf
ROOT
ATOM      1  C   UNL     1       4.180   1.274  -1.238  1.00  0.00     0.023 C 
ENDROOT
BRANCH   1   2
ATOM      2  C   UNL     1       3.386   1.655   0.026  1.00  0.00     0.116 C 
BRANCH   2   3
ATOM      3  N   UNL     1       2.214   2.435  -0.321  1.00  0.00    -0.352 N 
ATOM      4  C   UNL     1       0.879   2.182  -0.497  1.00  0.00     0.251 C 
ATOM      5  O   UNL     1       0.217   3.154  -0.877  1.00  0.00    -0.269 OA
ATOM      6  H   UNL     1       2.432   3.384  -0.467  1.00  0.00     0.163 HD
BRANCH   4   7
ATOM      7  C   UNL     1       0.141   0.908  -0.185  1.00  0.00     0.044 A 
ATOM      8  C   UNL     1       1.760  -0.800  -1.164  1.00  0.00     0.047 C 
ATOM      9  C   UNL     1       0.545  -0.436  -0.361  1.00  0.00    -0.015 A 
ATOM     10  C   UNL     1      -0.300  -1.505   0.067  1.00  0.00     0.045 A 
ATOM     11  C   UNL     1      -1.607  -1.228   0.458  1.00  0.00     0.026 A 
ATOM     12  C   UNL     1      -1.185   1.134   0.234  1.00  0.00     0.014 A 
ATOM     13  C   UNL     1      -2.059   0.085   0.508  1.00  0.00     0.003 A 
BRANCH  10  14
ATOM     14  N   UNL     1       0.269  -2.796   0.126  1.00  0.00    -0.318 N 
ATOM     15  C   UNL     1      -0.227  -4.069   0.218  1.00  0.00     0.330 C 
ATOM     16  H   UNL     1       1.253  -2.776   0.094  1.00  0.00     0.170 HD
ATOM     17  O   UNL     1       0.622  -4.954   0.408  1.00  0.00    -0.264 OA
BRANCH  15  18
ATOM     18  C   UNL     1      -1.715  -4.403   0.058  1.00  0.00     0.471 C 
ATOM     19  F   UNL     1      -2.435  -4.131   1.182  1.00  0.00    -0.162 F 
ATOM     20  F   UNL     1      -2.306  -3.724  -0.964  1.00  0.00    -0.162 F 
ATOM     21  F   UNL     1      -1.925  -5.725  -0.207  1.00  0.00    -0.162 F 
ENDBRANCH  15  18
ENDBRANCH  10  14
ENDBRANCH   4   7
ENDBRANCH   2   3
ENDBRANCH   1   2
BRANCH   1  22
ATOM     22  C   UNL     1       4.941   2.420  -1.901  1.00  0.00     0.023 C 
BRANCH  22  23
ATOM     23  C   UNL     1       6.302   2.660  -1.276  1.00  0.00     0.116 C 
BRANCH  23  24
ATOM     24  N   UNL     1       7.364   1.792  -1.777  1.00  0.00    -0.352 N 
ATOM     25  C   UNL     1       8.665   1.645  -1.321  1.00  0.00     0.251 C 
ATOM     26  H   UNL     1       7.122   1.230  -2.548  1.00  0.00     0.163 HD
ATOM     27  O   UNL     1       9.448   0.909  -1.916  1.00  0.00    -0.269 OA
BRANCH  25  28
ATOM     28  C   UNL     1       9.056   2.248  -0.022  1.00  0.00     0.039 A 
ATOM     29  C   UNL     1       9.702   1.423   0.907  1.00  0.00     0.014 A 
ATOM     30  C   UNL     1       8.514   3.461   0.380  1.00  0.00     0.014 A 
ATOM     31  C   UNL     1       9.515   1.661   2.264  1.00  0.00     0.010 A 
ATOM     32  C   UNL     1       8.197   3.614   1.712  1.00  0.00     0.010 A 
ATOM     33  C   UNL     1       8.629   2.666   2.645  1.00  0.00    -0.014 A 
BRANCH  33  34
ATOM     34  C   UNL     1       7.974   2.706   3.949  1.00  0.00     0.031 A 
ATOM     35  C   UNL     1       8.226   3.827   4.876  1.00  0.00     0.074 A 
ATOM     36  C   UNL     1       7.024   1.785   4.232  1.00  0.00     0.049 A 
ATOM     37  N   UNL     1       7.957   3.808   6.137  1.00  0.00    -0.248 NA
ATOM     38  C   UNL     1       8.870   5.063   4.452  1.00  0.00     0.031 C 
ATOM     39  C   UNL     1       6.030   1.836   5.301  1.00  0.00     0.029 A 
ATOM     40  N   UNL     1       6.888   0.492   3.695  1.00  0.00    -0.354 N 
ATOM     41  C   UNL     1       8.108   5.089   6.623  1.00  0.00     0.074 A 
ATOM     42  C   UNL     1       8.768   5.802   5.559  1.00  0.00     0.031 C 
ATOM     43  C   UNL     1       5.598   0.590   5.552  1.00  0.00     0.029 A 
ATOM     44  C   UNL     1       6.412  -0.312   4.757  1.00  0.00     0.049 A 
ATOM     45  H   UNL     1       7.083   0.206   2.773  1.00  0.00     0.167 HD
ATOM     46  C   UNL     1       7.523   5.408   7.817  1.00  0.00     0.037 A 
ATOM     47  C   UNL     1       7.162  -1.332   5.266  1.00  0.00     0.037 A 
ATOM     48  C   UNL     1       7.012   4.200   8.476  1.00  0.00     0.049 A 
ATOM     49  C   UNL     1       7.506  -1.174   6.729  1.00  0.00     0.074 A 
ATOM     50  C   UNL     1       5.743   3.659   8.604  1.00  0.00     0.029 A 
ATOM     51  N   UNL     1       7.904   3.202   8.861  1.00  0.00    -0.354 N 
ATOM     52  N   UNL     1       7.419  -0.045   7.376  1.00  0.00    -0.248 NA
ATOM     53  C   UNL     1       8.013  -2.259   7.565  1.00  0.00     0.031 C 
ATOM     54  C   UNL     1       5.881   2.304   9.003  1.00  0.00     0.029 A 
ATOM     55  C   UNL     1       7.230   2.029   9.141  1.00  0.00     0.049 A 
ATOM     56  H   UNL     1       8.879   3.317   8.925  1.00  0.00     0.167 HD
ATOM     57  C   UNL     1       7.873  -0.215   8.657  1.00  0.00     0.074 A 
ATOM     58  C   UNL     1       8.211  -1.624   8.735  1.00  0.00     0.031 C 
ATOM     59  C   UNL     1       7.951   0.827   9.537  1.00  0.00     0.037 A 
BRANCH  46  60
ATOM     60  C   UNL     1       7.142   6.818   8.256  1.00  0.00     0.064 A 
ATOM     61  C   UNL     1       6.140   7.015   9.235  1.00  0.00     0.173 A 
ATOM     62  C   UNL     1       7.634   8.015   7.699  1.00  0.00     0.173 A 
ATOM     63  F   UNL     1       5.648   5.995   9.949  1.00  0.00    -0.203 F 
ATOM     64  C   UNL     1       5.597   8.273   9.526  1.00  0.00     0.198 A 
ATOM     65  C   UNL     1       7.071   9.269   7.963  1.00  0.00     0.198 A 
ATOM     66  F   UNL     1       8.718   8.045   6.925  1.00  0.00    -0.203 F 
ATOM     67  F   UNL     1       4.629   8.383  10.447  1.00  0.00    -0.200 F 
ATOM     68  C   UNL     1       6.039   9.397   8.864  1.00  0.00     0.200 A 
ATOM     69  F   UNL     1       7.546  10.352   7.331  1.00  0.00    -0.200 F 
ATOM     70  F   UNL     1       5.499  10.597   9.112  1.00  0.00    -0.200 F 
ENDBRANCH  46  60
BRANCH  47  71
ATOM     71  C   UNL     1       8.030  -1.983   4.249  1.00  0.00     0.064 A 
ATOM     72  C   UNL     1       7.410  -2.653   3.177  1.00  0.00     0.173 A 
ATOM     73  C   UNL     1       9.378  -1.638   4.103  1.00  0.00     0.173 A 
ATOM     74  F   UNL     1       6.115  -2.999   3.263  1.00  0.00    -0.203 F 
ATOM     75  C   UNL     1       8.073  -2.862   1.970  1.00  0.00     0.198 A 
ATOM     76  C   UNL     1      10.044  -1.860   2.895  1.00  0.00     0.198 A 
ATOM     77  F   UNL     1      10.016  -0.973   5.076  1.00  0.00    -0.203 F 
ATOM     78  F   UNL     1       7.417  -3.396   0.930  1.00  0.00    -0.200 F 
ATOM     79  C   UNL     1       9.382  -2.438   1.821  1.00  0.00     0.200 A 
ATOM     80  F   UNL     1      11.299  -1.415   2.736  1.00  0.00    -0.200 F 
ATOM     81  F   UNL     1       9.992  -2.543   0.632  1.00  0.00    -0.200 F 
ENDBRANCH  47  71
BRANCH  59  82
ATOM     82  C   UNL     1       8.641   0.800  10.878  1.00  0.00     0.064 A 
ATOM     83  C   UNL     1       9.759   0.002  11.169  1.00  0.00     0.173 A 
ATOM     84  C   UNL     1       8.270   1.722  11.887  1.00  0.00     0.173 A 
ATOM     85  F   UNL     1      10.278  -0.830  10.256  1.00  0.00    -0.203 F 
ATOM     86  C   UNL     1      10.422   0.079  12.398  1.00  0.00     0.198 A 
ATOM     87  C   UNL     1       8.969   1.837  13.088  1.00  0.00     0.198 A 
ATOM     88  F   UNL     1       7.233   2.558  11.724  1.00  0.00    -0.203 F 
ATOM     89  F   UNL     1      11.461  -0.732  12.643  1.00  0.00    -0.200 F 
ATOM     90  C   UNL     1      10.036   1.004  13.350  1.00  0.00     0.200 A 
ATOM     91  F   UNL     1       8.614   2.774  13.978  1.00  0.00    -0.200 F 
ATOM     92  F   UNL     1      10.705   1.107  14.506  1.00  0.00    -0.200 F 
ENDBRANCH  59  82
ENDBRANCH  33  34
ENDBRANCH  25  28
ENDBRANCH  23  24
ENDBRANCH  22  23
ENDBRANCH   1  22
TORSDOF 13
