REMARK SMILES COc1ccc([C@@H](CC(=O)NCCCCNC(=O)c2ccc(-c3c4nc(c(-c5c(F)c(F)c(F)c(F)c5F)c5ccc([nH]5)c(-c5c(F)c(F)c(F)c(F)c5F)c5nc(c(-c6c(F)c(F)c(F)c(F)c6F)c6ccc3[nH]6)C=C5)C=C4)cc2)N2C(=O)[C@H]3CC=CC[C@H]3C2=O)cc1OC
REMARK SMILES IDX 13 1 12 2 11 3 9 4 10 5 8 7 7 8 6 9 3 10 4 11 94 12 5 13
REMARK SMILES IDX 93 14 2 15 1 16 95 17 96 18 82 19 83 20 91 21 84 22 85 23
REMARK SMILES IDX 90 24 92 25 86 26 89 27 87 28 88 29 14 30 15 31 16 32 17 33
REMARK SMILES IDX 18 35 19 36 20 37 81 38 21 39 80 40 22 41 23 42 24 43 74 44
REMARK SMILES IDX 25 45 79 46 73 47 75 48 26 49 78 50 72 51 71 52 27 54 59 55
REMARK SMILES IDX 39 56 58 57 40 58 43 59 57 60 76 61 41 62 42 63 56 65 77 66
REMARK SMILES IDX 44 67 28 68 29 69 37 70 30 71 31 72 35 73 38 74 32 75 33 76
REMARK SMILES IDX 36 77 34 78 60 79 61 80 69 81 62 82 63 83 67 84 70 85 64 86
REMARK SMILES IDX 65 87 68 88 66 89 45 90 46 91 54 92 47 93 48 94 52 95 55 96
REMARK SMILES IDX 49 97 50 98 53 99 51 100
REMARK H PARENT 11 6 16 34 75 53 43 64
REMARK Flexibility Score: inf
ROOT
ATOM      1  C   UNL     1      -0.218  -1.502   4.287  1.00  0.00     0.023 C 
ENDROOT
BRANCH   1   2
ATOM      2  C   UNL     1       0.456  -1.345   5.640  1.00  0.00     0.116 C 
BRANCH   2   3
ATOM      3  N   UNL     1       0.182  -2.524   6.432  1.00  0.00    -0.356 N 
ATOM      4  C   UNL     1       0.708  -3.775   6.272  1.00  0.00     0.222 C 
ATOM      5  O   UNL     1       0.036  -4.708   6.711  1.00  0.00    -0.275 OA
ATOM      6  H   UNL     1      -0.457  -2.412   7.172  1.00  0.00     0.163 HD
BRANCH   4   7
ATOM      7  C   UNL     1       2.094  -3.971   5.660  1.00  0.00     0.130 C 
BRANCH   7   8
ATOM      8  C   UNL     1       2.202  -4.772   4.325  1.00  0.00     0.133 C 
BRANCH   8   9
ATOM      9  C   UNL     1       1.995  -3.821   3.128  1.00  0.00    -0.020 A 
ATOM     10  C   UNL     1       1.607  -1.824   1.131  1.00  0.00     0.160 A 
ATOM     11  C   UNL     1       0.635  -2.799   1.364  1.00  0.00     0.051 A 
ATOM     12  C   UNL     1       2.824  -1.908   1.827  1.00  0.00     0.161 A 
ATOM     13  C   UNL     1       0.831  -3.787   2.345  1.00  0.00     0.010 A 
ATOM     14  C   UNL     1       3.000  -2.887   2.819  1.00  0.00     0.056 A 
BRANCH  10  15
ATOM     15  O   UNL     1       1.411  -0.728   0.339  1.00  0.00    -0.493 OA
ATOM     16  C   UNL     1       0.301  -0.707  -0.545  1.00  0.00     0.278 C 
ENDBRANCH  10  15
BRANCH  12  17
ATOM     17  O   UNL     1       3.899  -1.064   1.693  1.00  0.00    -0.493 OA
ATOM     18  C   UNL     1       4.073  -0.462   0.413  1.00  0.00     0.278 C 
ENDBRANCH  12  17
ENDBRANCH   8   9
BRANCH   8  19
ATOM     19  N   UNL     1       1.422  -6.017   4.276  1.00  0.00    -0.274 N 
ATOM     20  C   UNL     1       1.298  -6.872   5.333  1.00  0.00     0.234 C 
ATOM     21  C   UNL     1       1.256  -6.771   3.153  1.00  0.00     0.234 C 
ATOM     22  O   UNL     1       1.937  -6.845   6.377  1.00  0.00    -0.274 OA
ATOM     23  C   UNL     1       0.360  -7.997   4.960  1.00  0.00     0.095 C 
ATOM     24  C   UNL     1       0.262  -7.865   3.440  1.00  0.00     0.095 C 
ATOM     25  O   UNL     1       1.817  -6.642   2.074  1.00  0.00    -0.274 OA
ATOM     26  C   UNL     1      -0.949  -7.874   5.737  1.00  0.00     0.041 C 
ATOM     27  C   UNL     1      -1.094  -7.449   2.856  1.00  0.00     0.041 C 
ATOM     28  C   UNL     1      -1.917  -6.905   5.129  1.00  0.00    -0.030 C 
ATOM     29  C   UNL     1      -1.979  -6.704   3.808  1.00  0.00    -0.030 C 
ENDBRANCH   8  19
ENDBRANCH   7   8
ENDBRANCH   4   7
ENDBRANCH   2   3
ENDBRANCH   1   2
BRANCH   1  30
ATOM     30  C   UNL     1      -1.628  -0.966   4.154  1.00  0.00     0.023 C 
BRANCH  30  31
ATOM     31  C   UNL     1      -1.698   0.545   4.097  1.00  0.00     0.116 C 
BRANCH  31  32
ATOM     32  N   UNL     1      -0.952   1.139   2.990  1.00  0.00    -0.352 N 
ATOM     33  C   UNL     1      -1.317   2.160   2.142  1.00  0.00     0.251 C 
ATOM     34  H   UNL     1      -0.061   0.755   2.828  1.00  0.00     0.163 HD
ATOM     35  O   UNL     1      -0.586   2.500   1.218  1.00  0.00    -0.269 OA
BRANCH  33  36
ATOM     36  C   UNL     1      -2.643   2.790   2.306  1.00  0.00     0.039 A 
ATOM     37  C   UNL     1      -3.438   2.990   1.175  1.00  0.00     0.014 A 
ATOM     38  C   UNL     1      -3.141   3.073   3.577  1.00  0.00     0.014 A 
ATOM     39  C   UNL     1      -4.772   3.363   1.333  1.00  0.00     0.010 A 
ATOM     40  C   UNL     1      -4.498   3.301   3.737  1.00  0.00     0.010 A 
ATOM     41  C   UNL     1      -5.329   3.458   2.618  1.00  0.00    -0.014 A 
BRANCH  41  42
ATOM     42  C   UNL     1      -6.771   3.736   2.832  1.00  0.00     0.031 A 
ATOM     43  C   UNL     1      -7.180   4.922   3.660  1.00  0.00     0.074 A 
ATOM     44  C   UNL     1      -7.699   2.868   2.386  1.00  0.00     0.049 A 
ATOM     45  N   UNL     1      -8.365   5.261   4.098  1.00  0.00    -0.248 NA
ATOM     46  C   UNL     1      -6.098   5.813   4.112  1.00  0.00     0.031 C 
ATOM     47  C   UNL     1      -7.425   1.630   1.653  1.00  0.00     0.029 A 
ATOM     48  N   UNL     1      -9.066   2.885   2.504  1.00  0.00    -0.354 N 
ATOM     49  C   UNL     1      -8.160   6.365   4.915  1.00  0.00     0.074 A 
ATOM     50  C   UNL     1      -6.734   6.595   4.969  1.00  0.00     0.031 C 
ATOM     51  C   UNL     1      -8.586   1.022   1.363  1.00  0.00     0.029 A 
ATOM     52  C   UNL     1      -9.684   1.806   1.920  1.00  0.00     0.049 A 
ATOM     53  H   UNL     1      -9.558   3.603   2.965  1.00  0.00     0.167 HD
ATOM     54  C   UNL     1      -9.079   7.139   5.537  1.00  0.00     0.037 A 
ATOM     55  C   UNL     1     -10.989   1.486   1.846  1.00  0.00     0.037 A 
ATOM     56  C   UNL     1     -10.498   6.949   5.413  1.00  0.00     0.049 A 
ATOM     57  C   UNL     1     -12.002   2.411   2.462  1.00  0.00     0.074 A 
ATOM     58  C   UNL     1     -11.523   7.738   5.902  1.00  0.00     0.029 A 
ATOM     59  N   UNL     1     -11.092   5.892   4.737  1.00  0.00    -0.354 N 
ATOM     60  N   UNL     1     -11.805   3.503   3.160  1.00  0.00    -0.248 NA
ATOM     61  C   UNL     1     -13.417   2.067   2.272  1.00  0.00     0.031 C 
ATOM     62  C   UNL     1     -12.738   7.141   5.550  1.00  0.00     0.029 A 
ATOM     63  C   UNL     1     -12.470   6.001   4.807  1.00  0.00     0.049 A 
ATOM     64  H   UNL     1     -10.605   5.171   4.276  1.00  0.00     0.167 HD
ATOM     65  C   UNL     1     -13.066   3.986   3.479  1.00  0.00     0.074 A 
ATOM     66  C   UNL     1     -14.023   3.077   2.882  1.00  0.00     0.031 C 
ATOM     67  C   UNL     1     -13.402   5.082   4.203  1.00  0.00     0.037 A 
BRANCH  54  68
ATOM     68  C   UNL     1      -8.567   8.265   6.388  1.00  0.00     0.064 A 
ATOM     69  C   UNL     1      -7.902   9.370   5.833  1.00  0.00     0.173 A 
ATOM     70  C   UNL     1      -8.723   8.229   7.782  1.00  0.00     0.173 A 
ATOM     71  F   UNL     1      -7.712   9.447   4.506  1.00  0.00    -0.203 F 
ATOM     72  C   UNL     1      -7.366  10.368   6.643  1.00  0.00     0.198 A 
ATOM     73  C   UNL     1      -8.218   9.248   8.586  1.00  0.00     0.198 A 
ATOM     74  F   UNL     1      -9.354   7.200   8.366  1.00  0.00    -0.203 F 
ATOM     75  F   UNL     1      -6.667  11.370   6.093  1.00  0.00    -0.200 F 
ATOM     76  C   UNL     1      -7.528  10.308   8.018  1.00  0.00     0.200 A 
ATOM     77  F   UNL     1      -8.385   9.194   9.915  1.00  0.00    -0.200 F 
ATOM     78  F   UNL     1      -7.005  11.264   8.797  1.00  0.00    -0.200 F 
ENDBRANCH  54  68
BRANCH  55  79
ATOM     79  C   UNL     1     -11.403   0.257   1.123  1.00  0.00     0.064 A 
ATOM     80  C   UNL     1     -12.015   0.336  -0.135  1.00  0.00     0.173 A 
ATOM     81  C   UNL     1     -11.163  -1.019   1.654  1.00  0.00     0.173 A 
ATOM     82  F   UNL     1     -12.279   1.534  -0.676  1.00  0.00    -0.203 F 
ATOM     83  C   UNL     1     -12.380  -0.815  -0.832  1.00  0.00     0.198 A 
ATOM     84  C   UNL     1     -11.507  -2.169   0.946  1.00  0.00     0.198 A 
ATOM     85  F   UNL     1     -10.570  -1.147   2.850  1.00  0.00    -0.203 F 
ATOM     86  F   UNL     1     -12.989  -0.710  -2.021  1.00  0.00    -0.200 F 
ATOM     87  C   UNL     1     -12.120  -2.066  -0.294  1.00  0.00     0.200 A 
ATOM     88  F   UNL     1     -11.239  -3.376   1.462  1.00  0.00    -0.200 F 
ATOM     89  F   UNL     1     -12.458  -3.172  -0.970  1.00  0.00    -0.200 F 
ENDBRANCH  55  79
BRANCH  67  90
ATOM     90  C   UNL     1     -14.864   5.368   4.376  1.00  0.00     0.064 A 
ATOM     91  C   UNL     1     -15.663   4.601   5.236  1.00  0.00     0.173 A 
ATOM     92  C   UNL     1     -15.458   6.453   3.715  1.00  0.00     0.173 A 
ATOM     93  F   UNL     1     -15.142   3.545   5.878  1.00  0.00    -0.203 F 
ATOM     94  C   UNL     1     -17.010   4.900   5.414  1.00  0.00     0.198 A 
ATOM     95  C   UNL     1     -16.799   6.765   3.916  1.00  0.00     0.198 A 
ATOM     96  F   UNL     1     -14.732   7.220   2.886  1.00  0.00    -0.203 F 
ATOM     97  F   UNL     1     -17.765   4.132   6.211  1.00  0.00    -0.200 F 
ATOM     98  C   UNL     1     -17.575   5.986   4.760  1.00  0.00     0.200 A 
ATOM     99  F   UNL     1     -17.340   7.822   3.293  1.00  0.00    -0.200 F 
ATOM    100  F   UNL     1     -18.870   6.279   4.941  1.00  0.00    -0.200 F 
ENDBRANCH  67  90
ENDBRANCH  41  42
ENDBRANCH  33  36
ENDBRANCH  31  32
ENDBRANCH  30  31
ENDBRANCH   1  30
TORSDOF 16
