REMARK SMILES CN1C(=O)C[C@@H](C(=O)NCCCCNC(=O)c2ccc(-c3c4nc(c(-c5c(F)c(F)c(F)c(F)c5F)c5ccc([nH]5)c(-c5c(F)c(F)c(F)c(F)c5F)c5nc(c(-c6c(F)c(F)c(F)c(F)c6F)c6ccc3[nH]6)C=C5)C=C4)cc2)C12CCN(C(=O)c1ccccc1-n1cccn1)CC2
REMARK SMILES IDX 11 1 10 2 9 3 7 4 8 5 6 7 1 8 2 9 3 10 80 11 4 12 5 13 81 14
REMARK SMILES IDX 98 15 82 16 97 17 83 18 84 19 85 20 86 21 87 22 91 23 88 24
REMARK SMILES IDX 90 25 89 26 92 27 93 28 96 29 94 30 95 31 12 32 13 33 14 34
REMARK SMILES IDX 15 35 16 37 17 38 18 39 79 40 19 41 78 42 20 43 21 44 22 45
REMARK SMILES IDX 72 46 23 47 77 48 71 49 73 50 24 51 76 52 70 53 69 54 25 56
REMARK SMILES IDX 57 57 37 58 56 59 38 60 41 61 55 62 74 63 39 64 40 65 54 67
REMARK SMILES IDX 75 68 42 69 26 70 27 71 35 72 28 73 29 74 33 75 36 76 30 77
REMARK SMILES IDX 31 78 34 79 32 80 58 81 59 82 67 83 60 84 61 85 65 86 68 87
REMARK SMILES IDX 62 88 63 89 66 90 64 91 43 92 44 93 52 94 45 95 46 96 50 97
REMARK SMILES IDX 53 98 47 99 48 100 51 101 49 102
REMARK H PARENT 9 6 14 36 73 55 41 66
REMARK Flexibility Score: inf
ROOT
ATOM      1  C   UNL     1       1.990   1.642  -3.091  1.00  0.00     0.023 C 
ENDROOT
BRANCH   1   2
ATOM      2  C   UNL     1       0.666   1.125  -3.664  1.00  0.00     0.116 C 
BRANCH   2   3
ATOM      3  N   UNL     1       0.801  -0.028  -4.542  1.00  0.00    -0.356 N 
ATOM      4  C   UNL     1       0.525  -1.351  -4.415  1.00  0.00     0.226 C 
ATOM      5  O   UNL     1       0.735  -2.044  -5.419  1.00  0.00    -0.275 OA
ATOM      6  H   UNL     1       1.175   0.203  -5.423  1.00  0.00     0.163 HD
BRANCH   4   7
ATOM      7  C   UNL     1       0.035  -2.049  -3.139  1.00  0.00     0.113 C 
ATOM      8  C   UNL     1       0.993  -0.245  -0.008  1.00  0.00     0.147 C 
ATOM      9  N   UNL     1       0.370  -0.897  -1.144  1.00  0.00    -0.339 N 
ATOM     10  C   UNL     1      -0.974  -0.702  -1.446  1.00  0.00     0.223 C 
ATOM     11  C   UNL     1       0.970  -2.005  -1.909  1.00  0.00     0.058 C 
ATOM     12  O   UNL     1      -1.754   0.034  -0.864  1.00  0.00    -0.275 OA
ATOM     13  C   UNL     1      -1.315  -1.520  -2.661  1.00  0.00     0.116 C 
ATOM     14  C   UNL     1       2.450  -1.807  -2.304  1.00  0.00     0.051 C 
ATOM     15  C   UNL     1       0.850  -3.292  -1.027  1.00  0.00     0.051 C 
ATOM     16  C   UNL     1       3.087  -3.066  -2.879  1.00  0.00     0.122 C 
ATOM     17  C   UNL     1       1.648  -4.496  -1.534  1.00  0.00     0.122 C 
ATOM     18  N   UNL     1       3.011  -4.111  -1.876  1.00  0.00    -0.338 N 
ATOM     19  C   UNL     1       4.096  -4.691  -1.220  1.00  0.00     0.256 C 
ATOM     20  O   UNL     1       3.984  -5.521  -0.322  1.00  0.00    -0.269 OA
BRANCH  19  21
ATOM     21  C   UNL     1       5.471  -4.353  -1.659  1.00  0.00     0.065 A 
ATOM     22  C   UNL     1       6.111  -5.347  -2.420  1.00  0.00     0.016 A 
ATOM     23  C   UNL     1       6.105  -3.116  -1.461  1.00  0.00     0.077 A 
ATOM     24  C   UNL     1       7.351  -5.102  -3.011  1.00  0.00     0.001 A 
ATOM     25  C   UNL     1       7.329  -2.862  -2.111  1.00  0.00     0.029 A 
ATOM     26  C   UNL     1       7.951  -3.854  -2.871  1.00  0.00     0.002 A 
BRANCH  23  27
ATOM     27  N   UNL     1       5.581  -2.096  -0.627  1.00  0.00    -0.240 N 
ATOM     28  C   UNL     1       4.772  -2.212   0.482  1.00  0.00     0.115 A 
ATOM     29  N   UNL     1       5.885  -0.791  -0.873  1.00  0.00    -0.177 NA
ATOM     30  C   UNL     1       4.528  -0.940   0.943  1.00  0.00     0.042 A 
ATOM     31  C   UNL     1       5.225  -0.105   0.059  1.00  0.00     0.135 A 
ENDBRANCH  23  27
ENDBRANCH  19  21
ENDBRANCH   4   7
ENDBRANCH   2   3
ENDBRANCH   1   2
BRANCH   1  32
ATOM     32  C   UNL     1       2.934   2.257  -4.120  1.00  0.00     0.023 C 
BRANCH  32  33
ATOM     33  C   UNL     1       2.363   3.473  -4.833  1.00  0.00     0.116 C 
BRANCH  33  34
ATOM     34  N   UNL     1       1.919   4.515  -3.915  1.00  0.00    -0.352 N 
ATOM     35  C   UNL     1       2.056   5.875  -4.036  1.00  0.00     0.251 C 
ATOM     36  H   UNL     1       1.460   4.202  -3.102  1.00  0.00     0.163 HD
ATOM     37  O   UNL     1       1.744   6.627  -3.120  1.00  0.00    -0.269 OA
BRANCH  35  38
ATOM     38  C   UNL     1       2.623   6.412  -5.284  1.00  0.00     0.039 A 
ATOM     39  C   UNL     1       3.712   7.282  -5.216  1.00  0.00     0.014 A 
ATOM     40  C   UNL     1       2.124   5.976  -6.514  1.00  0.00     0.014 A 
ATOM     41  C   UNL     1       4.356   7.658  -6.394  1.00  0.00     0.010 A 
ATOM     42  C   UNL     1       2.817   6.284  -7.675  1.00  0.00     0.010 A 
ATOM     43  C   UNL     1       3.938   7.126  -7.625  1.00  0.00    -0.014 A 
BRANCH  43  44
ATOM     44  C   UNL     1       4.648   7.438  -8.887  1.00  0.00     0.031 A 
ATOM     45  C   UNL     1       3.921   8.165  -9.981  1.00  0.00     0.074 A 
ATOM     46  C   UNL     1       5.901   6.984  -9.080  1.00  0.00     0.049 A 
ATOM     47  N   UNL     1       4.302   8.412 -11.207  1.00  0.00    -0.248 NA
ATOM     48  C   UNL     1       2.565   8.642  -9.664  1.00  0.00     0.031 C 
ATOM     49  C   UNL     1       6.687   6.222  -8.108  1.00  0.00     0.029 A 
ATOM     50  N   UNL     1       6.727   7.083 -10.170  1.00  0.00    -0.354 N 
ATOM     51  C   UNL     1       3.226   9.046 -11.812  1.00  0.00     0.074 A 
ATOM     52  C   UNL     1       2.158   9.099 -10.839  1.00  0.00     0.031 C 
ATOM     53  C   UNL     1       7.888   5.941  -8.637  1.00  0.00     0.029 A 
ATOM     54  C   UNL     1       7.942   6.467  -9.998  1.00  0.00     0.049 A 
ATOM     55  H   UNL     1       6.473   7.551 -10.998  1.00  0.00     0.167 HD
ATOM     56  C   UNL     1       3.147   9.562 -13.061  1.00  0.00     0.037 A 
ATOM     57  C   UNL     1       8.978   6.337 -10.848  1.00  0.00     0.037 A 
ATOM     58  C   UNL     1       4.229   9.544 -14.008  1.00  0.00     0.049 A 
ATOM     59  C   UNL     1       8.870   6.935 -12.225  1.00  0.00     0.074 A 
ATOM     60  C   UNL     1       4.276  10.095 -15.275  1.00  0.00     0.029 A 
ATOM     61  N   UNL     1       5.461   8.948 -13.782  1.00  0.00    -0.354 N 
ATOM     62  N   UNL     1       7.869   7.584 -12.769  1.00  0.00    -0.248 NA
ATOM     63  C   UNL     1      10.037   6.785 -13.105  1.00  0.00     0.031 C 
ATOM     64  C   UNL     1       5.527   9.805 -15.830  1.00  0.00     0.029 A 
ATOM     65  C   UNL     1       6.273   9.108 -14.892  1.00  0.00     0.049 A 
ATOM     66  H   UNL     1       5.720   8.480 -12.955  1.00  0.00     0.167 HD
ATOM     67  C   UNL     1       8.294   7.944 -14.040  1.00  0.00     0.074 A 
ATOM     68  C   UNL     1       9.648   7.451 -14.183  1.00  0.00     0.031 C 
ATOM     69  C   UNL     1       7.624   8.623 -15.003  1.00  0.00     0.037 A 
BRANCH  56  70
ATOM     70  C   UNL     1       1.851  10.198 -13.465  1.00  0.00     0.064 A 
ATOM     71  C   UNL     1       1.427  11.416 -12.911  1.00  0.00     0.173 A 
ATOM     72  C   UNL     1       1.032   9.596 -14.432  1.00  0.00     0.173 A 
ATOM     73  F   UNL     1       2.167  12.023 -11.970  1.00  0.00    -0.203 F 
ATOM     74  C   UNL     1       0.217  11.992 -13.288  1.00  0.00     0.198 A 
ATOM     75  C   UNL     1      -0.163  10.191 -14.828  1.00  0.00     0.198 A 
ATOM     76  F   UNL     1       1.392   8.433 -14.995  1.00  0.00    -0.203 F 
ATOM     77  F   UNL     1      -0.191  13.128 -12.706  1.00  0.00    -0.200 F 
ATOM     78  C   UNL     1      -0.573  11.383 -14.250  1.00  0.00     0.200 A 
ATOM     79  F   UNL     1      -0.922   9.607 -15.766  1.00  0.00    -0.200 F 
ATOM     80  F   UNL     1      -1.736  11.941 -14.616  1.00  0.00    -0.200 F 
ENDBRANCH  56  70
BRANCH  57  81
ATOM     81  C   UNL     1      10.216   5.641 -10.414  1.00  0.00     0.064 A 
ATOM     82  C   UNL     1      11.399   6.358 -10.191  1.00  0.00     0.173 A 
ATOM     83  C   UNL     1      10.247   4.253 -10.219  1.00  0.00     0.173 A 
ATOM     84  F   UNL     1      11.422   7.685 -10.384  1.00  0.00    -0.203 F 
ATOM     85  C   UNL     1      12.572   5.712  -9.808  1.00  0.00     0.198 A 
ATOM     86  C   UNL     1      11.414   3.610  -9.811  1.00  0.00     0.198 A 
ATOM     87  F   UNL     1       9.140   3.522 -10.413  1.00  0.00    -0.203 F 
ATOM     88  F   UNL     1      13.700   6.417  -9.644  1.00  0.00    -0.200 F 
ATOM     89  C   UNL     1      12.578   4.339  -9.614  1.00  0.00     0.200 A 
ATOM     90  F   UNL     1      11.413   2.285  -9.612  1.00  0.00    -0.200 F 
ATOM     91  F   UNL     1      13.706   3.717  -9.245  1.00  0.00    -0.200 F 
ENDBRANCH  57  81
BRANCH  69  92
ATOM     92  C   UNL     1       8.357   8.907 -16.279  1.00  0.00     0.064 A 
ATOM     93  C   UNL     1       8.597   7.903 -17.227  1.00  0.00     0.173 A 
ATOM     94  C   UNL     1       8.774  10.213 -16.579  1.00  0.00     0.173 A 
ATOM     95  F   UNL     1       8.231   6.637 -16.977  1.00  0.00    -0.203 F 
ATOM     96  C   UNL     1       9.245   8.193 -18.424  1.00  0.00     0.198 A 
ATOM     97  C   UNL     1       9.397  10.504 -17.788  1.00  0.00     0.198 A 
ATOM     98  F   UNL     1       8.560  11.209 -15.705  1.00  0.00    -0.203 F 
ATOM     99  F   UNL     1       9.499   7.212 -19.301  1.00  0.00    -0.200 F 
ATOM    100  C   UNL     1       9.637   9.494 -18.707  1.00  0.00     0.200 A 
ATOM    101  F   UNL     1       9.764  11.763 -18.065  1.00  0.00    -0.200 F 
ATOM    102  F   UNL     1      10.250   9.773 -19.866  1.00  0.00    -0.200 F 
ENDBRANCH  69  92
ENDBRANCH  43  44
ENDBRANCH  35  38
ENDBRANCH  33  34
ENDBRANCH  32  33
ENDBRANCH   1  32
TORSDOF 13
