REMARK SMILES C[C@@H](C(=O)NCCCCNC(=O)c1ccc(-c2c3nc(c(-c4c(F)c(F)c(F)c(F)c4F)c4ccc([nH]4)c(-c4c(F)c(F)c(F)c(F)c4F)c4nc(c(-c5c(F)c(F)c(F)c(F)c5F)c5ccc2[nH]5)C=C4)C=C3)cc1)c1ccc(C[C@H]2CCCC2=O)cc1F
REMARK SMILES IDX 7 1 6 2 5 3 3 4 4 5 2 7 1 8 76 9 77 10 88 11 78 12 87 13
REMARK SMILES IDX 89 14 79 15 80 16 81 17 82 18 85 19 83 20 84 21 86 22 8 23
REMARK SMILES IDX 9 24 10 25 11 26 12 28 13 29 14 30 75 31 15 32 74 33 16 34
REMARK SMILES IDX 17 35 18 36 68 37 19 38 73 39 67 40 69 41 20 42 72 43 66 44
REMARK SMILES IDX 65 45 21 47 53 48 33 49 52 50 34 51 37 52 51 53 70 54 35 55
REMARK SMILES IDX 36 56 50 58 71 59 38 60 22 61 23 62 31 63 24 64 25 65 29 66
REMARK SMILES IDX 32 67 26 68 27 69 30 70 28 71 54 72 55 73 63 74 56 75 57 76
REMARK SMILES IDX 61 77 64 78 58 79 59 80 62 81 60 82 39 83 40 84 48 85 41 86
REMARK SMILES IDX 42 87 46 88 49 89 43 90 44 91 47 92 45 93
REMARK H PARENT 5 6 10 27 69 46 37 57
REMARK Flexibility Score: inf
ROOT
ATOM      1  C   UNL     1       4.231   0.996   0.484  1.00  0.00     0.023 C 
ENDROOT
BRANCH   1   2
ATOM      2  C   UNL     1       3.480   0.429   1.690  1.00  0.00     0.116 C 
BRANCH   2   3
ATOM      3  N   UNL     1       2.470   1.350   2.163  1.00  0.00    -0.356 N 
ATOM      4  C   UNL     1       1.115   1.328   2.015  1.00  0.00     0.227 C 
ATOM      5  O   UNL     1       0.507   2.268   2.533  1.00  0.00    -0.274 OA
ATOM      6  H   UNL     1       2.817   2.118   2.673  1.00  0.00     0.163 HD
BRANCH   4   7
ATOM      7  C   UNL     1       0.427   0.154   1.290  1.00  0.00     0.108 C 
ATOM      8  C   UNL     1       0.771   0.067  -0.198  1.00  0.00     0.023 C 
BRANCH   7   9
ATOM      9  C   UNL     1      -1.091   0.166   1.404  1.00  0.00    -0.000 A 
ATOM     10  C   UNL     1      -1.847   1.315   1.131  1.00  0.00     0.008 A 
ATOM     11  C   UNL     1      -1.778  -1.016   1.695  1.00  0.00     0.127 A 
ATOM     12  C   UNL     1      -3.239   1.289   1.204  1.00  0.00     0.004 A 
ATOM     13  C   UNL     1      -3.169  -1.052   1.769  1.00  0.00     0.043 A 
ATOM     14  F   UNL     1      -1.097  -2.154   1.895  1.00  0.00    -0.207 F 
ATOM     15  C   UNL     1      -3.914   0.112   1.548  1.00  0.00    -0.044 A 
BRANCH  15  16
ATOM     16  C   UNL     1      -5.415   0.113   1.702  1.00  0.00     0.047 C 
BRANCH  16  17
ATOM     17  C   UNL     1      -5.949   0.700   3.015  1.00  0.00     0.060 C 
ATOM     18  C   UNL     1      -5.432   0.056   4.305  1.00  0.00     0.012 C 
ATOM     19  C   UNL     1      -5.563   2.148   3.208  1.00  0.00     0.136 C 
ATOM     20  C   UNL     1      -4.296   0.943   4.805  1.00  0.00     0.009 C 
ATOM     21  C   UNL     1      -4.672   2.361   4.403  1.00  0.00     0.076 C 
ATOM     22  O   UNL     1      -5.946   3.056   2.477  1.00  0.00    -0.299 OA
ENDBRANCH  16  17
ENDBRANCH  15  16
ENDBRANCH   7   9
ENDBRANCH   4   7
ENDBRANCH   2   3
ENDBRANCH   1   2
BRANCH   1  23
ATOM     23  C   UNL     1       4.993   2.295   0.753  1.00  0.00     0.023 C 
BRANCH  23  24
ATOM     24  C   UNL     1       5.970   2.240   1.917  1.00  0.00     0.116 C 
BRANCH  24  25
ATOM     25  N   UNL     1       6.976   1.202   1.760  1.00  0.00    -0.352 N 
ATOM     26  C   UNL     1       8.325   1.267   1.995  1.00  0.00     0.251 C 
ATOM     27  H   UNL     1       6.642   0.333   1.440  1.00  0.00     0.163 HD
ATOM     28  O   UNL     1       9.053   0.332   1.670  1.00  0.00    -0.269 OA
BRANCH  26  29
ATOM     29  C   UNL     1       8.908   2.474   2.617  1.00  0.00     0.039 A 
ATOM     30  C   UNL     1      10.099   2.989   2.103  1.00  0.00     0.014 A 
ATOM     31  C   UNL     1       8.288   3.091   3.708  1.00  0.00     0.014 A 
ATOM     32  C   UNL     1      10.650   4.144   2.659  1.00  0.00     0.010 A 
ATOM     33  C   UNL     1       8.788   4.290   4.202  1.00  0.00     0.010 A 
ATOM     34  C   UNL     1       9.989   4.814   3.702  1.00  0.00    -0.014 A 
BRANCH  34  35
ATOM     35  C   UNL     1      10.568   6.034   4.317  1.00  0.00     0.031 A 
ATOM     36  C   UNL     1      10.986   6.017   5.763  1.00  0.00     0.074 A 
ATOM     37  C   UNL     1      10.677   7.165   3.595  1.00  0.00     0.049 A 
ATOM     38  N   UNL     1      11.488   6.980   6.494  1.00  0.00    -0.248 NA
ATOM     39  C   UNL     1      10.784   4.756   6.493  1.00  0.00     0.031 C 
ATOM     40  C   UNL     1      10.264   7.321   2.200  1.00  0.00     0.029 A 
ATOM     41  N   UNL     1      11.170   8.399   3.937  1.00  0.00    -0.354 N 
ATOM     42  C   UNL     1      11.639   6.447   7.768  1.00  0.00     0.074 A 
ATOM     43  C   UNL     1      11.117   5.099   7.727  1.00  0.00     0.031 C 
ATOM     44  C   UNL     1      10.555   8.567   1.793  1.00  0.00     0.029 A 
ATOM     45  C   UNL     1      11.142   9.307   2.907  1.00  0.00     0.049 A 
ATOM     46  H   UNL     1      11.511   8.613   4.835  1.00  0.00     0.167 HD
ATOM     47  C   UNL     1      12.188   7.019   8.866  1.00  0.00     0.037 A 
ATOM     48  C   UNL     1      11.550  10.589   2.868  1.00  0.00     0.037 A 
ATOM     49  C   UNL     1      12.732   8.351   8.892  1.00  0.00     0.049 A 
ATOM     50  C   UNL     1      12.159  11.203   4.101  1.00  0.00     0.074 A 
ATOM     51  C   UNL     1      13.370   9.004   9.931  1.00  0.00     0.029 A 
ATOM     52  N   UNL     1      12.697   9.238   7.824  1.00  0.00    -0.354 N 
ATOM     53  N   UNL     1      12.369  10.666   5.278  1.00  0.00    -0.248 NA
ATOM     54  C   UNL     1      12.600  12.600   3.991  1.00  0.00     0.031 C 
ATOM     55  C   UNL     1      13.669  10.305   9.512  1.00  0.00     0.029 A 
ATOM     56  C   UNL     1      13.281  10.441   8.189  1.00  0.00     0.049 A 
ATOM     57  H   UNL     1      12.314   9.041   6.939  1.00  0.00     0.167 HD
ATOM     58  C   UNL     1      13.005  11.642   6.035  1.00  0.00     0.074 A 
ATOM     59  C   UNL     1      13.152  12.801   5.179  1.00  0.00     0.031 C 
ATOM     60  C   UNL     1      13.435  11.580   7.320  1.00  0.00     0.037 A 
BRANCH  47  61
ATOM     61  C   UNL     1      12.215   6.206  10.130  1.00  0.00     0.064 A 
ATOM     62  C   UNL     1      13.005   5.051  10.253  1.00  0.00     0.173 A 
ATOM     63  C   UNL     1      11.445   6.590  11.238  1.00  0.00     0.173 A 
ATOM     64  F   UNL     1      13.752   4.630   9.221  1.00  0.00    -0.203 F 
ATOM     65  C   UNL     1      12.987   4.289  11.418  1.00  0.00     0.198 A 
ATOM     66  C   UNL     1      11.459   5.846  12.415  1.00  0.00     0.198 A 
ATOM     67  F   UNL     1      10.677   7.688  11.181  1.00  0.00    -0.203 F 
ATOM     68  F   UNL     1      13.695   3.153  11.485  1.00  0.00    -0.200 F 
ATOM     69  C   UNL     1      12.219   4.690  12.500  1.00  0.00     0.200 A 
ATOM     70  F   UNL     1      10.728   6.245  13.466  1.00  0.00    -0.200 F 
ATOM     71  F   UNL     1      12.203   3.957  13.622  1.00  0.00    -0.200 F 
ENDBRANCH  47  61
BRANCH  48  72
ATOM     72  C   UNL     1      11.448  11.363   1.603  1.00  0.00     0.064 A 
ATOM     73  C   UNL     1      12.600  11.730   0.893  1.00  0.00     0.173 A 
ATOM     74  C   UNL     1      10.207  11.753   1.078  1.00  0.00     0.173 A 
ATOM     75  F   UNL     1      13.811  11.397   1.364  1.00  0.00    -0.203 F 
ATOM     76  C   UNL     1      12.517  12.477  -0.280  1.00  0.00     0.198 A 
ATOM     77  C   UNL     1      10.124  12.475  -0.111  1.00  0.00     0.198 A 
ATOM     78  F   UNL     1       9.075  11.422   1.715  1.00  0.00    -0.203 F 
ATOM     79  F   UNL     1      13.637  12.855  -0.911  1.00  0.00    -0.200 F 
ATOM     80  C   UNL     1      11.279  12.844  -0.784  1.00  0.00     0.200 A 
ATOM     81  F   UNL     1       8.925  12.815  -0.604  1.00  0.00    -0.200 F 
ATOM     82  F   UNL     1      11.199  13.559  -1.915  1.00  0.00    -0.200 F 
ENDBRANCH  48  72
BRANCH  60  83
ATOM     83  C   UNL     1      14.166  12.777   7.860  1.00  0.00     0.064 A 
ATOM     84  C   UNL     1      13.517  13.995   8.114  1.00  0.00     0.173 A 
ATOM     85  C   UNL     1      15.536  12.692   8.153  1.00  0.00     0.173 A 
ATOM     86  F   UNL     1      12.211  14.134   7.840  1.00  0.00    -0.203 F 
ATOM     87  C   UNL     1      14.220  15.092   8.605  1.00  0.00     0.198 A 
ATOM     88  C   UNL     1      16.228  13.779   8.679  1.00  0.00     0.198 A 
ATOM     89  F   UNL     1      16.204  11.548   7.939  1.00  0.00    -0.203 F 
ATOM     90  F   UNL     1      13.593  16.263   8.782  1.00  0.00    -0.200 F 
ATOM     91  C   UNL     1      15.573  14.981   8.894  1.00  0.00     0.200 A 
ATOM     92  F   UNL     1      17.530  13.664   8.974  1.00  0.00    -0.200 F 
ATOM     93  F   UNL     1      16.246  16.037   9.371  1.00  0.00    -0.200 F 
ENDBRANCH  60  83
ENDBRANCH  34  35
ENDBRANCH  26  29
ENDBRANCH  24  25
ENDBRANCH  23  24
ENDBRANCH   1  23
TORSDOF 14
