REMARK SMILES C[C@H](C[N@@H+](C)[C@@H](C)[C@@H](C)O)C(=O)NCCCCNC(=O)c1ccc(-c2c3nc(c(-c4c(F)c(F)c(F)c(F)c4F)c4ccc([nH]4)c(-c4c(F)c(F)c(F)c(F)c4F)c4nc(c(-c5c(F)c(F)c(F)c(F)c5F)c5ccc2[nH]5)C=C4)C=C3)cc1
REMARK SMILES IDX 14 1 13 2 11 3 12 4 2 6 1 7 3 8 4 9 5 10 6 12 7 13 8 14 9 15
REMARK SMILES IDX 10 16 15 18 16 19 17 20 18 21 19 22 20 24 21 25 22 26 83 27
REMARK SMILES IDX 23 28 82 29 24 30 25 31 26 32 76 33 27 34 81 35 75 36 77 37
REMARK SMILES IDX 28 38 80 39 74 40 73 41 29 43 61 44 41 45 60 46 42 47 45 48
REMARK SMILES IDX 59 49 78 50 43 51 44 52 58 54 79 55 46 56 30 57 31 58 39 59
REMARK SMILES IDX 32 60 33 61 37 62 40 63 34 64 35 65 38 66 36 67 62 68 63 69
REMARK SMILES IDX 71 70 64 71 65 72 69 73 72 74 66 75 67 76 70 77 68 78 47 79
REMARK SMILES IDX 48 80 56 81 49 82 50 83 54 84 57 85 51 86 52 87 55 88 53 89
REMARK H PARENT 13 5 4 11 10 17 18 23 77 42 45 53
REMARK Flexibility Score: inf
ROOT
ATOM      1  C   UNL     1       0.110  -3.183   0.715  1.00  0.00     0.116 C 
ENDROOT
BRANCH   1   2
ATOM      2  N   UNL     1      -0.530  -2.801  -0.525  1.00  0.00    -0.356 N 
ATOM      3  C   UNL     1      -0.233  -1.870  -1.465  1.00  0.00     0.228 C 
ATOM      4  O   UNL     1      -0.836  -1.976  -2.542  1.00  0.00    -0.275 OA
ATOM      5  H   UNL     1      -1.341  -3.320  -0.727  1.00  0.00     0.163 HD
BRANCH   3   6
ATOM      6  C   UNL     1       0.805  -0.777  -1.311  1.00  0.00     0.130 C 
ATOM      7  C   UNL     1       2.210  -1.377  -1.448  1.00  0.00     0.024 C 
BRANCH   6   8
ATOM      8  C   UNL     1       0.692   0.247  -0.159  1.00  0.00     0.275 C 
BRANCH   8   9
ATOM      9  N   UNL     1      -0.364   0.113   0.863  1.00  0.00    -0.332 N 
ATOM     10  C   UNL     1       0.259   0.344   2.187  1.00  0.00     0.333 C 
ATOM     11  H   UNL     1      -0.740  -0.829   0.752  1.00  0.00     0.348 HD
BRANCH   9  12
ATOM     12  C   UNL     1      -1.571   0.991   0.709  1.00  0.00     0.209 C 
ATOM     13  C   UNL     1      -1.279   2.486   0.991  1.00  0.00     0.078 C 
BRANCH  12  14
ATOM     14  C   UNL     1      -2.440   0.871  -0.596  1.00  0.00     0.169 C 
ATOM     15  C   UNL     1      -3.201  -0.436  -0.782  1.00  0.00     0.045 C 
BRANCH  14  16
ATOM     16  O   UNL     1      -3.471   1.879  -0.582  1.00  0.00    -0.387 OA
ATOM     17  H   UNL     1      -4.075   1.714   0.159  1.00  0.00     0.211 HD
ENDBRANCH  14  16
ENDBRANCH  12  14
ENDBRANCH   9  12
ENDBRANCH   8   9
ENDBRANCH   6   8
ENDBRANCH   3   6
ENDBRANCH   1   2
BRANCH   1  18
ATOM     18  C   UNL     1      -0.683  -2.980   2.013  1.00  0.00     0.023 C 
BRANCH  18  19
ATOM     19  C   UNL     1      -2.203  -2.874   1.955  1.00  0.00     0.023 C 
BRANCH  19  20
ATOM     20  C   UNL     1      -2.931  -4.091   1.409  1.00  0.00     0.116 C 
BRANCH  20  21
ATOM     21  N   UNL     1      -2.574  -5.301   2.130  1.00  0.00    -0.352 N 
ATOM     22  C   UNL     1      -3.319  -6.101   2.952  1.00  0.00     0.251 C 
ATOM     23  H   UNL     1      -1.642  -5.593   2.006  1.00  0.00     0.163 HD
ATOM     24  O   UNL     1      -2.746  -6.926   3.667  1.00  0.00    -0.269 OA
BRANCH  22  25
ATOM     25  C   UNL     1      -4.793  -6.000   2.996  1.00  0.00     0.039 A 
ATOM     26  C   UNL     1      -5.443  -6.220   4.216  1.00  0.00     0.014 A 
ATOM     27  C   UNL     1      -5.546  -5.778   1.840  1.00  0.00     0.014 A 
ATOM     28  C   UNL     1      -6.838  -6.186   4.281  1.00  0.00     0.010 A 
ATOM     29  C   UNL     1      -6.932  -5.664   1.920  1.00  0.00     0.010 A 
ATOM     30  C   UNL     1      -7.593  -5.890   3.136  1.00  0.00    -0.014 A 
BRANCH  30  31
ATOM     31  C   UNL     1      -9.076  -5.853   3.179  1.00  0.00     0.031 A 
ATOM     32  C   UNL     1      -9.876  -6.854   2.390  1.00  0.00     0.074 A 
ATOM     33  C   UNL     1      -9.701  -4.886   3.878  1.00  0.00     0.049 A 
ATOM     34  N   UNL     1     -11.172  -6.937   2.228  1.00  0.00    -0.248 NA
ATOM     35  C   UNL     1      -9.114  -7.882   1.663  1.00  0.00     0.031 C 
ATOM     36  C   UNL     1      -9.035  -3.837   4.649  1.00  0.00     0.029 A 
ATOM     37  N   UNL     1     -11.037  -4.623   4.042  1.00  0.00    -0.354 N 
ATOM     38  C   UNL     1     -11.377  -8.003   1.361  1.00  0.00     0.074 A 
ATOM     39  C   UNL     1     -10.072  -8.511   0.997  1.00  0.00     0.031 C 
ATOM     40  C   UNL     1      -9.965  -3.055   5.222  1.00  0.00     0.029 A 
ATOM     41  C   UNL     1     -11.289  -3.527   4.828  1.00  0.00     0.049 A 
ATOM     42  H   UNL     1     -11.748  -5.169   3.634  1.00  0.00     0.167 HD
ATOM     43  C   UNL     1     -12.548  -8.525   0.925  1.00  0.00     0.037 A 
ATOM     44  C   UNL     1     -12.459  -2.963   5.186  1.00  0.00     0.037 A 
ATOM     45  C   UNL     1     -13.845  -8.046   1.326  1.00  0.00     0.049 A 
ATOM     46  C   UNL     1     -13.745  -3.572   4.700  1.00  0.00     0.074 A 
ATOM     47  C   UNL     1     -15.091  -8.551   1.000  1.00  0.00     0.029 A 
ATOM     48  N   UNL     1     -14.059  -6.947   2.145  1.00  0.00    -0.354 N 
ATOM     49  N   UNL     1     -13.928  -4.618   3.932  1.00  0.00    -0.248 NA
ATOM     50  C   UNL     1     -14.990  -2.923   5.136  1.00  0.00     0.031 C 
ATOM     51  C   UNL     1     -16.061  -7.736   1.593  1.00  0.00     0.029 A 
ATOM     52  C   UNL     1     -15.419  -6.749   2.322  1.00  0.00     0.049 A 
ATOM     53  H   UNL     1     -13.351  -6.392   2.543  1.00  0.00     0.167 HD
ATOM     54  C   UNL     1     -15.303  -4.771   3.816  1.00  0.00     0.074 A 
ATOM     55  C   UNL     1     -15.908  -3.716   4.602  1.00  0.00     0.031 C 
ATOM     56  C   UNL     1     -16.001  -5.700   3.119  1.00  0.00     0.037 A 
BRANCH  43  57
ATOM     57  C   UNL     1     -12.483  -9.679  -0.033  1.00  0.00     0.064 A 
ATOM     58  C   UNL     1     -12.060 -10.953   0.376  1.00  0.00     0.173 A 
ATOM     59  C   UNL     1     -12.883  -9.518  -1.368  1.00  0.00     0.173 A 
ATOM     60  F   UNL     1     -11.657 -11.157   1.639  1.00  0.00    -0.203 F 
ATOM     61  C   UNL     1     -12.013 -12.015  -0.523  1.00  0.00     0.198 A 
ATOM     62  C   UNL     1     -12.862 -10.590  -2.257  1.00  0.00     0.198 A 
ATOM     63  F   UNL     1     -13.302  -8.323  -1.810  1.00  0.00    -0.203 F 
ATOM     64  F   UNL     1     -11.561 -13.211  -0.121  1.00  0.00    -0.200 F 
ATOM     65  C   UNL     1     -12.421 -11.835  -1.836  1.00  0.00     0.200 A 
ATOM     66  F   UNL     1     -13.268 -10.417  -3.522  1.00  0.00    -0.200 F 
ATOM     67  F   UNL     1     -12.381 -12.861  -2.698  1.00  0.00    -0.200 F 
ENDBRANCH  43  57
BRANCH  44  68
ATOM     68  C   UNL     1     -12.466  -1.774   6.075  1.00  0.00     0.064 A 
ATOM     69  C   UNL     1     -12.915  -1.873   7.399  1.00  0.00     0.173 A 
ATOM     70  C   UNL     1     -12.028  -0.520   5.626  1.00  0.00     0.173 A 
ATOM     71  F   UNL     1     -13.363  -3.047   7.867  1.00  0.00    -0.203 F 
ATOM     72  C   UNL     1     -12.943  -0.759   8.235  1.00  0.00     0.198 A 
ATOM     73  C   UNL     1     -12.031   0.588   6.471  1.00  0.00     0.198 A 
ATOM     74  F   UNL     1     -11.583  -0.374   4.369  1.00  0.00    -0.203 F 
ATOM     75  F   UNL     1     -13.416  -0.873   9.483  1.00  0.00    -0.200 F 
ATOM     76  C   UNL     1     -12.496   0.469   7.772  1.00  0.00     0.200 A 
ATOM     77  F   UNL     1     -11.585   1.770   6.024  1.00  0.00    -0.200 F 
ATOM     78  F   UNL     1     -12.519   1.540   8.578  1.00  0.00    -0.200 F 
ENDBRANCH  44  68
BRANCH  56  79
ATOM     79  C   UNL     1     -17.497  -5.641   3.206  1.00  0.00     0.064 A 
ATOM     80  C   UNL     1     -18.232  -4.644   2.547  1.00  0.00     0.173 A 
ATOM     81  C   UNL     1     -18.205  -6.617   3.923  1.00  0.00     0.173 A 
ATOM     82  F   UNL     1     -17.599  -3.680   1.862  1.00  0.00    -0.203 F 
ATOM     83  C   UNL     1     -19.622  -4.614   2.623  1.00  0.00     0.198 A 
ATOM     84  C   UNL     1     -19.595  -6.599   3.974  1.00  0.00     0.198 A 
ATOM     85  F   UNL     1     -17.547  -7.594   4.565  1.00  0.00    -0.203 F 
ATOM     86  F   UNL     1     -20.302  -3.628   2.023  1.00  0.00    -0.200 F 
ATOM     87  C   UNL     1     -20.302  -5.595   3.330  1.00  0.00     0.200 A 
ATOM     88  F   UNL     1     -20.252  -7.554   4.647  1.00  0.00    -0.200 F 
ATOM     89  F   UNL     1     -21.640  -5.568   3.396  1.00  0.00    -0.200 F 
ENDBRANCH  56  79
ENDBRANCH  30  31
ENDBRANCH  22  25
ENDBRANCH  20  21
ENDBRANCH  19  20
ENDBRANCH  18  19
ENDBRANCH   1  18
TORSDOF 16
