REMARK SMILES CCN1C(=O)[C@H](CC(=O)Nc2ccc(C(=O)NCCCCNC(=O)c3ccc(-c4c5nc(c(-c6c(F)c(F)c(F)c(F)c6F)c6ccc([nH]6)c(-c6c(F)c(F)c(F)c(F)c6F)c6nc(c(-c7c(F)c(F)c(F)c(F)c7F)c7ccc4[nH]7)C=C6)C=C5)cc3)cc2)S/C1=[NH+]\c1ccc(Cl)cc1
REMARK SMILES IDX 18 1 17 2 15 3 16 4 14 6 11 7 12 8 89 9 13 10 88 11 10 12
REMARK SMILES IDX 8 13 9 14 7 16 6 17 3 18 4 19 91 20 5 21 90 22 92 23 2 25
REMARK SMILES IDX 1 26 93 27 94 28 99 29 95 30 98 31 96 32 97 33 19 34 20 35
REMARK SMILES IDX 21 36 22 37 23 38 24 40 25 41 26 42 87 43 27 44 86 45 28 46
REMARK SMILES IDX 29 47 30 48 80 49 31 50 85 51 79 52 81 53 32 54 84 55 78 56
REMARK SMILES IDX 77 57 33 59 65 60 45 61 64 62 46 63 49 64 63 65 82 66 47 67
REMARK SMILES IDX 48 68 62 70 83 71 50 72 34 73 35 74 43 75 36 76 37 77 41 78
REMARK SMILES IDX 44 79 38 80 39 81 42 82 40 83 66 84 67 85 75 86 68 87 69 88
REMARK SMILES IDX 73 89 76 90 70 91 71 92 74 93 72 94 51 95 52 96 60 97 53 98
REMARK SMILES IDX 54 99 58 100 61 101 55 102 56 103 59 104 57 105
REMARK H PARENT 17 5 10 15 92 24 22 39 81 58 49 69
REMARK Flexibility Score: inf
ROOT
ATOM      1  C   UNL     1       1.517   2.494  -1.001  1.00  0.00     0.116 C 
ENDROOT
BRANCH   1   2
ATOM      2  N   UNL     1       2.014   2.348   0.359  1.00  0.00    -0.352 N 
ATOM      3  C   UNL     1       2.415   1.240   1.073  1.00  0.00     0.251 C 
ATOM      4  O   UNL     1       2.723   1.378   2.256  1.00  0.00    -0.269 OA
ATOM      5  H   UNL     1       2.075   3.193   0.859  1.00  0.00     0.163 HD
BRANCH   3   6
ATOM      6  C   UNL     1       2.418  -0.124   0.487  1.00  0.00     0.039 A 
ATOM      7  C   UNL     1       2.078  -2.699  -0.632  1.00  0.00     0.041 A 
ATOM      8  C   UNL     1       1.758  -2.446   0.710  1.00  0.00     0.027 A 
ATOM      9  C   UNL     1       2.709  -1.687  -1.352  1.00  0.00     0.027 A 
ATOM     10  C   UNL     1       1.920  -1.172   1.265  1.00  0.00     0.016 A 
ATOM     11  C   UNL     1       2.893  -0.411  -0.792  1.00  0.00     0.016 A 
BRANCH   7  12
ATOM     12  N   UNL     1       1.692  -3.958  -1.124  1.00  0.00    -0.326 N 
ATOM     13  C   UNL     1       1.581  -4.537  -2.350  1.00  0.00     0.226 C 
ATOM     14  O   UNL     1       1.149  -5.694  -2.394  1.00  0.00    -0.275 OA
ATOM     15  H   UNL     1       1.438  -4.575  -0.400  1.00  0.00     0.169 HD
BRANCH  13  16
ATOM     16  C   UNL     1       1.940  -3.845  -3.637  1.00  0.00     0.128 C 
BRANCH  16  17
ATOM     17  C   UNL     1       0.852  -2.954  -4.225  1.00  0.00     0.183 C 
ATOM     18  N   UNL     1      -0.150  -0.993  -3.252  1.00  0.00    -0.190 N 
ATOM     19  C   UNL     1      -0.175  -2.374  -3.277  1.00  0.00     0.324 C 
ATOM     20  C   UNL     1       0.709  -0.361  -4.117  1.00  0.00     0.319 C 
ATOM     21  O   UNL     1      -0.976  -3.067  -2.658  1.00  0.00    -0.245 OA
ATOM     22  S   UNL     1       1.583  -1.528  -5.080  1.00  0.00    -0.022 SA
ATOM     23  N   UNL     1       0.814   0.928  -4.188  1.00  0.00    -0.235 N 
ATOM     24  H   UNL     1       0.355   1.496  -3.528  1.00  0.00     0.313 HD
BRANCH  18  25
ATOM     25  C   UNL     1      -1.177  -0.282  -2.497  1.00  0.00     0.243 C 
ATOM     26  C   UNL     1      -1.043  -0.427  -0.990  1.00  0.00     0.054 C 
ENDBRANCH  18  25
BRANCH  23  27
ATOM     27  C   UNL     1       1.583   1.517  -5.208  1.00  0.00     0.125 A 
ATOM     28  C   UNL     1       2.867   2.015  -4.965  1.00  0.00     0.053 A 
ATOM     29  C   UNL     1       1.029   1.665  -6.486  1.00  0.00     0.053 A 
ATOM     30  C   UNL     1       3.598   2.620  -5.997  1.00  0.00     0.025 A 
ATOM     31  C   UNL     1       1.756   2.261  -7.519  1.00  0.00     0.025 A 
ATOM     32  C   UNL     1       3.039   2.735  -7.270  1.00  0.00     0.041 A 
ATOM     33  Cl  UNL     1       3.937   3.473  -8.539  1.00  0.00    -0.084 Cl
ENDBRANCH  23  27
ENDBRANCH  16  17
ENDBRANCH  13  16
ENDBRANCH   7  12
ENDBRANCH   3   6
ENDBRANCH   1   2
BRANCH   1  34
ATOM     34  C   UNL     1       0.045   2.901  -1.066  1.00  0.00     0.023 C 
BRANCH  34  35
ATOM     35  C   UNL     1      -0.252   4.391  -0.956  1.00  0.00     0.023 C 
BRANCH  35  36
ATOM     36  C   UNL     1       0.359   5.262  -2.050  1.00  0.00     0.116 C 
BRANCH  36  37
ATOM     37  N   UNL     1      -0.020   4.906  -3.411  1.00  0.00    -0.352 N 
ATOM     38  C   UNL     1      -0.191   5.739  -4.501  1.00  0.00     0.251 C 
ATOM     39  H   UNL     1      -0.174   3.948  -3.576  1.00  0.00     0.163 HD
ATOM     40  O   UNL     1      -0.581   5.295  -5.569  1.00  0.00    -0.269 OA
BRANCH  38  41
ATOM     41  C   UNL     1       0.056   7.194  -4.349  1.00  0.00     0.039 A 
ATOM     42  C   UNL     1      -0.872   8.101  -4.868  1.00  0.00     0.014 A 
ATOM     43  C   UNL     1       1.173   7.663  -3.655  1.00  0.00     0.014 A 
ATOM     44  C   UNL     1      -0.728   9.467  -4.607  1.00  0.00     0.010 A 
ATOM     45  C   UNL     1       1.261   9.007  -3.311  1.00  0.00     0.010 A 
ATOM     46  C   UNL     1       0.313   9.926  -3.783  1.00  0.00    -0.014 A 
BRANCH  46  47
ATOM     47  C   UNL     1       0.436  11.358  -3.405  1.00  0.00     0.031 A 
ATOM     48  C   UNL     1       1.665  12.137  -3.791  1.00  0.00     0.074 A 
ATOM     49  C   UNL     1      -0.512  11.936  -2.641  1.00  0.00     0.049 A 
ATOM     50  N   UNL     1       1.997  13.367  -3.489  1.00  0.00    -0.248 NA
ATOM     51  C   UNL     1       2.674  11.425  -4.591  1.00  0.00     0.031 C 
ATOM     52  C   UNL     1      -1.715  11.271  -2.135  1.00  0.00     0.029 A 
ATOM     53  N   UNL     1      -0.608  13.213  -2.146  1.00  0.00    -0.354 N 
ATOM     54  C   UNL     1       3.257  13.564  -4.040  1.00  0.00     0.074 A 
ATOM     55  C   UNL     1       3.658  12.310  -4.638  1.00  0.00     0.031 C 
ATOM     56  C   UNL     1      -2.442  12.153  -1.430  1.00  0.00     0.029 A 
ATOM     57  C   UNL     1      -1.744  13.435  -1.406  1.00  0.00     0.049 A 
ATOM     58  H   UNL     1       0.073  13.905  -2.307  1.00  0.00     0.167 HD
ATOM     59  C   UNL     1       4.000  14.696  -4.074  1.00  0.00     0.037 A 
ATOM     60  C   UNL     1      -2.175  14.548  -0.782  1.00  0.00     0.037 A 
ATOM     61  C   UNL     1       3.581  15.954  -3.519  1.00  0.00     0.049 A 
ATOM     62  C   UNL     1      -1.348  15.803  -0.866  1.00  0.00     0.074 A 
ATOM     63  C   UNL     1       4.226  17.178  -3.567  1.00  0.00     0.029 A 
ATOM     64  N   UNL     1       2.401  16.151  -2.816  1.00  0.00    -0.354 N 
ATOM     65  N   UNL     1      -0.197  15.998  -1.460  1.00  0.00    -0.248 NA
ATOM     66  C   UNL     1      -1.889  16.997  -0.200  1.00  0.00     0.031 C 
ATOM     67  C   UNL     1       3.453  18.107  -2.862  1.00  0.00     0.029 A 
ATOM     68  C   UNL     1       2.305  17.473  -2.414  1.00  0.00     0.049 A 
ATOM     69  H   UNL     1       1.730  15.454  -2.632  1.00  0.00     0.167 HD
ATOM     70  C   UNL     1       0.111  17.338  -1.266  1.00  0.00     0.074 A 
ATOM     71  C   UNL     1      -0.984  17.913  -0.512  1.00  0.00     0.031 C 
ATOM     72  C   UNL     1       1.203  18.030  -1.674  1.00  0.00     0.037 A 
BRANCH  59  73
ATOM     73  C   UNL     1       5.337  14.624  -4.753  1.00  0.00     0.064 A 
ATOM     74  C   UNL     1       5.447  14.465  -6.144  1.00  0.00     0.173 A 
ATOM     75  C   UNL     1       6.522  14.737  -4.011  1.00  0.00     0.173 A 
ATOM     76  F   UNL     1       4.344  14.339  -6.897  1.00  0.00    -0.203 F 
ATOM     77  C   UNL     1       6.692  14.386  -6.761  1.00  0.00     0.198 A 
ATOM     78  C   UNL     1       7.766  14.690  -4.636  1.00  0.00     0.198 A 
ATOM     79  F   UNL     1       6.474  14.896  -2.680  1.00  0.00    -0.203 F 
ATOM     80  F   UNL     1       6.771  14.177  -8.082  1.00  0.00    -0.200 F 
ATOM     81  C   UNL     1       7.850  14.505  -6.008  1.00  0.00     0.200 A 
ATOM     82  F   UNL     1       8.884  14.817  -3.908  1.00  0.00    -0.200 F 
ATOM     83  F   UNL     1       9.048  14.432  -6.603  1.00  0.00    -0.200 F 
ENDBRANCH  59  73
BRANCH  60  84
ATOM     84  C   UNL     1      -3.475  14.543  -0.062  1.00  0.00     0.064 A 
ATOM     85  C   UNL     1      -4.577  15.246  -0.569  1.00  0.00     0.173 A 
ATOM     86  C   UNL     1      -3.643  13.848   1.144  1.00  0.00     0.173 A 
ATOM     87  F   UNL     1      -4.459  15.943  -1.709  1.00  0.00    -0.203 F 
ATOM     88  C   UNL     1      -5.791  15.275   0.115  1.00  0.00     0.198 A 
ATOM     89  C   UNL     1      -4.866  13.855   1.813  1.00  0.00     0.198 A 
ATOM     90  F   UNL     1      -2.622  13.155   1.668  1.00  0.00    -0.203 F 
ATOM     91  F   UNL     1      -6.813  15.994  -0.369  1.00  0.00    -0.200 F 
ATOM     92  C   UNL     1      -5.936  14.575   1.303  1.00  0.00     0.200 A 
ATOM     93  F   UNL     1      -5.006  13.168   2.955  1.00  0.00    -0.200 F 
ATOM     94  F   UNL     1      -7.103  14.601   1.960  1.00  0.00    -0.200 F 
ENDBRANCH  60  84
BRANCH  72  95
ATOM     95  C   UNL     1       1.251  19.493  -1.344  1.00  0.00     0.064 A 
ATOM     96  C   UNL     1       1.474  19.946  -0.036  1.00  0.00     0.173 A 
ATOM     97  C   UNL     1       1.109  20.453  -2.358  1.00  0.00     0.173 A 
ATOM     98  F   UNL     1       1.601  19.067   0.970  1.00  0.00    -0.203 F 
ATOM     99  C   UNL     1       1.527  21.307   0.250  1.00  0.00     0.198 A 
ATOM    100  C   UNL     1       1.192  21.813  -2.073  1.00  0.00     0.198 A 
ATOM    101  F   UNL     1       0.901  20.072  -3.627  1.00  0.00    -0.203 F 
ATOM    102  F   UNL     1       1.693  21.718   1.515  1.00  0.00    -0.200 F 
ATOM    103  C   UNL     1       1.393  22.239  -0.769  1.00  0.00     0.200 A 
ATOM    104  F   UNL     1       1.075  22.712  -3.060  1.00  0.00    -0.200 F 
ATOM    105  F   UNL     1       1.450  23.549  -0.492  1.00  0.00    -0.200 F 
ENDBRANCH  72  95
ENDBRANCH  46  47
ENDBRANCH  38  41
ENDBRANCH  36  37
ENDBRANCH  35  36
ENDBRANCH  34  35
ENDBRANCH   1  34
TORSDOF 16
