REMARK SMILES Nn1c(S[C@@H](C(=O)NCCCCNC(=O)c2ccc(-c3c4nc(c(-c5c(F)c(F)c(F)c(F)c5F)c5ccc([nH]5)c(-c5c(F)c(F)c(F)c(F)c5F)c5nc(c(-c6c(F)c(F)c(F)c(F)c6F)c6ccc3[nH]6)C=C5)C=C4)cc2)c2ccccc2)nc2ccc(Br)cc2c1=O
REMARK SMILES IDX 10 1 9 2 8 3 6 4 7 5 5 7 4 8 3 9 2 10 93 11 85 12 92 13
REMARK SMILES IDX 94 14 86 15 91 16 87 17 89 18 88 19 90 20 1 21 79 24 80 25
REMARK SMILES IDX 84 26 81 27 83 28 82 29 11 30 12 31 13 32 14 33 15 35 16 36
REMARK SMILES IDX 17 37 78 38 18 39 77 40 19 41 20 42 21 43 71 44 22 45 76 46
REMARK SMILES IDX 70 47 72 48 23 49 75 50 69 51 68 52 24 54 56 55 36 56 55 57
REMARK SMILES IDX 37 58 40 59 54 60 73 61 38 62 39 63 53 65 74 66 41 67 25 68
REMARK SMILES IDX 26 69 34 70 27 71 28 72 32 73 35 74 29 75 30 76 33 77 31 78
REMARK SMILES IDX 57 79 58 80 66 81 59 82 60 83 64 84 67 85 61 86 62 87 65 88
REMARK SMILES IDX 63 89 42 90 43 91 51 92 44 93 45 94 49 95 52 96 46 97 47 98
REMARK SMILES IDX 50 99 48 100
REMARK H PARENT 8 6 1 22 1 23 13 34 72 53 40 64
REMARK Flexibility Score: inf
ROOT
ATOM      1  C   UNL     1       4.730   1.960   2.414  1.00  0.00     0.023 C 
ENDROOT
BRANCH   1   2
ATOM      2  C   UNL     1       4.955   1.768   0.911  1.00  0.00     0.116 C 
BRANCH   2   3
ATOM      3  N   UNL     1       4.404   0.519   0.416  1.00  0.00    -0.355 N 
ATOM      4  C   UNL     1       3.304   0.247  -0.359  1.00  0.00     0.238 C 
ATOM      5  O   UNL     1       3.200  -0.945  -0.665  1.00  0.00    -0.273 OA
ATOM      6  H   UNL     1       4.913  -0.280   0.685  1.00  0.00     0.163 HD
BRANCH   4   7
ATOM      7  C   UNL     1       2.363   1.382  -0.845  1.00  0.00     0.174 C 
BRANCH   7   8
ATOM      8  S   UNL     1       1.697   2.342   0.546  1.00  0.00    -0.068 SA
BRANCH   8   9
ATOM      9  C   UNL     1       0.459   1.518   1.455  1.00  0.00     0.191 A 
ATOM     10  N   UNL     1       0.044   0.202   1.282  1.00  0.00    -0.202 N 
ATOM     11  C   UNL     1      -0.985  -0.359   2.048  1.00  0.00     0.280 A 
ATOM     12  N   UNL     1      -0.054   2.284   2.369  1.00  0.00    -0.222 NA
ATOM     13  C   UNL     1      -1.582   0.510   3.068  1.00  0.00     0.069 A 
ATOM     14  O   UNL     1      -1.391  -1.513   1.907  1.00  0.00    -0.267 OA
ATOM     15  C   UNL     1      -1.071   1.798   3.192  1.00  0.00     0.079 A 
ATOM     16  C   UNL     1      -2.621   0.054   3.887  1.00  0.00     0.031 A 
ATOM     17  C   UNL     1      -1.604   2.641   4.169  1.00  0.00     0.030 A 
ATOM     18  C   UNL     1      -3.147   0.912   4.848  1.00  0.00     0.018 A 
ATOM     19  C   UNL     1      -2.640   2.202   4.998  1.00  0.00     0.018 A 
ATOM     20  Br  UNL     1      -4.558   0.324   5.958  1.00  0.00    -0.051 Br
BRANCH  10  21
ATOM     21  N   UNL     1       0.608  -0.657   0.332  1.00  0.00    -0.334 N 
ATOM     22  H   UNL     1       1.337  -0.338  -0.247  1.00  0.00     0.178 HD
ATOM     23  H   UNL     1       0.275  -1.579   0.243  1.00  0.00     0.178 HD
ENDBRANCH  10  21
ENDBRANCH   8   9
ENDBRANCH   7   8
BRANCH   7  24
ATOM     24  C   UNL     1       1.351   1.155  -1.981  1.00  0.00    -0.025 A 
ATOM     25  C   UNL     1       1.165  -0.073  -2.636  1.00  0.00     0.005 A 
ATOM     26  C   UNL     1       0.570   2.241  -2.433  1.00  0.00     0.005 A 
ATOM     27  C   UNL     1       0.185  -0.232  -3.624  1.00  0.00     0.000 A 
ATOM     28  C   UNL     1      -0.404   2.087  -3.424  1.00  0.00     0.000 A 
ATOM     29  C   UNL     1      -0.607   0.843  -4.009  1.00  0.00     0.000 A 
ENDBRANCH   7  24
ENDBRANCH   4   7
ENDBRANCH   2   3
ENDBRANCH   1   2
BRANCH   1  30
ATOM     30  C   UNL     1       5.243   0.832   3.310  1.00  0.00     0.023 C 
BRANCH  30  31
ATOM     31  C   UNL     1       6.702   0.444   3.119  1.00  0.00     0.116 C 
BRANCH  31  32
ATOM     32  N   UNL     1       7.631   1.537   3.357  1.00  0.00    -0.352 N 
ATOM     33  C   UNL     1       8.813   1.547   4.063  1.00  0.00     0.251 C 
ATOM     34  H   UNL     1       7.377   2.398   2.954  1.00  0.00     0.163 HD
ATOM     35  O   UNL     1       9.419   2.599   4.227  1.00  0.00    -0.269 OA
BRANCH  33  36
ATOM     36  C   UNL     1       9.333   0.297   4.665  1.00  0.00     0.039 A 
ATOM     37  C   UNL     1       9.313  -0.908   3.962  1.00  0.00     0.014 A 
ATOM     38  C   UNL     1       9.834   0.333   5.971  1.00  0.00     0.014 A 
ATOM     39  C   UNL     1       9.618  -2.095   4.620  1.00  0.00     0.010 A 
ATOM     40  C   UNL     1      10.226  -0.852   6.603  1.00  0.00     0.010 A 
ATOM     41  C   UNL     1      10.068  -2.084   5.952  1.00  0.00    -0.014 A 
BRANCH  41  42
ATOM     42  C   UNL     1      10.351  -3.377   6.631  1.00  0.00     0.031 A 
ATOM     43  C   UNL     1       9.516  -3.836   7.797  1.00  0.00     0.074 A 
ATOM     44  C   UNL     1      11.315  -4.179   6.139  1.00  0.00     0.049 A 
ATOM     45  N   UNL     1       9.560  -4.975   8.444  1.00  0.00    -0.248 NA
ATOM     46  C   UNL     1       8.502  -2.900   8.309  1.00  0.00     0.031 C 
ATOM     47  C   UNL     1      12.194  -3.843   5.018  1.00  0.00     0.029 A 
ATOM     48  N   UNL     1      11.693  -5.451   6.489  1.00  0.00    -0.354 N 
ATOM     49  C   UNL     1       8.594  -4.887   9.438  1.00  0.00     0.074 A 
ATOM     50  C   UNL     1       8.002  -3.572   9.336  1.00  0.00     0.031 C 
ATOM     51  C   UNL     1      12.959  -4.905   4.727  1.00  0.00     0.029 A 
ATOM     52  C   UNL     1      12.664  -5.978   5.673  1.00  0.00     0.049 A 
ATOM     53  H   UNL     1      11.305  -5.939   7.251  1.00  0.00     0.167 HD
ATOM     54  C   UNL     1       8.221  -5.827  10.340  1.00  0.00     0.037 A 
ATOM     55  C   UNL     1      13.252  -7.190   5.680  1.00  0.00     0.037 A 
ATOM     56  C   UNL     1       8.790  -7.147  10.422  1.00  0.00     0.049 A 
ATOM     57  C   UNL     1      12.838  -8.202   6.710  1.00  0.00     0.074 A 
ATOM     58  C   UNL     1       8.449  -8.178  11.280  1.00  0.00     0.029 A 
ATOM     59  N   UNL     1       9.815  -7.618   9.617  1.00  0.00    -0.354 N 
ATOM     60  N   UNL     1      11.902  -8.115   7.622  1.00  0.00    -0.248 NA
ATOM     61  C   UNL     1      13.569  -9.477   6.719  1.00  0.00     0.031 C 
ATOM     62  C   UNL     1       9.295  -9.260  11.022  1.00  0.00     0.029 A 
ATOM     63  C   UNL     1      10.134  -8.918   9.975  1.00  0.00     0.049 A 
ATOM     64  H   UNL     1      10.250  -7.106   8.898  1.00  0.00     0.167 HD
ATOM     65  C   UNL     1      11.922  -9.322   8.305  1.00  0.00     0.074 A 
ATOM     66  C   UNL     1      12.951 -10.135   7.691  1.00  0.00     0.031 C 
ATOM     67  C   UNL     1      11.158  -9.716   9.352  1.00  0.00     0.037 A 
BRANCH  54  68
ATOM     68  C   UNL     1       7.137  -5.475  11.316  1.00  0.00     0.064 A 
ATOM     69  C   UNL     1       5.794  -5.394  10.920  1.00  0.00     0.173 A 
ATOM     70  C   UNL     1       7.432  -5.305  12.677  1.00  0.00     0.173 A 
ATOM     71  F   UNL     1       5.461  -5.541   9.629  1.00  0.00    -0.203 F 
ATOM     72  C   UNL     1       4.788  -5.144  11.849  1.00  0.00     0.198 A 
ATOM     73  C   UNL     1       6.421  -5.079  13.607  1.00  0.00     0.198 A 
ATOM     74  F   UNL     1       8.700  -5.383  13.109  1.00  0.00    -0.203 F 
ATOM     75  F   UNL     1       3.514  -5.045  11.444  1.00  0.00    -0.200 F 
ATOM     76  C   UNL     1       5.100  -4.997  13.192  1.00  0.00     0.200 A 
ATOM     77  F   UNL     1       6.723  -4.952  14.907  1.00  0.00    -0.200 F 
ATOM     78  F   UNL     1       4.128  -4.775  14.088  1.00  0.00    -0.200 F 
ENDBRANCH  54  68
BRANCH  55  79
ATOM     79  C   UNL     1      14.278  -7.511   4.657  1.00  0.00     0.064 A 
ATOM     80  C   UNL     1      14.011  -8.432   3.635  1.00  0.00     0.173 A 
ATOM     81  C   UNL     1      15.532  -6.881   4.658  1.00  0.00     0.173 A 
ATOM     82  F   UNL     1      12.834  -9.074   3.603  1.00  0.00    -0.203 F 
ATOM     83  C   UNL     1      14.960  -8.713   2.654  1.00  0.00     0.198 A 
ATOM     84  C   UNL     1      16.469  -7.143   3.662  1.00  0.00     0.198 A 
ATOM     85  F   UNL     1      15.834  -5.990   5.614  1.00  0.00    -0.203 F 
ATOM     86  F   UNL     1      14.690  -9.617   1.703  1.00  0.00    -0.200 F 
ATOM     87  C   UNL     1      16.184  -8.061   2.663  1.00  0.00     0.200 A 
ATOM     88  F   UNL     1      17.644  -6.499   3.666  1.00  0.00    -0.200 F 
ATOM     89  F   UNL     1      17.090  -8.320   1.711  1.00  0.00    -0.200 F 
ENDBRANCH  55  79
BRANCH  67  90
ATOM     90  C   UNL     1      11.393 -11.089   9.908  1.00  0.00     0.064 A 
ATOM     91  C   UNL     1      12.508 -11.367  10.710  1.00  0.00     0.173 A 
ATOM     92  C   UNL     1      10.449 -12.108   9.713  1.00  0.00     0.173 A 
ATOM     93  F   UNL     1      13.444 -10.428  10.915  1.00  0.00    -0.203 F 
ATOM     94  C   UNL     1      12.672 -12.619  11.295  1.00  0.00     0.198 A 
ATOM     95  C   UNL     1      10.604 -13.351  10.318  1.00  0.00     0.198 A 
ATOM     96  F   UNL     1       9.362 -11.886   8.958  1.00  0.00    -0.203 F 
ATOM     97  F   UNL     1      13.756 -12.871  12.042  1.00  0.00    -0.200 F 
ATOM     98  C   UNL     1      11.715 -13.606  11.108  1.00  0.00     0.200 A 
ATOM     99  F   UNL     1       9.671 -14.299  10.148  1.00  0.00    -0.200 F 
ATOM    100  F   UNL     1      11.864 -14.804  11.689  1.00  0.00    -0.200 F 
ENDBRANCH  67  90
ENDBRANCH  41  42
ENDBRANCH  33  36
ENDBRANCH  31  32
ENDBRANCH  30  31
ENDBRANCH   1  30
TORSDOF 15
