REMARK SMILES [NH3+][C@]1(C(=O)NCCCCNC(=O)c2ccc(-c3c4nc(c(-c5c(F)c(F)c(F)c(F)c5F)c5ccc([nH]5)c(-c5c(F)c(F)c(F)c(F)c5F)c5nc(c(-c6c(F)c(F)c(F)c(F)c6F)c6ccc3[nH]6)C=C5)C=C4)cc2)CC[C@@H]([NH+]2CCC(C(F)(F)F)CC2)C1
REMARK SMILES IDX 7 1 6 2 5 3 3 4 4 5 2 7 76 8 89 9 77 10 78 11 1 12 79 16
REMARK SMILES IDX 80 17 88 18 81 20 87 21 82 22 83 23 84 24 85 25 86 26 8 27
REMARK SMILES IDX 9 28 10 29 11 30 12 32 13 33 14 34 75 35 15 36 74 37 16 38
REMARK SMILES IDX 17 39 18 40 68 41 19 42 73 43 67 44 69 45 20 46 72 47 66 48
REMARK SMILES IDX 65 49 21 51 53 52 33 53 52 54 34 55 37 56 51 57 70 58 35 59
REMARK SMILES IDX 36 60 50 62 71 63 38 64 22 65 23 66 31 67 24 68 25 69 29 70
REMARK SMILES IDX 32 71 26 72 27 73 30 74 28 75 54 76 55 77 63 78 56 79 57 80
REMARK SMILES IDX 61 81 64 82 58 83 59 84 62 85 60 86 39 87 40 88 48 89 41 90
REMARK SMILES IDX 42 91 46 92 49 93 43 94 44 95 47 96 45 97
REMARK H PARENT 5 6 1 13 1 14 1 15 79 19 10 31 69 50 37 61
REMARK Flexibility Score: inf
ROOT
ATOM      1  C   UNL     1      -1.836   2.011  -0.320  1.00  0.00     0.023 C 
ENDROOT
BRANCH   1   2
ATOM      2  C   UNL     1      -1.053   1.118  -1.281  1.00  0.00     0.116 C 
BRANCH   2   3
ATOM      3  N   UNL     1       0.296   0.879  -0.812  1.00  0.00    -0.351 N 
ATOM      4  C   UNL     1       0.882  -0.154  -0.155  1.00  0.00     0.281 C 
ATOM      5  O   UNL     1       2.068   0.037   0.155  1.00  0.00    -0.268 OA
ATOM      6  H   UNL     1       0.915   1.618  -1.011  1.00  0.00     0.163 HD
BRANCH   4   7
ATOM      7  C   UNL     1       0.215  -1.526   0.147  1.00  0.00     0.179 C 
ATOM      8  C   UNL     1       0.931  -2.615  -0.672  1.00  0.00     0.085 C 
ATOM      9  C   UNL     1       0.515  -1.949   1.600  1.00  0.00     0.144 C 
ATOM     10  C   UNL     1       0.679  -3.900   0.103  1.00  0.00     0.072 C 
ATOM     11  C   UNL     1       0.713  -3.482   1.586  1.00  0.00     0.191 C 
BRANCH   7  12
ATOM     12  N   UNL     1      -1.243  -1.595  -0.080  1.00  0.00    -0.345 N 
ATOM     13  H   UNL     1      -1.579  -2.531   0.147  1.00  0.00     0.345 HD
ATOM     14  H   UNL     1      -1.444  -1.389  -1.059  1.00  0.00     0.345 HD
ATOM     15  H   UNL     1      -1.713  -0.912   0.514  1.00  0.00     0.345 HD
ENDBRANCH   7  12
BRANCH  11  16
ATOM     16  N   UNL     1       1.888  -3.985   2.324  1.00  0.00    -0.332 N 
ATOM     17  C   UNL     1       3.182  -3.562   1.769  1.00  0.00     0.263 C 
ATOM     18  C   UNL     1       1.792  -3.676   3.759  1.00  0.00     0.263 C 
ATOM     19  H   UNL     1       1.865  -4.998   2.205  1.00  0.00     0.348 HD
ATOM     20  C   UNL     1       4.334  -4.258   2.492  1.00  0.00     0.074 C 
ATOM     21  C   UNL     1       2.908  -4.360   4.547  1.00  0.00     0.074 C 
ATOM     22  C   UNL     1       4.287  -3.985   3.996  1.00  0.00     0.106 C 
BRANCH  22  23
ATOM     23  C   UNL     1       5.387  -4.737   4.718  1.00  0.00     0.392 C 
ATOM     24  F   UNL     1       6.604  -4.382   4.247  1.00  0.00    -0.171 F 
ATOM     25  F   UNL     1       5.371  -4.459   6.042  1.00  0.00    -0.171 F 
ATOM     26  F   UNL     1       5.264  -6.073   4.577  1.00  0.00    -0.171 F 
ENDBRANCH  22  23
ENDBRANCH  11  16
ENDBRANCH   4   7
ENDBRANCH   2   3
ENDBRANCH   1   2
BRANCH   1  27
ATOM     27  C   UNL     1      -1.409   3.483  -0.334  1.00  0.00     0.023 C 
BRANCH  27  28
ATOM     28  C   UNL     1      -1.389   4.149  -1.708  1.00  0.00     0.116 C 
BRANCH  28  29
ATOM     29  N   UNL     1      -2.643   4.019  -2.436  1.00  0.00    -0.352 N 
ATOM     30  C   UNL     1      -3.257   4.927  -3.264  1.00  0.00     0.251 C 
ATOM     31  H   UNL     1      -3.116   3.164  -2.318  1.00  0.00     0.163 HD
ATOM     32  O   UNL     1      -4.365   4.692  -3.734  1.00  0.00    -0.269 OA
BRANCH  30  33
ATOM     33  C   UNL     1      -2.590   6.213  -3.551  1.00  0.00     0.039 A 
ATOM     34  C   UNL     1      -3.315   7.396  -3.385  1.00  0.00     0.014 A 
ATOM     35  C   UNL     1      -1.251   6.253  -3.946  1.00  0.00     0.014 A 
ATOM     36  C   UNL     1      -2.672   8.625  -3.540  1.00  0.00     0.010 A 
ATOM     37  C   UNL     1      -0.596   7.478  -4.036  1.00  0.00     0.010 A 
ATOM     38  C   UNL     1      -1.298   8.675  -3.825  1.00  0.00    -0.014 A 
BRANCH  38  39
ATOM     39  C   UNL     1      -0.573   9.969  -3.895  1.00  0.00     0.031 A 
ATOM     40  C   UNL     1       0.038  10.421  -5.191  1.00  0.00     0.074 A 
ATOM     41  C   UNL     1      -0.410  10.701  -2.776  1.00  0.00     0.049 A 
ATOM     42  N   UNL     1       0.786  11.467  -5.432  1.00  0.00    -0.248 NA
ATOM     43  C   UNL     1      -0.202   9.570  -6.367  1.00  0.00     0.031 C 
ATOM     44  C   UNL     1      -0.919  10.347  -1.449  1.00  0.00     0.029 A 
ATOM     45  N   UNL     1       0.244  11.891  -2.572  1.00  0.00    -0.354 N 
ATOM     46  C   UNL     1       1.110  11.397  -6.780  1.00  0.00     0.074 A 
ATOM     47  C   UNL     1       0.524  10.178  -7.295  1.00  0.00     0.031 C 
ATOM     48  C   UNL     1      -0.572  11.305  -0.574  1.00  0.00     0.029 A 
ATOM     49  C   UNL     1       0.215  12.320  -1.267  1.00  0.00     0.049 A 
ATOM     50  H   UNL     1       0.693  12.389  -3.293  1.00  0.00     0.167 HD
ATOM     51  C   UNL     1       1.810  12.282  -7.527  1.00  0.00     0.037 A 
ATOM     52  C   UNL     1       0.770  13.405  -0.694  1.00  0.00     0.037 A 
ATOM     53  C   UNL     1       2.373  13.505  -7.020  1.00  0.00     0.049 A 
ATOM     54  C   UNL     1       1.555  14.365  -1.548  1.00  0.00     0.074 A 
ATOM     55  C   UNL     1       3.071  14.484  -7.706  1.00  0.00     0.029 A 
ATOM     56  N   UNL     1       2.298  13.919  -5.699  1.00  0.00    -0.354 N 
ATOM     57  N   UNL     1       1.808  14.314  -2.833  1.00  0.00    -0.248 NA
ATOM     58  C   UNL     1       2.128  15.538  -0.872  1.00  0.00     0.031 C 
ATOM     59  C   UNL     1       3.446  15.475  -6.794  1.00  0.00     0.029 A 
ATOM     60  C   UNL     1       2.945  15.135  -5.548  1.00  0.00     0.049 A 
ATOM     61  H   UNL     1       1.851  13.423  -4.975  1.00  0.00     0.167 HD
ATOM     62  C   UNL     1       2.536  15.459  -3.125  1.00  0.00     0.074 A 
ATOM     63  C   UNL     1       2.673  16.194  -1.886  1.00  0.00     0.031 C 
ATOM     64  C   UNL     1       3.050  15.864  -4.311  1.00  0.00     0.037 A 
BRANCH  51  65
ATOM     65  C   UNL     1       1.992  11.974  -8.984  1.00  0.00     0.064 A 
ATOM     66  C   UNL     1       0.922  12.063  -9.887  1.00  0.00     0.173 A 
ATOM     67  C   UNL     1       3.257  11.646  -9.494  1.00  0.00     0.173 A 
ATOM     68  F   UNL     1      -0.309  12.361  -9.447  1.00  0.00    -0.203 F 
ATOM     69  C   UNL     1       1.109  11.819 -11.245  1.00  0.00     0.198 A 
ATOM     70  C   UNL     1       3.446  11.430 -10.857  1.00  0.00     0.198 A 
ATOM     71  F   UNL     1       4.314  11.553  -8.674  1.00  0.00    -0.203 F 
ATOM     72  F   UNL     1       0.064  11.875 -12.083  1.00  0.00    -0.200 F 
ATOM     73  C   UNL     1       2.371  11.512 -11.730  1.00  0.00     0.200 A 
ATOM     74  F   UNL     1       4.668  11.146 -11.326  1.00  0.00    -0.200 F 
ATOM     75  F   UNL     1       2.551  11.292 -13.039  1.00  0.00    -0.200 F 
ENDBRANCH  51  65
BRANCH  52  76
ATOM     76  C   UNL     1       0.601  13.657   0.762  1.00  0.00     0.064 A 
ATOM     77  C   UNL     1      -0.159  14.743   1.220  1.00  0.00     0.173 A 
ATOM     78  C   UNL     1       1.223  12.845   1.721  1.00  0.00     0.173 A 
ATOM     79  F   UNL     1      -0.755  15.561   0.341  1.00  0.00    -0.203 F 
ATOM     80  C   UNL     1      -0.261  15.027   2.580  1.00  0.00     0.198 A 
ATOM     81  C   UNL     1       1.094  13.112   3.083  1.00  0.00     0.198 A 
ATOM     82  F   UNL     1       1.957  11.791   1.336  1.00  0.00    -0.203 F 
ATOM     83  F   UNL     1      -0.942  16.107   2.987  1.00  0.00    -0.200 F 
ATOM     84  C   UNL     1       0.363  14.210   3.511  1.00  0.00     0.200 A 
ATOM     85  F   UNL     1       1.688  12.313   3.979  1.00  0.00    -0.200 F 
ATOM     86  F   UNL     1       0.270  14.487   4.818  1.00  0.00    -0.200 F 
ENDBRANCH  52  76
BRANCH  64  87
ATOM     87  C   UNL     1       3.765  17.183  -4.337  1.00  0.00     0.064 A 
ATOM     88  C   UNL     1       5.032  17.345  -3.759  1.00  0.00     0.173 A 
ATOM     89  C   UNL     1       3.190  18.287  -4.985  1.00  0.00     0.173 A 
ATOM     90  F   UNL     1       5.616  16.323  -3.115  1.00  0.00    -0.203 F 
ATOM     91  C   UNL     1       5.687  18.572  -3.807  1.00  0.00     0.198 A 
ATOM     92  C   UNL     1       3.861  19.504  -5.056  1.00  0.00     0.198 A 
ATOM     93  F   UNL     1       1.982  18.180  -5.559  1.00  0.00    -0.203 F 
ATOM     94  F   UNL     1       6.877  18.718  -3.208  1.00  0.00    -0.200 F 
ATOM     95  C   UNL     1       5.105  19.648  -4.462  1.00  0.00     0.200 A 
ATOM     96  F   UNL     1       3.303  20.538  -5.700  1.00  0.00    -0.200 F 
ATOM     97  F   UNL     1       5.741  20.826  -4.513  1.00  0.00    -0.200 F 
ENDBRANCH  64  87
ENDBRANCH  38  39
ENDBRANCH  30  33
ENDBRANCH  28  29
ENDBRANCH  27  28
ENDBRANCH   1  27
TORSDOF 14
