REMARK SMILES [NH3+][C@@]1(C(=O)NCCCCNC(=O)c2ccc(-c3c4nc(c(-c5c(F)c(F)c(F)c(F)c5F)c5ccc([nH]5)c(-c5c(F)c(F)c(F)c(F)c5F)c5nc(c(-c6c(F)c(F)c(F)c(F)c6F)c6ccc3[nH]6)C=C5)C=C4)cc2)CCC[C@H]1CCOC1CCCCCC1
REMARK SMILES IDX 3 1 4 2 5 3 2 5 76 6 79 7 77 8 78 9 1 10 80 14 81 15 82 16
REMARK SMILES IDX 83 17 84 18 85 19 86 20 89 22 88 23 87 24 6 26 7 27 8 28
REMARK SMILES IDX 9 29 10 30 11 31 12 33 13 34 14 35 75 36 15 37 74 38 16 39
REMARK SMILES IDX 17 40 18 41 68 42 19 43 73 44 67 45 69 46 20 47 72 48 66 49
REMARK SMILES IDX 65 50 21 52 53 53 33 54 52 55 34 56 37 57 51 58 70 59 35 60
REMARK SMILES IDX 36 61 50 63 71 64 38 65 22 66 23 67 31 68 24 69 25 70 29 71
REMARK SMILES IDX 32 72 26 73 27 74 30 75 28 76 54 77 55 78 63 79 56 80 57 81
REMARK SMILES IDX 61 82 64 83 58 84 59 85 62 86 60 87 39 88 40 89 48 90 41 91
REMARK SMILES IDX 42 92 46 93 49 94 43 95 44 96 47 97 45 98
REMARK H PARENT 5 4 1 11 1 12 1 13 10 32 69 51 37 62
REMARK Flexibility Score: 90.00
ROOT
ATOM      1  C   UNL     1      -0.748  -1.417   0.294  1.00  0.00     0.281 C 
ATOM      2  O   UNL     1      -1.196  -0.261   0.238  1.00  0.00    -0.268 OA
ATOM      3  N   UNL     1      -1.604  -2.351   0.797  1.00  0.00    -0.351 N 
ATOM      4  H   UNL     1      -2.501  -2.002   1.007  1.00  0.00     0.163 HD
ENDROOT
BRANCH   1   5
ATOM      5  C   UNL     1       0.753  -1.705  -0.130  1.00  0.00     0.176 C 
ATOM      6  C   UNL     1       0.848  -2.793  -1.220  1.00  0.00     0.079 C 
ATOM      7  C   UNL     1       1.647  -2.185   1.055  1.00  0.00     0.063 C 
ATOM      8  C   UNL     1       1.620  -3.971  -0.647  1.00  0.00     0.008 C 
ATOM      9  C   UNL     1       2.404  -3.424   0.533  1.00  0.00     0.011 C 
BRANCH   5  10
ATOM     10  N   UNL     1       1.249  -0.484  -0.809  1.00  0.00    -0.345 N 
ATOM     11  H   UNL     1       0.614  -0.236  -1.567  1.00  0.00     0.345 HD
ATOM     12  H   UNL     1       2.179  -0.660  -1.188  1.00  0.00     0.345 HD
ATOM     13  H   UNL     1       1.294   0.283  -0.138  1.00  0.00     0.345 HD
ENDBRANCH   5  10
BRANCH   7  14
ATOM     14  C   UNL     1       2.636  -1.190   1.762  1.00  0.00     0.039 C 
BRANCH  14  15
ATOM     15  C   UNL     1       2.251   0.272   2.126  1.00  0.00     0.161 C 
BRANCH  15  16
ATOM     16  O   UNL     1       1.750   0.507   3.453  1.00  0.00    -0.378 OA
BRANCH  16  17
ATOM     17  C   UNL     1       0.319   0.651   3.543  1.00  0.00     0.118 C 
BRANCH  17  18
ATOM     18  C   UNL     1      -0.277  -0.731   3.471  1.00  0.00     0.032 C 
BRANCH  18  19
ATOM     19  C   UNL     1       0.114  -1.568   4.684  1.00  0.00     0.003 C 
BRANCH  19  20
ATOM     20  C   UNL     1      -1.090  -1.680   5.596  1.00  0.00     0.000 CG0
ATOM     21  G   UNL     1      -1.522  -0.358   6.236  1.00  0.00     0.000 G0
ENDBRANCH  19  20
ENDBRANCH  18  19
ENDBRANCH  17  18
BRANCH  17  22
ATOM     22  C   UNL     1      -0.091   1.331   4.867  1.00  0.00     0.032 C 
BRANCH  22  23
ATOM     23  C   UNL     1      -1.490   0.924   5.380  1.00  0.00     0.003 C 
BRANCH  23  24
ATOM     24  C   UNL     1      -1.522  -0.358   6.236  1.00  0.00     0.000 CG0
ATOM     25  G   UNL     1      -1.090  -1.680   5.596  1.00  0.00     0.000 G0
ENDBRANCH  23  24
ENDBRANCH  22  23
ENDBRANCH  17  22
ENDBRANCH  16  17
ENDBRANCH  15  16
ENDBRANCH  14  15
ENDBRANCH   7  14
ENDBRANCH   1   5
BRANCH   3  26
ATOM     26  C   UNL     1      -1.439  -3.760   1.081  1.00  0.00     0.116 C 
BRANCH  26  27
ATOM     27  C   UNL     1      -1.507  -4.098   2.565  1.00  0.00     0.023 C 
BRANCH  27  28
ATOM     28  C   UNL     1      -2.878  -3.954   3.211  1.00  0.00     0.023 C 
BRANCH  28  29
ATOM     29  C   UNL     1      -3.922  -4.900   2.649  1.00  0.00     0.116 C 
BRANCH  29  30
ATOM     30  N   UNL     1      -3.543  -6.298   2.809  1.00  0.00    -0.352 N 
ATOM     31  C   UNL     1      -4.265  -7.335   3.346  1.00  0.00     0.251 C 
ATOM     32  H   UNL     1      -2.642  -6.531   2.486  1.00  0.00     0.163 HD
ATOM     33  O   UNL     1      -3.728  -8.404   3.593  1.00  0.00    -0.269 OA
BRANCH  31  34
ATOM     34  C   UNL     1      -5.698  -7.132   3.636  1.00  0.00     0.039 A 
ATOM     35  C   UNL     1      -6.225  -7.610   4.837  1.00  0.00     0.014 A 
ATOM     36  C   UNL     1      -6.508  -6.446   2.728  1.00  0.00     0.014 A 
ATOM     37  C   UNL     1      -7.558  -7.346   5.151  1.00  0.00     0.010 A 
ATOM     38  C   UNL     1      -7.798  -6.090   3.091  1.00  0.00     0.010 A 
ATOM     39  C   UNL     1      -8.343  -6.554   4.296  1.00  0.00    -0.014 A 
BRANCH  39  40
ATOM     40  C   UNL     1      -9.750  -6.224   4.623  1.00  0.00     0.031 A 
ATOM     41  C   UNL     1     -10.851  -6.681   3.705  1.00  0.00     0.074 A 
ATOM     42  C   UNL     1     -10.023  -5.462   5.700  1.00  0.00     0.049 A 
ATOM     43  N   UNL     1     -12.134  -6.433   3.766  1.00  0.00    -0.248 NA
ATOM     44  C   UNL     1     -10.457  -7.495   2.542  1.00  0.00     0.031 C 
ATOM     45  C   UNL     1      -9.027  -4.914   6.625  1.00  0.00     0.029 A 
ATOM     46  N   UNL     1     -11.218  -5.006   6.194  1.00  0.00    -0.354 N 
ATOM     47  C   UNL     1     -12.688  -7.038   2.646  1.00  0.00     0.074 A 
ATOM     48  C   UNL     1     -11.603  -7.617   1.889  1.00  0.00     0.031 C 
ATOM     49  C   UNL     1      -9.655  -4.219   7.587  1.00  0.00     0.029 A 
ATOM     50  C   UNL     1     -11.090  -4.234   7.324  1.00  0.00     0.049 A 
ATOM     51  H   UNL     1     -12.087  -5.213   5.779  1.00  0.00     0.167 HD
ATOM     52  C   UNL     1     -13.992  -7.125   2.296  1.00  0.00     0.037 A 
ATOM     53  C   UNL     1     -12.028  -3.601   8.053  1.00  0.00     0.037 A 
ATOM     54  C   UNL     1     -15.069  -6.587   3.082  1.00  0.00     0.049 A 
ATOM     55  C   UNL     1     -13.473  -3.729   7.642  1.00  0.00     0.074 A 
ATOM     56  C   UNL     1     -16.431  -6.693   2.863  1.00  0.00     0.029 A 
ATOM     57  N   UNL     1     -14.904  -5.840   4.238  1.00  0.00    -0.354 N 
ATOM     58  N   UNL     1     -13.992  -4.382   6.631  1.00  0.00    -0.248 NA
ATOM     59  C   UNL     1     -14.463  -3.037   8.479  1.00  0.00     0.031 C 
ATOM     60  C   UNL     1     -17.088  -5.959   3.853  1.00  0.00     0.029 A 
ATOM     61  C   UNL     1     -16.140  -5.453   4.727  1.00  0.00     0.049 A 
ATOM     62  H   UNL     1     -14.037  -5.618   4.650  1.00  0.00     0.167 HD
ATOM     63  C   UNL     1     -15.366  -4.212   6.732  1.00  0.00     0.074 A 
ATOM     64  C   UNL     1     -15.601  -3.410   7.914  1.00  0.00     0.031 C 
ATOM     65  C   UNL     1     -16.348  -4.672   5.919  1.00  0.00     0.037 A 
BRANCH  52  66
ATOM     66  C   UNL     1     -14.339  -7.834   1.020  1.00  0.00     0.064 A 
ATOM     67  C   UNL     1     -14.208  -9.225   0.887  1.00  0.00     0.173 A 
ATOM     68  C   UNL     1     -14.885  -7.121  -0.059  1.00  0.00     0.173 A 
ATOM     69  F   UNL     1     -13.677  -9.951   1.883  1.00  0.00    -0.203 F 
ATOM     70  C   UNL     1     -14.601  -9.873  -0.281  1.00  0.00     0.198 A 
ATOM     71  C   UNL     1     -15.306  -7.777  -1.212  1.00  0.00     0.198 A 
ATOM     72  F   UNL     1     -15.033  -5.790   0.016  1.00  0.00    -0.203 F 
ATOM     73  F   UNL     1     -14.436 -11.198  -0.397  1.00  0.00    -0.200 F 
ATOM     74  C   UNL     1     -15.161  -9.151  -1.323  1.00  0.00     0.200 A 
ATOM     75  F   UNL     1     -15.860  -7.079  -2.213  1.00  0.00    -0.200 F 
ATOM     76  F   UNL     1     -15.561  -9.780  -2.437  1.00  0.00    -0.200 F 
ENDBRANCH  52  66
BRANCH  53  77
ATOM     77  C   UNL     1     -11.646  -2.796   9.245  1.00  0.00     0.064 A 
ATOM     78  C   UNL     1     -12.054  -3.171  10.534  1.00  0.00     0.173 A 
ATOM     79  C   UNL     1     -10.909  -1.609   9.118  1.00  0.00     0.173 A 
ATOM     80  F   UNL     1     -12.775  -4.288  10.709  1.00  0.00    -0.203 F 
ATOM     81  C   UNL     1     -11.781  -2.368  11.640  1.00  0.00     0.198 A 
ATOM     82  C   UNL     1     -10.603  -0.827  10.230  1.00  0.00     0.198 A 
ATOM     83  F   UNL     1     -10.484  -1.207   7.911  1.00  0.00    -0.203 F 
ATOM     84  F   UNL     1     -12.248  -2.714  12.847  1.00  0.00    -0.200 F 
ATOM     85  C   UNL     1     -11.054  -1.198  11.488  1.00  0.00     0.200 A 
ATOM     86  F   UNL     1      -9.885   0.294  10.080  1.00  0.00    -0.200 F 
ATOM     87  F   UNL     1     -10.799  -0.421  12.549  1.00  0.00    -0.200 F 
ENDBRANCH  53  77
BRANCH  65  88
ATOM     88  C   UNL     1     -17.765  -4.365   6.307  1.00  0.00     0.064 A 
ATOM     89  C   UNL     1     -18.289  -3.066   6.227  1.00  0.00     0.173 A 
ATOM     90  C   UNL     1     -18.622  -5.395   6.724  1.00  0.00     0.173 A 
ATOM     91  F   UNL     1     -17.507  -2.045   5.847  1.00  0.00    -0.203 F 
ATOM     92  C   UNL     1     -19.610  -2.806   6.581  1.00  0.00     0.198 A 
ATOM     93  C   UNL     1     -19.952  -5.137   7.040  1.00  0.00     0.198 A 
ATOM     94  F   UNL     1     -18.174  -6.657   6.806  1.00  0.00    -0.203 F 
ATOM     95  F   UNL     1     -20.073  -1.549   6.552  1.00  0.00    -0.200 F 
ATOM     96  C   UNL     1     -20.442  -3.842   6.978  1.00  0.00     0.200 A 
ATOM     97  F   UNL     1     -20.760  -6.143   7.404  1.00  0.00    -0.200 F 
ATOM     98  F   UNL     1     -21.716  -3.590   7.308  1.00  0.00    -0.200 F 
ENDBRANCH  65  88
ENDBRANCH  39  40
ENDBRANCH  31  34
ENDBRANCH  29  30
ENDBRANCH  28  29
ENDBRANCH  27  28
ENDBRANCH  26  27
ENDBRANCH   3  26
TORSDOF 16
