REMARK SMILES O=C(NCCCCNC(=O)c1cn(-c2ccnc3ccc(Cl)cc23)cn1)c1ccc(-c2c3nc(c(-c4c(F)c(F)c(F)c(F)c4F)c4ccc([nH]4)c(-c4c(F)c(F)c(F)c(F)c4F)c4nc(c(-c5c(F)c(F)c(F)c(F)c5F)c5ccc2[nH]5)C=C4)C=C3)cc1
REMARK SMILES IDX 5 1 4 2 3 3 1 4 2 5 27 7 28 8 89 9 29 10 88 11 30 12 31 13
REMARK SMILES IDX 32 14 82 15 33 16 87 17 81 18 83 19 34 20 86 21 80 22 79 23
REMARK SMILES IDX 35 25 67 26 47 27 66 28 48 29 51 30 65 31 84 32 49 33 50 34
REMARK SMILES IDX 64 36 85 37 52 38 36 39 37 40 45 41 38 42 39 43 43 44 46 45
REMARK SMILES IDX 40 46 41 47 44 48 42 49 68 50 69 51 77 52 70 53 71 54 75 55
REMARK SMILES IDX 78 56 72 57 73 58 76 59 74 60 53 61 54 62 62 63 55 64 56 65
REMARK SMILES IDX 60 66 63 67 57 68 58 69 61 70 59 71 6 72 7 73 8 74 9 75
REMARK SMILES IDX 10 77 11 78 12 79 26 80 13 81 25 82 14 83 15 84 24 85 16 86
REMARK SMILES IDX 18 87 23 88 17 89 19 90 21 91 20 92 22 93
REMARK H PARENT 3 6 83 24 51 35 8 76
REMARK Flexibility Score: inf
ROOT
ATOM      1  C   UNL     1       4.887   2.036   1.061  1.00  0.00     0.023 C 
ENDROOT
BRANCH   1   2
ATOM      2  C   UNL     1       4.588   0.545   0.913  1.00  0.00     0.116 C 
BRANCH   2   3
ATOM      3  N   UNL     1       3.180   0.207   0.928  1.00  0.00    -0.352 N 
ATOM      4  O   UNL     1       1.122  -0.344   0.353  1.00  0.00    -0.269 OA
ATOM      5  C   UNL     1       2.185   0.168  -0.009  1.00  0.00     0.251 C 
ATOM      6  H   UNL     1       2.865  -0.055   1.823  1.00  0.00     0.163 HD
BRANCH   5   7
ATOM      7  C   UNL     1       2.263   0.740  -1.382  1.00  0.00     0.039 A 
ATOM      8  C   UNL     1       3.429   1.083  -2.067  1.00  0.00     0.014 A 
ATOM      9  C   UNL     1       1.025   0.940  -2.027  1.00  0.00     0.014 A 
ATOM     10  C   UNL     1       3.356   1.669  -3.333  1.00  0.00     0.010 A 
ATOM     11  C   UNL     1       0.947   1.518  -3.291  1.00  0.00     0.010 A 
ATOM     12  C   UNL     1       2.116   1.905  -3.937  1.00  0.00    -0.014 A 
BRANCH  12  13
ATOM     13  C   UNL     1       2.090   2.366  -5.327  1.00  0.00     0.031 A 
ATOM     14  C   UNL     1       2.638   1.380  -6.309  1.00  0.00     0.074 A 
ATOM     15  C   UNL     1       1.483   3.497  -5.744  1.00  0.00     0.049 A 
ATOM     16  N   UNL     1       3.604   1.541  -7.154  1.00  0.00    -0.248 NA
ATOM     17  C   UNL     1       2.095   0.011  -6.282  1.00  0.00     0.031 C 
ATOM     18  C   UNL     1       0.647   4.408  -4.961  1.00  0.00     0.029 A 
ATOM     19  N   UNL     1       1.409   4.024  -7.004  1.00  0.00    -0.354 N 
ATOM     20  C   UNL     1       3.696   0.349  -7.874  1.00  0.00     0.074 A 
ATOM     21  C   UNL     1       2.830  -0.593  -7.216  1.00  0.00     0.031 C 
ATOM     22  C   UNL     1      -0.015   5.242  -5.797  1.00  0.00     0.029 A 
ATOM     23  C   UNL     1       0.441   5.012  -7.159  1.00  0.00     0.049 A 
ATOM     24  H   UNL     1       1.991   3.729  -7.741  1.00  0.00     0.167 HD
ATOM     25  C   UNL     1       4.329   0.291  -9.078  1.00  0.00     0.037 A 
ATOM     26  C   UNL     1       0.008   5.561  -8.324  1.00  0.00     0.037 A 
ATOM     27  C   UNL     1       5.237   1.393  -9.242  1.00  0.00     0.049 A 
ATOM     28  C   UNL     1       1.031   5.288  -9.360  1.00  0.00     0.074 A 
ATOM     29  C   UNL     1       6.367   1.831  -8.578  1.00  0.00     0.029 A 
ATOM     30  N   UNL     1       4.844   2.443 -10.031  1.00  0.00    -0.354 N 
ATOM     31  N   UNL     1       2.210   5.838  -9.389  1.00  0.00    -0.248 NA
ATOM     32  C   UNL     1       0.883   4.077 -10.151  1.00  0.00     0.031 C 
ATOM     33  C   UNL     1       6.293   3.253  -8.623  1.00  0.00     0.029 A 
ATOM     34  C   UNL     1       5.160   3.595  -9.362  1.00  0.00     0.049 A 
ATOM     35  H   UNL     1       4.413   2.381 -10.914  1.00  0.00     0.167 HD
ATOM     36  C   UNL     1       3.052   4.823  -9.812  1.00  0.00     0.074 A 
ATOM     37  C   UNL     1       2.170   3.798 -10.363  1.00  0.00     0.031 C 
ATOM     38  C   UNL     1       4.357   4.791  -9.417  1.00  0.00     0.037 A 
BRANCH  25  39
ATOM     39  C   UNL     1       3.867  -0.548 -10.249  1.00  0.00     0.064 A 
ATOM     40  C   UNL     1       4.646  -0.575 -11.425  1.00  0.00     0.173 A 
ATOM     41  C   UNL     1       2.556  -1.056 -10.381  1.00  0.00     0.173 A 
ATOM     42  F   UNL     1       5.904  -0.108 -11.425  1.00  0.00    -0.203 F 
ATOM     43  C   UNL     1       4.120  -0.986 -12.654  1.00  0.00     0.198 A 
ATOM     44  C   UNL     1       2.052  -1.514 -11.598  1.00  0.00     0.198 A 
ATOM     45  F   UNL     1       1.675  -1.027  -9.376  1.00  0.00    -0.203 F 
ATOM     46  F   UNL     1       4.856  -0.863 -13.767  1.00  0.00    -0.200 F 
ATOM     47  C   UNL     1       2.820  -1.446 -12.741  1.00  0.00     0.200 A 
ATOM     48  F   UNL     1       0.783  -1.940 -11.666  1.00  0.00    -0.200 F 
ATOM     49  F   UNL     1       2.291  -1.773 -13.927  1.00  0.00    -0.200 F 
ENDBRANCH  25  39
BRANCH  26  50
ATOM     50  C   UNL     1      -1.341   6.061  -8.691  1.00  0.00     0.064 A 
ATOM     51  C   UNL     1      -1.536   6.868  -9.827  1.00  0.00     0.173 A 
ATOM     52  C   UNL     1      -2.500   5.511  -8.113  1.00  0.00     0.173 A 
ATOM     53  F   UNL     1      -0.483   7.396 -10.469  1.00  0.00    -0.203 F 
ATOM     54  C   UNL     1      -2.808   7.084 -10.368  1.00  0.00     0.198 A 
ATOM     55  C   UNL     1      -3.770   5.732  -8.650  1.00  0.00     0.198 A 
ATOM     56  F   UNL     1      -2.415   4.665  -7.077  1.00  0.00    -0.203 F 
ATOM     57  F   UNL     1      -2.946   7.802 -11.492  1.00  0.00    -0.200 F 
ATOM     58  C   UNL     1      -3.923   6.505  -9.786  1.00  0.00     0.200 A 
ATOM     59  F   UNL     1      -4.837   5.135  -8.100  1.00  0.00    -0.200 F 
ATOM     60  F   UNL     1      -5.134   6.654 -10.341  1.00  0.00    -0.200 F 
ENDBRANCH  26  50
BRANCH  38  61
ATOM     61  C   UNL     1       4.928   6.024  -8.776  1.00  0.00     0.064 A 
ATOM     62  C   UNL     1       4.461   6.582  -7.573  1.00  0.00     0.173 A 
ATOM     63  C   UNL     1       6.085   6.580  -9.340  1.00  0.00     0.173 A 
ATOM     64  F   UNL     1       3.423   6.047  -6.918  1.00  0.00    -0.203 F 
ATOM     65  C   UNL     1       5.100   7.676  -6.991  1.00  0.00     0.198 A 
ATOM     66  C   UNL     1       6.743   7.645  -8.735  1.00  0.00     0.198 A 
ATOM     67  F   UNL     1       6.606   6.055 -10.460  1.00  0.00    -0.203 F 
ATOM     68  F   UNL     1       4.627   8.202  -5.851  1.00  0.00    -0.200 F 
ATOM     69  C   UNL     1       6.245   8.200  -7.568  1.00  0.00     0.200 A 
ATOM     70  F   UNL     1       7.878   8.116  -9.269  1.00  0.00    -0.200 F 
ATOM     71  F   UNL     1       6.884   9.224  -6.984  1.00  0.00    -0.200 F 
ENDBRANCH  38  61
ENDBRANCH  12  13
ENDBRANCH   5   7
ENDBRANCH   2   3
ENDBRANCH   1   2
BRANCH   1  72
ATOM     72  C   UNL     1       4.376   2.685   2.354  1.00  0.00     0.023 C 
BRANCH  72  73
ATOM     73  C   UNL     1       4.810   2.015   3.660  1.00  0.00     0.116 C 
BRANCH  73  74
ATOM     74  N   UNL     1       6.250   2.014   3.835  1.00  0.00    -0.351 N 
ATOM     75  C   UNL     1       7.016   2.577   4.834  1.00  0.00     0.271 C 
ATOM     76  H   UNL     1       6.757   1.540   3.136  1.00  0.00     0.163 HD
ATOM     77  O   UNL     1       8.235   2.581   4.702  1.00  0.00    -0.267 OA
BRANCH  75  78
ATOM     78  C   UNL     1       6.348   3.131   6.013  1.00  0.00     0.146 A 
ATOM     79  C   UNL     1       5.433   2.496   6.832  1.00  0.00     0.127 A 
ATOM     80  N   UNL     1       6.583   4.408   6.484  1.00  0.00    -0.231 NA
ATOM     81  N   UNL     1       5.069   3.415   7.788  1.00  0.00    -0.305 N 
ATOM     82  C   UNL     1       5.791   4.553   7.521  1.00  0.00     0.205 A 
BRANCH  81  83
ATOM     83  C   UNL     1       4.073   3.261   8.781  1.00  0.00     0.057 A 
ATOM     84  C   UNL     1       3.159   4.307   8.936  1.00  0.00     0.047 A 
ATOM     85  C   UNL     1       3.966   2.082   9.568  1.00  0.00     0.026 A 
ATOM     86  C   UNL     1       2.119   4.122   9.820  1.00  0.00     0.114 A 
ATOM     87  C   UNL     1       2.863   2.024  10.451  1.00  0.00     0.072 A 
ATOM     88  C   UNL     1       4.901   1.011   9.595  1.00  0.00     0.033 A 
ATOM     89  N   UNL     1       1.957   3.007  10.559  1.00  0.00    -0.256 NA
ATOM     90  C   UNL     1       2.705   0.914  11.271  1.00  0.00     0.030 A 
ATOM     91  C   UNL     1       4.720  -0.086  10.435  1.00  0.00     0.041 A 
ATOM     92  C   UNL     1       3.619  -0.142  11.273  1.00  0.00     0.023 A 
ATOM     93  Cl  UNL     1       5.875  -1.358  10.445  1.00  0.00    -0.084 Cl
ENDBRANCH  81  83
ENDBRANCH  75  78
ENDBRANCH  73  74
ENDBRANCH  72  73
ENDBRANCH   1  72
TORSDOF 12
