REMARK SMILES Cc1ccc(S(=O)(=O)N[C@@H](C)C(=O)Oc2csc(C(=O)NCCCCNC(=O)c3ccc(-c4c5nc(c(-c6c(F)c(F)c(F)c(F)c6F)c6ccc([nH]6)c(-c6c(F)c(F)c(F)c(F)c6F)c6nc(c(-c7c(F)c(F)c(F)c(F)c7F)c7ccc4[nH]7)C=C6)C=C5)cc3)c2C)cc1
REMARK SMILES IDX 19 1 20 2 21 3 18 5 15 6 16 7 92 8 17 9 93 10 14 11 12 12
REMARK SMILES IDX 13 13 10 14 11 15 9 16 6 18 7 19 8 20 5 21 1 22 2 23 3 24
REMARK SMILES IDX 95 25 4 26 94 27 22 28 23 29 24 30 25 31 26 32 27 33 28 35
REMARK SMILES IDX 29 36 30 37 91 38 31 39 90 40 32 41 33 42 34 43 84 44 35 45
REMARK SMILES IDX 89 46 83 47 85 48 36 49 88 50 82 51 81 52 37 54 69 55 49 56
REMARK SMILES IDX 68 57 50 58 53 59 67 60 86 61 51 62 52 63 66 65 87 66 54 67
REMARK SMILES IDX 38 68 39 69 47 70 40 71 41 72 45 73 48 74 42 75 43 76 46 77
REMARK SMILES IDX 44 78 70 79 71 80 79 81 72 82 73 83 77 84 80 85 74 86 75 87
REMARK SMILES IDX 78 88 76 89 55 90 56 91 64 92 57 93 58 94 62 95 65 96 59 97
REMARK SMILES IDX 60 98 63 99 61 100
REMARK H PARENT 21 4 9 17 26 34 85 53 53 64
REMARK Flexibility Score: inf
ROOT
ATOM      1  C   UNL     1      -6.081   8.504  -2.656  1.00  0.00     0.261 C 
ATOM      2  O   UNL     1      -6.912   9.401  -2.454  1.00  0.00    -0.268 OA
ATOM      3  N   UNL     1      -5.131   8.890  -3.570  1.00  0.00    -0.351 N 
ATOM      4  H   UNL     1      -5.291   9.798  -3.917  1.00  0.00     0.163 HD
ENDROOT
BRANCH   1   5
ATOM      5  C   UNL     1      -6.136   7.210  -1.953  1.00  0.00     0.099 A 
ATOM      6  C   UNL     1      -5.978   5.048  -1.032  1.00  0.00     0.145 A 
ATOM      7  C   UNL     1      -6.925   5.581  -0.203  1.00  0.00     0.113 A 
ATOM      8  C   UNL     1      -5.598   5.929  -2.112  1.00  0.00     0.015 A 
ATOM      9  S   UNL     1      -7.225   7.207  -0.581  1.00  0.00    -0.134 S 
ATOM     10  C   UNL     1      -4.776   5.393  -3.227  1.00  0.00     0.050 C 
BRANCH   6  11
ATOM     11  O   UNL     1      -5.578   3.758  -0.896  1.00  0.00    -0.424 OA
BRANCH  11  12
ATOM     12  C   UNL     1      -4.223   3.543  -0.847  1.00  0.00     0.329 C 
ATOM     13  O   UNL     1      -3.381   4.377  -0.526  1.00  0.00    -0.250 OA
BRANCH  12  14
ATOM     14  C   UNL     1      -3.871   2.098  -1.197  1.00  0.00     0.177 C 
ATOM     15  C   UNL     1      -4.596   1.612  -2.442  1.00  0.00     0.038 C 
BRANCH  14  16
ATOM     16  N   UNL     1      -4.124   1.270  -0.015  1.00  0.00    -0.197 NA
ATOM     17  H   UNL     1      -3.763   1.800   0.778  1.00  0.00     0.142 HD
BRANCH  16  18
ATOM     18  S   UNL     1      -3.542  -0.277   0.170  1.00  0.00     0.241 S 
ATOM     19  O   UNL     1      -3.881  -1.015  -1.036  1.00  0.00    -0.207 OA
ATOM     20  O   UNL     1      -3.987  -0.707   1.465  1.00  0.00    -0.207 OA
BRANCH  18  21
ATOM     21  C   UNL     1      -1.775  -0.148   0.229  1.00  0.00     0.082 A 
ATOM     22  C   UNL     1       2.516   0.006   0.025  1.00  0.00     0.044 C 
ATOM     23  C   UNL     1       1.018  -0.037   0.102  1.00  0.00    -0.051 A 
ATOM     24  C   UNL     1       0.351  -1.256  -0.079  1.00  0.00     0.005 A 
ATOM     25  C   UNL     1       0.275   1.117   0.379  1.00  0.00     0.005 A 
ATOM     26  C   UNL     1      -1.041  -1.310  -0.029  1.00  0.00     0.022 A 
ATOM     27  C   UNL     1      -1.121   1.064   0.456  1.00  0.00     0.022 A 
ENDBRANCH  18  21
ENDBRANCH  16  18
ENDBRANCH  14  16
ENDBRANCH  12  14
ENDBRANCH  11  12
ENDBRANCH   6  11
ENDBRANCH   1   5
BRANCH   3  28
ATOM     28  C   UNL     1      -3.953   8.283  -4.144  1.00  0.00     0.116 C 
BRANCH  28  29
ATOM     29  C   UNL     1      -4.273   7.582  -5.475  1.00  0.00     0.023 C 
BRANCH  29  30
ATOM     30  C   UNL     1      -4.274   8.475  -6.711  1.00  0.00     0.023 C 
BRANCH  30  31
ATOM     31  C   UNL     1      -2.881   8.874  -7.158  1.00  0.00     0.116 C 
BRANCH  31  32
ATOM     32  N   UNL     1      -2.216   7.947  -8.066  1.00  0.00    -0.352 N 
ATOM     33  C   UNL     1      -0.916   7.981  -8.551  1.00  0.00     0.251 C 
ATOM     34  H   UNL     1      -2.766   7.192  -8.379  1.00  0.00     0.163 HD
ATOM     35  O   UNL     1      -0.560   7.180  -9.409  1.00  0.00    -0.269 OA
BRANCH  33  36
ATOM     36  C   UNL     1       0.087   8.871  -7.910  1.00  0.00     0.039 A 
ATOM     37  C   UNL     1       1.340   8.324  -7.602  1.00  0.00     0.014 A 
ATOM     38  C   UNL     1      -0.295  10.082  -7.350  1.00  0.00     0.014 A 
ATOM     39  C   UNL     1       2.043   8.816  -6.507  1.00  0.00     0.010 A 
ATOM     40  C   UNL     1       0.301  10.464  -6.173  1.00  0.00     0.010 A 
ATOM     41  C   UNL     1       1.430   9.781  -5.717  1.00  0.00    -0.014 A 
BRANCH  41  42
ATOM     42  C   UNL     1       1.853  10.130  -4.372  1.00  0.00     0.031 A 
ATOM     43  C   UNL     1       2.530  11.419  -4.156  1.00  0.00     0.074 A 
ATOM     44  C   UNL     1       1.463   9.350  -3.341  1.00  0.00     0.049 A 
ATOM     45  N   UNL     1       3.196  11.727  -3.100  1.00  0.00    -0.248 NA
ATOM     46  C   UNL     1       2.549  12.466  -5.170  1.00  0.00     0.031 C 
ATOM     47  C   UNL     1       1.506   9.660  -1.914  1.00  0.00     0.029 A 
ATOM     48  N   UNL     1       1.118   7.987  -3.386  1.00  0.00    -0.354 N 
ATOM     49  C   UNL     1       3.469  13.076  -3.154  1.00  0.00     0.074 A 
ATOM     50  C   UNL     1       3.140  13.459  -4.503  1.00  0.00     0.031 C 
ATOM     51  C   UNL     1       1.529   8.508  -1.223  1.00  0.00     0.029 A 
ATOM     52  C   UNL     1       1.653   7.437  -2.196  1.00  0.00     0.049 A 
ATOM     53  H   UNL     1       0.614   7.519  -4.090  1.00  0.00     0.167 HD
ATOM     54  C   UNL     1       3.800  13.709  -1.990  1.00  0.00     0.037 A 
ATOM     55  C   UNL     1       2.688   6.548  -2.248  1.00  0.00     0.037 A 
ATOM     56  C   UNL     1       4.057  12.716  -0.939  1.00  0.00     0.049 A 
ATOM     57  C   UNL     1       3.933   7.041  -1.544  1.00  0.00     0.074 A 
ATOM     58  C   UNL     1       3.307  12.251   0.129  1.00  0.00     0.029 A 
ATOM     59  N   UNL     1       5.094  11.800  -1.115  1.00  0.00    -0.354 N 
ATOM     60  N   UNL     1       4.186   8.299  -1.302  1.00  0.00    -0.248 NA
ATOM     61  C   UNL     1       4.986   6.156  -1.058  1.00  0.00     0.031 C 
ATOM     62  C   UNL     1       3.850  11.002   0.535  1.00  0.00     0.029 A 
ATOM     63  C   UNL     1       4.948  10.723  -0.262  1.00  0.00     0.049 A 
ATOM     64  H   UNL     1       5.830  11.907  -1.761  1.00  0.00     0.167 HD
ATOM     65  C   UNL     1       5.385   8.409  -0.646  1.00  0.00     0.074 A 
ATOM     66  C   UNL     1       5.839   7.037  -0.506  1.00  0.00     0.031 C 
ATOM     67  C   UNL     1       5.902   9.620  -0.274  1.00  0.00     0.037 A 
BRANCH  54  68
ATOM     68  C   UNL     1       3.612  15.196  -1.720  1.00  0.00     0.064 A 
ATOM     69  C   UNL     1       3.539  15.673  -0.390  1.00  0.00     0.173 A 
ATOM     70  C   UNL     1       3.397  16.194  -2.692  1.00  0.00     0.173 A 
ATOM     71  F   UNL     1       3.803  14.877   0.654  1.00  0.00    -0.203 F 
ATOM     72  C   UNL     1       3.185  16.992  -0.072  1.00  0.00     0.198 A 
ATOM     73  C   UNL     1       3.018  17.504  -2.377  1.00  0.00     0.198 A 
ATOM     74  F   UNL     1       3.584  15.975  -3.993  1.00  0.00    -0.203 F 
ATOM     75  F   UNL     1       3.110  17.369   1.212  1.00  0.00    -0.200 F 
ATOM     76  C   UNL     1       2.898  17.901  -1.067  1.00  0.00     0.200 A 
ATOM     77  F   UNL     1       2.770  18.375  -3.367  1.00  0.00    -0.200 F 
ATOM     78  F   UNL     1       2.533  19.154  -0.767  1.00  0.00    -0.200 F 
ENDBRANCH  54  68
BRANCH  55  79
ATOM     79  C   UNL     1       2.652   5.697  -3.472  1.00  0.00     0.064 A 
ATOM     80  C   UNL     1       1.511   4.893  -3.681  1.00  0.00     0.173 A 
ATOM     81  C   UNL     1       3.462   5.961  -4.581  1.00  0.00     0.173 A 
ATOM     82  F   UNL     1       0.701   4.599  -2.650  1.00  0.00    -0.203 F 
ATOM     83  C   UNL     1       1.119   4.502  -4.959  1.00  0.00     0.198 A 
ATOM     84  C   UNL     1       3.082   5.539  -5.860  1.00  0.00     0.198 A 
ATOM     85  F   UNL     1       4.554   6.729  -4.458  1.00  0.00    -0.203 F 
ATOM     86  F   UNL     1      -0.048   3.865  -5.135  1.00  0.00    -0.200 F 
ATOM     87  C   UNL     1       1.891   4.852  -6.052  1.00  0.00     0.200 A 
ATOM     88  F   UNL     1       3.815   5.897  -6.924  1.00  0.00    -0.200 F 
ATOM     89  F   UNL     1       1.468   4.568  -7.292  1.00  0.00    -0.200 F 
ENDBRANCH  55  79
BRANCH  67  90
ATOM     90  C   UNL     1       7.317   9.881   0.206  1.00  0.00     0.064 A 
ATOM     91  C   UNL     1       8.418   9.061  -0.093  1.00  0.00     0.173 A 
ATOM     92  C   UNL     1       7.633  11.088   0.882  1.00  0.00     0.173 A 
ATOM     93  F   UNL     1       8.290   7.961  -0.845  1.00  0.00    -0.203 F 
ATOM     94  C   UNL     1       9.716   9.382   0.318  1.00  0.00     0.198 A 
ATOM     95  C   UNL     1       8.938  11.437   1.227  1.00  0.00     0.198 A 
ATOM     96  F   UNL     1       6.690  11.984   1.204  1.00  0.00    -0.203 F 
ATOM     97  F   UNL     1      10.722   8.536   0.051  1.00  0.00    -0.200 F 
ATOM     98  C   UNL     1       9.979  10.574   0.964  1.00  0.00     0.200 A 
ATOM     99  F   UNL     1       9.180  12.627   1.796  1.00  0.00    -0.200 F 
ATOM    100  F   UNL     1      11.231  10.900   1.308  1.00  0.00    -0.200 F 
ENDBRANCH  67  90
ENDBRANCH  41  42
ENDBRANCH  33  36
ENDBRANCH  31  32
ENDBRANCH  30  31
ENDBRANCH  29  30
ENDBRANCH  28  29
ENDBRANCH   3  28
TORSDOF 17
