REMARK SMILES C[NH2+][C@]1(C(=O)NCCCCNC(=O)c2ccc(-c3c4nc(c(-c5c(F)c(F)c(F)c(F)c5F)c5ccc([nH]5)c(-c5c(F)c(F)c(F)c(F)c5F)c5nc(c(-c6c(F)c(F)c(F)c(F)c6F)c6ccc3[nH]6)C=C5)C=C4)cc2)CCC[C@@H](Sc2nncs2)C1
REMARK SMILES IDX 8 1 7 2 6 3 4 4 5 5 3 7 77 8 87 9 78 10 80 11 79 12 2 13
REMARK SMILES IDX 1 14 81 17 82 18 83 19 86 20 84 21 85 22 9 23 10 24 11 25
REMARK SMILES IDX 12 26 13 28 14 29 15 30 76 31 16 32 75 33 17 34 18 35 19 36
REMARK SMILES IDX 69 37 20 38 74 39 68 40 70 41 21 42 73 43 67 44 66 45 22 47
REMARK SMILES IDX 54 48 34 49 53 50 35 51 38 52 52 53 71 54 36 55 37 56 51 58
REMARK SMILES IDX 72 59 39 60 23 61 24 62 32 63 25 64 26 65 30 66 33 67 27 68
REMARK SMILES IDX 28 69 31 70 29 71 55 72 56 73 64 74 57 75 58 76 62 77 65 78
REMARK SMILES IDX 59 79 60 80 63 81 61 82 40 83 41 84 49 85 42 86 43 87 47 88
REMARK SMILES IDX 50 89 44 90 45 91 48 92 46 93
REMARK H PARENT 6 6 2 15 2 16 11 27 70 46 38 57
REMARK Flexibility Score: inf
ROOT
ATOM      1  C   UNL     1       0.869  -3.490   2.393  1.00  0.00     0.023 C 
ENDROOT
BRANCH   1   2
ATOM      2  C   UNL     1       0.763  -1.995   2.086  1.00  0.00     0.116 C 
BRANCH   2   3
ATOM      3  N   UNL     1       1.124  -1.723   0.706  1.00  0.00    -0.351 N 
ATOM      4  C   UNL     1       0.371  -1.522  -0.411  1.00  0.00     0.281 C 
ATOM      5  O   UNL     1       1.004  -1.329  -1.458  1.00  0.00    -0.268 OA
ATOM      6  H   UNL     1       2.094  -1.675   0.549  1.00  0.00     0.163 HD
BRANCH   4   7
ATOM      7  C   UNL     1      -1.202  -1.440  -0.391  1.00  0.00     0.176 C 
ATOM      8  C   UNL     1      -1.878  -2.669   0.260  1.00  0.00     0.079 C 
ATOM      9  C   UNL     1      -1.583  -0.125   0.342  1.00  0.00     0.094 C 
ATOM     10  C   UNL     1      -3.378  -2.495   0.484  1.00  0.00     0.008 C 
ATOM     11  C   UNL     1      -3.084  -0.001   0.633  1.00  0.00     0.061 C 
ATOM     12  C   UNL     1      -3.655  -1.247   1.318  1.00  0.00     0.015 C 
BRANCH   7  13
ATOM     13  N   UNL     1      -1.681  -1.239  -1.802  1.00  0.00    -0.336 N 
ATOM     14  C   UNL     1      -1.665  -2.436  -2.638  1.00  0.00     0.331 C 
ATOM     15  H   UNL     1      -2.640  -0.894  -1.764  1.00  0.00     0.346 HD
ATOM     16  H   UNL     1      -1.029  -0.583  -2.232  1.00  0.00     0.346 HD
ENDBRANCH   7  13
BRANCH  11  17
ATOM     17  S   UNL     1      -3.499   1.535   1.546  1.00  0.00    -0.090 SA
BRANCH  17  18
ATOM     18  C   UNL     1      -2.869   1.239   3.147  1.00  0.00     0.174 A 
ATOM     19  N   UNL     1      -1.634   0.844   3.372  1.00  0.00    -0.132 NA
ATOM     20  S   UNL     1      -3.801   1.466   4.570  1.00  0.00    -0.094 S 
ATOM     21  N   UNL     1      -1.366   0.686   4.717  1.00  0.00    -0.146 NA
ATOM     22  C   UNL     1      -2.413   0.986   5.455  1.00  0.00     0.203 A 
ENDBRANCH  17  18
ENDBRANCH  11  17
ENDBRANCH   4   7
ENDBRANCH   2   3
ENDBRANCH   1   2
BRANCH   1  23
ATOM     23  C   UNL     1       2.300  -3.991   2.586  1.00  0.00     0.023 C 
BRANCH  23  24
ATOM     24  C   UNL     1       3.043  -3.368   3.762  1.00  0.00     0.116 C 
BRANCH  24  25
ATOM     25  N   UNL     1       2.373  -3.565   5.037  1.00  0.00    -0.352 N 
ATOM     26  C   UNL     1       2.931  -3.775   6.278  1.00  0.00     0.251 C 
ATOM     27  H   UNL     1       1.389  -3.546   5.010  1.00  0.00     0.163 HD
ATOM     28  O   UNL     1       2.232  -4.031   7.243  1.00  0.00    -0.269 OA
BRANCH  26  29
ATOM     29  C   UNL     1       4.402  -3.726   6.416  1.00  0.00     0.039 A 
ATOM     30  C   UNL     1       5.051  -4.777   7.068  1.00  0.00     0.014 A 
ATOM     31  C   UNL     1       5.135  -2.668   5.872  1.00  0.00     0.014 A 
ATOM     32  C   UNL     1       6.445  -4.801   7.114  1.00  0.00     0.010 A 
ATOM     33  C   UNL     1       6.524  -2.728   5.858  1.00  0.00     0.010 A 
ATOM     34  C   UNL     1       7.192  -3.797   6.477  1.00  0.00    -0.014 A 
BRANCH  34  35
ATOM     35  C   UNL     1       8.673  -3.845   6.443  1.00  0.00     0.031 A 
ATOM     36  C   UNL     1       9.475  -2.787   7.145  1.00  0.00     0.074 A 
ATOM     37  C   UNL     1       9.292  -4.801   5.725  1.00  0.00     0.049 A 
ATOM     38  N   UNL     1      10.772  -2.612   7.171  1.00  0.00    -0.248 NA
ATOM     39  C   UNL     1       8.717  -1.774   7.897  1.00  0.00     0.031 C 
ATOM     40  C   UNL     1       8.620  -5.855   4.962  1.00  0.00     0.029 A 
ATOM     41  N   UNL     1      10.627  -5.036   5.510  1.00  0.00    -0.354 N 
ATOM     42  C   UNL     1      10.982  -1.466   7.926  1.00  0.00     0.074 A 
ATOM     43  C   UNL     1       9.679  -0.957   8.296  1.00  0.00     0.031 C 
ATOM     44  C   UNL     1       9.546  -6.636   4.383  1.00  0.00     0.029 A 
ATOM     45  C   UNL     1      10.873  -6.120   4.704  1.00  0.00     0.049 A 
ATOM     46  H   UNL     1      11.341  -4.479   5.898  1.00  0.00     0.167 HD
ATOM     47  C   UNL     1      12.156  -0.904   8.298  1.00  0.00     0.037 A 
ATOM     48  C   UNL     1      12.039  -6.635   4.271  1.00  0.00     0.037 A 
ATOM     49  C   UNL     1      13.450  -1.428   7.950  1.00  0.00     0.049 A 
ATOM     50  C   UNL     1      13.329  -5.989   4.696  1.00  0.00     0.074 A 
ATOM     51  C   UNL     1      14.699  -0.962   8.320  1.00  0.00     0.029 A 
ATOM     52  N   UNL     1      13.660  -2.540   7.147  1.00  0.00    -0.354 N 
ATOM     53  N   UNL     1      13.518  -4.941   5.461  1.00  0.00    -0.248 NA
ATOM     54  C   UNL     1      14.570  -6.602   4.201  1.00  0.00     0.031 C 
ATOM     55  C   UNL     1      15.666  -1.770   7.711  1.00  0.00     0.029 A 
ATOM     56  C   UNL     1      15.019  -2.766   6.998  1.00  0.00     0.049 A 
ATOM     57  H   UNL     1      12.948  -3.087   6.742  1.00  0.00     0.167 HD
ATOM     58  C   UNL     1      14.893  -4.786   5.563  1.00  0.00     0.074 A 
ATOM     59  C   UNL     1      15.493  -5.855   4.792  1.00  0.00     0.031 C 
ATOM     60  C   UNL     1      15.597  -3.842   6.235  1.00  0.00     0.037 A 
BRANCH  47  61
ATOM     61  C   UNL     1      12.093   0.340   9.135  1.00  0.00     0.064 A 
ATOM     62  C   UNL     1      11.667   0.302  10.472  1.00  0.00     0.173 A 
ATOM     63  C   UNL     1      12.491   1.577   8.608  1.00  0.00     0.173 A 
ATOM     64  F   UNL     1      11.263  -0.854  11.020  1.00  0.00    -0.203 F 
ATOM     65  C   UNL     1      11.614   1.462  11.240  1.00  0.00     0.198 A 
ATOM     66  C   UNL     1      12.465   2.730   9.388  1.00  0.00     0.198 A 
ATOM     67  F   UNL     1      12.911   1.667   7.337  1.00  0.00    -0.203 F 
ATOM     68  F   UNL     1      11.158   1.410  12.499  1.00  0.00    -0.200 F 
ATOM     69  C   UNL     1      12.020   2.673  10.700  1.00  0.00     0.200 A 
ATOM     70  F   UNL     1      12.869   3.898   8.868  1.00  0.00    -0.200 F 
ATOM     71  F   UNL     1      11.975   3.788  11.443  1.00  0.00    -0.200 F 
ENDBRANCH  47  61
BRANCH  48  72
ATOM     72  C   UNL     1      12.041  -7.847   3.412  1.00  0.00     0.064 A 
ATOM     73  C   UNL     1      12.494  -9.076   3.910  1.00  0.00     0.173 A 
ATOM     74  C   UNL     1      11.598  -7.804   2.082  1.00  0.00     0.173 A 
ATOM     75  F   UNL     1      12.947  -9.161   5.170  1.00  0.00    -0.203 F 
ATOM     76  C   UNL     1      12.520 -10.213   3.106  1.00  0.00     0.198 A 
ATOM     77  C   UNL     1      11.600  -8.948   1.287  1.00  0.00     0.198 A 
ATOM     78  F   UNL     1      11.151  -6.653   1.560  1.00  0.00    -0.203 F 
ATOM     79  F   UNL     1      12.998 -11.366   3.595  1.00  0.00    -0.200 F 
ATOM     80  C   UNL     1      12.069 -10.150   1.797  1.00  0.00     0.200 A 
ATOM     81  F   UNL     1      11.151  -8.886   0.026  1.00  0.00    -0.200 F 
ATOM     82  F   UNL     1      12.091 -11.244   1.024  1.00  0.00    -0.200 F 
ENDBRANCH  48  72
BRANCH  60  83
ATOM     83  C   UNL     1      17.093  -3.945   6.198  1.00  0.00     0.064 A 
ATOM     84  C   UNL     1      17.823  -3.625   5.045  1.00  0.00     0.173 A 
ATOM     85  C   UNL     1      17.805  -4.328   7.345  1.00  0.00     0.173 A 
ATOM     86  F   UNL     1      17.186  -3.269   3.919  1.00  0.00    -0.203 F 
ATOM     87  C   UNL     1      19.213  -3.707   5.035  1.00  0.00     0.198 A 
ATOM     88  C   UNL     1      19.196  -4.381   7.339  1.00  0.00     0.198 A 
ATOM     89  F   UNL     1      17.152  -4.638   8.475  1.00  0.00    -0.203 F 
ATOM     90  F   UNL     1      19.890  -3.439   3.909  1.00  0.00    -0.200 F 
ATOM     91  C   UNL     1      19.898  -4.077   6.183  1.00  0.00     0.200 A 
ATOM     92  F   UNL     1      19.856  -4.727   8.453  1.00  0.00    -0.200 F 
ATOM     93  F   UNL     1      21.236  -4.147   6.173  1.00  0.00    -0.200 F 
ENDBRANCH  60  83
ENDBRANCH  34  35
ENDBRANCH  26  29
ENDBRANCH  24  25
ENDBRANCH  23  24
ENDBRANCH   1  23
TORSDOF 14
