REMARK SMILES CC[C@](O)(C(=O)NCCCCNC(=O)c1ccc(-c2c3nc(c(-c4c(F)c(F)c(F)c(F)c4F)c4ccc([nH]4)c(-c4c(F)c(F)c(F)c(F)c4F)c4nc(c(-c5c(F)c(F)c(F)c(F)c5F)c5ccc2[nH]5)C=C4)C=C3)cc1)[C@@H](C)c1ccc(C)s1
REMARK SMILES IDX 9 1 8 2 7 3 5 4 6 5 3 7 2 8 1 9 78 10 79 11 80 12 81 13
REMARK SMILES IDX 85 14 82 15 83 16 84 17 4 18 10 20 11 21 12 22 13 23 14 25
REMARK SMILES IDX 15 26 16 27 77 28 17 29 76 30 18 31 19 32 20 33 70 34 21 35
REMARK SMILES IDX 75 36 69 37 71 38 22 39 74 40 68 41 67 42 23 44 55 45 35 46
REMARK SMILES IDX 54 47 36 48 39 49 53 50 72 51 37 52 38 53 52 55 73 56 40 57
REMARK SMILES IDX 24 58 25 59 33 60 26 61 27 62 31 63 34 64 28 65 29 66 32 67
REMARK SMILES IDX 30 68 56 69 57 70 65 71 58 72 59 73 63 74 66 75 60 76 61 77
REMARK SMILES IDX 64 78 62 79 41 80 42 81 50 82 43 83 44 84 48 85 51 86 45 87
REMARK SMILES IDX 46 88 49 89 47 90
REMARK H PARENT 7 6 4 19 12 24 71 43 39 54
REMARK Flexibility Score: inf
ROOT
ATOM      1  C   UNL     1      -2.697  -2.937  -0.162  1.00  0.00     0.023 C 
ENDROOT
BRANCH   1   2
ATOM      2  C   UNL     1      -1.970  -2.789   1.168  1.00  0.00     0.116 C 
BRANCH   2   3
ATOM      3  N   UNL     1      -0.888  -3.741   1.330  1.00  0.00    -0.354 N 
ATOM      4  C   UNL     1       0.464  -3.515   1.417  1.00  0.00     0.252 C 
ATOM      5  O   UNL     1       1.176  -4.486   1.683  1.00  0.00    -0.272 OA
ATOM      6  H   UNL     1      -1.163  -4.686   1.385  1.00  0.00     0.163 HD
BRANCH   4   7
ATOM      7  C   UNL     1       1.026  -2.058   1.281  1.00  0.00     0.150 C 
BRANCH   7   8
ATOM      8  C   UNL     1       0.639  -1.346   2.625  1.00  0.00     0.043 C 
ATOM      9  C   UNL     1       0.067   0.066   2.579  1.00  0.00     0.007 C 
ENDBRANCH   7   8
BRANCH   7  10
ATOM     10  C   UNL     1       2.584  -2.101   1.074  1.00  0.00     0.068 C 
ATOM     11  C   UNL     1       2.997  -2.836  -0.219  1.00  0.00     0.017 C 
BRANCH  10  12
ATOM     12  C   UNL     1       3.236  -0.716   1.046  1.00  0.00     0.011 A 
ATOM     13  C   UNL     1       2.791   0.465   0.480  1.00  0.00     0.016 A 
ATOM     14  S   UNL     1       4.804  -0.504   1.722  1.00  0.00    -0.145 S 
ATOM     15  C   UNL     1       3.713   1.536   0.630  1.00  0.00     0.015 A 
ATOM     16  C   UNL     1       4.886   1.129   1.224  1.00  0.00     0.002 A 
ATOM     17  C   UNL     1       6.120   1.934   1.445  1.00  0.00     0.056 C 
ENDBRANCH  10  12
ENDBRANCH   7  10
BRANCH   7  18
ATOM     18  O   UNL     1       0.428  -1.505   0.098  1.00  0.00    -0.379 OA
ATOM     19  H   UNL     1       0.723  -2.006  -0.678  1.00  0.00     0.212 HD
ENDBRANCH   7  18
ENDBRANCH   4   7
ENDBRANCH   2   3
ENDBRANCH   1   2
BRANCH   1  20
ATOM     20  C   UNL     1      -3.518  -4.218  -0.297  1.00  0.00     0.023 C 
BRANCH  20  21
ATOM     21  C   UNL     1      -4.480  -4.498   0.852  1.00  0.00     0.116 C 
BRANCH  21  22
ATOM     22  N   UNL     1      -5.428  -3.420   1.091  1.00  0.00    -0.352 N 
ATOM     23  C   UNL     1      -6.779  -3.495   1.338  1.00  0.00     0.251 C 
ATOM     24  H   UNL     1      -5.049  -2.511   1.075  1.00  0.00     0.163 HD
ATOM     25  O   UNL     1      -7.455  -2.480   1.418  1.00  0.00    -0.269 OA
BRANCH  23  26
ATOM     26  C   UNL     1      -7.415  -4.824   1.463  1.00  0.00     0.039 A 
ATOM     27  C   UNL     1      -8.565  -5.091   0.718  1.00  0.00     0.014 A 
ATOM     28  C   UNL     1      -6.851  -5.811   2.275  1.00  0.00     0.014 A 
ATOM     29  C   UNL     1      -9.106  -6.378   0.726  1.00  0.00     0.010 A 
ATOM     30  C   UNL     1      -7.345  -7.111   2.221  1.00  0.00     0.010 A 
ATOM     31  C   UNL     1      -8.475  -7.408   1.443  1.00  0.00    -0.014 A 
BRANCH  31  32
ATOM     32  C   UNL     1      -8.976  -8.804   1.385  1.00  0.00     0.031 A 
ATOM     33  C   UNL     1      -9.491  -9.472   2.628  1.00  0.00     0.074 A 
ATOM     34  C   UNL     1      -8.899  -9.492   0.230  1.00  0.00     0.049 A 
ATOM     35  N   UNL     1      -9.904 -10.703   2.797  1.00  0.00    -0.248 NA
ATOM     36  C   UNL     1      -9.520  -8.657   3.853  1.00  0.00     0.031 C 
ATOM     37  C   UNL     1      -8.368  -8.972  -1.031  1.00  0.00     0.029 A 
ATOM     38  N   UNL     1      -9.257 -10.783  -0.069  1.00  0.00    -0.354 N 
ATOM     39  C   UNL     1     -10.226 -10.812   4.143  1.00  0.00     0.074 A 
ATOM     40  C   UNL     1      -9.909  -9.542   4.758  1.00  0.00     0.031 C 
ATOM     41  C   UNL     1      -8.456  -9.925  -1.972  1.00  0.00     0.029 A 
ATOM     42  C   UNL     1      -9.013 -11.135  -1.374  1.00  0.00     0.049 A 
ATOM     43  H   UNL     1      -9.651 -11.399   0.590  1.00  0.00     0.167 HD
ATOM     44  C   UNL     1     -10.762 -11.868   4.800  1.00  0.00     0.037 A 
ATOM     45  C   UNL     1      -9.210 -12.303  -2.014  1.00  0.00     0.037 A 
ATOM     46  C   UNL     1     -11.100 -13.121   4.179  1.00  0.00     0.049 A 
ATOM     47  C   UNL     1      -9.802 -13.463  -1.258  1.00  0.00     0.074 A 
ATOM     48  C   UNL     1     -11.708 -14.228   4.744  1.00  0.00     0.029 A 
ATOM     49  N   UNL     1     -10.854 -13.434   2.850  1.00  0.00    -0.354 N 
ATOM     50  N   UNL     1     -10.174 -13.530  -0.003  1.00  0.00    -0.248 NA
ATOM     51  C   UNL     1     -10.007 -14.708  -2.012  1.00  0.00     0.031 C 
ATOM     52  C   UNL     1     -11.787 -15.229   3.770  1.00  0.00     0.029 A 
ATOM     53  C   UNL     1     -11.276 -14.727   2.583  1.00  0.00     0.049 A 
ATOM     54  H   UNL     1     -10.441 -12.828   2.193  1.00  0.00     0.167 HD
ATOM     55  C   UNL     1     -10.679 -14.810   0.177  1.00  0.00     0.074 A 
ATOM     56  C   UNL     1     -10.583 -15.481  -1.102  1.00  0.00     0.031 C 
ATOM     57  C   UNL     1     -11.178 -15.379   1.302  1.00  0.00     0.037 A 
BRANCH  44  58
ATOM     58  C   UNL     1     -11.020 -11.709   6.271  1.00  0.00     0.064 A 
ATOM     59  C   UNL     1     -12.026 -10.858   6.753  1.00  0.00     0.173 A 
ATOM     60  C   UNL     1     -10.276 -12.441   7.208  1.00  0.00     0.173 A 
ATOM     61  F   UNL     1     -12.759 -10.127   5.900  1.00  0.00    -0.203 F 
ATOM     62  C   UNL     1     -12.256 -10.722   8.120  1.00  0.00     0.198 A 
ATOM     63  C   UNL     1     -10.529 -12.326   8.572  1.00  0.00     0.198 A 
ATOM     64  F   UNL     1      -9.306 -13.273   6.801  1.00  0.00    -0.203 F 
ATOM     65  F   UNL     1     -13.187  -9.863   8.559  1.00  0.00    -0.200 F 
ATOM     66  C   UNL     1     -11.513 -11.461   9.027  1.00  0.00     0.200 A 
ATOM     67  F   UNL     1      -9.819 -13.051   9.448  1.00  0.00    -0.200 F 
ATOM     68  F   UNL     1     -11.739 -11.333  10.342  1.00  0.00    -0.200 F 
ENDBRANCH  44  58
BRANCH  45  69
ATOM     69  C   UNL     1      -8.867 -12.429  -3.454  1.00  0.00     0.064 A 
ATOM     70  C   UNL     1      -9.872 -12.563  -4.423  1.00  0.00     0.173 A 
ATOM     71  C   UNL     1      -7.535 -12.425  -3.892  1.00  0.00     0.173 A 
ATOM     72  F   UNL     1     -11.160 -12.593  -4.051  1.00  0.00    -0.203 F 
ATOM     73  C   UNL     1      -9.557 -12.708  -5.772  1.00  0.00     0.198 A 
ATOM     74  C   UNL     1      -7.222 -12.542  -5.245  1.00  0.00     0.198 A 
ATOM     75  F   UNL     1      -6.537 -12.296  -3.006  1.00  0.00    -0.203 F 
ATOM     76  F   UNL     1     -10.535 -12.880  -6.672  1.00  0.00    -0.200 F 
ATOM     77  C   UNL     1      -8.232 -12.692  -6.183  1.00  0.00     0.200 A 
ATOM     78  F   UNL     1      -5.942 -12.512  -5.639  1.00  0.00    -0.200 F 
ATOM     79  F   UNL     1      -7.930 -12.828  -7.481  1.00  0.00    -0.200 F 
ENDBRANCH  45  69
BRANCH  57  80
ATOM     80  C   UNL     1     -11.686 -16.787   1.194  1.00  0.00     0.064 A 
ATOM     81  C   UNL     1     -10.814 -17.875   1.040  1.00  0.00     0.173 A 
ATOM     82  C   UNL     1     -13.061 -17.055   1.284  1.00  0.00     0.173 A 
ATOM     83  F   UNL     1      -9.493 -17.671   0.933  1.00  0.00    -0.203 F 
ATOM     84  C   UNL     1     -11.302 -19.176   0.956  1.00  0.00     0.198 A 
ATOM     85  C   UNL     1     -13.543 -18.359   1.231  1.00  0.00     0.198 A 
ATOM     86  F   UNL     1     -13.937 -16.050   1.438  1.00  0.00    -0.203 F 
ATOM     87  F   UNL     1     -10.454 -20.196   0.761  1.00  0.00    -0.200 F 
ATOM     88  C   UNL     1     -12.664 -19.418   1.059  1.00  0.00     0.200 A 
ATOM     89  F   UNL     1     -14.857 -18.592   1.345  1.00  0.00    -0.200 F 
ATOM     90  F   UNL     1     -13.131 -20.672   0.986  1.00  0.00    -0.200 F 
ENDBRANCH  57  80
ENDBRANCH  31  32
ENDBRANCH  23  26
ENDBRANCH  21  22
ENDBRANCH  20  21
ENDBRANCH   1  20
TORSDOF 15
