REMARK SMILES Cc1cc(C)c(S(=O)(=O)Nc2ccc(N3CC[NH+](C)CC3)c(C(=O)NCCCCNC(=O)c3ccc(-c4c5nc(c(-c6c(F)c(F)c(F)c(F)c6F)c6ccc([nH]6)c(-c6c(F)c(F)c(F)c(F)c6F)c6nc(c(-c7c(F)c(F)c(F)c(F)c7F)c7ccc4[nH]7)C=C6)C=C5)cc3)c2)c(C)c1
REMARK SMILES IDX 27 1 26 2 25 3 23 4 24 5 22 7 11 8 12 9 96 10 13 11 14 12
REMARK SMILES IDX 10 13 7 15 8 16 9 17 6 18 1 19 2 20 3 21 99 22 4 23 97 24
REMARK SMILES IDX 5 25 98 26 15 27 16 28 21 29 17 30 20 31 18 32 19 33 28 35
REMARK SMILES IDX 29 36 30 37 31 38 32 40 33 41 34 42 95 43 35 44 94 45 36 46
REMARK SMILES IDX 37 47 38 48 88 49 39 50 93 51 87 52 89 53 40 54 92 55 86 56
REMARK SMILES IDX 85 57 41 59 73 60 53 61 72 62 54 63 57 64 71 65 90 66 55 67
REMARK SMILES IDX 56 68 70 70 91 71 58 72 42 73 43 74 51 75 44 76 45 77 49 78
REMARK SMILES IDX 52 79 46 80 47 81 50 82 48 83 74 84 75 85 83 86 76 87 77 88
REMARK SMILES IDX 81 89 84 90 78 91 79 92 82 93 80 94 59 95 60 96 68 97 61 98
REMARK SMILES IDX 62 99 66 100 69 101 63 102 64 103 67 104 65 105
REMARK H PARENT 25 6 10 14 18 34 30 39 89 58 57 69
REMARK Flexibility Score: inf
ROOT
ATOM      1  C   UNL     1      -0.171  -1.648   3.904  1.00  0.00     0.023 C 
ENDROOT
BRANCH   1   2
ATOM      2  C   UNL     1       0.832  -1.256   2.815  1.00  0.00     0.116 C 
BRANCH   2   3
ATOM      3  N   UNL     1       2.054  -2.013   2.970  1.00  0.00    -0.352 N 
ATOM      4  C   UNL     1       2.478  -3.231   2.494  1.00  0.00     0.253 C 
ATOM      5  O   UNL     1       3.493  -3.655   3.048  1.00  0.00    -0.269 OA
ATOM      6  H   UNL     1       2.722  -1.561   3.534  1.00  0.00     0.163 HD
BRANCH   4   7
ATOM      7  C   UNL     1       1.785  -4.007   1.400  1.00  0.00     0.065 A 
ATOM      8  C   UNL     1      -0.221  -4.391   0.072  1.00  0.00     0.050 A 
ATOM      9  C   UNL     1       0.446  -5.339  -0.690  1.00  0.00     0.029 A 
ATOM     10  C   UNL     1       0.396  -3.883   1.209  1.00  0.00     0.042 A 
ATOM     11  C   UNL     1       1.802  -5.551  -0.475  1.00  0.00     0.029 A 
ATOM     12  C   UNL     1       2.522  -4.805   0.480  1.00  0.00     0.050 A 
BRANCH   8  13
ATOM     13  N   UNL     1      -1.455  -3.915  -0.445  1.00  0.00    -0.280 N 
ATOM     14  H   UNL     1      -1.944  -4.522  -1.047  1.00  0.00     0.180 HD
BRANCH  13  15
ATOM     15  S   UNL     1      -2.167  -2.432  -0.140  1.00  0.00     0.262 S 
ATOM     16  O   UNL     1      -2.442  -2.403   1.287  1.00  0.00    -0.201 OA
ATOM     17  O   UNL     1      -3.236  -2.326  -1.108  1.00  0.00    -0.201 OA
BRANCH  15  18
ATOM     18  C   UNL     1      -1.059  -1.042  -0.465  1.00  0.00     0.093 A 
ATOM     19  C   UNL     1       1.851   2.152  -0.091  1.00  0.00     0.044 C 
ATOM     20  C   UNL     1       0.830   1.065  -0.253  1.00  0.00    -0.051 A 
ATOM     21  C   UNL     1      -0.471   1.240   0.209  1.00  0.00     0.008 A 
ATOM     22  C   UNL     1       1.129  -0.102  -0.954  1.00  0.00     0.008 A 
ATOM     23  C   UNL     1      -1.425   0.206   0.114  1.00  0.00    -0.030 A 
ATOM     24  C   UNL     1       0.185  -1.143  -1.118  1.00  0.00    -0.030 A 
ATOM     25  C   UNL     1      -2.827   0.575   0.539  1.00  0.00     0.046 C 
ATOM     26  C   UNL     1       0.606  -2.237  -2.053  1.00  0.00     0.046 C 
ENDBRANCH  15  18
ENDBRANCH  13  15
ENDBRANCH   8  13
BRANCH  12  27
ATOM     27  N   UNL     1       3.901  -4.769   0.353  1.00  0.00    -0.360 N 
ATOM     28  C   UNL     1       4.785  -5.457   1.302  1.00  0.00     0.178 C 
ATOM     29  C   UNL     1       4.505  -4.570  -0.973  1.00  0.00     0.178 C 
ATOM     30  C   UNL     1       6.101  -4.649   1.431  1.00  0.00     0.283 C 
ATOM     31  C   UNL     1       5.843  -3.814  -0.832  1.00  0.00     0.283 C 
ATOM     32  N   UNL     1       6.780  -4.455   0.119  1.00  0.00    -0.334 N 
ATOM     33  C   UNL     1       7.972  -3.623   0.279  1.00  0.00     0.332 C 
ATOM     34  H   UNL     1       7.067  -5.364  -0.243  1.00  0.00     0.347 HD
ENDBRANCH  12  27
ENDBRANCH   4   7
ENDBRANCH   2   3
ENDBRANCH   1   2
BRANCH   1  35
ATOM     35  C   UNL     1       0.154  -1.069   5.283  1.00  0.00     0.023 C 
BRANCH  35  36
ATOM     36  C   UNL     1       0.145   0.452   5.343  1.00  0.00     0.116 C 
BRANCH  36  37
ATOM     37  N   UNL     1      -1.118   1.032   4.919  1.00  0.00    -0.352 N 
ATOM     38  C   UNL     1      -1.681   2.219   5.312  1.00  0.00     0.251 C 
ATOM     39  H   UNL     1      -1.636   0.506   4.267  1.00  0.00     0.163 HD
ATOM     40  O   UNL     1      -2.805   2.536   4.941  1.00  0.00    -0.269 OA
BRANCH  38  41
ATOM     41  C   UNL     1      -0.925   3.104   6.219  1.00  0.00     0.039 A 
ATOM     42  C   UNL     1      -1.558   3.584   7.368  1.00  0.00     0.014 A 
ATOM     43  C   UNL     1       0.400   3.449   5.939  1.00  0.00     0.014 A 
ATOM     44  C   UNL     1      -0.847   4.386   8.260  1.00  0.00     0.010 A 
ATOM     45  C   UNL     1       1.125   4.199   6.858  1.00  0.00     0.010 A 
ATOM     46  C   UNL     1       0.503   4.686   8.017  1.00  0.00    -0.014 A 
BRANCH  46  47
ATOM     47  C   UNL     1       1.268   5.553   8.941  1.00  0.00     0.031 A 
ATOM     48  C   UNL     1       1.704   6.917   8.488  1.00  0.00     0.074 A 
ATOM     49  C   UNL     1       1.614   5.096  10.159  1.00  0.00     0.049 A 
ATOM     50  N   UNL     1       2.426   7.809   9.117  1.00  0.00    -0.248 NA
ATOM     51  C   UNL     1       1.298   7.322   7.132  1.00  0.00     0.031 C 
ATOM     52  C   UNL     1       1.291   3.770  10.688  1.00  0.00     0.029 A 
ATOM     53  N   UNL     1       2.320   5.697  11.169  1.00  0.00    -0.354 N 
ATOM     54  C   UNL     1       2.584   8.862   8.227  1.00  0.00     0.074 A 
ATOM     55  C   UNL     1       1.917   8.485   7.000  1.00  0.00     0.031 C 
ATOM     56  C   UNL     1       1.778   3.666  11.936  1.00  0.00     0.029 A 
ATOM     57  C   UNL     1       2.463   4.908  12.283  1.00  0.00     0.049 A 
ATOM     58  H   UNL     1       2.689   6.607  11.101  1.00  0.00     0.167 HD
ATOM     59  C   UNL     1       3.211  10.045   8.423  1.00  0.00     0.037 A 
ATOM     60  C   UNL     1       3.071   5.168  13.456  1.00  0.00     0.037 A 
ATOM     61  C   UNL     1       3.831  10.435   9.660  1.00  0.00     0.049 A 
ATOM     62  C   UNL     1       3.704   6.516  13.670  1.00  0.00     0.074 A 
ATOM     63  C   UNL     1       4.449  11.631   9.980  1.00  0.00     0.029 A 
ATOM     64  N   UNL     1       3.897   9.634  10.791  1.00  0.00    -0.354 N 
ATOM     65  N   UNL     1       3.800   7.526  12.841  1.00  0.00    -0.248 NA
ATOM     66  C   UNL     1       4.298   6.764  14.991  1.00  0.00     0.031 C 
ATOM     67  C   UNL     1       4.906  11.547  11.300  1.00  0.00     0.029 A 
ATOM     68  C   UNL     1       4.544  10.310  11.811  1.00  0.00     0.049 A 
ATOM     69  H   UNL     1       3.538   8.720  10.857  1.00  0.00     0.167 HD
ATOM     70  C   UNL     1       4.431   8.540  13.547  1.00  0.00     0.074 A 
ATOM     71  C   UNL     1       4.691   8.025  14.876  1.00  0.00     0.031 C 
ATOM     72  C   UNL     1       4.765   9.787  13.133  1.00  0.00     0.037 A 
BRANCH  59  73
ATOM     73  C   UNL     1       3.249  11.003   7.271  1.00  0.00     0.064 A 
ATOM     74  C   UNL     1       2.100  11.692   6.852  1.00  0.00     0.173 A 
ATOM     75  C   UNL     1       4.449  11.247   6.587  1.00  0.00     0.173 A 
ATOM     76  F   UNL     1       0.925  11.479   7.463  1.00  0.00    -0.203 F 
ATOM     77  C   UNL     1       2.146  12.569   5.772  1.00  0.00     0.198 A 
ATOM     78  C   UNL     1       4.496  12.145   5.524  1.00  0.00     0.198 A 
ATOM     79  F   UNL     1       5.574  10.614   6.949  1.00  0.00    -0.203 F 
ATOM     80  F   UNL     1       1.026  13.178   5.358  1.00  0.00    -0.200 F 
ATOM     81  C   UNL     1       3.344  12.799   5.112  1.00  0.00     0.200 A 
ATOM     82  F   UNL     1       5.656  12.372   4.891  1.00  0.00    -0.200 F 
ATOM     83  F   UNL     1       3.387  13.645   4.074  1.00  0.00    -0.200 F 
ENDBRANCH  59  73
BRANCH  60  84
ATOM     84  C   UNL     1       3.057   4.154  14.538  1.00  0.00     0.064 A 
ATOM     85  C   UNL     1       2.247   4.328  15.669  1.00  0.00     0.173 A 
ATOM     86  C   UNL     1       3.849   3.000  14.471  1.00  0.00     0.173 A 
ATOM     87  F   UNL     1       1.487   5.428  15.784  1.00  0.00    -0.203 F 
ATOM     88  C   UNL     1       2.244   3.395  16.702  1.00  0.00     0.198 A 
ATOM     89  C   UNL     1       3.828   2.056  15.495  1.00  0.00     0.198 A 
ATOM     90  F   UNL     1       4.636   2.787  13.407  1.00  0.00    -0.203 F 
ATOM     91  F   UNL     1       1.490   3.605  17.790  1.00  0.00    -0.200 F 
ATOM     92  C   UNL     1       3.032   2.257  16.613  1.00  0.00     0.200 A 
ATOM     93  F   UNL     1       4.584   0.953  15.403  1.00  0.00    -0.200 F 
ATOM     94  F   UNL     1       3.030   1.359  17.608  1.00  0.00    -0.200 F 
ENDBRANCH  60  84
BRANCH  72  95
ATOM     95  C   UNL     1       5.395  10.696  14.144  1.00  0.00     0.064 A 
ATOM     96  C   UNL     1       6.730  10.539  14.542  1.00  0.00     0.173 A 
ATOM     97  C   UNL     1       4.661  11.757  14.693  1.00  0.00     0.173 A 
ATOM     98  F   UNL     1       7.466   9.529  14.054  1.00  0.00    -0.203 F 
ATOM     99  C   UNL     1       7.301  11.400  15.475  1.00  0.00     0.198 A 
ATOM    100  C   UNL     1       5.242  12.630  15.608  1.00  0.00     0.198 A 
ATOM    101  F   UNL     1       3.381  11.949  14.338  1.00  0.00    -0.203 F 
ATOM    102  F   UNL     1       8.566  11.209  15.873  1.00  0.00    -0.200 F 
ATOM    103  C   UNL     1       6.559  12.447  16.002  1.00  0.00     0.200 A 
ATOM    104  F   UNL     1       4.527  13.645  16.111  1.00  0.00    -0.200 F 
ATOM    105  F   UNL     1       7.112  13.277  16.898  1.00  0.00    -0.200 F 
ENDBRANCH  72  95
ENDBRANCH  46  47
ENDBRANCH  38  41
ENDBRANCH  36  37
ENDBRANCH  35  36
ENDBRANCH   1  35
TORSDOF 15
