REMARK SMILES Cc1ccc(C(=O)N2C[C@H](C(=O)NCCCCNC(=O)c3ccc(-c4c5nc(c(-c6c(F)c(F)c(F)c(F)c6F)c6ccc([nH]6)c(-c6c(F)c(F)c(F)c(F)c6F)c6nc(c(-c7c(F)c(F)c(F)c(F)c7F)c7ccc4[nH]7)C=C6)C=C5)cc3)Oc3ccccc32)o1
REMARK SMILES IDX 15 1 14 2 13 3 11 4 12 5 10 7 8 8 9 9 90 10 85 11 89 12
REMARK SMILES IDX 84 13 86 14 88 15 87 16 6 17 7 18 5 19 1 20 2 21 3 22 91 23
REMARK SMILES IDX 4 24 16 25 17 26 18 27 19 28 20 30 21 31 22 32 83 33 23 34
REMARK SMILES IDX 82 35 24 36 25 37 26 38 76 39 27 40 81 41 75 42 77 43 28 44
REMARK SMILES IDX 80 45 74 46 73 47 29 49 61 50 41 51 60 52 42 53 45 54 59 55
REMARK SMILES IDX 78 56 43 57 44 58 58 60 79 61 46 62 30 63 31 64 39 65 32 66
REMARK SMILES IDX 33 67 37 68 40 69 34 70 35 71 38 72 36 73 62 74 63 75 71 76
REMARK SMILES IDX 64 77 65 78 69 79 72 80 66 81 67 82 70 83 68 84 47 85 48 86
REMARK SMILES IDX 56 87 49 88 50 89 54 90 57 91 51 92 52 93 55 94 53 95
REMARK H PARENT 13 6 18 29 77 48 45 59
REMARK Flexibility Score: inf
ROOT
ATOM      1  C   UNL     1      -5.446  -2.818   1.253  1.00  0.00     0.023 C 
ENDROOT
BRANCH   1   2
ATOM      2  C   UNL     1      -6.479  -1.693   1.305  1.00  0.00     0.116 C 
BRANCH   2   3
ATOM      3  N   UNL     1      -6.344  -0.895   2.513  1.00  0.00    -0.353 N 
ATOM      4  C   UNL     1      -5.924   0.397   2.673  1.00  0.00     0.262 C 
ATOM      5  O   UNL     1      -5.878   0.840   3.824  1.00  0.00    -0.271 OA
ATOM      6  H   UNL     1      -6.593  -1.357   3.345  1.00  0.00     0.163 HD
BRANCH   4   7
ATOM      7  C   UNL     1      -5.466   1.248   1.482  1.00  0.00     0.281 C 
ATOM      8  N   UNL     1      -3.671   1.457  -0.208  1.00  0.00    -0.298 N 
ATOM      9  C   UNL     1      -4.119   0.741   0.984  1.00  0.00     0.181 C 
ATOM     10  C   UNL     1      -4.707   1.859  -1.108  1.00  0.00     0.087 A 
ATOM     11  C   UNL     1      -6.055   1.690  -0.744  1.00  0.00     0.144 A 
ATOM     12  C   UNL     1      -4.428   2.320  -2.403  1.00  0.00     0.030 A 
ATOM     13  O   UNL     1      -6.478   1.228   0.476  1.00  0.00    -0.477 OA
ATOM     14  C   UNL     1      -7.083   1.950  -1.655  1.00  0.00     0.049 A 
ATOM     15  C   UNL     1      -5.458   2.586  -3.310  1.00  0.00     0.002 A 
ATOM     16  C   UNL     1      -6.785   2.396  -2.939  1.00  0.00     0.004 A 
BRANCH   8  17
ATOM     17  C   UNL     1      -2.313   1.722  -0.449  1.00  0.00     0.294 C 
ATOM     18  O   UNL     1      -1.947   2.783  -0.957  1.00  0.00    -0.265 OA
BRANCH  17  19
ATOM     19  C   UNL     1      -1.359   0.667  -0.122  1.00  0.00     0.192 A 
ATOM     20  C   UNL     1       2.148   0.039   0.257  1.00  0.00     0.087 C 
ATOM     21  C   UNL     1       0.684  -0.121   0.176  1.00  0.00     0.101 A 
ATOM     22  C   UNL     1      -0.155  -1.210   0.219  1.00  0.00     0.046 A 
ATOM     23  O   UNL     1      -0.036   1.016  -0.016  1.00  0.00    -0.456 OA
ATOM     24  C   UNL     1      -1.463  -0.708   0.013  1.00  0.00     0.056 A 
ENDBRANCH  17  19
ENDBRANCH   8  17
ENDBRANCH   4   7
ENDBRANCH   2   3
ENDBRANCH   1   2
BRANCH   1  25
ATOM     25  C   UNL     1      -5.683  -3.963   2.242  1.00  0.00     0.023 C 
BRANCH  25  26
ATOM     26  C   UNL     1      -7.028  -4.673   2.116  1.00  0.00     0.116 C 
BRANCH  26  27
ATOM     27  N   UNL     1      -7.273  -5.201   0.786  1.00  0.00    -0.352 N 
ATOM     28  C   UNL     1      -7.960  -6.326   0.407  1.00  0.00     0.251 C 
ATOM     29  H   UNL     1      -6.890  -4.675   0.048  1.00  0.00     0.163 HD
ATOM     30  O   UNL     1      -7.969  -6.661  -0.775  1.00  0.00    -0.269 OA
BRANCH  28  31
ATOM     31  C   UNL     1      -8.666  -7.158   1.407  1.00  0.00     0.039 A 
ATOM     32  C   UNL     1      -8.577  -8.550   1.289  1.00  0.00     0.014 A 
ATOM     33  C   UNL     1      -9.448  -6.592   2.418  1.00  0.00     0.014 A 
ATOM     34  C   UNL     1      -9.235  -9.372   2.205  1.00  0.00     0.010 A 
ATOM     35  C   UNL     1     -10.067  -7.412   3.361  1.00  0.00     0.010 A 
ATOM     36  C   UNL     1      -9.973  -8.807   3.256  1.00  0.00    -0.014 A 
BRANCH  36  37
ATOM     37  C   UNL     1     -10.682  -9.668   4.232  1.00  0.00     0.031 A 
ATOM     38  C   UNL     1     -12.181  -9.743   4.216  1.00  0.00     0.074 A 
ATOM     39  C   UNL     1      -9.980 -10.346   5.158  1.00  0.00     0.049 A 
ATOM     40  N   UNL     1     -12.986 -10.394   5.018  1.00  0.00    -0.248 NA
ATOM     41  C   UNL     1     -12.870  -8.964   3.176  1.00  0.00     0.031 C 
ATOM     42  C   UNL     1      -8.524 -10.320   5.302  1.00  0.00     0.029 A 
ATOM     43  N   UNL     1     -10.401 -11.185   6.158  1.00  0.00    -0.354 N 
ATOM     44  C   UNL     1     -14.271 -10.083   4.596  1.00  0.00     0.074 A 
ATOM     45  C   UNL     1     -14.143  -9.167   3.482  1.00  0.00     0.031 C 
ATOM     46  C   UNL     1      -8.171 -11.121   6.321  1.00  0.00     0.029 A 
ATOM     47  C   UNL     1      -9.375 -11.703   6.909  1.00  0.00     0.049 A 
ATOM     48  H   UNL     1     -11.348 -11.396   6.322  1.00  0.00     0.167 HD
ATOM     49  C   UNL     1     -15.451 -10.527   5.089  1.00  0.00     0.037 A 
ATOM     50  C   UNL     1      -9.406 -12.557   7.948  1.00  0.00     0.037 A 
ATOM     51  C   UNL     1     -15.581 -11.467   6.170  1.00  0.00     0.049 A 
ATOM     52  C   UNL     1     -10.725 -13.100   8.420  1.00  0.00     0.074 A 
ATOM     53  C   UNL     1     -16.734 -11.995   6.724  1.00  0.00     0.029 A 
ATOM     54  N   UNL     1     -14.514 -12.030   6.851  1.00  0.00    -0.354 N 
ATOM     55  N   UNL     1     -11.932 -12.822   7.994  1.00  0.00    -0.248 NA
ATOM     56  C   UNL     1     -10.683 -14.088   9.508  1.00  0.00     0.031 C 
ATOM     57  C   UNL     1     -16.363 -12.876   7.748  1.00  0.00     0.029 A 
ATOM     58  C   UNL     1     -14.979 -12.910   7.813  1.00  0.00     0.049 A 
ATOM     59  H   UNL     1     -13.565 -11.835   6.676  1.00  0.00     0.167 HD
ATOM     60  C   UNL     1     -12.790 -13.615   8.740  1.00  0.00     0.074 A 
ATOM     61  C   UNL     1     -11.967 -14.392   9.644  1.00  0.00     0.031 C 
ATOM     62  C   UNL     1     -14.142 -13.691   8.683  1.00  0.00     0.037 A 
BRANCH  49  63
ATOM     63  C   UNL     1     -16.700  -9.997   4.455  1.00  0.00     0.064 A 
ATOM     64  C   UNL     1     -17.133 -10.453   3.201  1.00  0.00     0.173 A 
ATOM     65  C   UNL     1     -17.481  -9.038   5.115  1.00  0.00     0.173 A 
ATOM     66  F   UNL     1     -16.407 -11.357   2.526  1.00  0.00    -0.203 F 
ATOM     67  C   UNL     1     -18.294  -9.952   2.621  1.00  0.00     0.198 A 
ATOM     68  C   UNL     1     -18.653  -8.553   4.540  1.00  0.00     0.198 A 
ATOM     69  F   UNL     1     -17.108  -8.572   6.316  1.00  0.00    -0.203 F 
ATOM     70  F   UNL     1     -18.669 -10.372   1.405  1.00  0.00    -0.200 F 
ATOM     71  C   UNL     1     -19.055  -9.006   3.292  1.00  0.00     0.200 A 
ATOM     72  F   UNL     1     -19.390  -7.642   5.191  1.00  0.00    -0.200 F 
ATOM     73  F   UNL     1     -20.173  -8.524   2.732  1.00  0.00    -0.200 F 
ENDBRANCH  49  63
BRANCH  50  74
ATOM     74  C   UNL     1      -8.137 -12.995   8.576  1.00  0.00     0.064 A 
ATOM     75  C   UNL     1      -7.611 -14.266   8.312  1.00  0.00     0.173 A 
ATOM     76  C   UNL     1      -7.423 -12.153   9.440  1.00  0.00     0.173 A 
ATOM     77  F   UNL     1      -8.272 -15.109   7.505  1.00  0.00    -0.203 F 
ATOM     78  C   UNL     1      -6.421 -14.687   8.901  1.00  0.00     0.198 A 
ATOM     79  C   UNL     1      -6.225 -12.569  10.016  1.00  0.00     0.198 A 
ATOM     80  F   UNL     1      -7.888 -10.927   9.717  1.00  0.00    -0.203 F 
ATOM     81  F   UNL     1      -5.954 -15.918   8.656  1.00  0.00    -0.200 F 
ATOM     82  C   UNL     1      -5.728 -13.837   9.749  1.00  0.00     0.200 A 
ATOM     83  F   UNL     1      -5.553 -11.744  10.829  1.00  0.00    -0.200 F 
ATOM     84  F   UNL     1      -4.582 -14.241  10.315  1.00  0.00    -0.200 F 
ENDBRANCH  50  74
BRANCH  62  85
ATOM     85  C   UNL     1     -14.808 -14.677   9.590  1.00  0.00     0.064 A 
ATOM     86  C   UNL     1     -15.004 -14.402  10.950  1.00  0.00     0.173 A 
ATOM     87  C   UNL     1     -15.287 -15.894   9.083  1.00  0.00     0.173 A 
ATOM     88  F   UNL     1     -14.549 -13.257  11.479  1.00  0.00    -0.203 F 
ATOM     89  C   UNL     1     -15.644 -15.321  11.777  1.00  0.00     0.198 A 
ATOM     90  C   UNL     1     -15.940 -16.803   9.909  1.00  0.00     0.198 A 
ATOM     91  F   UNL     1     -15.121 -16.198   7.787  1.00  0.00    -0.203 F 
ATOM     92  F   UNL     1     -15.796 -15.054  13.082  1.00  0.00    -0.200 F 
ATOM     93  C   UNL     1     -16.115 -16.518  11.256  1.00  0.00     0.200 A 
ATOM     94  F   UNL     1     -16.396 -17.958   9.405  1.00  0.00    -0.200 F 
ATOM     95  F   UNL     1     -16.731 -17.401  12.054  1.00  0.00    -0.200 F 
ENDBRANCH  62  85
ENDBRANCH  36  37
ENDBRANCH  28  31
ENDBRANCH  26  27
ENDBRANCH  25  26
ENDBRANCH   1  25
TORSDOF 13
