REMARK SMILES COc1ccc(-n2c(=O)[nH]c3cc(C(=O)NCCCCNC(=O)c4ccc(-c5c6nc(c(-c7c(F)c(F)c(F)c(F)c7F)c7ccc([nH]7)c(-c7c(F)c(F)c(F)c(F)c7F)c7nc(c(-c8c(F)c(F)c(F)c(F)c8F)c8ccc5[nH]8)C=C7)C=C6)cc4)ccc3c2=O)cc1
REMARK SMILES IDX 18 1 17 2 16 3 14 4 15 5 13 7 7 8 8 9 90 10 9 11 10 12 89 13
REMARK SMILES IDX 91 14 11 15 88 17 12 18 87 19 6 20 3 21 4 22 93 23 5 24
REMARK SMILES IDX 92 25 2 26 1 27 19 28 20 29 21 30 22 31 23 33 24 34 25 35
REMARK SMILES IDX 86 36 26 37 85 38 27 39 28 40 29 41 79 42 30 43 84 44 78 45
REMARK SMILES IDX 80 46 31 47 83 48 77 49 76 50 32 52 64 53 44 54 63 55 45 56
REMARK SMILES IDX 48 57 62 58 81 59 46 60 47 61 61 63 82 64 49 65 33 66 34 67
REMARK SMILES IDX 42 68 35 69 36 70 40 71 43 72 37 73 38 74 41 75 39 76 65 77
REMARK SMILES IDX 66 78 74 79 67 80 68 81 72 82 75 83 69 84 70 85 73 86 71 87
REMARK SMILES IDX 50 88 51 89 59 90 52 91 53 92 57 93 60 94 54 95 55 96 58 97
REMARK SMILES IDX 56 98
REMARK H PARENT 16 6 10 16 21 32 80 51 48 62
REMARK Flexibility Score: inf
ROOT
ATOM      1  C   UNL     1       0.441  -4.384  14.149  1.00  0.00     0.023 C 
ENDROOT
BRANCH   1   2
ATOM      2  C   UNL     1       0.516  -3.107  13.319  1.00  0.00     0.116 C 
BRANCH   2   3
ATOM      3  N   UNL     1       1.786  -2.412  13.438  1.00  0.00    -0.352 N 
ATOM      4  C   UNL     1       2.570  -1.822  12.477  1.00  0.00     0.251 C 
ATOM      5  O   UNL     1       3.668  -1.370  12.794  1.00  0.00    -0.269 OA
ATOM      6  H   UNL     1       2.143  -2.356  14.354  1.00  0.00     0.163 HD
BRANCH   4   7
ATOM      7  C   UNL     1       2.139  -1.739  11.060  1.00  0.00     0.041 A 
ATOM      8  N   UNL     1       2.097  -1.308   6.039  1.00  0.00    -0.228 N 
ATOM      9  C   UNL     1       3.436  -1.540   6.383  1.00  0.00     0.333 A 
ATOM     10  C   UNL     1       1.072  -1.606   6.949  1.00  0.00     0.268 A 
ATOM     11  O   UNL     1       4.415  -1.525   5.638  1.00  0.00    -0.247 OA
ATOM     12  N   UNL     1       3.703  -1.796   7.709  1.00  0.00    -0.306 N 
ATOM     13  C   UNL     1       1.423  -1.614   8.373  1.00  0.00     0.064 A 
ATOM     14  O   UNL     1      -0.088  -1.918   6.678  1.00  0.00    -0.268 OA
ATOM     15  C   UNL     1       2.753  -1.762   8.720  1.00  0.00     0.056 A 
ATOM     16  H   UNL     1       4.630  -2.018   7.957  1.00  0.00     0.171 HD
ATOM     17  C   UNL     1       0.442  -1.470   9.355  1.00  0.00     0.017 A 
ATOM     18  C   UNL     1       3.121  -1.852  10.061  1.00  0.00     0.040 A 
ATOM     19  C   UNL     1       0.810  -1.486  10.698  1.00  0.00     0.015 A 
BRANCH   8  20
ATOM     20  C   UNL     1       1.718  -0.840   4.712  1.00  0.00     0.054 A 
ATOM     21  C   UNL     1       0.910   0.147   2.158  1.00  0.00     0.119 A 
ATOM     22  C   UNL     1       0.051   0.218   3.244  1.00  0.00     0.048 A 
ATOM     23  C   UNL     1       2.183  -0.379   2.344  1.00  0.00     0.048 A 
ATOM     24  C   UNL     1       0.449  -0.264   4.496  1.00  0.00     0.031 A 
ATOM     25  C   UNL     1       2.578  -0.866   3.604  1.00  0.00     0.031 A 
BRANCH  21  26
ATOM     26  O   UNL     1       0.418   0.652   0.989  1.00  0.00    -0.497 OA
ATOM     27  C   UNL     1       0.971   0.095  -0.198  1.00  0.00     0.278 C 
ENDBRANCH  21  26
ENDBRANCH   8  20
ENDBRANCH   4   7
ENDBRANCH   2   3
ENDBRANCH   1   2
BRANCH   1  28
ATOM     28  C   UNL     1       0.617  -4.214  15.655  1.00  0.00     0.023 C 
BRANCH  28  29
ATOM     29  C   UNL     1      -0.261  -3.155  16.311  1.00  0.00     0.116 C 
BRANCH  29  30
ATOM     30  N   UNL     1      -1.686  -3.383  16.122  1.00  0.00    -0.352 N 
ATOM     31  C   UNL     1      -2.690  -3.516  17.053  1.00  0.00     0.251 C 
ATOM     32  H   UNL     1      -1.976  -3.452  15.184  1.00  0.00     0.163 HD
ATOM     33  O   UNL     1      -3.824  -3.808  16.698  1.00  0.00    -0.269 OA
BRANCH  31  34
ATOM     34  C   UNL     1      -2.389  -3.349  18.492  1.00  0.00     0.039 A 
ATOM     35  C   UNL     1      -2.865  -4.304  19.394  1.00  0.00     0.014 A 
ATOM     36  C   UNL     1      -1.621  -2.276  18.947  1.00  0.00     0.014 A 
ATOM     37  C   UNL     1      -2.491  -4.233  20.738  1.00  0.00     0.010 A 
ATOM     38  C   UNL     1      -1.178  -2.255  20.266  1.00  0.00     0.010 A 
ATOM     39  C   UNL     1      -1.604  -3.236  21.174  1.00  0.00    -0.014 A 
BRANCH  39  40
ATOM     40  C   UNL     1      -1.100  -3.206  22.572  1.00  0.00     0.031 A 
ATOM     41  C   UNL     1      -1.406  -2.032  23.459  1.00  0.00     0.074 A 
ATOM     42  C   UNL     1      -0.303  -4.197  23.016  1.00  0.00     0.049 A 
ATOM     43  N   UNL     1      -0.988  -1.780  24.674  1.00  0.00    -0.248 NA
ATOM     44  C   UNL     1      -2.272  -0.986  22.895  1.00  0.00     0.031 C 
ATOM     45  C   UNL     1       0.114  -5.364  22.235  1.00  0.00     0.029 A 
ATOM     46  N   UNL     1       0.312  -4.377  24.230  1.00  0.00    -0.354 N 
ATOM     47  C   UNL     1      -1.523  -0.543  25.009  1.00  0.00     0.074 A 
ATOM     48  C   UNL     1      -2.249  -0.069  23.851  1.00  0.00     0.031 C 
ATOM     49  C   UNL     1       0.894  -6.148  22.995  1.00  0.00     0.029 A 
ATOM     50  C   UNL     1       1.066  -5.523  24.303  1.00  0.00     0.049 A 
ATOM     51  H   UNL     1       0.222  -3.743  24.978  1.00  0.00     0.167 HD
ATOM     52  C   UNL     1      -1.440   0.125  26.184  1.00  0.00     0.037 A 
ATOM     53  C   UNL     1       1.815  -6.012  25.310  1.00  0.00     0.037 A 
ATOM     54  C   UNL     1      -0.743  -0.364  27.344  1.00  0.00     0.049 A 
ATOM     55  C   UNL     1       1.888  -5.252  26.607  1.00  0.00     0.074 A 
ATOM     56  C   UNL     1      -0.653   0.208  28.602  1.00  0.00     0.029 A 
ATOM     57  N   UNL     1      -0.013  -1.543  27.388  1.00  0.00    -0.354 N 
ATOM     58  N   UNL     1       1.319  -4.118  26.935  1.00  0.00    -0.248 NA
ATOM     59  C   UNL     1       2.704  -5.845  27.676  1.00  0.00     0.031 C 
ATOM     60  C   UNL     1       0.166  -0.604  29.394  1.00  0.00     0.029 A 
ATOM     61  C   UNL     1       0.545  -1.707  28.646  1.00  0.00     0.049 A 
ATOM     62  H   UNL     1       0.091  -2.171  26.637  1.00  0.00     0.167 HD
ATOM     63  C   UNL     1       1.681  -3.876  28.253  1.00  0.00     0.074 A 
ATOM     64  C   UNL     1       2.509  -4.989  28.669  1.00  0.00     0.031 C 
ATOM     65  C   UNL     1       1.358  -2.826  29.047  1.00  0.00     0.037 A 
BRANCH  52  66
ATOM     66  C   UNL     1      -2.128   1.456  26.274  1.00  0.00     0.064 A 
ATOM     67  C   UNL     1      -3.528   1.561  26.277  1.00  0.00     0.173 A 
ATOM     68  C   UNL     1      -1.382   2.638  26.391  1.00  0.00     0.173 A 
ATOM     69  F   UNL     1      -4.288   0.462  26.156  1.00  0.00    -0.203 F 
ATOM     70  C   UNL     1      -4.153   2.802  26.360  1.00  0.00     0.198 A 
ATOM     71  C   UNL     1      -2.011   3.875  26.506  1.00  0.00     0.198 A 
ATOM     72  F   UNL     1      -0.041   2.595  26.399  1.00  0.00    -0.203 F 
ATOM     73  F   UNL     1      -5.490   2.881  26.306  1.00  0.00    -0.200 F 
ATOM     74  C   UNL     1      -3.396   3.957  26.481  1.00  0.00     0.200 A 
ATOM     75  F   UNL     1      -1.278   4.989  26.636  1.00  0.00    -0.200 F 
ATOM     76  F   UNL     1      -3.999   5.150  26.567  1.00  0.00    -0.200 F 
ENDBRANCH  52  66
BRANCH  53  77
ATOM     77  C   UNL     1       2.534  -7.303  25.144  1.00  0.00     0.064 A 
ATOM     78  C   UNL     1       2.131  -8.445  25.851  1.00  0.00     0.173 A 
ATOM     79  C   UNL     1       3.637  -7.422  24.287  1.00  0.00     0.173 A 
ATOM     80  F   UNL     1       1.094  -8.375  26.699  1.00  0.00    -0.203 F 
ATOM     81  C   UNL     1       2.816  -9.651  25.723  1.00  0.00     0.198 A 
ATOM     82  C   UNL     1       4.304  -8.636  24.138  1.00  0.00     0.198 A 
ATOM     83  F   UNL     1       4.059  -6.361  23.584  1.00  0.00    -0.203 F 
ATOM     84  F   UNL     1       2.438 -10.714  26.445  1.00  0.00    -0.200 F 
ATOM     85  C   UNL     1       3.899  -9.747  24.862  1.00  0.00     0.200 A 
ATOM     86  F   UNL     1       5.342  -8.729  23.295  1.00  0.00    -0.200 F 
ATOM     87  F   UNL     1       4.557 -10.908  24.737  1.00  0.00    -0.200 F 
ENDBRANCH  53  77
BRANCH  65  88
ATOM     88  C   UNL     1       1.868  -2.848  30.459  1.00  0.00     0.064 A 
ATOM     89  C   UNL     1       3.222  -2.638  30.757  1.00  0.00     0.173 A 
ATOM     90  C   UNL     1       0.981  -3.043  31.529  1.00  0.00     0.173 A 
ATOM     91  F   UNL     1       4.111  -2.463  29.768  1.00  0.00    -0.203 F 
ATOM     92  C   UNL     1       3.674  -2.646  32.074  1.00  0.00     0.198 A 
ATOM     93  C   UNL     1       1.431  -3.020  32.846  1.00  0.00     0.198 A 
ATOM     94  F   UNL     1      -0.325  -3.242  31.297  1.00  0.00    -0.203 F 
ATOM     95  F   UNL     1       4.979  -2.489  32.333  1.00  0.00    -0.200 F 
ATOM     96  C   UNL     1       2.777  -2.829  33.117  1.00  0.00     0.200 A 
ATOM     97  F   UNL     1       0.562  -3.183  33.852  1.00  0.00    -0.200 F 
ATOM     98  F   UNL     1       3.213  -2.828  34.384  1.00  0.00    -0.200 F 
ENDBRANCH  65  88
ENDBRANCH  39  40
ENDBRANCH  31  34
ENDBRANCH  29  30
ENDBRANCH  28  29
ENDBRANCH   1  28
TORSDOF 13
