REMARK SMILES O=C(NCCCCNC(=O)c1cc(-c2ccc(N3C(=O)[C@@H]4CC=CC[C@H]4C3=O)cc2)nc2c(Cl)cccc12)c1ccc(-c2c3nc(c(-c4c(F)c(F)c(F)c(F)c4F)c4ccc([nH]4)c(-c4c(F)c(F)c(F)c(F)c4F)c4nc(c(-c5c(F)c(F)c(F)c(F)c5F)c5ccc2[nH]5)C=C4)C=C3)cc1
REMARK SMILES IDX 5 1 4 2 3 3 1 4 2 5 39 7 40 8 101 9 41 10 100 11 42 12 43 13
REMARK SMILES IDX 44 14 94 15 45 16 99 17 93 18 95 19 46 20 98 21 92 22 91 23
REMARK SMILES IDX 47 25 79 26 59 27 78 28 60 29 63 30 77 31 96 32 61 33 62 34
REMARK SMILES IDX 76 36 97 37 64 38 48 39 49 40 57 41 50 42 51 43 55 44 58 45
REMARK SMILES IDX 52 46 53 47 56 48 54 49 80 50 81 51 89 52 82 53 83 54 87 55
REMARK SMILES IDX 90 56 84 57 85 58 88 59 86 60 65 61 66 62 74 63 67 64 68 65
REMARK SMILES IDX 72 66 75 67 69 68 70 69 73 70 71 71 6 72 7 73 8 74 9 75
REMARK SMILES IDX 10 77 11 78 12 79 38 80 13 81 32 82 37 83 31 84 33 85 36 86
REMARK SMILES IDX 34 87 35 88 14 89 15 90 30 91 16 92 29 93 17 94 18 95 19 96
REMARK SMILES IDX 27 97 20 98 21 99 26 100 28 101 22 102 25 103 23 104 24 105
REMARK H PARENT 3 6 95 24 63 35 8 76
REMARK Flexibility Score: inf
ROOT
ATOM      1  C   UNL     1       4.844   1.298  -2.250  1.00  0.00     0.023 C 
ENDROOT
BRANCH   1   2
ATOM      2  C   UNL     1       4.486   1.107  -0.784  1.00  0.00     0.116 C 
BRANCH   2   3
ATOM      3  N   UNL     1       3.052   1.027  -0.544  1.00  0.00    -0.352 N 
ATOM      4  O   UNL     1       1.097   0.053   0.042  1.00  0.00    -0.269 OA
ATOM      5  C   UNL     1       2.322   0.008   0.025  1.00  0.00     0.251 C 
ATOM      6  H   UNL     1       2.531   1.812  -0.829  1.00  0.00     0.163 HD
BRANCH   5   7
ATOM      7  C   UNL     1       3.029  -1.161   0.590  1.00  0.00     0.039 A 
ATOM      8  C   UNL     1       4.153  -0.975   1.394  1.00  0.00     0.014 A 
ATOM      9  C   UNL     1       2.588  -2.452   0.285  1.00  0.00     0.014 A 
ATOM     10  C   UNL     1       4.942  -2.064   1.730  1.00  0.00     0.010 A 
ATOM     11  C   UNL     1       3.321  -3.558   0.731  1.00  0.00     0.010 A 
ATOM     12  C   UNL     1       4.524  -3.371   1.429  1.00  0.00    -0.014 A 
BRANCH  12  13
ATOM     13  C   UNL     1       5.329  -4.508   1.945  1.00  0.00     0.031 A 
ATOM     14  C   UNL     1       6.003  -5.486   1.025  1.00  0.00     0.074 A 
ATOM     15  C   UNL     1       5.494  -4.606   3.280  1.00  0.00     0.049 A 
ATOM     16  N   UNL     1       6.782  -6.496   1.329  1.00  0.00    -0.248 NA
ATOM     17  C   UNL     1       5.776  -5.322  -0.418  1.00  0.00     0.031 C 
ATOM     18  C   UNL     1       4.872  -3.720   4.269  1.00  0.00     0.029 A 
ATOM     19  N   UNL     1       6.251  -5.463   4.036  1.00  0.00    -0.354 N 
ATOM     20  C   UNL     1       7.129  -7.090   0.123  1.00  0.00     0.074 A 
ATOM     21  C   UNL     1       6.451  -6.349  -0.920  1.00  0.00     0.031 C 
ATOM     22  C   UNL     1       5.319  -4.038   5.490  1.00  0.00     0.029 A 
ATOM     23  C   UNL     1       6.193  -5.199   5.383  1.00  0.00     0.049 A 
ATOM     24  H   UNL     1       6.783  -6.196   3.651  1.00  0.00     0.167 HD
ATOM     25  C   UNL     1       7.946  -8.151  -0.090  1.00  0.00     0.037 A 
ATOM     26  C   UNL     1       6.760  -5.834   6.423  1.00  0.00     0.037 A 
ATOM     27  C   UNL     1       8.621  -8.880   0.956  1.00  0.00     0.049 A 
ATOM     28  C   UNL     1       7.633  -7.025   6.152  1.00  0.00     0.074 A 
ATOM     29  C   UNL     1       9.483  -9.957   0.839  1.00  0.00     0.029 A 
ATOM     30  N   UNL     1       8.508  -8.608   2.312  1.00  0.00    -0.354 N 
ATOM     31  N   UNL     1       7.976  -7.555   5.003  1.00  0.00    -0.248 NA
ATOM     32  C   UNL     1       8.196  -7.707   7.323  1.00  0.00     0.031 C 
ATOM     33  C   UNL     1       9.851 -10.369   2.125  1.00  0.00     0.029 A 
ATOM     34  C   UNL     1       9.266  -9.512   3.042  1.00  0.00     0.049 A 
ATOM     35  H   UNL     1       7.969  -7.881   2.699  1.00  0.00     0.167 HD
ATOM     36  C   UNL     1       8.805  -8.623   5.311  1.00  0.00     0.074 A 
ATOM     37  C   UNL     1       8.942  -8.641   6.753  1.00  0.00     0.031 C 
ATOM     38  C   UNL     1       9.390  -9.517   4.478  1.00  0.00     0.037 A 
BRANCH  25  39
ATOM     39  C   UNL     1       8.161  -8.604  -1.507  1.00  0.00     0.064 A 
ATOM     40  C   UNL     1       8.930  -7.856  -2.411  1.00  0.00     0.173 A 
ATOM     41  C   UNL     1       7.663  -9.843  -1.942  1.00  0.00     0.173 A 
ATOM     42  F   UNL     1       9.422  -6.661  -2.050  1.00  0.00    -0.203 F 
ATOM     43  C   UNL     1       9.182  -8.325  -3.699  1.00  0.00     0.198 A 
ATOM     44  C   UNL     1       7.941 -10.321  -3.220  1.00  0.00     0.198 A 
ATOM     45  F   UNL     1       6.929 -10.604  -1.116  1.00  0.00    -0.203 F 
ATOM     46  F   UNL     1       9.895  -7.578  -4.554  1.00  0.00    -0.200 F 
ATOM     47  C   UNL     1       8.697  -9.561  -4.099  1.00  0.00     0.200 A 
ATOM     48  F   UNL     1       7.484 -11.523  -3.599  1.00  0.00    -0.200 F 
ATOM     49  F   UNL     1       8.957 -10.018  -5.331  1.00  0.00    -0.200 F 
ENDBRANCH  25  39
BRANCH  26  50
ATOM     50  C   UNL     1       6.494  -5.375   7.811  1.00  0.00     0.064 A 
ATOM     51  C   UNL     1       7.519  -4.862   8.617  1.00  0.00     0.173 A 
ATOM     52  C   UNL     1       5.207  -5.458   8.367  1.00  0.00     0.173 A 
ATOM     53  F   UNL     1       8.769  -4.776   8.137  1.00  0.00    -0.203 F 
ATOM     54  C   UNL     1       7.275  -4.479   9.934  1.00  0.00     0.198 A 
ATOM     55  C   UNL     1       4.957  -5.037   9.670  1.00  0.00     0.198 A 
ATOM     56  F   UNL     1       4.188  -5.933   7.636  1.00  0.00    -0.203 F 
ATOM     57  F   UNL     1       8.285  -4.050  10.702  1.00  0.00    -0.200 F 
ATOM     58  C   UNL     1       5.993  -4.562  10.458  1.00  0.00     0.200 A 
ATOM     59  F   UNL     1       3.712  -5.098  10.163  1.00  0.00    -0.200 F 
ATOM     60  F   UNL     1       5.759  -4.192  11.724  1.00  0.00    -0.200 F 
ENDBRANCH  26  50
BRANCH  38  61
ATOM     61  C   UNL     1      10.251 -10.570   5.114  1.00  0.00     0.064 A 
ATOM     62  C   UNL     1       9.700 -11.597   5.897  1.00  0.00     0.173 A 
ATOM     63  C   UNL     1      11.643 -10.550   4.942  1.00  0.00     0.173 A 
ATOM     64  F   UNL     1       8.376 -11.649   6.107  1.00  0.00    -0.203 F 
ATOM     65  C   UNL     1      10.515 -12.537   6.520  1.00  0.00     0.198 A 
ATOM     66  C   UNL     1      12.452 -11.515   5.536  1.00  0.00     0.198 A 
ATOM     67  F   UNL     1      12.220  -9.595   4.198  1.00  0.00    -0.203 F 
ATOM     68  F   UNL     1       9.973 -13.466   7.320  1.00  0.00    -0.200 F 
ATOM     69  C   UNL     1      11.889 -12.499   6.335  1.00  0.00     0.200 A 
ATOM     70  F   UNL     1      13.778 -11.484   5.346  1.00  0.00    -0.200 F 
ATOM     71  F   UNL     1      12.673 -13.404   6.937  1.00  0.00    -0.200 F 
ENDBRANCH  38  61
ENDBRANCH  12  13
ENDBRANCH   5   7
ENDBRANCH   2   3
ENDBRANCH   1   2
BRANCH   1  72
ATOM     72  C   UNL     1       4.372   2.609  -2.866  1.00  0.00     0.023 C 
BRANCH  72  73
ATOM     73  C   UNL     1       4.731   3.861  -2.077  1.00  0.00     0.116 C 
BRANCH  73  74
ATOM     74  N   UNL     1       6.162   4.018  -1.856  1.00  0.00    -0.352 N 
ATOM     75  C   UNL     1       6.939   5.136  -2.035  1.00  0.00     0.252 C 
ATOM     76  H   UNL     1       6.635   3.215  -1.537  1.00  0.00     0.163 HD
ATOM     77  O   UNL     1       8.145   5.103  -1.822  1.00  0.00    -0.269 OA
BRANCH  75  78
ATOM     78  C   UNL     1       6.316   6.369  -2.552  1.00  0.00     0.051 A 
ATOM     79  C   UNL     1       6.750   6.776  -3.809  1.00  0.00     0.043 A 
ATOM     80  C   UNL     1       5.282   7.045  -1.867  1.00  0.00     0.015 A 
ATOM     81  C   UNL     1       6.097   7.839  -4.394  1.00  0.00     0.072 A 
ATOM     82  C   UNL     1       4.629   8.072  -2.573  1.00  0.00     0.090 A 
ATOM     83  C   UNL     1       4.863   6.718  -0.551  1.00  0.00     0.011 A 
ATOM     84  N   UNL     1       5.051   8.457  -3.801  1.00  0.00    -0.246 NA
ATOM     85  C   UNL     1       3.506   8.657  -1.967  1.00  0.00     0.067 A 
ATOM     86  C   UNL     1       3.752   7.321   0.025  1.00  0.00     0.002 A 
ATOM     87  Cl  UNL     1       2.586   9.870  -2.798  1.00  0.00    -0.082 Cl
ATOM     88  C   UNL     1       3.058   8.281  -0.695  1.00  0.00     0.023 A 
BRANCH  81  89
ATOM     89  C   UNL     1       6.476   8.352  -5.710  1.00  0.00     0.000 A 
ATOM     90  C   UNL     1       6.299   7.584  -6.868  1.00  0.00     0.012 A 
ATOM     91  C   UNL     1       7.027   9.633  -5.844  1.00  0.00     0.012 A 
ATOM     92  C   UNL     1       6.645   8.093  -8.125  1.00  0.00     0.027 A 
ATOM     93  C   UNL     1       7.417  10.123  -7.096  1.00  0.00     0.027 A 
ATOM     94  C   UNL     1       7.216   9.366  -8.257  1.00  0.00     0.052 A 
BRANCH  94  95
ATOM     95  N   UNL     1       7.574   9.870  -9.530  1.00  0.00    -0.250 N 
ATOM     96  C   UNL     1       6.899   9.570 -10.709  1.00  0.00     0.238 C 
ATOM     97  C   UNL     1       8.645  10.723  -9.771  1.00  0.00     0.238 C 
ATOM     98  O   UNL     1       5.991   8.784 -10.915  1.00  0.00    -0.274 OA
ATOM     99  C   UNL     1       7.418  10.543 -11.729  1.00  0.00     0.096 C 
ATOM    100  C   UNL     1       8.850  10.695 -11.258  1.00  0.00     0.096 C 
ATOM    101  O   UNL     1       9.384  11.297  -8.986  1.00  0.00    -0.274 OA
ATOM    102  C   UNL     1       7.366  10.153 -13.192  1.00  0.00     0.041 C 
ATOM    103  C   UNL     1       9.521  11.868 -11.941  1.00  0.00     0.041 C 
ATOM    104  C   UNL     1       8.309  11.027 -13.988  1.00  0.00    -0.030 C 
ATOM    105  C   UNL     1       9.251  11.812 -13.429  1.00  0.00    -0.030 C 
ENDBRANCH  94  95
ENDBRANCH  81  89
ENDBRANCH  75  78
ENDBRANCH  73  74
ENDBRANCH  72  73
ENDBRANCH   1  72
TORSDOF 13
