REMARK SMILES Cc1ccc(S(=O)(=O)n2cc(C(=O)C(=O)N[C@H](Cc3c[nH]c4ccccc34)C(=O)NCC(=O)NCCCCNC(=O)c3ccc(-c4c5nc(c(-c6c(F)c(F)c(F)c(F)c6F)c6ccc([nH]6)c(-c6c(F)c(F)c(F)c(F)c6F)c6nc(c(-c7c(F)c(F)c(F)c(F)c7F)c7ccc4[nH]7)C=C6)C=C5)cc3)c3ccccc32)cc1
REMARK SMILES IDX 32 1 33 2 34 3 31 5 30 6 28 7 29 8 17 10 16 11 14 12 15 13
REMARK SMILES IDX 12 15 13 16 11 17 9 18 10 19 110 20 105 21 109 22 106 23
REMARK SMILES IDX 108 24 107 25 6 26 7 27 8 28 5 29 1 30 2 31 3 32 112 33 4 34
REMARK SMILES IDX 111 35 18 36 19 37 20 38 27 39 21 40 22 41 26 42 23 44 25 45
REMARK SMILES IDX 24 46 35 47 36 48 37 49 38 50 39 51 40 52 41 54 42 55 43 56
REMARK SMILES IDX 104 57 44 58 103 59 45 60 46 61 47 62 97 63 48 64 102 65
REMARK SMILES IDX 96 66 98 67 49 68 101 69 95 70 94 71 50 73 82 74 62 75 81 76
REMARK SMILES IDX 63 77 66 78 80 79 99 80 64 81 65 82 79 84 100 85 67 86 51 87
REMARK SMILES IDX 52 88 60 89 53 90 54 91 58 92 61 93 55 94 56 95 59 96 57 97
REMARK SMILES IDX 83 98 84 99 92 100 85 101 86 102 90 103 93 104 87 105 88 106
REMARK SMILES IDX 91 107 89 108 68 109 69 110 77 111 70 112 71 113 75 114
REMARK SMILES IDX 78 115 72 116 73 117 76 118 74 119
REMARK H PARENT 34 4 30 9 16 14 21 43 39 53 98 72 66 83
REMARK Flexibility Score: inf
ROOT
ATOM      1  C   UNL     1     -13.135   4.829  -2.536  1.00  0.00     0.239 C 
ATOM      2  O   UNL     1     -14.013   5.692  -2.647  1.00  0.00    -0.273 OA
ATOM      3  N   UNL     1     -11.967   5.053  -3.203  1.00  0.00    -0.355 N 
ATOM      4  H   UNL     1     -11.994   5.802  -3.840  1.00  0.00     0.163 HD
ENDROOT
BRANCH   1   5
ATOM      5  C   UNL     1     -13.340   3.660  -1.556  1.00  0.00     0.216 C 
BRANCH   5   6
ATOM      6  N   UNL     1     -12.710   2.409  -1.899  1.00  0.00    -0.345 N 
ATOM      7  C   UNL     1     -11.958   1.512  -1.227  1.00  0.00     0.243 C 
ATOM      8  O   UNL     1     -11.749   0.472  -1.868  1.00  0.00    -0.273 OA
ATOM      9  H   UNL     1     -12.862   2.150  -2.837  1.00  0.00     0.164 HD
BRANCH   7  10
ATOM     10  C   UNL     1     -11.319   1.676   0.189  1.00  0.00     0.176 C 
BRANCH  10  11
ATOM     11  N   UNL     1     -12.063   2.360   1.300  1.00  0.00    -0.337 N 
ATOM     12  C   UNL     1     -12.113   3.654   1.799  1.00  0.00     0.293 C 
ATOM     13  O   UNL     1     -12.758   3.885   2.816  1.00  0.00    -0.265 OA
ATOM     14  H   UNL     1     -12.655   1.744   1.789  1.00  0.00     0.164 HD
BRANCH  12  15
ATOM     15  C   UNL     1     -11.398   4.797   1.077  1.00  0.00     0.252 C 
ATOM     16  O   UNL     1     -10.838   4.475   0.027  1.00  0.00    -0.283 OA
BRANCH  15  17
ATOM     17  C   UNL     1     -11.321   6.199   1.527  1.00  0.00     0.054 A 
ATOM     18  N   UNL     1     -11.456   8.238   2.490  1.00  0.00    -0.240 N 
ATOM     19  C   UNL     1     -11.863   6.896   2.608  1.00  0.00     0.117 A 
ATOM     20  C   UNL     1     -10.346   8.245   1.646  1.00  0.00     0.065 A 
ATOM     21  C   UNL     1     -10.589   7.182   0.785  1.00  0.00     0.012 A 
ATOM     22  C   UNL     1      -9.364   9.210   1.377  1.00  0.00     0.028 A 
ATOM     23  C   UNL     1     -10.067   7.245  -0.518  1.00  0.00     0.011 A 
ATOM     24  C   UNL     1      -8.807   9.205   0.090  1.00  0.00     0.002 A 
ATOM     25  C   UNL     1      -9.213   8.284  -0.870  1.00  0.00     0.001 A 
BRANCH  18  26
ATOM     26  S   UNL     1     -12.668   9.494   2.106  1.00  0.00     0.268 S 
ATOM     27  O   UNL     1     -13.829   8.761   1.640  1.00  0.00    -0.201 OA
ATOM     28  O   UNL     1     -11.968  10.432   1.241  1.00  0.00    -0.201 OA
BRANCH  26  29
ATOM     29  C   UNL     1     -13.170  10.445   3.516  1.00  0.00     0.088 A 
ATOM     30  C   UNL     1     -15.159  12.980   6.391  1.00  0.00     0.044 C 
ATOM     31  C   UNL     1     -14.449  12.085   5.414  1.00  0.00    -0.051 A 
ATOM     32  C   UNL     1     -13.935  12.643   4.245  1.00  0.00     0.005 A 
ATOM     33  C   UNL     1     -14.284  10.706   5.641  1.00  0.00     0.005 A 
ATOM     34  C   UNL     1     -13.306  11.831   3.305  1.00  0.00     0.022 A 
ATOM     35  C   UNL     1     -13.654   9.877   4.691  1.00  0.00     0.022 A 
ENDBRANCH  26  29
ENDBRANCH  18  26
ENDBRANCH  15  17
ENDBRANCH  12  15
ENDBRANCH  10  11
BRANCH  10  36
ATOM     36  C   UNL     1      -9.761   1.787   0.272  1.00  0.00     0.072 C 
BRANCH  36  37
ATOM     37  C   UNL     1      -8.924   1.593  -0.972  1.00  0.00    -0.020 A 
ATOM     38  C   UNL     1      -8.158   2.575  -1.584  1.00  0.00     0.087 A 
ATOM     39  C   UNL     1      -8.682   0.381  -1.714  1.00  0.00     0.003 A 
ATOM     40  N   UNL     1      -7.539   2.030  -2.676  1.00  0.00    -0.361 N 
ATOM     41  C   UNL     1      -7.872   0.706  -2.803  1.00  0.00     0.046 A 
ATOM     42  C   UNL     1      -9.098  -0.962  -1.590  1.00  0.00     0.010 A 
ATOM     43  H   UNL     1      -6.940   2.519  -3.285  1.00  0.00     0.166 HD
ATOM     44  C   UNL     1      -7.512  -0.210  -3.800  1.00  0.00     0.026 A 
ATOM     45  C   UNL     1      -8.742  -1.897  -2.573  1.00  0.00     0.001 A 
ATOM     46  C   UNL     1      -7.971  -1.520  -3.670  1.00  0.00     0.002 A 
ENDBRANCH  36  37
ENDBRANCH  10  36
ENDBRANCH   7  10
ENDBRANCH   5   6
ENDBRANCH   1   5
BRANCH   3  47
ATOM     47  C   UNL     1     -10.690   4.367  -3.127  1.00  0.00     0.116 C 
BRANCH  47  48
ATOM     48  C   UNL     1     -10.289   3.711  -4.446  1.00  0.00     0.023 C 
BRANCH  48  49
ATOM     49  C   UNL     1      -9.759   4.662  -5.525  1.00  0.00     0.023 C 
BRANCH  49  50
ATOM     50  C   UNL     1      -8.513   5.458  -5.175  1.00  0.00     0.116 C 
BRANCH  50  51
ATOM     51  N   UNL     1      -7.350   4.678  -4.794  1.00  0.00    -0.352 N 
ATOM     52  C   UNL     1      -6.138   4.925  -5.445  1.00  0.00     0.251 C 
ATOM     53  H   UNL     1      -7.413   3.989  -4.093  1.00  0.00     0.163 HD
ATOM     54  O   UNL     1      -5.888   4.727  -6.611  1.00  0.00    -0.269 OA
BRANCH  52  55
ATOM     55  C   UNL     1      -5.213   5.645  -4.541  1.00  0.00     0.039 A 
ATOM     56  C   UNL     1      -4.089   5.038  -3.981  1.00  0.00     0.014 A 
ATOM     57  C   UNL     1      -5.750   6.823  -4.019  1.00  0.00     0.014 A 
ATOM     58  C   UNL     1      -3.601   5.538  -2.769  1.00  0.00     0.010 A 
ATOM     59  C   UNL     1      -5.333   7.243  -2.784  1.00  0.00     0.010 A 
ATOM     60  C   UNL     1      -4.288   6.577  -2.132  1.00  0.00    -0.014 A 
BRANCH  60  61
ATOM     61  C   UNL     1      -4.134   6.963  -0.730  1.00  0.00     0.031 A 
ATOM     62  C   UNL     1      -3.766   8.354  -0.367  1.00  0.00     0.074 A 
ATOM     63  C   UNL     1      -4.676   6.143   0.199  1.00  0.00     0.049 A 
ATOM     64  N   UNL     1      -3.556   8.773   0.836  1.00  0.00    -0.248 NA
ATOM     65  C   UNL     1      -3.565   9.397  -1.367  1.00  0.00     0.031 C 
ATOM     66  C   UNL     1      -5.152   6.511   1.530  1.00  0.00     0.029 A 
ATOM     67  N   UNL     1      -4.731   4.736   0.189  1.00  0.00    -0.354 N 
ATOM     68  C   UNL     1      -3.516  10.152   0.807  1.00  0.00     0.074 A 
ATOM     69  C   UNL     1      -3.424  10.477  -0.594  1.00  0.00     0.031 C 
ATOM     70  C   UNL     1      -5.154   5.418   2.306  1.00  0.00     0.029 A 
ATOM     71  C   UNL     1      -4.522   4.360   1.540  1.00  0.00     0.049 A 
ATOM     72  H   UNL     1      -4.880   4.145  -0.585  1.00  0.00     0.167 HD
ATOM     73  C   UNL     1      -3.708  10.835   1.976  1.00  0.00     0.037 A 
ATOM     74  C   UNL     1      -3.398   3.692   1.930  1.00  0.00     0.037 A 
ATOM     75  C   UNL     1      -3.661   9.920   3.121  1.00  0.00     0.049 A 
ATOM     76  C   UNL     1      -2.577   4.398   2.984  1.00  0.00     0.074 A 
ATOM     77  C   UNL     1      -4.627   9.374   3.950  1.00  0.00     0.029 A 
ATOM     78  N   UNL     1      -2.487   9.214   3.373  1.00  0.00    -0.354 N 
ATOM     79  N   UNL     1      -2.703   5.661   3.279  1.00  0.00    -0.248 NA
ATOM     80  C   UNL     1      -1.520   3.750   3.756  1.00  0.00     0.031 C 
ATOM     81  C   UNL     1      -4.041   8.294   4.660  1.00  0.00     0.029 A 
ATOM     82  C   UNL     1      -2.716   8.194   4.274  1.00  0.00     0.049 A 
ATOM     83  H   UNL     1      -1.615   9.415   2.965  1.00  0.00     0.167 HD
ATOM     84  C   UNL     1      -1.767   6.009   4.217  1.00  0.00     0.074 A 
ATOM     85  C   UNL     1      -1.067   4.772   4.504  1.00  0.00     0.031 C 
ATOM     86  C   UNL     1      -1.639   7.295   4.659  1.00  0.00     0.037 A 
BRANCH  73  87
ATOM     87  C   UNL     1      -4.202  12.275   2.093  1.00  0.00     0.064 A 
ATOM     88  C   UNL     1      -4.788  12.736   3.298  1.00  0.00     0.173 A 
ATOM     89  C   UNL     1      -4.226  13.227   1.055  1.00  0.00     0.173 A 
ATOM     90  F   UNL     1      -4.761  12.002   4.418  1.00  0.00    -0.203 F 
ATOM     91  C   UNL     1      -5.434  13.975   3.409  1.00  0.00     0.198 A 
ATOM     92  C   UNL     1      -4.891  14.456   1.156  1.00  0.00     0.198 A 
ATOM     93  F   UNL     1      -3.570  13.046  -0.090  1.00  0.00    -0.203 F 
ATOM     94  F   UNL     1      -5.995  14.330   4.573  1.00  0.00    -0.200 F 
ATOM     95  C   UNL     1      -5.510  14.824   2.328  1.00  0.00     0.200 A 
ATOM     96  F   UNL     1      -4.920  15.279   0.098  1.00  0.00    -0.200 F 
ATOM     97  F   UNL     1      -6.152  15.996   2.420  1.00  0.00    -0.200 F 
ENDBRANCH  73  87
BRANCH  74  98
ATOM     98  C   UNL     1      -2.850   2.806   0.873  1.00  0.00     0.064 A 
ATOM     99  C   UNL     1      -3.615   1.693   0.474  1.00  0.00     0.173 A 
ATOM    100  C   UNL     1      -1.831   3.237   0.016  1.00  0.00     0.173 A 
ATOM    101  F   UNL     1      -4.609   1.251   1.259  1.00  0.00    -0.203 F 
ATOM    102  C   UNL     1      -3.439   1.107  -0.777  1.00  0.00     0.198 A 
ATOM    103  C   UNL     1      -1.653   2.641  -1.234  1.00  0.00     0.198 A 
ATOM    104  F   UNL     1      -1.090   4.309   0.329  1.00  0.00    -0.203 F 
ATOM    105  F   UNL     1      -4.250   0.117  -1.174  1.00  0.00    -0.200 F 
ATOM    106  C   UNL     1      -2.477   1.601  -1.642  1.00  0.00     0.200 A 
ATOM    107  F   UNL     1      -0.748   3.141  -2.088  1.00  0.00    -0.200 F 
ATOM    108  F   UNL     1      -2.374   1.109  -2.885  1.00  0.00    -0.200 F 
ENDBRANCH  74  98
BRANCH  86 109
ATOM    109  C   UNL     1      -0.533   7.825   5.535  1.00  0.00     0.064 A 
ATOM    110  C   UNL     1       0.785   7.342   5.512  1.00  0.00     0.173 A 
ATOM    111  C   UNL     1      -0.750   8.974   6.334  1.00  0.00     0.173 A 
ATOM    112  F   UNL     1       1.140   6.328   4.711  1.00  0.00    -0.203 F 
ATOM    113  C   UNL     1       1.800   7.932   6.272  1.00  0.00     0.198 A 
ATOM    114  C   UNL     1       0.275   9.592   7.048  1.00  0.00     0.198 A 
ATOM    115  F   UNL     1      -1.962   9.543   6.425  1.00  0.00    -0.203 F 
ATOM    116  F   UNL     1       3.036   7.413   6.244  1.00  0.00    -0.200 F 
ATOM    117  C   UNL     1       1.548   9.063   7.028  1.00  0.00     0.200 A 
ATOM    118  F   UNL     1       0.025  10.715   7.737  1.00  0.00    -0.200 F 
ATOM    119  F   UNL     1       2.535   9.651   7.717  1.00  0.00    -0.200 F 
ENDBRANCH  86 109
ENDBRANCH  60  61
ENDBRANCH  52  55
ENDBRANCH  50  51
ENDBRANCH  49  50
ENDBRANCH  48  49
ENDBRANCH  47  48
ENDBRANCH   3  47
TORSDOF 20
