REMARK SMILES CC(C)C[C@H](NC(=O)CNC(=O)[C@@H](NC(=O)OCc1ccccc1)C(C)C)C(=O)N[C@@H](C)C(=O)NCCCCNC(=O)c1ccc(-c2c3nc(c(-c4c(F)c(F)c(F)c(F)c4F)c4ccc([nH]4)c(-c4c(F)c(F)c(F)c(F)c4F)c4nc(c(-c5c(F)c(F)c(F)c(F)c5F)c5ccc2[nH]5)C=C4)C=C3)cc1
REMARK SMILES IDX 31 1 32 2 30 3 28 4 29 5 5 7 4 8 2 9 1 10 3 11 6 12 7 13
REMARK SMILES IDX 8 15 9 16 10 17 11 18 12 20 13 21 14 22 15 23 16 25 17 26
REMARK SMILES IDX 18 27 19 28 20 29 24 30 21 31 23 32 22 33 25 34 26 35 27 36
REMARK SMILES IDX 33 37 34 38 35 39 36 41 37 42 38 43 39 44 40 45 41 46 42 48
REMARK SMILES IDX 43 49 44 50 105 51 45 52 104 53 46 54 47 55 48 56 98 57
REMARK SMILES IDX 49 58 103 59 97 60 99 61 50 62 102 63 96 64 95 65 51 67
REMARK SMILES IDX 83 68 63 69 82 70 64 71 67 72 81 73 100 74 65 75 66 76 80 78
REMARK SMILES IDX 101 79 68 80 52 81 53 82 61 83 54 84 55 85 59 86 62 87 56 88
REMARK SMILES IDX 57 89 60 90 58 91 84 92 85 93 93 94 86 95 87 96 91 97 94 98
REMARK SMILES IDX 88 99 89 100 92 101 90 102 69 103 70 104 78 105 71 106
REMARK SMILES IDX 72 107 76 108 79 109 73 110 74 111 77 112 75 113
REMARK H PARENT 30 6 6 14 10 19 14 24 35 40 40 47 99 66 67 77
REMARK Flexibility Score: inf
ROOT
ATOM      1  C   UNL     1      -3.148  -3.661  -1.165  1.00  0.00     0.168 C 
ATOM      2  C   UNL     1      -3.373  -4.654  -0.036  1.00  0.00     0.041 C 
ENDROOT
BRANCH   1   3
ATOM      3  N   UNL     1      -3.750  -2.362  -0.854  1.00  0.00    -0.343 N 
ATOM      4  C   UNL     1      -3.259  -1.110  -1.065  1.00  0.00     0.243 C 
ATOM      5  O   UNL     1      -4.052  -0.169  -1.006  1.00  0.00    -0.273 OA
ATOM      6  H   UNL     1      -4.638  -2.400  -0.430  1.00  0.00     0.164 HD
BRANCH   4   7
ATOM      7  C   UNL     1      -1.784  -0.909  -1.451  1.00  0.00     0.171 C 
BRANCH   7   8
ATOM      8  C   UNL     1      -1.542  -1.307  -2.906  1.00  0.00     0.038 C 
BRANCH   8   9
ATOM      9  C   UNL     1      -2.547  -0.850  -3.979  1.00  0.00    -0.015 C 
ATOM     10  C   UNL     1      -2.678   0.672  -4.061  1.00  0.00     0.007 C 
ATOM     11  C   UNL     1      -2.072  -1.381  -5.338  1.00  0.00     0.007 C 
ENDBRANCH   8   9
ENDBRANCH   7   8
BRANCH   7  12
ATOM     12  N   UNL     1      -0.969  -1.635  -0.453  1.00  0.00    -0.343 N 
ATOM     13  C   UNL     1       0.334  -1.857  -0.178  1.00  0.00     0.240 C 
ATOM     14  H   UNL     1      -1.545  -2.090   0.203  1.00  0.00     0.164 HD
ATOM     15  O   UNL     1       0.543  -2.433   0.900  1.00  0.00    -0.273 OA
BRANCH  13  16
ATOM     16  C   UNL     1       1.539  -1.354  -0.982  1.00  0.00     0.216 C 
BRANCH  16  17
ATOM     17  N   UNL     1       1.550  -1.522  -2.416  1.00  0.00    -0.345 N 
ATOM     18  C   UNL     1       1.642  -0.633  -3.437  1.00  0.00     0.243 C 
ATOM     19  H   UNL     1       1.476  -2.459  -2.708  1.00  0.00     0.164 HD
ATOM     20  O   UNL     1       1.820  -1.120  -4.560  1.00  0.00    -0.273 OA
BRANCH  18  21
ATOM     21  C   UNL     1       1.564   0.914  -3.269  1.00  0.00     0.177 C 
BRANCH  21  22
ATOM     22  N   UNL     1       0.580   1.345  -2.269  1.00  0.00    -0.309 N 
ATOM     23  C   UNL     1       0.674   1.777  -0.983  1.00  0.00     0.408 C 
ATOM     24  H   UNL     1      -0.346   1.315  -2.600  1.00  0.00     0.167 HD
ATOM     25  O   UNL     1      -0.316   1.835  -0.276  1.00  0.00    -0.225 OA
BRANCH  23  26
ATOM     26  O   UNL     1       1.911   2.181  -0.625  1.00  0.00    -0.445 OA
BRANCH  26  27
ATOM     27  C   UNL     1       1.980   2.851   0.641  1.00  0.00     0.270 C 
BRANCH  27  28
ATOM     28  C   UNL     1       1.518   4.297   0.624  1.00  0.00    -0.011 A 
ATOM     29  C   UNL     1       0.620   4.813  -0.326  1.00  0.00     0.007 A 
ATOM     30  C   UNL     1       1.935   5.147   1.659  1.00  0.00     0.007 A 
ATOM     31  C   UNL     1       0.147   6.123  -0.243  1.00  0.00     0.000 A 
ATOM     32  C   UNL     1       1.471   6.463   1.737  1.00  0.00     0.000 A 
ATOM     33  C   UNL     1       0.573   6.948   0.789  1.00  0.00     0.000 A 
ENDBRANCH  27  28
ENDBRANCH  26  27
ENDBRANCH  23  26
ENDBRANCH  21  22
BRANCH  21  34
ATOM     34  C   UNL     1       2.946   1.593  -3.239  1.00  0.00     0.015 C 
ATOM     35  C   UNL     1       3.845   1.107  -4.385  1.00  0.00     0.010 C 
ATOM     36  C   UNL     1       2.815   3.117  -3.375  1.00  0.00     0.010 C 
ENDBRANCH  21  34
ENDBRANCH  18  21
ENDBRANCH  16  17
ENDBRANCH  13  16
ENDBRANCH   7  12
ENDBRANCH   4   7
ENDBRANCH   1   3
BRANCH   1  37
ATOM     37  C   UNL     1      -3.599  -4.222  -2.527  1.00  0.00     0.242 C 
ATOM     38  O   UNL     1      -2.771  -4.646  -3.339  1.00  0.00    -0.273 OA
ATOM     39  N   UNL     1      -4.912  -4.367  -2.844  1.00  0.00    -0.354 N 
ATOM     40  H   UNL     1      -5.084  -4.741  -3.739  1.00  0.00     0.163 HD
BRANCH  39  41
ATOM     41  C   UNL     1      -6.098  -4.060  -2.077  1.00  0.00     0.116 C 
BRANCH  41  42
ATOM     42  C   UNL     1      -6.914  -2.953  -2.734  1.00  0.00     0.023 C 
BRANCH  42  43
ATOM     43  C   UNL     1      -7.589  -3.376  -4.039  1.00  0.00     0.023 C 
BRANCH  43  44
ATOM     44  C   UNL     1      -8.380  -4.675  -3.950  1.00  0.00     0.116 C 
BRANCH  44  45
ATOM     45  N   UNL     1      -9.380  -4.666  -2.890  1.00  0.00    -0.352 N 
ATOM     46  C   UNL     1     -10.650  -5.188  -2.924  1.00  0.00     0.251 C 
ATOM     47  H   UNL     1      -9.112  -4.233  -2.047  1.00  0.00     0.163 HD
ATOM     48  O   UNL     1     -11.435  -5.015  -2.001  1.00  0.00    -0.269 OA
BRANCH  46  49
ATOM     49  C   UNL     1     -11.056  -5.930  -4.129  1.00  0.00     0.039 A 
ATOM     50  C   UNL     1     -12.168  -5.496  -4.850  1.00  0.00     0.014 A 
ATOM     51  C   UNL     1     -10.251  -6.971  -4.599  1.00  0.00     0.014 A 
ATOM     52  C   UNL     1     -12.433  -6.061  -6.097  1.00  0.00     0.010 A 
ATOM     53  C   UNL     1     -10.469  -7.471  -5.874  1.00  0.00     0.010 A 
ATOM     54  C   UNL     1     -11.558  -7.018  -6.637  1.00  0.00    -0.014 A 
BRANCH  54  55
ATOM     55  C   UNL     1     -11.747  -7.563  -8.003  1.00  0.00     0.031 A 
ATOM     56  C   UNL     1     -11.985  -9.034  -8.186  1.00  0.00     0.074 A 
ATOM     57  C   UNL     1     -11.599  -6.760  -9.073  1.00  0.00     0.049 A 
ATOM     58  N   UNL     1     -12.032  -9.736  -9.288  1.00  0.00    -0.248 NA
ATOM     59  C   UNL     1     -12.155  -9.826  -6.958  1.00  0.00     0.031 C 
ATOM     60  C   UNL     1     -11.316  -5.325  -9.022  1.00  0.00     0.029 A 
ATOM     61  N   UNL     1     -11.639  -7.044 -10.415  1.00  0.00    -0.354 N 
ATOM     62  C   UNL     1     -12.217 -11.051  -8.886  1.00  0.00     0.074 A 
ATOM     63  C   UNL     1     -12.208 -11.058  -7.439  1.00  0.00     0.031 C 
ATOM     64  C   UNL     1     -11.211  -4.854 -10.274  1.00  0.00     0.029 A 
ATOM     65  C   UNL     1     -11.373  -5.959 -11.214  1.00  0.00     0.049 A 
ATOM     66  H   UNL     1     -11.838  -7.940 -10.771  1.00  0.00     0.167 HD
ATOM     67  C   UNL     1     -12.402 -12.151  -9.655  1.00  0.00     0.037 A 
ATOM     68  C   UNL     1     -11.248  -5.871 -12.553  1.00  0.00     0.037 A 
ATOM     69  C   UNL     1     -12.420 -12.131 -11.093  1.00  0.00     0.049 A 
ATOM     70  C   UNL     1     -11.441  -7.107 -13.390  1.00  0.00     0.074 A 
ATOM     71  C   UNL     1     -12.655 -13.177 -11.968  1.00  0.00     0.029 A 
ATOM     72  N   UNL     1     -12.183 -11.005 -11.870  1.00  0.00    -0.354 N 
ATOM     73  N   UNL     1     -11.685  -8.336 -13.004  1.00  0.00    -0.248 NA
ATOM     74  C   UNL     1     -11.348  -6.943 -14.847  1.00  0.00     0.031 C 
ATOM     75  C   UNL     1     -12.501 -12.697 -13.272  1.00  0.00     0.029 A 
ATOM     76  C   UNL     1     -12.238 -11.337 -13.214  1.00  0.00     0.049 A 
ATOM     77  H   UNL     1     -12.002 -10.104 -11.518  1.00  0.00     0.167 HD
ATOM     78  C   UNL     1     -11.804  -9.086 -14.167  1.00  0.00     0.074 A 
ATOM     79  C   UNL     1     -11.614  -8.170 -15.273  1.00  0.00     0.031 C 
ATOM     80  C   UNL     1     -12.053 -10.412 -14.305  1.00  0.00     0.037 A 
BRANCH  67  81
ATOM     81  C   UNL     1     -12.585 -13.463  -8.946  1.00  0.00     0.064 A 
ATOM     82  C   UNL     1     -13.715 -13.725  -8.155  1.00  0.00     0.173 A 
ATOM     83  C   UNL     1     -11.617 -14.473  -9.056  1.00  0.00     0.173 A 
ATOM     84  F   UNL     1     -14.666 -12.790  -8.004  1.00  0.00    -0.203 F 
ATOM     85  C   UNL     1     -13.845 -14.926  -7.463  1.00  0.00     0.198 A 
ATOM     86  C   UNL     1     -11.770 -15.689  -8.395  1.00  0.00     0.198 A 
ATOM     87  F   UNL     1     -10.520 -14.281  -9.804  1.00  0.00    -0.203 F 
ATOM     88  F   UNL     1     -14.897 -15.121  -6.655  1.00  0.00    -0.200 F 
ATOM     89  C   UNL     1     -12.876 -15.909  -7.588  1.00  0.00     0.200 A 
ATOM     90  F   UNL     1     -10.839 -16.643  -8.529  1.00  0.00    -0.200 F 
ATOM     91  F   UNL     1     -13.001 -17.064  -6.920  1.00  0.00    -0.200 F 
ENDBRANCH  67  81
BRANCH  68  92
ATOM     92  C   UNL     1     -10.929  -4.560 -13.176  1.00  0.00     0.064 A 
ATOM     93  C   UNL     1     -11.882  -3.871 -13.940  1.00  0.00     0.173 A 
ATOM     94  C   UNL     1      -9.674  -3.958 -13.003  1.00  0.00     0.173 A 
ATOM     95  F   UNL     1     -13.090  -4.413 -14.149  1.00  0.00    -0.203 F 
ATOM     96  C   UNL     1     -11.586  -2.638 -14.518  1.00  0.00     0.198 A 
ATOM     97  C   UNL     1      -9.389  -2.712 -13.556  1.00  0.00     0.198 A 
ATOM     98  F   UNL     1      -8.729  -4.572 -12.275  1.00  0.00    -0.203 F 
ATOM     99  F   UNL     1     -12.502  -2.019 -15.275  1.00  0.00    -0.200 F 
ATOM    100  C   UNL     1     -10.343  -2.055 -14.319  1.00  0.00     0.200 A 
ATOM    101  F   UNL     1      -8.193  -2.145 -13.346  1.00  0.00    -0.200 F 
ATOM    102  F   UNL     1     -10.064  -0.864 -14.865  1.00  0.00    -0.200 F 
ENDBRANCH  68  92
BRANCH  80 103
ATOM    103  C   UNL     1     -12.179 -10.953 -15.700  1.00  0.00     0.064 A 
ATOM    104  C   UNL     1     -11.068 -11.088 -16.546  1.00  0.00     0.173 A 
ATOM    105  C   UNL     1     -13.422 -11.401 -16.173  1.00  0.00     0.173 A 
ATOM    106  F   UNL     1      -9.860 -10.662 -16.148  1.00  0.00    -0.203 F 
ATOM    107  C   UNL     1     -11.202 -11.635 -17.820  1.00  0.00     0.198 A 
ATOM    108  C   UNL     1     -13.546 -11.977 -17.434  1.00  0.00     0.198 A 
ATOM    109  F   UNL     1     -14.515 -11.300 -15.402  1.00  0.00    -0.203 F 
ATOM    110  F   UNL     1     -10.135 -11.716 -18.627  1.00  0.00    -0.200 F 
ATOM    111  C   UNL     1     -12.437 -12.088 -18.259  1.00  0.00     0.200 A 
ATOM    112  F   UNL     1     -14.737 -12.430 -17.848  1.00  0.00    -0.200 F 
ATOM    113  F   UNL     1     -12.560 -12.628 -19.479  1.00  0.00    -0.200 F 
ENDBRANCH  80 103
ENDBRANCH  54  55
ENDBRANCH  46  49
ENDBRANCH  44  45
ENDBRANCH  43  44
ENDBRANCH  42  43
ENDBRANCH  41  42
ENDBRANCH  39  41
ENDBRANCH   1  37
TORSDOF 24
