REMARK SMILES COCCNc1cc(C)nc2cc(C(=O)NCCCCNC(=O)c3ccc(-c4c5nc(c(-c6c(F)c(F)c(F)c(F)c6F)c6ccc([nH]6)c(-c6c(F)c(F)c(F)c(F)c6F)c6nc(c(-c7c(F)c(F)c(F)c(F)c7F)c7ccc4[nH]7)C=C6)C=C5)cc3)ccc12
REMARK SMILES IDX 17 1 16 2 14 3 15 4 13 6 6 7 7 8 89 9 8 10 11 11 88 12 9 13
REMARK SMILES IDX 10 14 12 15 87 16 5 17 4 19 3 20 2 21 1 22 18 23 19 24 20 25
REMARK SMILES IDX 21 26 22 27 23 29 24 30 25 31 86 32 26 33 85 34 27 35 28 36
REMARK SMILES IDX 29 37 79 38 30 39 84 40 78 41 80 42 31 43 83 44 77 45 76 46
REMARK SMILES IDX 32 48 64 49 44 50 63 51 45 52 48 53 62 54 81 55 46 56 47 57
REMARK SMILES IDX 61 59 82 60 49 61 33 62 34 63 42 64 35 65 36 66 40 67 43 68
REMARK SMILES IDX 37 69 38 70 41 71 39 72 65 73 66 74 74 75 67 76 68 77 72 78
REMARK SMILES IDX 75 79 69 80 70 81 73 82 71 83 50 84 51 85 59 86 52 87 53 88
REMARK SMILES IDX 57 89 60 90 54 91 55 92 58 93 56 94
REMARK H PARENT 16 5 5 18 21 28 80 47 48 58
REMARK Flexibility Score: inf
ROOT
ATOM      1  C   UNL     1       7.302   0.722  -6.164  1.00  0.00     0.116 C 
ENDROOT
BRANCH   1   2
ATOM      2  N   UNL     1       7.169   1.719  -5.122  1.00  0.00    -0.352 N 
ATOM      3  C   UNL     1       6.202   1.946  -4.177  1.00  0.00     0.251 C 
ATOM      4  O   UNL     1       6.383   2.899  -3.416  1.00  0.00    -0.269 OA
ATOM      5  H   UNL     1       7.918   2.357  -5.085  1.00  0.00     0.163 HD
BRANCH   3   6
ATOM      6  C   UNL     1       4.987   1.097  -3.991  1.00  0.00     0.041 A 
ATOM      7  C   UNL     1       1.619  -1.357  -3.197  1.00  0.00     0.045 A 
ATOM      8  C   UNL     1       1.280  -2.299  -4.168  1.00  0.00     0.049 A 
ATOM      9  C   UNL     1       2.719  -0.502  -3.438  1.00  0.00     0.023 A 
ATOM     10  C   UNL     1       2.004  -2.345  -5.352  1.00  0.00     0.040 A 
ATOM     11  C   UNL     1       3.377  -0.610  -4.674  1.00  0.00     0.073 A 
ATOM     12  C   UNL     1       3.205   0.424  -2.492  1.00  0.00     0.013 A 
ATOM     13  C   UNL     1       1.705  -3.369  -6.404  1.00  0.00     0.067 C 
ATOM     14  N   UNL     1       3.026  -1.499  -5.613  1.00  0.00    -0.253 NA
ATOM     15  C   UNL     1       4.454   0.223  -4.941  1.00  0.00     0.042 A 
ATOM     16  C   UNL     1       4.334   1.198  -2.759  1.00  0.00     0.014 A 
BRANCH   7  17
ATOM     17  N   UNL     1       0.856  -1.195  -2.050  1.00  0.00    -0.382 N 
ATOM     18  H   UNL     1       0.649  -0.277  -1.762  1.00  0.00     0.160 HD
BRANCH  17  19
ATOM     19  C   UNL     1       0.344  -2.291  -1.244  1.00  0.00     0.141 C 
BRANCH  19  20
ATOM     20  C   UNL     1       0.885  -2.201   0.192  1.00  0.00     0.181 C 
BRANCH  20  21
ATOM     21  O   UNL     1       0.241  -1.195   0.982  1.00  0.00    -0.383 OA
ATOM     22  C   UNL     1       0.803   0.101   0.832  1.00  0.00     0.194 C 
ENDBRANCH  20  21
ENDBRANCH  19  20
ENDBRANCH  17  19
ENDBRANCH   7  17
ENDBRANCH   3   6
ENDBRANCH   1   2
BRANCH   1  23
ATOM     23  C   UNL     1       6.657   1.212  -7.464  1.00  0.00     0.023 C 
BRANCH  23  24
ATOM     24  C   UNL     1       7.540   2.154  -8.284  1.00  0.00     0.023 C 
BRANCH  24  25
ATOM     25  C   UNL     1       8.828   1.527  -8.803  1.00  0.00     0.116 C 
BRANCH  25  26
ATOM     26  N   UNL     1       8.607   0.347  -9.626  1.00  0.00    -0.352 N 
ATOM     27  C   UNL     1       9.405  -0.147 -10.629  1.00  0.00     0.251 C 
ATOM     28  H   UNL     1       7.784  -0.161  -9.441  1.00  0.00     0.163 HD
ATOM     29  O   UNL     1       9.046  -1.104 -11.306  1.00  0.00    -0.269 OA
BRANCH  27  30
ATOM     30  C   UNL     1      10.685   0.527 -10.917  1.00  0.00     0.039 A 
ATOM     31  C   UNL     1      10.953   0.926 -12.229  1.00  0.00     0.014 A 
ATOM     32  C   UNL     1      11.587   0.809  -9.889  1.00  0.00     0.014 A 
ATOM     33  C   UNL     1      12.101   1.672 -12.498  1.00  0.00     0.010 A 
ATOM     34  C   UNL     1      12.693   1.611 -10.146  1.00  0.00     0.010 A 
ATOM     35  C   UNL     1      12.959   2.050 -11.452  1.00  0.00    -0.014 A 
BRANCH  35  36
ATOM     36  C   UNL     1      14.142   2.907 -11.703  1.00  0.00     0.031 A 
ATOM     37  C   UNL     1      15.523   2.360 -11.482  1.00  0.00     0.074 A 
ATOM     38  C   UNL     1      13.969   4.194 -12.059  1.00  0.00     0.049 A 
ATOM     39  N   UNL     1      16.679   2.968 -11.572  1.00  0.00    -0.248 NA
ATOM     40  C   UNL     1      15.615   0.948 -11.078  1.00  0.00     0.031 C 
ATOM     41  C   UNL     1      12.676   4.851 -12.257  1.00  0.00     0.029 A 
ATOM     42  N   UNL     1      14.886   5.183 -12.309  1.00  0.00    -0.354 N 
ATOM     43  C   UNL     1      17.630   2.019 -11.223  1.00  0.00     0.074 A 
ATOM     44  C   UNL     1      16.916   0.812 -10.867  1.00  0.00     0.031 C 
ATOM     45  C   UNL     1      12.883   6.127 -12.621  1.00  0.00     0.029 A 
ATOM     46  C   UNL     1      14.319   6.387 -12.648  1.00  0.00     0.049 A 
ATOM     47  H   UNL     1      15.859   5.043 -12.251  1.00  0.00     0.167 HD
ATOM     48  C   UNL     1      18.979   2.137 -11.224  1.00  0.00     0.037 A 
ATOM     49  C   UNL     1      14.895   7.567 -12.945  1.00  0.00     0.037 A 
ATOM     50  C   UNL     1      19.685   3.331 -11.604  1.00  0.00     0.049 A 
ATOM     51  C   UNL     1      16.396   7.671 -12.936  1.00  0.00     0.074 A 
ATOM     52  C   UNL     1      21.051   3.537 -11.692  1.00  0.00     0.029 A 
ATOM     53  N   UNL     1      19.076   4.526 -11.961  1.00  0.00    -0.354 N 
ATOM     54  N   UNL     1      17.289   6.750 -12.667  1.00  0.00    -0.248 NA
ATOM     55  C   UNL     1      16.969   8.980 -13.279  1.00  0.00     0.031 C 
ATOM     56  C   UNL     1      21.269   4.867 -12.066  1.00  0.00     0.029 A 
ATOM     57  C   UNL     1      20.040   5.477 -12.255  1.00  0.00     0.049 A 
ATOM     58  H   UNL     1      18.104   4.675 -12.001  1.00  0.00     0.167 HD
ATOM     59  C   UNL     1      18.526   7.356 -12.836  1.00  0.00     0.074 A 
ATOM     60  C   UNL     1      18.269   8.723 -13.243  1.00  0.00     0.031 C 
ATOM     61  C   UNL     1      19.763   6.829 -12.671  1.00  0.00     0.037 A 
BRANCH  48  62
ATOM     62  C   UNL     1      19.776   0.936 -10.806  1.00  0.00     0.064 A 
ATOM     63  C   UNL     1      19.849  -0.212 -11.610  1.00  0.00     0.173 A 
ATOM     64  C   UNL     1      20.493   0.939  -9.600  1.00  0.00     0.173 A 
ATOM     65  F   UNL     1      19.171  -0.271 -12.766  1.00  0.00    -0.203 F 
ATOM     66  C   UNL     1      20.582  -1.324 -11.206  1.00  0.00     0.198 A 
ATOM     67  C   UNL     1      21.250  -0.164  -9.214  1.00  0.00     0.198 A 
ATOM     68  F   UNL     1      20.461   2.013  -8.796  1.00  0.00    -0.203 F 
ATOM     69  F   UNL     1      20.593  -2.429 -11.965  1.00  0.00    -0.200 F 
ATOM     70  C   UNL     1      21.287  -1.297 -10.013  1.00  0.00     0.200 A 
ATOM     71  F   UNL     1      21.940  -0.133  -8.066  1.00  0.00    -0.200 F 
ATOM     72  F   UNL     1      21.996  -2.367  -9.627  1.00  0.00    -0.200 F 
ENDBRANCH  48  62
BRANCH  49  73
ATOM     73  C   UNL     1      14.053   8.734 -13.310  1.00  0.00     0.064 A 
ATOM     74  C   UNL     1      14.029   9.215 -14.627  1.00  0.00     0.173 A 
ATOM     75  C   UNL     1      13.260   9.393 -12.360  1.00  0.00     0.173 A 
ATOM     76  F   UNL     1      14.787   8.629 -15.566  1.00  0.00    -0.203 F 
ATOM     77  C   UNL     1      13.260  10.323 -14.975  1.00  0.00     0.198 A 
ATOM     78  C   UNL     1      12.471  10.485 -12.715  1.00  0.00     0.198 A 
ATOM     79  F   UNL     1      13.244   8.969 -11.088  1.00  0.00    -0.203 F 
ATOM     80  F   UNL     1      13.289  10.788 -16.231  1.00  0.00    -0.200 F 
ATOM     81  C   UNL     1      12.477  10.954 -14.020  1.00  0.00     0.200 A 
ATOM     82  F   UNL     1      11.707  11.085 -11.792  1.00  0.00    -0.200 F 
ATOM     83  F   UNL     1      11.736  12.018 -14.356  1.00  0.00    -0.200 F 
ENDBRANCH  49  73
BRANCH  61  84
ATOM     84  C   UNL     1      20.934   7.719 -12.966  1.00  0.00     0.064 A 
ATOM     85  C   UNL     1      21.298   8.766 -12.107  1.00  0.00     0.173 A 
ATOM     86  C   UNL     1      21.725   7.494 -14.103  1.00  0.00     0.173 A 
ATOM     87  F   UNL     1      20.563   9.030 -11.017  1.00  0.00    -0.203 F 
ATOM     88  C   UNL     1      22.400   9.569 -12.388  1.00  0.00     0.198 A 
ATOM     89  C   UNL     1      22.842   8.281 -14.365  1.00  0.00     0.198 A 
ATOM     90  F   UNL     1      21.421   6.501 -14.953  1.00  0.00    -0.203 F 
ATOM     91  F   UNL     1      22.704  10.592 -11.576  1.00  0.00    -0.200 F 
ATOM     92  C   UNL     1      23.174   9.322 -13.511  1.00  0.00     0.200 A 
ATOM     93  F   UNL     1      23.597   8.034 -15.445  1.00  0.00    -0.200 F 
ATOM     94  F   UNL     1      24.239  10.092 -13.775  1.00  0.00    -0.200 F 
ENDBRANCH  61  84
ENDBRANCH  35  36
ENDBRANCH  27  30
ENDBRANCH  25  26
ENDBRANCH  24  25
ENDBRANCH  23  24
ENDBRANCH   1  23
TORSDOF 15
