REMARK SMILES Cc1ccc([C@@H]2[C@H](C(=O)NCCCCNC(=O)c3ccc(-c4c5nc(c(-c6c(F)c(F)c(F)c(F)c6F)c6ccc([nH]6)c(-c6c(F)c(F)c(F)c(F)c6F)c6nc(c(-c7c(F)c(F)c(F)c(F)c7F)c7ccc4[nH]7)C=C6)C=C5)cc3)c3ccccc3C(=O)N2c2ccccc2)cc1
REMARK SMILES IDX 13 1 12 2 11 3 10 4 8 5 9 6 7 8 6 9 89 10 81 11 87 12 82 13
REMARK SMILES IDX 86 14 88 15 83 16 85 17 84 18 5 19 1 20 2 21 3 22 97 23 4 24
REMARK SMILES IDX 96 25 90 26 91 27 95 28 92 29 94 30 93 31 14 32 15 33 16 34
REMARK SMILES IDX 17 36 18 37 19 38 80 39 20 40 79 41 21 42 22 43 23 44 73 45
REMARK SMILES IDX 24 46 78 47 72 48 74 49 25 50 77 51 71 52 70 53 26 55 58 56
REMARK SMILES IDX 38 57 57 58 39 59 42 60 56 61 75 62 40 63 41 64 55 66 76 67
REMARK SMILES IDX 43 68 27 69 28 70 36 71 29 72 30 73 34 74 37 75 31 76 32 77
REMARK SMILES IDX 35 78 33 79 59 80 60 81 68 82 61 83 62 84 66 85 69 86 63 87
REMARK SMILES IDX 64 88 67 89 65 90 44 91 45 92 53 93 46 94 47 95 51 96 54 97
REMARK SMILES IDX 48 98 49 99 52 100 50 101
REMARK H PARENT 10 7 15 35 74 54 42 65
REMARK Flexibility Score: inf
ROOT
ATOM      1  C   UNL     1      -4.853  -5.170   5.795  1.00  0.00     0.023 C 
ENDROOT
BRANCH   1   2
ATOM      2  C   UNL     1      -4.476  -3.736   6.171  1.00  0.00     0.023 C 
BRANCH   2   3
ATOM      3  C   UNL     1      -3.064  -3.311   5.746  1.00  0.00     0.116 C 
BRANCH   3   4
ATOM      4  N   UNL     1      -2.985  -3.021   4.324  1.00  0.00    -0.355 N 
ATOM      5  C   UNL     1      -2.203  -1.982   3.865  1.00  0.00     0.230 C 
ATOM      6  O   UNL     1      -0.983  -2.123   3.796  1.00  0.00    -0.274 OA
ATOM      7  H   UNL     1      -3.492  -3.571   3.684  1.00  0.00     0.163 HD
BRANCH   5   8
ATOM      8  C   UNL     1      -2.909  -0.709   3.373  1.00  0.00     0.137 C 
ATOM      9  C   UNL     1      -2.873  -0.576   1.815  1.00  0.00     0.138 C 
ATOM     10  N   UNL     1      -3.900  -1.457   1.231  1.00  0.00    -0.300 N 
ATOM     11  C   UNL     1      -4.360  -0.553   3.842  1.00  0.00    -0.020 A 
ATOM     12  C   UNL     1      -5.189  -0.949   1.475  1.00  0.00     0.259 C 
ATOM     13  C   UNL     1      -4.647  -0.334   5.197  1.00  0.00     0.005 A 
ATOM     14  C   UNL     1      -5.433  -0.636   2.925  1.00  0.00     0.044 A 
ATOM     15  O   UNL     1      -6.086  -0.876   0.645  1.00  0.00    -0.269 OA
ATOM     16  C   UNL     1      -5.971  -0.271   5.637  1.00  0.00     0.000 A 
ATOM     17  C   UNL     1      -6.756  -0.533   3.368  1.00  0.00     0.014 A 
ATOM     18  C   UNL     1      -7.022  -0.372   4.727  1.00  0.00     0.001 A 
BRANCH   9  19
ATOM     19  C   UNL     1      -1.538  -0.312   1.121  1.00  0.00    -0.024 A 
ATOM     20  C   UNL     1       2.468   0.380  -0.384  1.00  0.00     0.044 C 
ATOM     21  C   UNL     1       1.041   0.221   0.048  1.00  0.00    -0.051 A 
ATOM     22  C   UNL     1       0.216  -0.755  -0.515  1.00  0.00     0.004 A 
ATOM     23  C   UNL     1       0.533   1.006   1.081  1.00  0.00     0.004 A 
ATOM     24  C   UNL     1      -1.078  -0.977  -0.020  1.00  0.00     0.006 A 
ATOM     25  C   UNL     1      -0.733   0.740   1.608  1.00  0.00     0.006 A 
ENDBRANCH   9  19
BRANCH  10  26
ATOM     26  C   UNL     1      -3.787  -2.901   1.158  1.00  0.00     0.045 A 
ATOM     27  C   UNL     1      -4.955  -3.694   1.179  1.00  0.00     0.026 A 
ATOM     28  C   UNL     1      -2.568  -3.588   1.194  1.00  0.00     0.026 A 
ATOM     29  C   UNL     1      -4.907  -5.085   1.308  1.00  0.00     0.002 A 
ATOM     30  C   UNL     1      -2.514  -4.987   1.278  1.00  0.00     0.002 A 
ATOM     31  C   UNL     1      -3.683  -5.734   1.360  1.00  0.00     0.000 A 
ENDBRANCH  10  26
ENDBRANCH   5   8
ENDBRANCH   3   4
ENDBRANCH   2   3
ENDBRANCH   1   2
BRANCH   1  32
ATOM     32  C   UNL     1      -4.260  -6.223   6.726  1.00  0.00     0.116 C 
BRANCH  32  33
ATOM     33  N   UNL     1      -5.117  -6.599   7.849  1.00  0.00    -0.352 N 
ATOM     34  C   UNL     1      -4.847  -7.454   8.913  1.00  0.00     0.251 C 
ATOM     35  H   UNL     1      -6.012  -6.189   7.854  1.00  0.00     0.163 HD
ATOM     36  O   UNL     1      -5.685  -7.681   9.761  1.00  0.00    -0.269 OA
BRANCH  34  37
ATOM     37  C   UNL     1      -3.467  -7.981   9.067  1.00  0.00     0.039 A 
ATOM     38  C   UNL     1      -2.823  -7.785  10.294  1.00  0.00     0.014 A 
ATOM     39  C   UNL     1      -2.751  -8.413   7.956  1.00  0.00     0.014 A 
ATOM     40  C   UNL     1      -1.432  -7.742  10.328  1.00  0.00     0.010 A 
ATOM     41  C   UNL     1      -1.381  -8.261   7.960  1.00  0.00     0.010 A 
ATOM     42  C   UNL     1      -0.731  -7.845   9.126  1.00  0.00    -0.014 A 
BRANCH  42  43
ATOM     43  C   UNL     1       0.638  -7.369   8.964  1.00  0.00     0.031 A 
ATOM     44  C   UNL     1       1.754  -8.315   8.777  1.00  0.00     0.074 A 
ATOM     45  C   UNL     1       0.853  -6.037   8.867  1.00  0.00     0.049 A 
ATOM     46  N   UNL     1       2.990  -8.043   9.035  1.00  0.00    -0.248 NA
ATOM     47  C   UNL     1       1.553  -9.677   8.303  1.00  0.00     0.031 C 
ATOM     48  C   UNL     1       2.069  -5.361   8.422  1.00  0.00     0.029 A 
ATOM     49  N   UNL     1       0.033  -4.998   9.344  1.00  0.00    -0.354 N 
ATOM     50  C   UNL     1       3.761  -9.057   8.512  1.00  0.00     0.074 A 
ATOM     51  C   UNL     1       2.814 -10.078   8.124  1.00  0.00     0.031 C 
ATOM     52  C   UNL     1       2.066  -4.107   8.902  1.00  0.00     0.029 A 
ATOM     53  C   UNL     1       0.921  -3.993   9.788  1.00  0.00     0.049 A 
ATOM     54  H   UNL     1      -0.952  -4.976   9.364  1.00  0.00     0.167 HD
ATOM     55  C   UNL     1       5.101  -8.855   8.338  1.00  0.00     0.037 A 
ATOM     56  C   UNL     1       0.986  -3.633  11.103  1.00  0.00     0.037 A 
ATOM     57  C   UNL     1       5.509  -7.550   8.857  1.00  0.00     0.049 A 
ATOM     58  C   UNL     1       2.351  -3.824  11.720  1.00  0.00     0.074 A 
ATOM     59  C   UNL     1       5.728  -6.329   8.241  1.00  0.00     0.029 A 
ATOM     60  N   UNL     1       5.430  -7.293  10.222  1.00  0.00    -0.354 N 
ATOM     61  N   UNL     1       3.264  -4.616  11.232  1.00  0.00    -0.248 NA
ATOM     62  C   UNL     1       2.775  -3.171  12.955  1.00  0.00     0.031 C 
ATOM     63  C   UNL     1       5.727  -5.325   9.239  1.00  0.00     0.029 A 
ATOM     64  C   UNL     1       5.525  -5.935  10.464  1.00  0.00     0.049 A 
ATOM     65  H   UNL     1       5.323  -7.981  10.918  1.00  0.00     0.167 HD
ATOM     66  C   UNL     1       4.356  -4.615  12.060  1.00  0.00     0.074 A 
ATOM     67  C   UNL     1       4.010  -3.678  13.113  1.00  0.00     0.031 C 
ATOM     68  C   UNL     1       5.448  -5.398  11.814  1.00  0.00     0.037 A 
BRANCH  55  69
ATOM     69  C   UNL     1       5.960  -9.696   7.413  1.00  0.00     0.064 A 
ATOM     70  C   UNL     1       7.051  -9.128   6.717  1.00  0.00     0.173 A 
ATOM     71  C   UNL     1       5.720 -11.049   7.112  1.00  0.00     0.173 A 
ATOM     72  F   UNL     1       7.494  -7.895   6.991  1.00  0.00    -0.203 F 
ATOM     73  C   UNL     1       7.735  -9.807   5.704  1.00  0.00     0.198 A 
ATOM     74  C   UNL     1       6.363 -11.711   6.061  1.00  0.00     0.198 A 
ATOM     75  F   UNL     1       4.899 -11.791   7.865  1.00  0.00    -0.203 F 
ATOM     76  F   UNL     1       8.751  -9.206   5.068  1.00  0.00    -0.200 F 
ATOM     77  C   UNL     1       7.360 -11.084   5.343  1.00  0.00     0.200 A 
ATOM     78  F   UNL     1       6.006 -12.966   5.748  1.00  0.00    -0.200 F 
ATOM     79  F   UNL     1       7.976 -11.716   4.336  1.00  0.00    -0.200 F 
ENDBRANCH  55  69
BRANCH  56  80
ATOM     80  C   UNL     1      -0.302  -3.800  11.826  1.00  0.00     0.064 A 
ATOM     81  C   UNL     1      -1.415  -3.050  11.396  1.00  0.00     0.173 A 
ATOM     82  C   UNL     1      -0.547  -4.904  12.651  1.00  0.00     0.173 A 
ATOM     83  F   UNL     1      -1.236  -1.982  10.601  1.00  0.00    -0.203 F 
ATOM     84  C   UNL     1      -2.717  -3.455  11.680  1.00  0.00     0.198 A 
ATOM     85  C   UNL     1      -1.854  -5.297  12.946  1.00  0.00     0.198 A 
ATOM     86  F   UNL     1       0.466  -5.671  13.077  1.00  0.00    -0.203 F 
ATOM     87  F   UNL     1      -3.753  -2.784  11.157  1.00  0.00    -0.200 F 
ATOM     88  C   UNL     1      -2.935  -4.594  12.434  1.00  0.00     0.200 A 
ATOM     89  F   UNL     1      -2.069  -6.420  13.648  1.00  0.00    -0.200 F 
ATOM     90  F   UNL     1      -4.184  -5.040  12.630  1.00  0.00    -0.200 F 
ENDBRANCH  56  80
BRANCH  68  91
ATOM     91  C   UNL     1       6.588  -5.648  12.770  1.00  0.00     0.064 A 
ATOM     92  C   UNL     1       6.457  -5.620  14.168  1.00  0.00     0.173 A 
ATOM     93  C   UNL     1       7.849  -6.072  12.285  1.00  0.00     0.173 A 
ATOM     94  F   UNL     1       5.281  -5.360  14.753  1.00  0.00    -0.203 F 
ATOM     95  C   UNL     1       7.526  -5.921  15.017  1.00  0.00     0.198 A 
ATOM     96  C   UNL     1       8.896  -6.428  13.135  1.00  0.00     0.198 A 
ATOM     97  F   UNL     1       8.096  -6.178  10.971  1.00  0.00    -0.203 F 
ATOM     98  F   UNL     1       7.362  -5.834  16.345  1.00  0.00    -0.200 F 
ATOM     99  C   UNL     1       8.740  -6.334  14.502  1.00  0.00     0.200 A 
ATOM    100  F   UNL     1      10.048  -6.880  12.620  1.00  0.00    -0.200 F 
ATOM    101  F   UNL     1       9.748  -6.663  15.321  1.00  0.00    -0.200 F 
ENDBRANCH  68  91
ENDBRANCH  42  43
ENDBRANCH  34  37
ENDBRANCH  32  33
ENDBRANCH   1  32
TORSDOF 13
