REMARK SMILES Cc1cc(SCC(=O)NCCCCNC(=O)c2ccc(-c3c4nc(c(-c5c(F)c(F)c(F)c(F)c5F)c5ccc([nH]5)c(-c5c(F)c(F)c(F)c(F)c5F)c5nc(c(-c6c(F)c(F)c(F)c(F)c6F)c6ccc3[nH]6)C=C5)C=C4)cc2)nc(-c2ccccc2)n1
REMARK SMILES IDX 11 1 10 2 9 3 7 4 8 5 6 7 5 8 4 9 1 10 2 11 3 12 88 13 81 14
REMARK SMILES IDX 80 15 82 16 83 17 87 18 84 19 86 20 85 21 12 22 13 23 14 24
REMARK SMILES IDX 15 25 16 27 17 28 18 29 79 30 19 31 78 32 20 33 21 34 22 35
REMARK SMILES IDX 72 36 23 37 77 38 71 39 73 40 24 41 76 42 70 43 69 44 25 46
REMARK SMILES IDX 57 47 37 48 56 49 38 50 41 51 55 52 74 53 39 54 40 55 54 57
REMARK SMILES IDX 75 58 42 59 26 60 27 61 35 62 28 63 29 64 33 65 36 66 30 67
REMARK SMILES IDX 31 68 34 69 32 70 58 71 59 72 67 73 60 74 61 75 65 76 68 77
REMARK SMILES IDX 62 78 63 79 66 80 64 81 43 82 44 83 52 84 45 85 46 86 50 87
REMARK SMILES IDX 53 88 47 89 48 90 51 91 49 92
REMARK H PARENT 9 6 14 26 73 45 41 56
REMARK Flexibility Score: inf
ROOT
ATOM      1  C   UNL     1       2.847  -2.869   3.301  1.00  0.00     0.023 C 
ENDROOT
BRANCH   1   2
ATOM      2  C   UNL     1       2.424  -4.157   2.595  1.00  0.00     0.116 C 
BRANCH   2   3
ATOM      3  N   UNL     1       0.998  -4.169   2.333  1.00  0.00    -0.355 N 
ATOM      4  C   UNL     1       0.334  -4.032   1.153  1.00  0.00     0.230 C 
ATOM      5  O   UNL     1      -0.900  -4.012   1.192  1.00  0.00    -0.274 OA
ATOM      6  H   UNL     1       0.427  -4.295   3.124  1.00  0.00     0.163 HD
BRANCH   4   7
ATOM      7  C   UNL     1       1.069  -3.991  -0.172  1.00  0.00     0.176 C 
BRANCH   7   8
ATOM      8  S   UNL     1       2.082  -2.508  -0.448  1.00  0.00    -0.096 SA
BRANCH   8   9
ATOM      9  C   UNL     1       0.975  -1.127  -0.268  1.00  0.00     0.101 A 
ATOM     10  C   UNL     1      -2.587  -0.022   0.038  1.00  0.00     0.067 C 
ATOM     11  C   UNL     1      -1.091  -0.035  -0.018  1.00  0.00     0.042 A 
ATOM     12  C   UNL     1      -0.399  -1.209  -0.239  1.00  0.00     0.059 A 
ATOM     13  N   UNL     1      -0.472   1.153   0.106  1.00  0.00    -0.233 NA
ATOM     14  C   UNL     1       0.866   1.153  -0.017  1.00  0.00     0.160 A 
ATOM     15  N   UNL     1       1.619   0.054  -0.186  1.00  0.00    -0.222 NA
BRANCH  14  16
ATOM     16  C   UNL     1       1.529   2.460  -0.074  1.00  0.00     0.019 A 
ATOM     17  C   UNL     1       1.222   3.475   0.849  1.00  0.00     0.012 A 
ATOM     18  C   UNL     1       2.451   2.756  -1.095  1.00  0.00     0.012 A 
ATOM     19  C   UNL     1       1.808   4.741   0.751  1.00  0.00     0.001 A 
ATOM     20  C   UNL     1       3.023   4.026  -1.206  1.00  0.00     0.001 A 
ATOM     21  C   UNL     1       2.700   5.018  -0.283  1.00  0.00     0.000 A 
ENDBRANCH  14  16
ENDBRANCH   8   9
ENDBRANCH   7   8
ENDBRANCH   4   7
ENDBRANCH   2   3
ENDBRANCH   1   2
BRANCH   1  22
ATOM     22  C   UNL     1       2.234  -2.668   4.691  1.00  0.00     0.023 C 
BRANCH  22  23
ATOM     23  C   UNL     1       2.477  -3.799   5.684  1.00  0.00     0.116 C 
BRANCH  23  24
ATOM     24  N   UNL     1       3.889  -4.039   5.938  1.00  0.00    -0.352 N 
ATOM     25  C   UNL     1       4.541  -4.210   7.134  1.00  0.00     0.251 C 
ATOM     26  H   UNL     1       4.459  -4.086   5.136  1.00  0.00     0.163 HD
ATOM     27  O   UNL     1       5.768  -4.271   7.164  1.00  0.00    -0.269 OA
BRANCH  25  28
ATOM     28  C   UNL     1       3.771  -4.287   8.394  1.00  0.00     0.039 A 
ATOM     29  C   UNL     1       4.210  -3.548   9.496  1.00  0.00     0.014 A 
ATOM     30  C   UNL     1       2.621  -5.074   8.490  1.00  0.00     0.014 A 
ATOM     31  C   UNL     1       3.457  -3.545  10.672  1.00  0.00     0.010 A 
ATOM     32  C   UNL     1       1.832  -5.010   9.635  1.00  0.00     0.010 A 
ATOM     33  C   UNL     1       2.240  -4.244  10.738  1.00  0.00    -0.014 A 
BRANCH  33  34
ATOM     34  C   UNL     1       1.379  -4.177  11.948  1.00  0.00     0.031 A 
ATOM     35  C   UNL     1       1.096  -5.418  12.747  1.00  0.00     0.074 A 
ATOM     36  C   UNL     1       0.801  -3.009  12.290  1.00  0.00     0.049 A 
ATOM     37  N   UNL     1       0.321  -5.573  13.792  1.00  0.00    -0.248 NA
ATOM     38  C   UNL     1       1.749  -6.657  12.297  1.00  0.00     0.031 C 
ATOM     39  C   UNL     1       0.961  -1.744  11.572  1.00  0.00     0.029 A 
ATOM     40  N   UNL     1      -0.047  -2.698  13.325  1.00  0.00    -0.354 N 
ATOM     41  C   UNL     1       0.386  -6.923  14.114  1.00  0.00     0.074 A 
ATOM     42  C   UNL     1       1.227  -7.554  13.121  1.00  0.00     0.031 C 
ATOM     43  C   UNL     1       0.258  -0.789  12.201  1.00  0.00     0.029 A 
ATOM     44  C   UNL     1      -0.438  -1.381  13.339  1.00  0.00     0.049 A 
ATOM     45  H   UNL     1      -0.347  -3.356  13.993  1.00  0.00     0.167 HD
ATOM     46  C   UNL     1      -0.185  -7.572  15.158  1.00  0.00     0.037 A 
ATOM     47  C   UNL     1      -1.271  -0.727  14.171  1.00  0.00     0.037 A 
ATOM     48  C   UNL     1      -1.009  -6.936  16.153  1.00  0.00     0.049 A 
ATOM     49  C   UNL     1      -1.914  -1.478  15.307  1.00  0.00     0.074 A 
ATOM     50  C   UNL     1      -1.587  -7.496  17.280  1.00  0.00     0.029 A 
ATOM     51  N   UNL     1      -1.380  -5.599  16.137  1.00  0.00    -0.354 N 
ATOM     52  N   UNL     1      -1.787  -2.738  15.645  1.00  0.00    -0.248 NA
ATOM     53  C   UNL     1      -2.813  -0.711  16.181  1.00  0.00     0.031 C 
ATOM     54  C   UNL     1      -2.354  -6.512  17.912  1.00  0.00     0.029 A 
ATOM     55  C   UNL     1      -2.203  -5.323  17.218  1.00  0.00     0.049 A 
ATOM     56  H   UNL     1      -1.099  -4.944  15.458  1.00  0.00     0.167 HD
ATOM     57  C   UNL     1      -2.559  -2.907  16.786  1.00  0.00     0.074 A 
ATOM     58  C   UNL     1      -3.140  -1.617  17.092  1.00  0.00     0.031 C 
ATOM     59  C   UNL     1      -2.768  -4.031  17.516  1.00  0.00     0.037 A 
BRANCH  46  60
ATOM     60  C   UNL     1       0.060  -9.050  15.274  1.00  0.00     0.064 A 
ATOM     61  C   UNL     1       1.328  -9.566  15.583  1.00  0.00     0.173 A 
ATOM     62  C   UNL     1      -0.994  -9.962  15.107  1.00  0.00     0.173 A 
ATOM     63  F   UNL     1       2.373  -8.740  15.744  1.00  0.00    -0.203 F 
ATOM     64  C   UNL     1       1.540 -10.939  15.684  1.00  0.00     0.198 A 
ATOM     65  C   UNL     1      -0.786 -11.332  15.243  1.00  0.00     0.198 A 
ATOM     66  F   UNL     1      -2.228  -9.524  14.818  1.00  0.00    -0.203 F 
ATOM     67  F   UNL     1       2.772 -11.409  15.923  1.00  0.00    -0.200 F 
ATOM     68  C   UNL     1       0.481 -11.820  15.522  1.00  0.00     0.200 A 
ATOM     69  F   UNL     1      -1.813 -12.181  15.102  1.00  0.00    -0.200 F 
ATOM     70  F   UNL     1       0.685 -13.140  15.626  1.00  0.00    -0.200 F 
ENDBRANCH  46  60
BRANCH  47  71
ATOM     71  C   UNL     1      -1.532   0.725  13.976  1.00  0.00     0.064 A 
ATOM     72  C   UNL     1      -1.075   1.669  14.907  1.00  0.00     0.173 A 
ATOM     73  C   UNL     1      -2.250   1.197  12.868  1.00  0.00     0.173 A 
ATOM     74  F   UNL     1      -0.402   1.265  15.995  1.00  0.00    -0.203 F 
ATOM     75  C   UNL     1      -1.349   3.026  14.751  1.00  0.00     0.198 A 
ATOM     76  C   UNL     1      -2.495   2.558  12.696  1.00  0.00     0.198 A 
ATOM     77  F   UNL     1      -2.705   0.337  11.945  1.00  0.00    -0.203 F 
ATOM     78  F   UNL     1      -0.947   3.900  15.684  1.00  0.00    -0.200 F 
ATOM     79  C   UNL     1      -2.054   3.470  13.642  1.00  0.00     0.200 A 
ATOM     80  F   UNL     1      -3.163   2.985  11.616  1.00  0.00    -0.200 F 
ATOM     81  F   UNL     1      -2.315   4.776  13.491  1.00  0.00    -0.200 F 
ENDBRANCH  47  71
BRANCH  59  82
ATOM     82  C   UNL     1      -3.627  -3.908  18.743  1.00  0.00     0.064 A 
ATOM     83  C   UNL     1      -5.010  -3.692  18.660  1.00  0.00     0.173 A 
ATOM     84  C   UNL     1      -3.061  -4.048  20.020  1.00  0.00     0.173 A 
ATOM     85  F   UNL     1      -5.599  -3.537  17.464  1.00  0.00    -0.203 F 
ATOM     86  C   UNL     1      -5.790  -3.590  19.809  1.00  0.00     0.198 A 
ATOM     87  C   UNL     1      -3.849  -3.980  21.166  1.00  0.00     0.198 A 
ATOM     88  F   UNL     1      -1.744  -4.263  20.157  1.00  0.00    -0.203 F 
ATOM     89  F   UNL     1      -7.100  -3.329  19.707  1.00  0.00    -0.200 F 
ATOM     90  C   UNL     1      -5.210  -3.743  21.060  1.00  0.00     0.200 A 
ATOM     91  F   UNL     1      -3.289  -4.145  22.372  1.00  0.00    -0.200 F 
ATOM     92  F   UNL     1      -5.963  -3.654  22.165  1.00  0.00    -0.200 F 
ENDBRANCH  59  82
ENDBRANCH  33  34
ENDBRANCH  25  28
ENDBRANCH  23  24
ENDBRANCH  22  23
ENDBRANCH   1  22
TORSDOF 14
