REMARK SMILES O=C(NCCCCNC(=O)[C@H]1CC2(CCN(C(=O)c3cc4ccccc4[nH]3)CC2)CN1C(=O)C1CC1)c1ccc(-c2c3nc(c(-c4c(F)c(F)c(F)c(F)c4F)c4ccc([nH]4)c(-c4c(F)c(F)c(F)c(F)c4F)c4nc(c(-c5c(F)c(F)c(F)c(F)c5F)c5ccc2[nH]5)C=C4)C=C3)cc1
REMARK SMILES IDX 5 1 4 2 3 3 1 4 2 5 37 7 38 8 99 9 39 10 98 11 40 12 41 13
REMARK SMILES IDX 42 14 92 15 43 16 97 17 91 18 93 19 44 20 96 21 90 22 89 23
REMARK SMILES IDX 45 25 77 26 57 27 76 28 58 29 61 30 75 31 94 32 59 33 60 34
REMARK SMILES IDX 74 36 95 37 62 38 46 39 47 40 55 41 48 42 49 43 53 44 56 45
REMARK SMILES IDX 50 46 51 47 54 48 52 49 78 50 79 51 87 52 80 53 81 54 85 55
REMARK SMILES IDX 88 56 82 57 83 58 86 59 84 60 63 61 64 62 72 63 65 64 66 65
REMARK SMILES IDX 70 66 73 67 67 68 68 69 71 70 69 71 6 72 7 73 8 74 9 75
REMARK SMILES IDX 10 77 11 78 12 79 31 80 13 81 30 82 14 83 29 84 15 85 28 86
REMARK SMILES IDX 16 87 17 88 18 89 32 90 33 91 34 92 35 93 36 94 19 95 20 96
REMARK SMILES IDX 27 97 21 98 26 99 22 101 25 102 23 103 24 104
REMARK H PARENT 3 6 93 24 61 35 8 76 27 100
REMARK Flexibility Score: inf
ROOT
ATOM      1  C   UNL     1      11.441  -0.197  -6.748  1.00  0.00     0.023 C 
ENDROOT
BRANCH   1   2
ATOM      2  C   UNL     1      12.000   0.679  -7.859  1.00  0.00     0.116 C 
BRANCH   2   3
ATOM      3  N   UNL     1      12.407   2.003  -7.417  1.00  0.00    -0.352 N 
ATOM      4  O   UNL     1      13.791   3.772  -7.171  1.00  0.00    -0.269 OA
ATOM      5  C   UNL     1      13.573   2.680  -7.686  1.00  0.00     0.251 C 
ATOM      6  H   UNL     1      11.760   2.480  -6.848  1.00  0.00     0.163 HD
BRANCH   5   7
ATOM      7  C   UNL     1      14.587   2.059  -8.564  1.00  0.00     0.039 A 
ATOM      8  C   UNL     1      14.218   1.481  -9.780  1.00  0.00     0.014 A 
ATOM      9  C   UNL     1      15.917   2.020  -8.138  1.00  0.00     0.014 A 
ATOM     10  C   UNL     1      15.143   0.726 -10.489  1.00  0.00     0.010 A 
ATOM     11  C   UNL     1      16.867   1.336  -8.900  1.00  0.00     0.010 A 
ATOM     12  C   UNL     1      16.479   0.651 -10.062  1.00  0.00    -0.014 A 
BRANCH  12  13
ATOM     13  C   UNL     1      17.461  -0.102 -10.880  1.00  0.00     0.031 A 
ATOM     14  C   UNL     1      18.131  -1.339 -10.352  1.00  0.00     0.074 A 
ATOM     15  C   UNL     1      17.723   0.333 -12.127  1.00  0.00     0.049 A 
ATOM     16  N   UNL     1      19.003  -2.118 -10.943  1.00  0.00    -0.248 NA
ATOM     17  C   UNL     1      17.789  -1.754  -8.984  1.00  0.00     0.031 C 
ATOM     18  C   UNL     1      17.141   1.530 -12.737  1.00  0.00     0.029 A 
ATOM     19  N   UNL     1      18.525  -0.185 -13.109  1.00  0.00    -0.354 N 
ATOM     20  C   UNL     1      19.330  -3.098 -10.015  1.00  0.00     0.074 A 
ATOM     21  C   UNL     1      18.577  -2.808  -8.813  1.00  0.00     0.031 C 
ATOM     22  C   UNL     1      17.570   1.631 -14.002  1.00  0.00     0.029 A 
ATOM     23  C   UNL     1      18.501   0.542 -14.273  1.00  0.00     0.049 A 
ATOM     24  H   UNL     1      19.067  -0.999 -12.992  1.00  0.00     0.167 HD
ATOM     25  C   UNL     1      20.178  -4.145 -10.160  1.00  0.00     0.037 A 
ATOM     26  C   UNL     1      19.167   0.363 -15.428  1.00  0.00     0.037 A 
ATOM     27  C   UNL     1      20.905  -4.442 -11.368  1.00  0.00     0.049 A 
ATOM     28  C   UNL     1      20.099  -0.805 -15.557  1.00  0.00     0.074 A 
ATOM     29  C   UNL     1      21.751  -5.506 -11.628  1.00  0.00     0.029 A 
ATOM     30  N   UNL     1      20.872  -3.669 -12.521  1.00  0.00    -0.354 N 
ATOM     31  N   UNL     1      20.376  -1.740 -14.682  1.00  0.00    -0.248 NA
ATOM     32  C   UNL     1      20.816  -0.939 -16.832  1.00  0.00     0.031 C 
ATOM     33  C   UNL     1      22.261  -5.356 -12.922  1.00  0.00     0.029 A 
ATOM     34  C   UNL     1      21.700  -4.222 -13.485  1.00  0.00     0.049 A 
ATOM     35  H   UNL     1      20.338  -2.850 -12.636  1.00  0.00     0.167 HD
ATOM     36  C   UNL     1      21.291  -2.579 -15.300  1.00  0.00     0.074 A 
ATOM     37  C   UNL     1      21.505  -2.054 -16.634  1.00  0.00     0.031 C 
ATOM     38  C   UNL     1      21.905  -3.681 -14.804  1.00  0.00     0.037 A 
BRANCH  25  39
ATOM     39  C   UNL     1      20.385  -5.046  -8.978  1.00  0.00     0.064 A 
ATOM     40  C   UNL     1      19.404  -5.959  -8.565  1.00  0.00     0.173 A 
ATOM     41  C   UNL     1      21.606  -5.037  -8.285  1.00  0.00     0.173 A 
ATOM     42  F   UNL     1      18.216  -6.000  -9.188  1.00  0.00    -0.203 F 
ATOM     43  C   UNL     1      19.630  -6.818  -7.492  1.00  0.00     0.198 A 
ATOM     44  C   UNL     1      21.837  -5.913  -7.227  1.00  0.00     0.198 A 
ATOM     45  F   UNL     1      22.580  -4.187  -8.643  1.00  0.00    -0.203 F 
ATOM     46  F   UNL     1      18.666  -7.659  -7.094  1.00  0.00    -0.200 F 
ATOM     47  C   UNL     1      20.849  -6.799  -6.829  1.00  0.00     0.200 A 
ATOM     48  F   UNL     1      23.019  -5.901  -6.595  1.00  0.00    -0.200 F 
ATOM     49  F   UNL     1      21.068  -7.633  -5.803  1.00  0.00    -0.200 F 
ENDBRANCH  25  39
BRANCH  26  50
ATOM     50  C   UNL     1      18.965   1.321 -16.543  1.00  0.00     0.064 A 
ATOM     51  C   UNL     1      18.269   0.945 -17.698  1.00  0.00     0.173 A 
ATOM     52  C   UNL     1      19.431   2.641 -16.457  1.00  0.00     0.173 A 
ATOM     53  F   UNL     1      17.819  -0.311 -17.831  1.00  0.00    -0.203 F 
ATOM     54  C   UNL     1      18.054   1.853 -18.733  1.00  0.00     0.198 A 
ATOM     55  C   UNL     1      19.191   3.555 -17.479  1.00  0.00     0.198 A 
ATOM     56  F   UNL     1      20.096   3.049 -15.366  1.00  0.00    -0.203 F 
ATOM     57  F   UNL     1      17.411   1.462 -19.841  1.00  0.00    -0.200 F 
ATOM     58  C   UNL     1      18.507   3.159 -18.618  1.00  0.00     0.200 A 
ATOM     59  F   UNL     1      19.615   4.820 -17.357  1.00  0.00    -0.200 F 
ATOM     60  F   UNL     1      18.287   4.036 -19.607  1.00  0.00    -0.200 F 
ENDBRANCH  26  50
BRANCH  38  61
ATOM     61  C   UNL     1      22.855  -4.395 -15.717  1.00  0.00     0.064 A 
ATOM     62  C   UNL     1      24.120  -3.867 -16.013  1.00  0.00     0.173 A 
ATOM     63  C   UNL     1      22.507  -5.631 -16.281  1.00  0.00     0.173 A 
ATOM     64  F   UNL     1      24.489  -2.679 -15.511  1.00  0.00    -0.203 F 
ATOM     65  C   UNL     1      24.993  -4.540 -16.863  1.00  0.00     0.198 A 
ATOM     66  C   UNL     1      23.392  -6.313 -17.110  1.00  0.00     0.198 A 
ATOM     67  F   UNL     1      21.309  -6.178 -16.024  1.00  0.00    -0.203 F 
ATOM     68  F   UNL     1      26.179  -3.995 -17.169  1.00  0.00    -0.200 F 
ATOM     69  C   UNL     1      24.631  -5.764 -17.405  1.00  0.00     0.200 A 
ATOM     70  F   UNL     1      23.046  -7.500 -17.627  1.00  0.00    -0.200 F 
ATOM     71  F   UNL     1      25.474  -6.411 -18.222  1.00  0.00    -0.200 F 
ENDBRANCH  38  61
ENDBRANCH  12  13
ENDBRANCH   5   7
ENDBRANCH   2   3
ENDBRANCH   1   2
BRANCH   1  72
ATOM     72  C   UNL     1      10.214   0.351  -6.029  1.00  0.00     0.023 C 
BRANCH  72  73
ATOM     73  C   UNL     1       9.128   0.919  -6.934  1.00  0.00     0.116 C 
BRANCH  73  74
ATOM     74  N   UNL     1       8.610  -0.038  -7.904  1.00  0.00    -0.354 N 
ATOM     75  C   UNL     1       7.319  -0.492  -8.056  1.00  0.00     0.242 C 
ATOM     76  H   UNL     1       9.270  -0.408  -8.533  1.00  0.00     0.163 HD
ATOM     77  O   UNL     1       7.028  -1.130  -9.066  1.00  0.00    -0.273 OA
BRANCH  75  78
ATOM     78  C   UNL     1       6.304  -0.085  -6.981  1.00  0.00     0.175 C 
ATOM     79  C   UNL     1       5.845   1.319  -7.394  1.00  0.00     0.044 C 
ATOM     80  N   UNL     1       5.037  -0.769  -6.768  1.00  0.00    -0.330 N 
ATOM     81  C   UNL     1       4.551   1.587  -6.616  1.00  0.00    -0.006 C 
ATOM     82  C   UNL     1       4.012   0.174  -6.337  1.00  0.00     0.127 C 
ATOM     83  C   UNL     1       3.571   2.398  -7.478  1.00  0.00     0.030 C 
ATOM     84  C   UNL     1       4.818   2.371  -5.311  1.00  0.00     0.030 C 
ATOM     85  C   UNL     1       4.125   3.787  -7.767  1.00  0.00     0.120 C 
ATOM     86  C   UNL     1       5.230   3.830  -5.549  1.00  0.00     0.120 C 
ATOM     87  N   UNL     1       4.376   4.513  -6.521  1.00  0.00    -0.337 N 
ATOM     88  C   UNL     1       4.194   5.896  -6.374  1.00  0.00     0.270 C 
ATOM     89  O   UNL     1       4.741   6.522  -5.468  1.00  0.00    -0.267 OA
BRANCH  80  90
ATOM     90  C   UNL     1       4.828  -2.108  -6.484  1.00  0.00     0.226 C 
ATOM     91  O   UNL     1       3.851  -2.486  -5.841  1.00  0.00    -0.275 OA
BRANCH  90  92
ATOM     92  C   UNL     1       5.688  -3.151  -7.098  1.00  0.00     0.079 C 
ATOM     93  C   UNL     1       7.178  -3.324  -6.990  1.00  0.00     0.014 C 
ATOM     94  C   UNL     1       6.288  -4.192  -6.166  1.00  0.00     0.014 C 
ENDBRANCH  90  92
ENDBRANCH  80  90
BRANCH  88  95
ATOM     95  C   UNL     1       3.361   6.560  -7.351  1.00  0.00     0.105 A 
ATOM     96  C   UNL     1       3.627   7.713  -8.068  1.00  0.00     0.042 A 
ATOM     97  N   UNL     1       2.088   6.168  -7.704  1.00  0.00    -0.351 N 
ATOM     98  C   UNL     1       2.572   7.908  -9.001  1.00  0.00     0.000 A 
ATOM     99  C   UNL     1       1.632   6.906  -8.770  1.00  0.00     0.046 A 
ATOM    100  H   UNL     1       1.577   5.458  -7.254  1.00  0.00     0.167 HD
ATOM    101  C   UNL     1       2.337   8.831 -10.037  1.00  0.00     0.010 A 
ATOM    102  C   UNL     1       0.469   6.765  -9.536  1.00  0.00     0.026 A 
ATOM    103  C   UNL     1       1.183   8.703 -10.818  1.00  0.00     0.001 A 
ATOM    104  C   UNL     1       0.267   7.682 -10.572  1.00  0.00     0.002 A 
ENDBRANCH  88  95
ENDBRANCH  75  78
ENDBRANCH  73  74
ENDBRANCH  72  73
ENDBRANCH   1  72
TORSDOF 14
