REMARK SMILES O=C(NCCCCNC(=O)c1ccc(-c2c3nc(c(-c4c(F)c(F)c(F)c(F)c4F)c4ccc([nH]4)c(-c4c(F)c(F)c(F)c(F)c4F)c4nc(c(-c5c(F)c(F)c(F)c(F)c5F)c5ccc2[nH]5)C=C4)C=C3)cc1)c1ccc(NC(=O)[C@@H]2CC=CC[C@H]2C(=O)Nc2cccc([N+](=O)[O-])c2)cc1
REMARK SMILES IDX 4 1 3 2 1 3 2 4 74 6 75 7 100 8 76 9 99 10 77 11 78 12 79 13
REMARK SMILES IDX 80 15 81 16 82 17 86 18 83 19 85 20 84 21 87 22 88 23 89 24
REMARK SMILES IDX 90 26 91 27 98 28 92 29 94 30 93 31 95 32 96 33 97 34 5 35
REMARK SMILES IDX 6 36 7 37 8 38 9 39 10 41 11 42 12 43 73 44 13 45 72 46
REMARK SMILES IDX 14 47 15 48 16 49 66 50 17 51 71 52 65 53 67 54 18 55 70 56
REMARK SMILES IDX 64 57 63 58 19 60 51 61 31 62 50 63 32 64 35 65 49 66 68 67
REMARK SMILES IDX 33 68 34 69 48 71 69 72 36 73 20 74 21 75 29 76 22 77 23 78
REMARK SMILES IDX 27 79 30 80 24 81 25 82 28 83 26 84 52 85 53 86 61 87 54 88
REMARK SMILES IDX 55 89 59 90 62 91 56 92 57 93 60 94 58 95 37 96 38 97 46 98
REMARK SMILES IDX 39 99 40 100 44 101 47 102 41 103 42 104 45 105 43 106
REMARK H PARENT 3 5 78 14 89 25 8 40 67 59 35 70
REMARK Flexibility Score: inf
ROOT
ATOM      1  C   UNL     1      12.236   4.326   0.580  1.00  0.00     0.116 C 
ENDROOT
BRANCH   1   2
ATOM      2  N   UNL     1      12.789   5.573   1.090  1.00  0.00    -0.352 N 
ATOM      3  O   UNL     1      12.725   7.543   2.215  1.00  0.00    -0.269 OA
ATOM      4  C   UNL     1      12.210   6.466   1.962  1.00  0.00     0.251 C 
ATOM      5  H   UNL     1      13.690   5.807   0.770  1.00  0.00     0.163 HD
BRANCH   4   6
ATOM      6  C   UNL     1      10.924   6.087   2.570  1.00  0.00     0.039 A 
ATOM      7  C   UNL     1      10.869   5.012   3.458  1.00  0.00     0.016 A 
ATOM      8  C   UNL     1       9.766   6.753   2.181  1.00  0.00     0.016 A 
ATOM      9  C   UNL     1       9.627   4.528   3.867  1.00  0.00     0.027 A 
ATOM     10  C   UNL     1       8.530   6.239   2.574  1.00  0.00     0.027 A 
ATOM     11  C   UNL     1       8.458   5.068   3.342  1.00  0.00     0.041 A 
BRANCH  11  12
ATOM     12  N   UNL     1       7.186   4.569   3.623  1.00  0.00    -0.326 N 
ATOM     13  C   UNL     1       6.702   3.384   4.060  1.00  0.00     0.228 C 
ATOM     14  H   UNL     1       6.476   5.233   3.467  1.00  0.00     0.169 HD
ATOM     15  O   UNL     1       5.648   3.476   4.710  1.00  0.00    -0.274 OA
BRANCH  13  16
ATOM     16  C   UNL     1       7.196   1.972   3.675  1.00  0.00     0.095 C 
ATOM     17  C   UNL     1       8.614   1.717   3.159  1.00  0.00     0.041 C 
ATOM     18  C   UNL     1       6.158   1.307   2.731  1.00  0.00     0.095 C 
ATOM     19  C   UNL     1       8.863   0.279   2.796  1.00  0.00    -0.030 C 
ATOM     20  C   UNL     1       6.445  -0.175   2.403  1.00  0.00     0.041 C 
ATOM     21  C   UNL     1       7.884  -0.574   2.477  1.00  0.00    -0.030 C 
BRANCH  18  22
ATOM     22  C   UNL     1       4.656   1.479   3.040  1.00  0.00     0.228 C 
ATOM     23  O   UNL     1       3.970   2.161   2.266  1.00  0.00    -0.274 OA
ATOM     24  N   UNL     1       3.986   0.781   4.011  1.00  0.00    -0.326 N 
ATOM     25  H   UNL     1       3.006   0.832   3.938  1.00  0.00     0.169 HD
BRANCH  24  26
ATOM     26  C   UNL     1       4.439   0.009   5.088  1.00  0.00     0.048 A 
ATOM     27  C   UNL     1       3.828  -1.223   5.332  1.00  0.00     0.026 A 
ATOM     28  C   UNL     1       5.445   0.434   5.945  1.00  0.00     0.111 A 
ATOM     29  C   UNL     1       4.329  -2.080   6.320  1.00  0.00     0.009 A 
ATOM     30  C   UNL     1       5.990  -0.439   6.890  1.00  0.00     0.271 A 
ATOM     31  C   UNL     1       5.439  -1.707   7.080  1.00  0.00     0.086 A 
BRANCH  30  32
ATOM     32  N   UNL     1       7.182  -0.029   7.643  1.00  0.00     0.062 N 
ATOM     33  O   UNL     1       7.554  -0.757   8.573  1.00  0.00    -0.258 OA
ATOM     34  O   UNL     1       7.766   1.004   7.281  1.00  0.00    -0.258 OA
ENDBRANCH  30  32
ENDBRANCH  24  26
ENDBRANCH  18  22
ENDBRANCH  13  16
ENDBRANCH  11  12
ENDBRANCH   4   6
ENDBRANCH   1   2
BRANCH   1  35
ATOM     35  C   UNL     1      12.112   4.327  -0.942  1.00  0.00     0.023 C 
BRANCH  35  36
ATOM     36  C   UNL     1      13.434   4.461  -1.695  1.00  0.00     0.023 C 
BRANCH  36  37
ATOM     37  C   UNL     1      14.495   3.428  -1.335  1.00  0.00     0.116 C 
BRANCH  37  38
ATOM     38  N   UNL     1      14.092   2.065  -1.648  1.00  0.00    -0.352 N 
ATOM     39  C   UNL     1      14.764   1.101  -2.362  1.00  0.00     0.251 C 
ATOM     40  H   UNL     1      13.213   1.794  -1.298  1.00  0.00     0.163 HD
ATOM     41  O   UNL     1      14.211   0.042  -2.640  1.00  0.00    -0.269 OA
BRANCH  39  42
ATOM     42  C   UNL     1      16.146   1.355  -2.827  1.00  0.00     0.039 A 
ATOM     43  C   UNL     1      16.479   1.046  -4.148  1.00  0.00     0.014 A 
ATOM     44  C   UNL     1      17.103   1.911  -1.975  1.00  0.00     0.014 A 
ATOM     45  C   UNL     1      17.748   1.365  -4.636  1.00  0.00     0.010 A 
ATOM     46  C   UNL     1      18.340   2.300  -2.483  1.00  0.00     0.010 A 
ATOM     47  C   UNL     1      18.675   2.035  -3.820  1.00  0.00    -0.014 A 
BRANCH  47  48
ATOM     48  C   UNL     1      19.993   2.475  -4.348  1.00  0.00     0.031 A 
ATOM     49  C   UNL     1      21.265   1.916  -3.772  1.00  0.00     0.074 A 
ATOM     50  C   UNL     1      20.046   3.435  -5.292  1.00  0.00     0.049 A 
ATOM     51  N   UNL     1      22.506   2.233  -4.043  1.00  0.00    -0.248 NA
ATOM     52  C   UNL     1      21.123   0.883  -2.734  1.00  0.00     0.031 C 
ATOM     53  C   UNL     1      18.887   4.095  -5.895  1.00  0.00     0.029 A 
ATOM     54  N   UNL     1      21.121   4.035  -5.902  1.00  0.00    -0.354 N 
ATOM     55  C   UNL     1      23.288   1.457  -3.198  1.00  0.00     0.074 A 
ATOM     56  C   UNL     1      22.383   0.688  -2.372  1.00  0.00     0.031 C 
ATOM     57  C   UNL     1      19.311   4.993  -6.798  1.00  0.00     0.029 A 
ATOM     58  C   UNL     1      20.770   5.003  -6.812  1.00  0.00     0.049 A 
ATOM     59  H   UNL     1      22.055   3.793  -5.705  1.00  0.00     0.167 HD
ATOM     60  C   UNL     1      24.638   1.377  -3.132  1.00  0.00     0.037 A 
ATOM     61  C   UNL     1      21.538   5.814  -7.564  1.00  0.00     0.037 A 
ATOM     62  C   UNL     1      25.537   2.118  -3.978  1.00  0.00     0.049 A 
ATOM     63  C   UNL     1      23.037   5.704  -7.470  1.00  0.00     0.074 A 
ATOM     64  C   UNL     1      26.917   2.046  -4.042  1.00  0.00     0.029 A 
ATOM     65  N   UNL     1      25.143   3.072  -4.905  1.00  0.00    -0.354 N 
ATOM     66  N   UNL     1      23.763   4.905  -6.727  1.00  0.00    -0.248 NA
ATOM     67  C   UNL     1      23.823   6.605  -8.325  1.00  0.00     0.031 C 
ATOM     68  C   UNL     1      27.363   2.993  -4.969  1.00  0.00     0.029 A 
ATOM     69  C   UNL     1      26.257   3.616  -5.525  1.00  0.00     0.049 A 
ATOM     70  H   UNL     1      24.210   3.325  -5.095  1.00  0.00     0.167 HD
ATOM     71  C   UNL     1      25.085   5.183  -7.047  1.00  0.00     0.074 A 
ATOM     72  C   UNL     1      25.061   6.215  -8.062  1.00  0.00     0.031 C 
ATOM     73  C   UNL     1      26.218   4.634  -6.543  1.00  0.00     0.037 A 
BRANCH  60  74
ATOM     74  C   UNL     1      25.234   0.453  -2.109  1.00  0.00     0.064 A 
ATOM     75  C   UNL     1      25.140  -0.941  -2.229  1.00  0.00     0.173 A 
ATOM     76  C   UNL     1      25.953   0.970  -1.020  1.00  0.00     0.173 A 
ATOM     77  F   UNL     1      24.455  -1.487  -3.246  1.00  0.00    -0.203 F 
ATOM     78  C   UNL     1      25.718  -1.784  -1.283  1.00  0.00     0.198 A 
ATOM     79  C   UNL     1      26.558   0.124  -0.093  1.00  0.00     0.198 A 
ATOM     80  F   UNL     1      26.081   2.296  -0.861  1.00  0.00    -0.203 F 
ATOM     81  F   UNL     1      25.575  -3.111  -1.393  1.00  0.00    -0.200 F 
ATOM     82  C   UNL     1      26.434  -1.251  -0.221  1.00  0.00     0.200 A 
ATOM     83  F   UNL     1      27.261   0.641   0.924  1.00  0.00    -0.200 F 
ATOM     84  F   UNL     1      27.000  -2.063   0.682  1.00  0.00    -0.200 F 
ENDBRANCH  60  74
BRANCH  61  85
ATOM     85  C   UNL     1      20.908   6.796  -8.486  1.00  0.00     0.064 A 
ATOM     86  C   UNL     1      21.013   6.649  -9.876  1.00  0.00     0.173 A 
ATOM     87  C   UNL     1      20.207   7.910  -8.000  1.00  0.00     0.173 A 
ATOM     88  F   UNL     1      21.691   5.612 -10.389  1.00  0.00    -0.203 F 
ATOM     89  C   UNL     1      20.465   7.591 -10.744  1.00  0.00     0.198 A 
ATOM     90  C   UNL     1      19.633   8.835  -8.869  1.00  0.00     0.198 A 
ATOM     91  F   UNL     1      20.074   8.096  -6.678  1.00  0.00    -0.203 F 
ATOM     92  F   UNL     1      20.628   7.454 -12.067  1.00  0.00    -0.200 F 
ATOM     93  C   UNL     1      19.771   8.681 -10.240  1.00  0.00     0.200 A 
ATOM     94  F   UNL     1      18.951   9.879  -8.378  1.00  0.00    -0.200 F 
ATOM     95  F   UNL     1      19.245   9.587 -11.075  1.00  0.00    -0.200 F 
ENDBRANCH  61  85
BRANCH  73  96
ATOM     96  C   UNL     1      27.526   5.105  -7.112  1.00  0.00     0.064 A 
ATOM     97  C   UNL     1      28.030   6.385  -6.838  1.00  0.00     0.173 A 
ATOM     98  C   UNL     1      28.302   4.249  -7.907  1.00  0.00     0.173 A 
ATOM     99  F   UNL     1      27.320   7.247  -6.096  1.00  0.00    -0.203 F 
ATOM    100  C   UNL     1      29.253   6.799  -7.362  1.00  0.00     0.198 A 
ATOM    101  C   UNL     1      29.538   4.654  -8.402  1.00  0.00     0.198 A 
ATOM    102  F   UNL     1      27.868   3.012  -8.192  1.00  0.00    -0.203 F 
ATOM    103  F   UNL     1      29.692   8.043  -7.129  1.00  0.00    -0.200 F 
ATOM    104  C   UNL     1      30.009   5.931  -8.136  1.00  0.00     0.200 A 
ATOM    105  F   UNL     1      30.274   3.808  -9.137  1.00  0.00    -0.200 F 
ATOM    106  F   UNL     1      31.189   6.328  -8.632  1.00  0.00    -0.200 F 
ENDBRANCH  73  96
ENDBRANCH  47  48
ENDBRANCH  39  42
ENDBRANCH  37  38
ENDBRANCH  36  37
ENDBRANCH  35  36
ENDBRANCH   1  35
TORSDOF 16
