REMARK SMILES CCC(CC)Oc1ccc(OC)cc1/C=C/C(=O)NCCCCNC(=O)c1ccc(-c2c3nc(c(-c4c(F)c(F)c(F)c(F)c4F)c4ccc([nH]4)c(-c4c(F)c(F)c(F)c(F)c4F)c4nc(c(-c5c(F)c(F)c(F)c(F)c5F)c5ccc2[nH]5)C=C4)C=C3)cc1
REMARK SMILES IDX 20 1 19 2 17 3 18 4 16 6 15 7 14 8 7 9 8 10 9 11 13 12 10 13
REMARK SMILES IDX 6 14 3 15 2 16 1 17 4 18 5 19 11 20 12 21 21 22 22 23 23 24
REMARK SMILES IDX 24 25 25 26 26 28 27 29 28 30 89 31 29 32 88 33 30 34 31 35
REMARK SMILES IDX 32 36 82 37 33 38 87 39 81 40 83 41 34 42 86 43 80 44 79 45
REMARK SMILES IDX 35 47 67 48 47 49 66 50 48 51 51 52 65 53 84 54 49 55 50 56
REMARK SMILES IDX 64 58 85 59 52 60 36 61 37 62 45 63 38 64 39 65 43 66 46 67
REMARK SMILES IDX 40 68 41 69 44 70 42 71 68 72 69 73 77 74 70 75 71 76 75 77
REMARK SMILES IDX 78 78 72 79 73 80 76 81 74 82 53 83 54 84 62 85 55 86 56 87
REMARK SMILES IDX 60 88 63 89 57 90 58 91 61 92 59 93
REMARK H PARENT 19 5 24 27 83 46 51 57
REMARK Flexibility Score: inf
ROOT
ATOM      1  C   UNL     1       0.674   1.154  -2.029  1.00  0.00     0.116 C 
ENDROOT
BRANCH   1   2
ATOM      2  N   UNL     1      -0.452   1.475  -2.874  1.00  0.00    -0.353 N 
ATOM      3  C   UNL     1      -1.716   0.980  -2.831  1.00  0.00     0.244 C 
ATOM      4  O   UNL     1      -2.626   1.595  -3.384  1.00  0.00    -0.270 OA
ATOM      5  H   UNL     1      -0.279   2.143  -3.577  1.00  0.00     0.163 HD
BRANCH   3   6
ATOM      6  C   UNL     1      -2.042  -0.258  -2.084  1.00  0.00     0.072 C 
ATOM      7  C   UNL     1      -1.383  -1.423  -2.211  1.00  0.00     0.018 C 
BRANCH   7   8
ATOM      8  C   UNL     1      -1.892  -2.694  -1.652  1.00  0.00     0.020 A 
ATOM      9  C   UNL     1      -1.065  -3.648  -1.033  1.00  0.00     0.127 A 
ATOM     10  C   UNL     1      -1.559  -4.924  -0.741  1.00  0.00     0.051 A 
ATOM     11  C   UNL     1      -2.903  -5.226  -0.955  1.00  0.00     0.050 A 
ATOM     12  C   UNL     1      -3.247  -3.026  -1.867  1.00  0.00     0.058 A 
ATOM     13  C   UNL     1      -3.761  -4.270  -1.492  1.00  0.00     0.119 A 
BRANCH   9  14
ATOM     14  O   UNL     1       0.266  -3.436  -0.816  1.00  0.00    -0.490 OA
BRANCH  14  15
ATOM     15  C   UNL     1       0.673  -2.955   0.489  1.00  0.00     0.172 C 
BRANCH  15  16
ATOM     16  C   UNL     1       0.804  -1.432   0.421  1.00  0.00     0.042 C 
ATOM     17  C   UNL     1       1.440  -0.748   1.616  1.00  0.00     0.008 C 
ENDBRANCH  15  16
BRANCH  15  18
ATOM     18  C   UNL     1      -0.043  -3.492   1.746  1.00  0.00     0.042 C 
ATOM     19  C   UNL     1      -1.413  -2.904   2.069  1.00  0.00     0.008 C 
ENDBRANCH  15  18
ENDBRANCH  14  15
ENDBRANCH   9  14
BRANCH  13  20
ATOM     20  O   UNL     1      -5.058  -4.676  -1.643  1.00  0.00    -0.497 OA
ATOM     21  C   UNL     1      -6.018  -3.654  -1.890  1.00  0.00     0.278 C 
ENDBRANCH  13  20
ENDBRANCH   7   8
ENDBRANCH   3   6
ENDBRANCH   1   2
BRANCH   1  22
ATOM     22  C   UNL     1       1.896   0.681  -2.817  1.00  0.00     0.023 C 
BRANCH  22  23
ATOM     23  C   UNL     1       3.073   1.656  -2.742  1.00  0.00     0.023 C 
BRANCH  23  24
ATOM     24  C   UNL     1       3.627   1.901  -1.340  1.00  0.00     0.116 C 
BRANCH  24  25
ATOM     25  N   UNL     1       4.362   0.775  -0.785  1.00  0.00    -0.352 N 
ATOM     26  C   UNL     1       5.575   0.784  -0.126  1.00  0.00     0.251 C 
ATOM     27  H   UNL     1       3.940  -0.108  -0.894  1.00  0.00     0.163 HD
ATOM     28  O   UNL     1       6.095  -0.260   0.242  1.00  0.00    -0.269 OA
BRANCH  26  29
ATOM     29  C   UNL     1       6.274   2.073   0.083  1.00  0.00     0.039 A 
ATOM     30  C   UNL     1       7.594   2.200  -0.358  1.00  0.00     0.014 A 
ATOM     31  C   UNL     1       5.608   3.171   0.634  1.00  0.00     0.014 A 
ATOM     32  C   UNL     1       8.211   3.454  -0.342  1.00  0.00     0.010 A 
ATOM     33  C   UNL     1       6.197   4.432   0.580  1.00  0.00     0.010 A 
ATOM     34  C   UNL     1       7.497   4.591   0.074  1.00  0.00    -0.014 A 
BRANCH  34  35
ATOM     35  C   UNL     1       8.077   5.955  -0.050  1.00  0.00     0.031 A 
ATOM     36  C   UNL     1       8.325   6.791   1.174  1.00  0.00     0.074 A 
ATOM     37  C   UNL     1       8.306   6.474  -1.273  1.00  0.00     0.049 A 
ATOM     38  N   UNL     1       8.748   8.027   1.261  1.00  0.00    -0.248 NA
ATOM     39  C   UNL     1       8.029   6.164   2.471  1.00  0.00     0.031 C 
ATOM     40  C   UNL     1       8.055   5.792  -2.544  1.00  0.00     0.029 A 
ATOM     41  N   UNL     1       8.790   7.704  -1.649  1.00  0.00    -0.354 N 
ATOM     42  C   UNL     1       8.751   8.331   2.615  1.00  0.00     0.074 A 
ATOM     43  C   UNL     1       8.242   7.167   3.310  1.00  0.00     0.031 C 
ATOM     44  C   UNL     1       8.409   6.601  -3.556  1.00  0.00     0.029 A 
ATOM     45  C   UNL     1       8.877   7.871  -3.010  1.00  0.00     0.049 A 
ATOM     46  H   UNL     1       9.050   8.400  -1.003  1.00  0.00     0.167 HD
ATOM     47  C   UNL     1       9.163   9.467   3.227  1.00  0.00     0.037 A 
ATOM     48  C   UNL     1       9.284   8.929  -3.737  1.00  0.00     0.037 A 
ATOM     49  C   UNL     1       9.701  10.612   2.541  1.00  0.00     0.049 A 
ATOM     50  C   UNL     1       9.745  10.176  -3.032  1.00  0.00     0.074 A 
ATOM     51  C   UNL     1      10.213  11.779   3.080  1.00  0.00     0.029 A 
ATOM     52  N   UNL     1       9.797  10.733   1.163  1.00  0.00    -0.354 N 
ATOM     53  N   UNL     1       9.813  10.423  -1.747  1.00  0.00    -0.248 NA
ATOM     54  C   UNL     1      10.192  11.290  -3.881  1.00  0.00     0.031 C 
ATOM     55  C   UNL     1      10.582  12.624   2.027  1.00  0.00     0.029 A 
ATOM     56  C   UNL     1      10.341  11.965   0.833  1.00  0.00     0.049 A 
ATOM     57  H   UNL     1       9.520  10.046   0.514  1.00  0.00     0.167 HD
ATOM     58  C   UNL     1      10.332  11.705  -1.632  1.00  0.00     0.074 A 
ATOM     59  C   UNL     1      10.575  12.181  -2.978  1.00  0.00     0.031 C 
ATOM     60  C   UNL     1      10.584  12.423  -0.510  1.00  0.00     0.037 A 
BRANCH  47  61
ATOM     61  C   UNL     1       9.054   9.524   4.723  1.00  0.00     0.064 A 
ATOM     62  C   UNL     1       9.893   8.761   5.549  1.00  0.00     0.173 A 
ATOM     63  C   UNL     1       8.124  10.375   5.337  1.00  0.00     0.173 A 
ATOM     64  F   UNL     1      10.791   7.923   5.010  1.00  0.00    -0.203 F 
ATOM     65  C   UNL     1       9.782   8.824   6.936  1.00  0.00     0.198 A 
ATOM     66  C   UNL     1       8.036  10.458   6.724  1.00  0.00     0.198 A 
ATOM     67  F   UNL     1       7.303  11.131   4.593  1.00  0.00    -0.203 F 
ATOM     68  F   UNL     1      10.559   8.049   7.704  1.00  0.00    -0.200 F 
ATOM     69  C   UNL     1       8.859   9.677   7.522  1.00  0.00     0.200 A 
ATOM     70  F   UNL     1       7.152  11.291   7.290  1.00  0.00    -0.200 F 
ATOM     71  F   UNL     1       8.757   9.740   8.857  1.00  0.00    -0.200 F 
ENDBRANCH  47  61
BRANCH  48  72
ATOM     72  C   UNL     1       9.303   8.848  -5.220  1.00  0.00     0.064 A 
ATOM     73  C   UNL     1      10.518   8.787  -5.918  1.00  0.00     0.173 A 
ATOM     74  C   UNL     1       8.118   8.835  -5.969  1.00  0.00     0.173 A 
ATOM     75  F   UNL     1      11.678   8.819  -5.246  1.00  0.00    -0.203 F 
ATOM     76  C   UNL     1      10.546   8.734  -7.310  1.00  0.00     0.198 A 
ATOM     77  C   UNL     1       8.147   8.757  -7.360  1.00  0.00     0.198 A 
ATOM     78  F   UNL     1       6.931   8.889  -5.347  1.00  0.00    -0.203 F 
ATOM     79  F   UNL     1      11.721   8.720  -7.954  1.00  0.00    -0.200 F 
ATOM     80  C   UNL     1       9.361   8.714  -8.030  1.00  0.00     0.200 A 
ATOM     81  F   UNL     1       6.999   8.726  -8.051  1.00  0.00    -0.200 F 
ATOM     82  F   UNL     1       9.388   8.661  -9.368  1.00  0.00    -0.200 F 
ENDBRANCH  48  72
BRANCH  60  83
ATOM     83  C   UNL     1      11.180  13.789  -0.687  1.00  0.00     0.064 A 
ATOM     84  C   UNL     1      10.421  14.866  -1.167  1.00  0.00     0.173 A 
ATOM     85  C   UNL     1      12.516  14.031  -0.333  1.00  0.00     0.173 A 
ATOM     86  F   UNL     1       9.144  14.680  -1.534  1.00  0.00    -0.203 F 
ATOM     87  C   UNL     1      10.984  16.131  -1.306  1.00  0.00     0.198 A 
ATOM     88  C   UNL     1      13.068  15.304  -0.447  1.00  0.00     0.198 A 
ATOM     89  F   UNL     1      13.283  13.035   0.136  1.00  0.00    -0.203 F 
ATOM     90  F   UNL     1      10.252  17.137  -1.806  1.00  0.00    -0.200 F 
ATOM     91  C   UNL     1      12.303  16.351  -0.939  1.00  0.00     0.200 A 
ATOM     92  F   UNL     1      14.339  15.517  -0.082  1.00  0.00    -0.200 F 
ATOM     93  F   UNL     1      12.841  17.572  -1.067  1.00  0.00    -0.200 F 
ENDBRANCH  60  83
ENDBRANCH  34  35
ENDBRANCH  26  29
ENDBRANCH  24  25
ENDBRANCH  23  24
ENDBRANCH  22  23
ENDBRANCH   1  22
TORSDOF 17
