REMARK SMILES C[C@@H]([N@@H+](C)[C@@H]1COC[C@@H]1C(=O)NCCCCNC(=O)c1ccc(-c2c3nc(c(-c4c(F)c(F)c(F)c(F)c4F)c4ccc([nH]4)c(-c4c(F)c(F)c(F)c(F)c4F)c4nc(c(-c5c(F)c(F)c(F)c(F)c5F)c5ccc2[nH]5)C=C4)C=C3)cc1)C1(C)CC1
REMARK SMILES IDX 14 1 13 2 12 3 10 4 11 5 9 7 5 8 6 9 7 10 8 11 3 12 4 13
REMARK SMILES IDX 2 15 1 16 83 17 84 18 85 19 86 20 15 21 16 22 17 23 18 24
REMARK SMILES IDX 19 26 20 27 21 28 82 29 22 30 81 31 23 32 24 33 25 34 75 35
REMARK SMILES IDX 26 36 80 37 74 38 76 39 27 40 79 41 73 42 72 43 28 45 60 46
REMARK SMILES IDX 40 47 59 48 41 49 44 50 58 51 77 52 42 53 43 54 57 56 78 57
REMARK SMILES IDX 45 58 29 59 30 60 38 61 31 62 32 63 36 64 39 65 33 66 34 67
REMARK SMILES IDX 37 68 35 69 61 70 62 71 70 72 63 73 64 74 68 75 71 76 65 77
REMARK SMILES IDX 66 78 69 79 67 80 46 81 47 82 55 83 48 84 49 85 53 86 56 87
REMARK SMILES IDX 50 88 51 89 54 90 52 91
REMARK H PARENT 12 6 3 14 17 25 76 44 44 55
REMARK Flexibility Score: inf
ROOT
ATOM      1  C   UNL     1      -0.286   1.424   2.295  1.00  0.00     0.023 C 
ENDROOT
BRANCH   1   2
ATOM      2  C   UNL     1       0.981   1.899   2.993  1.00  0.00     0.116 C 
BRANCH   2   3
ATOM      3  N   UNL     1       1.393   0.965   4.024  1.00  0.00    -0.356 N 
ATOM      4  C   UNL     1       2.198  -0.135   3.938  1.00  0.00     0.231 C 
ATOM      5  O   UNL     1       2.291  -0.843   4.943  1.00  0.00    -0.274 OA
ATOM      6  H   UNL     1       1.038   1.153   4.922  1.00  0.00     0.163 HD
BRANCH   4   7
ATOM      7  C   UNL     1       2.986  -0.415   2.664  1.00  0.00     0.164 C 
ATOM      8  C   UNL     1       2.607  -1.728   1.967  1.00  0.00     0.225 C 
ATOM      9  C   UNL     1       3.516  -2.719   2.719  1.00  0.00     0.226 C 
ATOM     10  O   UNL     1       4.764  -2.030   2.877  1.00  0.00    -0.374 OA
ATOM     11  C   UNL     1       4.454  -0.639   3.051  1.00  0.00     0.180 C 
BRANCH   8  12
ATOM     12  N   UNL     1       1.144  -1.977   1.817  1.00  0.00    -0.330 N 
ATOM     13  C   UNL     1       0.831  -3.335   2.290  1.00  0.00     0.333 C 
ATOM     14  H   UNL     1       0.685  -1.271   2.393  1.00  0.00     0.348 HD
BRANCH  12  15
ATOM     15  C   UNL     1       0.577  -1.742   0.448  1.00  0.00     0.186 C 
ATOM     16  C   UNL     1       1.217  -0.558  -0.328  1.00  0.00     0.076 C 
BRANCH  15  17
ATOM     17  C   UNL     1      -1.004  -1.583   0.420  1.00  0.00     0.019 C 
ATOM     18  C   UNL     1      -1.800  -1.813   1.695  1.00  0.00     0.018 C 
ATOM     19  C   UNL     1      -1.694  -0.629  -0.567  1.00  0.00     0.013 C 
ATOM     20  C   UNL     1      -1.674  -2.093  -0.852  1.00  0.00     0.013 C 
ENDBRANCH  15  17
ENDBRANCH  12  15
ENDBRANCH   8  12
ENDBRANCH   4   7
ENDBRANCH   2   3
ENDBRANCH   1   2
BRANCH   1  21
ATOM     21  C   UNL     1      -1.553   1.466   3.141  1.00  0.00     0.023 C 
BRANCH  21  22
ATOM     22  C   UNL     1      -2.021   2.869   3.477  1.00  0.00     0.116 C 
BRANCH  22  23
ATOM     23  N   UNL     1      -2.400   3.633   2.295  1.00  0.00    -0.352 N 
ATOM     24  C   UNL     1      -3.472   4.473   2.125  1.00  0.00     0.251 C 
ATOM     25  H   UNL     1      -1.808   3.534   1.515  1.00  0.00     0.163 HD
ATOM     26  O   UNL     1      -3.732   4.937   1.019  1.00  0.00    -0.269 OA
BRANCH  24  27
ATOM     27  C   UNL     1      -4.335   4.782   3.282  1.00  0.00     0.039 A 
ATOM     28  C   UNL     1      -5.722   4.726   3.130  1.00  0.00     0.014 A 
ATOM     29  C   UNL     1      -3.770   5.079   4.525  1.00  0.00     0.014 A 
ATOM     30  C   UNL     1      -6.543   4.902   4.245  1.00  0.00     0.010 A 
ATOM     31  C   UNL     1      -4.582   5.157   5.647  1.00  0.00     0.010 A 
ATOM     32  C   UNL     1      -5.977   5.080   5.517  1.00  0.00    -0.014 A 
BRANCH  32  33
ATOM     33  C   UNL     1      -6.814   5.216   6.733  1.00  0.00     0.031 A 
ATOM     34  C   UNL     1      -6.753   6.486   7.535  1.00  0.00     0.074 A 
ATOM     35  C   UNL     1      -7.549   4.172   7.162  1.00  0.00     0.049 A 
ATOM     36  N   UNL     1      -7.296   6.764   8.692  1.00  0.00    -0.248 NA
ATOM     37  C   UNL     1      -5.937   7.577   6.977  1.00  0.00     0.031 C 
ATOM     38  C   UNL     1      -7.645   2.872   6.496  1.00  0.00     0.029 A 
ATOM     39  N   UNL     1      -8.341   4.035   8.274  1.00  0.00    -0.354 N 
ATOM     40  C   UNL     1      -6.866   8.046   9.010  1.00  0.00     0.074 A 
ATOM     41  C   UNL     1      -5.972   8.469   7.955  1.00  0.00     0.031 C 
ATOM     42  C   UNL     1      -8.466   2.077   7.201  1.00  0.00     0.029 A 
ATOM     43  C   UNL     1      -8.919   2.794   8.388  1.00  0.00     0.049 A 
ATOM     44  H   UNL     1      -8.482   4.757   8.928  1.00  0.00     0.167 HD
ATOM     45  C   UNL     1      -7.208   8.810  10.073  1.00  0.00     0.037 A 
ATOM     46  C   UNL     1      -9.716   2.292   9.350  1.00  0.00     0.037 A 
ATOM     47  C   UNL     1      -8.128   8.395  11.098  1.00  0.00     0.049 A 
ATOM     48  C   UNL     1     -10.092   3.167  10.516  1.00  0.00     0.074 A 
ATOM     49  C   UNL     1      -8.594   9.114  12.183  1.00  0.00     0.029 A 
ATOM     50  N   UNL     1      -8.727   7.144  11.157  1.00  0.00    -0.354 N 
ATOM     51  N   UNL     1      -9.731   4.400  10.776  1.00  0.00    -0.248 NA
ATOM     52  C   UNL     1     -10.991   2.581  11.520  1.00  0.00     0.031 C 
ATOM     53  C   UNL     1      -9.442   8.284  12.924  1.00  0.00     0.029 A 
ATOM     54  C   UNL     1      -9.546   7.066  12.271  1.00  0.00     0.049 A 
ATOM     55  H   UNL     1      -8.590   6.420  10.505  1.00  0.00     0.167 HD
ATOM     56  C   UNL     1     -10.382   4.750  11.950  1.00  0.00     0.074 A 
ATOM     57  C   UNL     1     -11.169   3.601  12.348  1.00  0.00     0.031 C 
ATOM     58  C   UNL     1     -10.334   5.917  12.638  1.00  0.00     0.037 A 
BRANCH  45  59
ATOM     59  C   UNL     1      -6.588  10.173  10.176  1.00  0.00     0.064 A 
ATOM     60  C   UNL     1      -6.915  11.202   9.279  1.00  0.00     0.173 A 
ATOM     61  C   UNL     1      -5.672  10.464  11.199  1.00  0.00     0.173 A 
ATOM     62  F   UNL     1      -7.774  10.973   8.274  1.00  0.00    -0.203 F 
ATOM     63  C   UNL     1      -6.325  12.459   9.382  1.00  0.00     0.198 A 
ATOM     64  C   UNL     1      -5.109  11.732  11.319  1.00  0.00     0.198 A 
ATOM     65  F   UNL     1      -5.326   9.519  12.086  1.00  0.00    -0.203 F 
ATOM     66  F   UNL     1      -6.612  13.407   8.479  1.00  0.00    -0.200 F 
ATOM     67  C   UNL     1      -5.429  12.725  10.405  1.00  0.00     0.200 A 
ATOM     68  F   UNL     1      -4.253  11.992  12.316  1.00  0.00    -0.200 F 
ATOM     69  F   UNL     1      -4.867  13.937  10.506  1.00  0.00    -0.200 F 
ENDBRANCH  45  59
BRANCH  46  70
ATOM     70  C   UNL     1     -10.237   0.905   9.236  1.00  0.00     0.064 A 
ATOM     71  C   UNL     1     -11.595   0.666   8.986  1.00  0.00     0.173 A 
ATOM     72  C   UNL     1      -9.394  -0.208   9.371  1.00  0.00     0.173 A 
ATOM     73  F   UNL     1     -12.444   1.698   8.867  1.00  0.00    -0.203 F 
ATOM     74  C   UNL     1     -12.096  -0.631   8.898  1.00  0.00     0.198 A 
ATOM     75  C   UNL     1      -9.890  -1.505   9.255  1.00  0.00     0.198 A 
ATOM     76  F   UNL     1      -8.085  -0.035   9.604  1.00  0.00    -0.203 F 
ATOM     77  F   UNL     1     -13.406  -0.829   8.704  1.00  0.00    -0.200 F 
ATOM     78  C   UNL     1     -11.242  -1.716   9.027  1.00  0.00     0.200 A 
ATOM     79  F   UNL     1      -9.059  -2.551   9.365  1.00  0.00    -0.200 F 
ATOM     80  F   UNL     1     -11.722  -2.963   8.938  1.00  0.00    -0.200 F 
ENDBRANCH  46  70
BRANCH  58  81
ATOM     81  C   UNL     1     -11.192   6.029  13.864  1.00  0.00     0.064 A 
ATOM     82  C   UNL     1     -10.880   5.347  15.048  1.00  0.00     0.173 A 
ATOM     83  C   UNL     1     -12.313   6.873  13.865  1.00  0.00     0.173 A 
ATOM     84  F   UNL     1      -9.826   4.518  15.092  1.00  0.00    -0.203 F 
ATOM     85  C   UNL     1     -11.673   5.487  16.183  1.00  0.00     0.198 A 
ATOM     86  C   UNL     1     -13.086   7.035  15.011  1.00  0.00     0.198 A 
ATOM     87  F   UNL     1     -12.649   7.554  12.759  1.00  0.00    -0.203 F 
ATOM     88  F   UNL     1     -11.383   4.791  17.291  1.00  0.00    -0.200 F 
ATOM     89  C   UNL     1     -12.770   6.337  16.166  1.00  0.00     0.200 A 
ATOM     90  F   UNL     1     -14.136   7.867  14.997  1.00  0.00    -0.200 F 
ATOM     91  F   UNL     1     -13.526   6.478  17.264  1.00  0.00    -0.200 F 
ENDBRANCH  58  81
ENDBRANCH  32  33
ENDBRANCH  24  27
ENDBRANCH  22  23
ENDBRANCH  21  22
ENDBRANCH   1  21
TORSDOF 14
