REMARK SMILES CCn1ncc(-c2cc(C(F)(F)F)nc(-n3ccc(C(=O)NCCCCNC(=O)c4ccc(-c5c6nc(c(-c7c(F)c(F)c(F)c(F)c7F)c7ccc([nH]7)c(-c7c(F)c(F)c(F)c(F)c7F)c7nc(c(-c8c(F)c(F)c(F)c(F)c8F)c8ccc5[nH]8)C=C7)C=C6)cc4)n3)n2)c1C
REMARK SMILES IDX 24 1 23 2 22 3 20 4 21 5 19 7 16 8 17 9 93 10 18 11 15 12
REMARK SMILES IDX 7 13 8 14 94 15 9 16 14 17 6 18 3 19 4 20 95 21 5 22 96 23
REMARK SMILES IDX 2 24 1 25 10 26 11 27 12 28 13 29 25 30 26 31 27 32 28 33
REMARK SMILES IDX 29 35 30 36 31 37 92 38 32 39 91 40 33 41 34 42 35 43 85 44
REMARK SMILES IDX 36 45 90 46 84 47 86 48 37 49 89 50 83 51 82 52 38 54 70 55
REMARK SMILES IDX 50 56 69 57 51 58 54 59 68 60 87 61 52 62 53 63 67 65 88 66
REMARK SMILES IDX 55 67 39 68 40 69 48 70 41 71 42 72 46 73 49 74 43 75 44 76
REMARK SMILES IDX 47 77 45 78 71 79 72 80 80 81 73 82 74 83 78 84 81 85 75 86
REMARK SMILES IDX 76 87 79 88 77 89 56 90 57 91 65 92 58 93 59 94 63 95 66 96
REMARK SMILES IDX 60 97 61 98 64 99 62 100
REMARK H PARENT 22 6 27 34 86 53 54 64
REMARK Flexibility Score: inf
ROOT
ATOM      1  C   UNL     1      -3.008  -1.560  -9.727  1.00  0.00     0.023 C 
ENDROOT
BRANCH   1   2
ATOM      2  C   UNL     1      -3.343  -2.001  -8.297  1.00  0.00     0.116 C 
BRANCH   2   3
ATOM      3  N   UNL     1      -4.088  -3.251  -8.242  1.00  0.00    -0.351 N 
ATOM      4  C   UNL     1      -3.749  -4.487  -7.735  1.00  0.00     0.271 C 
ATOM      5  O   UNL     1      -4.569  -5.404  -7.888  1.00  0.00    -0.267 OA
ATOM      6  H   UNL     1      -4.990  -3.205  -8.634  1.00  0.00     0.163 HD
BRANCH   4   7
ATOM      7  C   UNL     1      -2.442  -4.738  -7.107  1.00  0.00     0.150 A 
ATOM      8  N   UNL     1      -0.484  -4.371  -6.316  1.00  0.00    -0.205 N 
ATOM      9  C   UNL     1      -0.524  -5.725  -6.561  1.00  0.00     0.119 A 
ATOM     10  N   UNL     1      -1.702  -3.796  -6.495  1.00  0.00    -0.160 NA
ATOM     11  C   UNL     1      -1.790  -5.999  -7.021  1.00  0.00     0.056 A 
BRANCH   8  12
ATOM     12  C   UNL     1       0.676  -3.590  -6.005  1.00  0.00     0.251 A 
ATOM     13  C   UNL     1       1.596  -1.712  -5.072  1.00  0.00     0.080 A 
ATOM     14  C   UNL     1       2.843  -2.025  -5.564  1.00  0.00     0.062 A 
ATOM     15  N   UNL     1       0.499  -2.438  -5.338  1.00  0.00    -0.211 NA
ATOM     16  C   UNL     1       2.944  -3.209  -6.274  1.00  0.00     0.150 A 
ATOM     17  N   UNL     1       1.873  -4.032  -6.449  1.00  0.00    -0.207 NA
BRANCH  13  18
ATOM     18  C   UNL     1       1.423  -0.624  -4.135  1.00  0.00     0.041 A 
ATOM     19  N   UNL     1       0.989   0.473  -2.278  1.00  0.00    -0.269 N 
ATOM     20  N   UNL     1       1.541   1.397  -3.092  1.00  0.00    -0.181 NA
ATOM     21  C   UNL     1       0.890  -0.769  -2.861  1.00  0.00     0.045 A 
ATOM     22  C   UNL     1       1.791   0.731  -4.220  1.00  0.00     0.145 A 
ATOM     23  C   UNL     1       0.347  -1.973  -2.174  1.00  0.00     0.067 C 
BRANCH  19  24
ATOM     24  C   UNL     1       0.542   0.891  -0.959  1.00  0.00     0.141 C 
ATOM     25  C   UNL     1       1.280   0.221   0.189  1.00  0.00     0.029 C 
ENDBRANCH  19  24
ENDBRANCH  13  18
BRANCH  16  26
ATOM     26  C   UNL     1       4.269  -3.584  -6.921  1.00  0.00     0.433 C 
ATOM     27  F   UNL     1       4.641  -4.872  -6.679  1.00  0.00    -0.165 F 
ATOM     28  F   UNL     1       4.243  -3.443  -8.277  1.00  0.00    -0.165 F 
ATOM     29  F   UNL     1       5.312  -2.813  -6.494  1.00  0.00    -0.165 F 
ENDBRANCH  16  26
ENDBRANCH   8  12
ENDBRANCH   4   7
ENDBRANCH   2   3
ENDBRANCH   1   2
BRANCH   1  30
ATOM     30  C   UNL     1      -4.195  -1.210 -10.634  1.00  0.00     0.023 C 
BRANCH  30  31
ATOM     31  C   UNL     1      -5.125  -0.127 -10.101  1.00  0.00     0.116 C 
BRANCH  31  32
ATOM     32  N   UNL     1      -4.474   1.171  -9.940  1.00  0.00    -0.352 N 
ATOM     33  C   UNL     1      -5.024   2.332  -9.444  1.00  0.00     0.251 C 
ATOM     34  H   UNL     1      -3.532   1.221 -10.220  1.00  0.00     0.163 HD
ATOM     35  O   UNL     1      -4.539   3.429  -9.732  1.00  0.00    -0.269 OA
BRANCH  33  36
ATOM     36  C   UNL     1      -6.207   2.262  -8.569  1.00  0.00     0.039 A 
ATOM     37  C   UNL     1      -7.249   3.184  -8.702  1.00  0.00     0.014 A 
ATOM     38  C   UNL     1      -6.277   1.251  -7.610  1.00  0.00     0.014 A 
ATOM     39  C   UNL     1      -8.398   3.019  -7.933  1.00  0.00     0.010 A 
ATOM     40  C   UNL     1      -7.453   1.020  -6.931  1.00  0.00     0.010 A 
ATOM     41  C   UNL     1      -8.512   1.910  -7.073  1.00  0.00    -0.014 A 
BRANCH  41  42
ATOM     42  C   UNL     1      -9.816   1.573  -6.498  1.00  0.00     0.031 A 
ATOM     43  C   UNL     1     -10.881   1.451  -7.530  1.00  0.00     0.074 A 
ATOM     44  C   UNL     1     -10.020   1.197  -5.215  1.00  0.00     0.049 A 
ATOM     45  N   UNL     1     -11.891   2.236  -7.704  1.00  0.00    -0.248 NA
ATOM     46  C   UNL     1     -10.727   0.446  -8.598  1.00  0.00     0.031 C 
ATOM     47  C   UNL     1      -8.995   0.957  -4.194  1.00  0.00     0.029 A 
ATOM     48  N   UNL     1     -11.174   0.843  -4.565  1.00  0.00    -0.354 N 
ATOM     49  C   UNL     1     -12.638   1.670  -8.736  1.00  0.00     0.074 A 
ATOM     50  C   UNL     1     -11.774   0.722  -9.381  1.00  0.00     0.031 C 
ATOM     51  C   UNL     1      -9.532   0.277  -3.157  1.00  0.00     0.029 A 
ATOM     52  C   UNL     1     -10.967   0.184  -3.353  1.00  0.00     0.049 A 
ATOM     53  H   UNL     1     -12.071   1.036  -4.923  1.00  0.00     0.167 HD
ATOM     54  C   UNL     1     -13.995   1.789  -8.719  1.00  0.00     0.037 A 
ATOM     55  C   UNL     1     -11.901  -0.402  -2.561  1.00  0.00     0.037 A 
ATOM     56  C   UNL     1     -14.387   2.812  -7.781  1.00  0.00     0.049 A 
ATOM     57  C   UNL     1     -13.210   0.198  -2.896  1.00  0.00     0.074 A 
ATOM     58  C   UNL     1     -14.405   4.187  -7.726  1.00  0.00     0.029 A 
ATOM     59  N   UNL     1     -14.472   2.352  -6.497  1.00  0.00    -0.354 N 
ATOM     60  N   UNL     1     -13.523   1.433  -2.622  1.00  0.00    -0.248 NA
ATOM     61  C   UNL     1     -14.089  -0.481  -3.842  1.00  0.00     0.031 C 
ATOM     62  C   UNL     1     -14.414   4.534  -6.340  1.00  0.00     0.029 A 
ATOM     63  C   UNL     1     -14.453   3.366  -5.584  1.00  0.00     0.049 A 
ATOM     64  H   UNL     1     -14.538   1.400  -6.258  1.00  0.00     0.167 HD
ATOM     65  C   UNL     1     -14.329   1.808  -3.674  1.00  0.00     0.074 A 
ATOM     66  C   UNL     1     -14.797   0.566  -4.272  1.00  0.00     0.031 C 
ATOM     67  C   UNL     1     -14.243   3.067  -4.189  1.00  0.00     0.037 A 
BRANCH  54  68
ATOM     68  C   UNL     1     -14.976   0.675  -9.063  1.00  0.00     0.064 A 
ATOM     69  C   UNL     1     -16.360   0.941  -8.945  1.00  0.00     0.173 A 
ATOM     70  C   UNL     1     -14.639  -0.692  -9.162  1.00  0.00     0.173 A 
ATOM     71  F   UNL     1     -16.809   2.201  -8.838  1.00  0.00    -0.203 F 
ATOM     72  C   UNL     1     -17.310  -0.081  -8.834  1.00  0.00     0.198 A 
ATOM     73  C   UNL     1     -15.595  -1.708  -9.095  1.00  0.00     0.198 A 
ATOM     74  F   UNL     1     -13.375  -1.121  -9.216  1.00  0.00    -0.203 F 
ATOM     75  F   UNL     1     -18.592   0.224  -8.592  1.00  0.00    -0.200 F 
ATOM     76  C   UNL     1     -16.924  -1.405  -8.898  1.00  0.00     0.200 A 
ATOM     77  F   UNL     1     -15.197  -2.987  -9.139  1.00  0.00    -0.200 F 
ATOM     78  F   UNL     1     -17.819  -2.387  -8.727  1.00  0.00    -0.200 F 
ENDBRANCH  54  68
BRANCH  55  79
ATOM     79  C   UNL     1     -11.802  -1.559  -1.637  1.00  0.00     0.064 A 
ATOM     80  C   UNL     1     -12.800  -1.806  -0.675  1.00  0.00     0.173 A 
ATOM     81  C   UNL     1     -10.901  -2.611  -1.884  1.00  0.00     0.173 A 
ATOM     82  F   UNL     1     -13.716  -0.868  -0.395  1.00  0.00    -0.203 F 
ATOM     83  C   UNL     1     -12.925  -3.048  -0.045  1.00  0.00     0.198 A 
ATOM     84  C   UNL     1     -11.024  -3.849  -1.249  1.00  0.00     0.198 A 
ATOM     85  F   UNL     1      -9.948  -2.490  -2.819  1.00  0.00    -0.203 F 
ATOM     86  F   UNL     1     -13.938  -3.268   0.804  1.00  0.00    -0.200 F 
ATOM     87  C   UNL     1     -12.047  -4.075  -0.347  1.00  0.00     0.200 A 
ATOM     88  F   UNL     1     -10.187  -4.846  -1.571  1.00  0.00    -0.200 F 
ATOM     89  F   UNL     1     -12.213  -5.289   0.196  1.00  0.00    -0.200 F 
ENDBRANCH  55  79
BRANCH  67  90
ATOM     90  C   UNL     1     -13.768   4.156  -3.284  1.00  0.00     0.064 A 
ATOM     91  C   UNL     1     -12.474   4.250  -2.749  1.00  0.00     0.173 A 
ATOM     92  C   UNL     1     -14.669   5.191  -3.000  1.00  0.00     0.173 A 
ATOM     93  F   UNL     1     -11.539   3.333  -3.034  1.00  0.00    -0.203 F 
ATOM     94  C   UNL     1     -12.115   5.322  -1.934  1.00  0.00     0.198 A 
ATOM     95  C   UNL     1     -14.296   6.278  -2.220  1.00  0.00     0.198 A 
ATOM     96  F   UNL     1     -15.909   5.162  -3.513  1.00  0.00    -0.203 F 
ATOM     97  F   UNL     1     -10.881   5.386  -1.411  1.00  0.00    -0.200 F 
ATOM     98  C   UNL     1     -13.024   6.338  -1.677  1.00  0.00     0.200 A 
ATOM     99  F   UNL     1     -15.167   7.274  -2.008  1.00  0.00    -0.200 F 
ATOM    100  F   UNL     1     -12.668   7.386  -0.921  1.00  0.00    -0.200 F 
ENDBRANCH  67  90
ENDBRANCH  41  42
ENDBRANCH  33  36
ENDBRANCH  31  32
ENDBRANCH  30  31
ENDBRANCH   1  30
TORSDOF 15
