REMARK SMILES C[N@H+]1C[C@@H](Oc2cccc3cccnc23)C[C@H]1C(=O)NCCCCNC(=O)c1ccc(-c2c3nc(c(-c4c(F)c(F)c(F)c(F)c4F)c4ccc([nH]4)c(-c4c(F)c(F)c(F)c(F)c4F)c4nc(c(-c5c(F)c(F)c(F)c(F)c5F)c5ccc2[nH]5)C=C4)C=C3)cc1
REMARK SMILES IDX 22 1 21 2 20 3 18 4 19 5 17 7 1 8 2 9 3 10 4 12 16 13 5 14
REMARK SMILES IDX 6 15 7 16 15 17 8 18 10 19 14 20 9 21 11 22 13 23 12 24
REMARK SMILES IDX 23 25 24 26 25 27 26 28 27 30 28 31 29 32 90 33 30 34 89 35
REMARK SMILES IDX 31 36 32 37 33 38 83 39 34 40 88 41 82 42 84 43 35 44 87 45
REMARK SMILES IDX 81 46 80 47 36 49 68 50 48 51 67 52 49 53 52 54 66 55 85 56
REMARK SMILES IDX 50 57 51 58 65 60 86 61 53 62 37 63 38 64 46 65 39 66 40 67
REMARK SMILES IDX 44 68 47 69 41 70 42 71 45 72 43 73 69 74 70 75 78 76 71 77
REMARK SMILES IDX 72 78 76 79 79 80 73 81 74 82 77 83 75 84 54 85 55 86 63 87
REMARK SMILES IDX 56 88 57 89 61 90 64 91 58 92 59 93 62 94 60 95
REMARK H PARENT 20 6 2 11 25 29 84 48 52 59
REMARK Flexibility Score: inf
ROOT
ATOM      1  C   UNL     1      -1.368   1.919   2.895  1.00  0.00     0.023 C 
ENDROOT
BRANCH   1   2
ATOM      2  C   UNL     1      -0.345   0.790   2.794  1.00  0.00     0.116 C 
BRANCH   2   3
ATOM      3  N   UNL     1      -0.866  -0.538   2.558  1.00  0.00    -0.351 N 
ATOM      4  C   UNL     1      -0.513  -1.440   1.594  1.00  0.00     0.278 C 
ATOM      5  O   UNL     1      -0.484  -2.623   1.968  1.00  0.00    -0.268 OA
ATOM      6  H   UNL     1      -1.572  -0.833   3.178  1.00  0.00     0.163 HD
BRANCH   4   7
ATOM      7  C   UNL     1      -0.207  -1.133   0.107  1.00  0.00     0.278 C 
ATOM      8  C   UNL     1      -2.055   0.459  -0.389  1.00  0.00     0.333 C 
ATOM      9  N   UNL     1      -0.663   0.124  -0.460  1.00  0.00    -0.324 N 
ATOM     10  C   UNL     1       0.393   1.123  -0.462  1.00  0.00     0.308 C 
ATOM     11  H   UNL     1      -0.823  -0.000  -1.460  1.00  0.00     0.348 HD
ATOM     12  C   UNL     1       1.708   0.304  -0.329  1.00  0.00     0.234 C 
ATOM     13  C   UNL     1       1.250  -1.154  -0.332  1.00  0.00     0.126 C 
BRANCH  12  14
ATOM     14  O   UNL     1       2.643   0.811   0.631  1.00  0.00    -0.482 OA
BRANCH  14  15
ATOM     15  C   UNL     1       2.787   0.462   1.947  1.00  0.00     0.146 A 
ATOM     16  C   UNL     1       2.793  -0.855   2.413  1.00  0.00     0.049 A 
ATOM     17  C   UNL     1       3.045   1.520   2.849  1.00  0.00     0.112 A 
ATOM     18  C   UNL     1       2.932  -1.144   3.769  1.00  0.00     0.005 A 
ATOM     19  C   UNL     1       3.256   1.199   4.215  1.00  0.00     0.004 A 
ATOM     20  N   UNL     1       3.072   2.813   2.444  1.00  0.00    -0.252 NA
ATOM     21  C   UNL     1       3.162  -0.120   4.671  1.00  0.00     0.010 A 
ATOM     22  C   UNL     1       3.563   2.224   5.117  1.00  0.00     0.012 A 
ATOM     23  C   UNL     1       3.359   3.780   3.346  1.00  0.00     0.112 A 
ATOM     24  C   UNL     1       3.624   3.536   4.677  1.00  0.00     0.021 A 
ENDBRANCH  14  15
ENDBRANCH  12  14
ENDBRANCH   4   7
ENDBRANCH   2   3
ENDBRANCH   1   2
BRANCH   1  25
ATOM     25  C   UNL     1      -1.776   2.300   4.319  1.00  0.00     0.023 C 
BRANCH  25  26
ATOM     26  C   UNL     1      -0.653   2.824   5.210  1.00  0.00     0.116 C 
BRANCH  26  27
ATOM     27  N   UNL     1      -0.054   4.072   4.767  1.00  0.00    -0.352 N 
ATOM     28  C   UNL     1       0.612   5.023   5.510  1.00  0.00     0.251 C 
ATOM     29  H   UNL     1      -0.136   4.265   3.804  1.00  0.00     0.163 HD
ATOM     30  O   UNL     1       1.020   6.050   4.978  1.00  0.00    -0.269 OA
BRANCH  28  31
ATOM     31  C   UNL     1       0.822   4.830   6.968  1.00  0.00     0.039 A 
ATOM     32  C   UNL     1       0.639   5.921   7.823  1.00  0.00     0.014 A 
ATOM     33  C   UNL     1       1.190   3.591   7.500  1.00  0.00     0.014 A 
ATOM     34  C   UNL     1       0.719   5.740   9.207  1.00  0.00     0.010 A 
ATOM     35  C   UNL     1       1.216   3.394   8.876  1.00  0.00     0.010 A 
ATOM     36  C   UNL     1       0.949   4.460   9.740  1.00  0.00    -0.014 A 
BRANCH  36  37
ATOM     37  C   UNL     1       0.756   4.190  11.184  1.00  0.00     0.031 A 
ATOM     38  C   UNL     1       1.897   3.787  12.067  1.00  0.00     0.074 A 
ATOM     39  C   UNL     1      -0.504   4.207  11.659  1.00  0.00     0.049 A 
ATOM     40  N   UNL     1       1.895   3.534  13.351  1.00  0.00    -0.248 NA
ATOM     41  C   UNL     1       3.207   3.610  11.422  1.00  0.00     0.031 C 
ATOM     42  C   UNL     1      -1.701   4.467  10.853  1.00  0.00     0.029 A 
ATOM     43  N   UNL     1      -0.995   3.993  12.920  1.00  0.00    -0.354 N 
ATOM     44  C   UNL     1       3.197   3.177  13.671  1.00  0.00     0.074 A 
ATOM     45  C   UNL     1       3.951   3.185  12.435  1.00  0.00     0.031 C 
ATOM     46  C   UNL     1      -2.782   4.431  11.645  1.00  0.00     0.029 A 
ATOM     47  C   UNL     1      -2.359   4.127  13.007  1.00  0.00     0.049 A 
ATOM     48  H   UNL     1      -0.425   3.764  13.690  1.00  0.00     0.167 HD
ATOM     49  C   UNL     1       3.715   2.893  14.891  1.00  0.00     0.037 A 
ATOM     50  C   UNL     1      -3.176   4.031  14.072  1.00  0.00     0.037 A 
ATOM     51  C   UNL     1       2.942   2.888  16.109  1.00  0.00     0.049 A 
ATOM     52  C   UNL     1      -2.570   3.764  15.420  1.00  0.00     0.074 A 
ATOM     53  C   UNL     1       3.375   2.689  17.408  1.00  0.00     0.029 A 
ATOM     54  N   UNL     1       1.568   3.079  16.172  1.00  0.00    -0.354 N 
ATOM     55  N   UNL     1      -1.315   3.553  15.734  1.00  0.00    -0.248 NA
ATOM     56  C   UNL     1      -3.490   3.741  16.564  1.00  0.00     0.031 C 
ATOM     57  C   UNL     1       2.257   2.712  18.251  1.00  0.00     0.029 A 
ATOM     58  C   UNL     1       1.134   2.981  17.485  1.00  0.00     0.049 A 
ATOM     59  H   UNL     1       0.987   3.259  15.398  1.00  0.00     0.167 HD
ATOM     60  C   UNL     1      -1.287   3.398  17.112  1.00  0.00     0.074 A 
ATOM     61  C   UNL     1      -2.651   3.562  17.575  1.00  0.00     0.031 C 
ATOM     62  C   UNL     1      -0.230   3.142  17.922  1.00  0.00     0.037 A 
BRANCH  49  63
ATOM     63  C   UNL     1       5.183   2.579  14.975  1.00  0.00     0.064 A 
ATOM     64  C   UNL     1       6.158   3.559  14.728  1.00  0.00     0.173 A 
ATOM     65  C   UNL     1       5.624   1.302  15.353  1.00  0.00     0.173 A 
ATOM     66  F   UNL     1       5.793   4.796  14.357  1.00  0.00    -0.203 F 
ATOM     67  C   UNL     1       7.516   3.265  14.828  1.00  0.00     0.198 A 
ATOM     68  C   UNL     1       6.983   1.020  15.483  1.00  0.00     0.198 A 
ATOM     69  F   UNL     1       4.739   0.327  15.609  1.00  0.00    -0.203 F 
ATOM     70  F   UNL     1       8.426   4.206  14.540  1.00  0.00    -0.200 F 
ATOM     71  C   UNL     1       7.927   1.998  15.212  1.00  0.00     0.200 A 
ATOM     72  F   UNL     1       7.379  -0.201  15.868  1.00  0.00    -0.200 F 
ATOM     73  F   UNL     1       9.234   1.719  15.317  1.00  0.00    -0.200 F 
ENDBRANCH  49  63
BRANCH  50  74
ATOM     74  C   UNL     1      -4.634   4.262  13.906  1.00  0.00     0.064 A 
ATOM     75  C   UNL     1      -5.239   5.420  14.414  1.00  0.00     0.173 A 
ATOM     76  C   UNL     1      -5.445   3.354  13.210  1.00  0.00     0.173 A 
ATOM     77  F   UNL     1      -4.507   6.313  15.095  1.00  0.00    -0.203 F 
ATOM     78  C   UNL     1      -6.603   5.650  14.252  1.00  0.00     0.198 A 
ATOM     79  C   UNL     1      -6.804   3.600  13.022  1.00  0.00     0.198 A 
ATOM     80  F   UNL     1      -4.911   2.239  12.688  1.00  0.00    -0.203 F 
ATOM     81  F   UNL     1      -7.163   6.746  14.782  1.00  0.00    -0.200 F 
ATOM     82  C   UNL     1      -7.383   4.744  13.550  1.00  0.00     0.200 A 
ATOM     83  F   UNL     1      -7.550   2.732  12.325  1.00  0.00    -0.200 F 
ATOM     84  F   UNL     1      -8.693   4.972  13.384  1.00  0.00    -0.200 F 
ENDBRANCH  50  74
BRANCH  62  85
ATOM     85  C   UNL     1      -0.511   3.046  19.393  1.00  0.00     0.064 A 
ATOM     86  C   UNL     1      -1.212   1.960  19.938  1.00  0.00     0.173 A 
ATOM     87  C   UNL     1      -0.057   4.043  20.269  1.00  0.00     0.173 A 
ATOM     88  F   UNL     1      -1.682   0.990  19.140  1.00  0.00    -0.203 F 
ATOM     89  C   UNL     1      -1.476   1.893  21.303  1.00  0.00     0.198 A 
ATOM     90  C   UNL     1      -0.295   3.957  21.637  1.00  0.00     0.198 A 
ATOM     91  F   UNL     1       0.623   5.099  19.798  1.00  0.00    -0.203 F 
ATOM     92  F   UNL     1      -2.197   0.876  21.795  1.00  0.00    -0.200 F 
ATOM     93  C   UNL     1      -1.012   2.887  22.152  1.00  0.00     0.200 A 
ATOM     94  F   UNL     1       0.166   4.911  22.457  1.00  0.00    -0.200 F 
ATOM     95  F   UNL     1      -1.266   2.820  23.466  1.00  0.00    -0.200 F 
ENDBRANCH  62  85
ENDBRANCH  36  37
ENDBRANCH  28  31
ENDBRANCH  26  27
ENDBRANCH  25  26
ENDBRANCH   1  25
TORSDOF 13
