REMARK SMILES C[NH2+][C@H](CC(=O)NCCCCNC(=O)c1ccc(-c2c3nc(c(-c4c(F)c(F)c(F)c(F)c4F)c4ccc([nH]4)c(-c4c(F)c(F)c(F)c(F)c4F)c4nc(c(-c5c(F)c(F)c(F)c(F)c5F)c5ccc2[nH]5)C=C4)C=C3)cc1)c1cccc(C2CC2)c1
REMARK SMILES IDX 9 1 8 2 7 3 5 4 6 5 4 7 3 8 2 9 1 10 78 13 79 14 86 15 80 16
REMARK SMILES IDX 82 17 81 18 83 19 84 20 85 21 10 22 11 23 12 24 13 25 14 27
REMARK SMILES IDX 15 28 16 29 77 30 17 31 76 32 18 33 19 34 20 35 70 36 21 37
REMARK SMILES IDX 75 38 69 39 71 40 22 41 74 42 68 43 67 44 23 46 55 47 35 48
REMARK SMILES IDX 54 49 36 50 39 51 53 52 72 53 37 54 38 55 52 57 73 58 40 59
REMARK SMILES IDX 24 60 25 61 33 62 26 63 27 64 31 65 34 66 28 67 29 68 32 69
REMARK SMILES IDX 30 70 56 71 57 72 65 73 58 74 59 75 63 76 66 77 60 78 61 79
REMARK SMILES IDX 64 80 62 81 41 82 42 83 50 84 43 85 44 86 48 87 51 88 45 89
REMARK SMILES IDX 46 90 49 91 47 92
REMARK H PARENT 7 6 2 11 2 12 12 26 71 45 39 56
REMARK Flexibility Score: inf
ROOT
ATOM      1  C   UNL     1      -1.072   4.216   1.351  1.00  0.00     0.023 C 
ENDROOT
BRANCH   1   2
ATOM      2  C   UNL     1       0.145   3.368   0.974  1.00  0.00     0.116 C 
BRANCH   2   3
ATOM      3  N   UNL     1       0.749   2.691   2.103  1.00  0.00    -0.356 N 
ATOM      4  C   UNL     1       0.976   1.372   2.342  1.00  0.00     0.226 C 
ATOM      5  O   UNL     1       1.682   1.089   3.313  1.00  0.00    -0.275 OA
ATOM      6  H   UNL     1       1.048   3.291   2.824  1.00  0.00     0.163 HD
BRANCH   4   7
ATOM      7  C   UNL     1       0.441   0.291   1.427  1.00  0.00     0.170 C 
BRANCH   7   8
ATOM      8  C   UNL     1      -1.085   0.079   1.464  1.00  0.00     0.222 C 
BRANCH   8   9
ATOM      9  N   UNL     1      -1.467  -1.238   0.911  1.00  0.00    -0.342 N 
ATOM     10  C   UNL     1      -1.226  -1.350  -0.522  1.00  0.00     0.331 C 
ATOM     11  H   UNL     1      -0.927  -1.959   1.388  1.00  0.00     0.346 HD
ATOM     12  H   UNL     1      -2.470  -1.350   1.059  1.00  0.00     0.346 HD
ENDBRANCH   8   9
BRANCH   8  13
ATOM     13  C   UNL     1      -1.687   0.263   2.853  1.00  0.00     0.010 A 
ATOM     14  C   UNL     1      -2.466   1.397   3.102  1.00  0.00     0.010 A 
ATOM     15  C   UNL     1      -1.472  -0.632   3.914  1.00  0.00     0.014 A 
ATOM     16  C   UNL     1      -2.867   1.734   4.386  1.00  0.00     0.001 A 
ATOM     17  C   UNL     1      -1.980  -0.385   5.209  1.00  0.00    -0.044 A 
ATOM     18  C   UNL     1      -2.613   0.852   5.427  1.00  0.00     0.004 A 
BRANCH  17  19
ATOM     19  C   UNL     1      -1.944  -1.382   6.349  1.00  0.00     0.019 C 
ATOM     20  C   UNL     1      -2.233  -2.838   6.063  1.00  0.00     0.009 C 
ATOM     21  C   UNL     1      -0.866  -2.414   6.523  1.00  0.00     0.009 C 
ENDBRANCH  17  19
ENDBRANCH   8  13
ENDBRANCH   7   8
ENDBRANCH   4   7
ENDBRANCH   2   3
ENDBRANCH   1   2
BRANCH   1  22
ATOM     22  C   UNL     1      -0.906   5.121   2.574  1.00  0.00     0.023 C 
BRANCH  22  23
ATOM     23  C   UNL     1       0.040   6.289   2.337  1.00  0.00     0.116 C 
BRANCH  23  24
ATOM     24  N   UNL     1      -0.475   7.173   1.300  1.00  0.00    -0.352 N 
ATOM     25  C   UNL     1      -0.914   8.468   1.381  1.00  0.00     0.251 C 
ATOM     26  H   UNL     1      -0.514   6.777   0.399  1.00  0.00     0.163 HD
ATOM     27  O   UNL     1      -1.610   8.927   0.481  1.00  0.00    -0.269 OA
BRANCH  25  28
ATOM     28  C   UNL     1      -0.538   9.321   2.528  1.00  0.00     0.039 A 
ATOM     29  C   UNL     1      -1.433  10.303   2.961  1.00  0.00     0.014 A 
ATOM     30  C   UNL     1       0.720   9.211   3.126  1.00  0.00     0.014 A 
ATOM     31  C   UNL     1      -1.072  11.158   4.002  1.00  0.00     0.010 A 
ATOM     32  C   UNL     1       1.041   9.996   4.227  1.00  0.00     0.010 A 
ATOM     33  C   UNL     1       0.162  11.000   4.653  1.00  0.00    -0.014 A 
BRANCH  33  34
ATOM     34  C   UNL     1       0.565  11.911   5.749  1.00  0.00     0.031 A 
ATOM     35  C   UNL     1       1.757  12.814   5.580  1.00  0.00     0.074 A 
ATOM     36  C   UNL     1      -0.123  11.895   6.905  1.00  0.00     0.049 A 
ATOM     37  N   UNL     1       2.271  13.675   6.422  1.00  0.00    -0.248 NA
ATOM     38  C   UNL     1       2.493  12.713   4.308  1.00  0.00     0.031 C 
ATOM     39  C   UNL     1      -1.245  11.004   7.207  1.00  0.00     0.029 A 
ATOM     40  N   UNL     1       0.017  12.650   8.040  1.00  0.00    -0.354 N 
ATOM     41  C   UNL     1       3.388  14.203   5.787  1.00  0.00     0.074 A 
ATOM     42  C   UNL     1       3.522  13.519   4.521  1.00  0.00     0.031 C 
ATOM     43  C   UNL     1      -1.713  11.286   8.433  1.00  0.00     0.029 A 
ATOM     44  C   UNL     1      -0.912  12.361   9.009  1.00  0.00     0.049 A 
ATOM     45  H   UNL     1       0.718  13.333   8.151  1.00  0.00     0.167 HD
ATOM     46  C   UNL     1       4.208  15.196   6.208  1.00  0.00     0.037 A 
ATOM     47  C   UNL     1      -1.099  12.915  10.221  1.00  0.00     0.037 A 
ATOM     48  C   UNL     1       4.048  15.892   7.456  1.00  0.00     0.049 A 
ATOM     49  C   UNL     1      -0.212  14.055  10.639  1.00  0.00     0.074 A 
ATOM     50  C   UNL     1       4.791  16.940   7.966  1.00  0.00     0.029 A 
ATOM     51  N   UNL     1       3.061  15.608   8.391  1.00  0.00    -0.354 N 
ATOM     52  N   UNL     1       0.800  14.593  10.002  1.00  0.00    -0.248 NA
ATOM     53  C   UNL     1      -0.507  14.680  11.935  1.00  0.00     0.031 C 
ATOM     54  C   UNL     1       4.271  17.274   9.223  1.00  0.00     0.029 A 
ATOM     55  C   UNL     1       3.178  16.460   9.476  1.00  0.00     0.049 A 
ATOM     56  H   UNL     1       2.378  14.905   8.296  1.00  0.00     0.167 HD
ATOM     57  C   UNL     1       1.254  15.625  10.809  1.00  0.00     0.074 A 
ATOM     58  C   UNL     1       0.385  15.659  11.968  1.00  0.00     0.031 C 
ATOM     59  C   UNL     1       2.301  16.466  10.618  1.00  0.00     0.037 A 
BRANCH  46  60
ATOM     60  C   UNL     1       5.331  15.600   5.296  1.00  0.00     0.064 A 
ATOM     61  C   UNL     1       5.086  16.262   4.082  1.00  0.00     0.173 A 
ATOM     62  C   UNL     1       6.666  15.346   5.644  1.00  0.00     0.173 A 
ATOM     63  F   UNL     1       3.827  16.515   3.694  1.00  0.00    -0.203 F 
ATOM     64  C   UNL     1       6.132  16.627   3.239  1.00  0.00     0.198 A 
ATOM     65  C   UNL     1       7.712  15.739   4.812  1.00  0.00     0.198 A 
ATOM     66  F   UNL     1       6.958  14.719   6.793  1.00  0.00    -0.203 F 
ATOM     67  F   UNL     1       5.869  17.210   2.061  1.00  0.00    -0.200 F 
ATOM     68  C   UNL     1       7.444  16.372   3.607  1.00  0.00     0.200 A 
ATOM     69  F   UNL     1       8.980  15.502   5.174  1.00  0.00    -0.200 F 
ATOM     70  F   UNL     1       8.450  16.728   2.797  1.00  0.00    -0.200 F 
ENDBRANCH  46  60
BRANCH  47  71
ATOM     71  C   UNL     1      -2.199  12.431  11.095  1.00  0.00     0.064 A 
ATOM     72  C   UNL     1      -3.329  13.224  11.337  1.00  0.00     0.173 A 
ATOM     73  C   UNL     1      -2.148  11.166  11.697  1.00  0.00     0.173 A 
ATOM     74  F   UNL     1      -3.418  14.447  10.794  1.00  0.00    -0.203 F 
ATOM     75  C   UNL     1      -4.356  12.780  12.168  1.00  0.00     0.198 A 
ATOM     76  C   UNL     1      -3.188  10.711  12.505  1.00  0.00     0.198 A 
ATOM     77  F   UNL     1      -1.094  10.364  11.488  1.00  0.00    -0.203 F 
ATOM     78  F   UNL     1      -5.404  13.577  12.418  1.00  0.00    -0.200 F 
ATOM     79  C   UNL     1      -4.287  11.522  12.747  1.00  0.00     0.200 A 
ATOM     80  F   UNL     1      -3.126   9.489  13.049  1.00  0.00    -0.200 F 
ATOM     81  F   UNL     1      -5.277  11.094  13.542  1.00  0.00    -0.200 F 
ENDBRANCH  47  71
BRANCH  59  82
ATOM     82  C   UNL     1       2.546  17.491  11.684  1.00  0.00     0.064 A 
ATOM     83  C   UNL     1       3.054  17.131  12.942  1.00  0.00     0.173 A 
ATOM     84  C   UNL     1       2.283  18.847  11.442  1.00  0.00     0.173 A 
ATOM     85  F   UNL     1       3.307  15.845  13.224  1.00  0.00    -0.203 F 
ATOM     86  C   UNL     1       3.253  18.089  13.931  1.00  0.00     0.198 A 
ATOM     87  C   UNL     1       2.513  19.806  12.424  1.00  0.00     0.198 A 
ATOM     88  F   UNL     1       1.804  19.242  10.253  1.00  0.00    -0.203 F 
ATOM     89  F   UNL     1       3.683  17.715  15.145  1.00  0.00    -0.200 F 
ATOM     90  C   UNL     1       2.987  19.425  13.671  1.00  0.00     0.200 A 
ATOM     91  F   UNL     1       2.266  21.098  12.168  1.00  0.00    -0.200 F 
ATOM     92  F   UNL     1       3.177  20.345  14.626  1.00  0.00    -0.200 F 
ENDBRANCH  59  82
ENDBRANCH  33  34
ENDBRANCH  25  28
ENDBRANCH  23  24
ENDBRANCH  22  23
ENDBRANCH   1  22
TORSDOF 15
