REMARK SMILES CC(C)CCc1cc2c(cc1Cl)C=C(C(=O)NCCCCNC(=O)c1ccc(-c3c4nc(c(-c5c(F)c(F)c(F)c(F)c5F)c5ccc([nH]5)c(-c5c(F)c(F)c(F)c(F)c5F)c5nc(c(-c6c(F)c(F)c(F)c(F)c6F)c6ccc3[nH]6)C=C5)C=C4)cc1)[C@@H](C(F)(F)F)O2
REMARK SMILES IDX 19 1 18 2 17 3 15 4 16 5 14 7 6 8 7 9 11 10 8 11 10 12 12 13
REMARK SMILES IDX 9 14 93 15 13 16 88 17 5 18 4 19 2 20 1 21 3 22 89 23 90 24
REMARK SMILES IDX 91 25 92 26 20 27 21 28 22 29 23 30 24 32 25 33 26 34 87 35
REMARK SMILES IDX 27 36 86 37 28 38 29 39 30 40 80 41 31 42 85 43 79 44 81 45
REMARK SMILES IDX 32 46 84 47 78 48 77 49 33 51 65 52 45 53 64 54 46 55 49 56
REMARK SMILES IDX 63 57 82 58 47 59 48 60 62 62 83 63 50 64 34 65 35 66 43 67
REMARK SMILES IDX 36 68 37 69 41 70 44 71 38 72 39 73 42 74 40 75 66 76 67 77
REMARK SMILES IDX 75 78 68 79 69 80 73 81 76 82 70 83 71 84 74 85 72 86 51 87
REMARK SMILES IDX 52 88 60 89 53 90 54 91 58 92 61 93 55 94 56 95 59 96 57 97
REMARK H PARENT 17 6 22 31 81 50 49 61
REMARK Flexibility Score: inf
ROOT
ATOM      1  C   UNL     1      -2.979  10.328   2.909  1.00  0.00     0.023 C 
ENDROOT
BRANCH   1   2
ATOM      2  C   UNL     1      -1.505  10.097   2.582  1.00  0.00     0.116 C 
BRANCH   2   3
ATOM      3  N   UNL     1      -0.790   9.461   3.675  1.00  0.00    -0.352 N 
ATOM      4  C   UNL     1      -0.414   8.203   4.006  1.00  0.00     0.251 C 
ATOM      5  O   UNL     1       0.210   8.105   5.068  1.00  0.00    -0.270 OA
ATOM      6  H   UNL     1      -0.504  10.117   4.351  1.00  0.00     0.163 HD
BRANCH   4   7
ATOM      7  C   UNL     1      -0.699   6.977   3.203  1.00  0.00     0.067 C 
ATOM      8  C   UNL     1      -1.177   2.186   1.637  1.00  0.00    -0.026 A 
ATOM      9  C   UNL     1      -1.666   3.429   1.197  1.00  0.00     0.052 A 
ATOM     10  C   UNL     1      -0.426   2.158   2.825  1.00  0.00     0.045 A 
ATOM     11  C   UNL     1      -1.376   4.601   1.893  1.00  0.00     0.128 A 
ATOM     12  C   UNL     1      -0.154   3.339   3.531  1.00  0.00     0.032 A 
ATOM     13  Cl  UNL     1       0.189   0.689   3.496  1.00  0.00    -0.084 Cl
ATOM     14  C   UNL     1      -0.625   4.567   3.063  1.00  0.00     0.019 A 
ATOM     15  O   UNL     1      -1.901   5.755   1.389  1.00  0.00    -0.475 OA
ATOM     16  C   UNL     1      -0.391   5.806   3.794  1.00  0.00     0.025 C 
ATOM     17  C   UNL     1      -1.249   6.987   1.804  1.00  0.00     0.314 C 
BRANCH   8  18
ATOM     18  C   UNL     1      -1.500   0.957   0.814  1.00  0.00     0.037 C 
BRANCH  18  19
ATOM     19  C   UNL     1      -0.974   1.010  -0.632  1.00  0.00     0.008 C 
BRANCH  19  20
ATOM     20  C   UNL     1       0.560   1.088  -0.767  1.00  0.00    -0.017 C 
ATOM     21  C   UNL     1       1.245  -0.190  -0.283  1.00  0.00     0.007 C 
ATOM     22  C   UNL     1       0.939   1.351  -2.227  1.00  0.00     0.007 C 
ENDBRANCH  19  20
ENDBRANCH  18  19
ENDBRANCH   8  18
BRANCH  17  23
ATOM     23  C   UNL     1      -0.190   7.382   0.756  1.00  0.00     0.429 C 
ATOM     24  F   UNL     1      -0.785   7.689  -0.424  1.00  0.00    -0.167 F 
ATOM     25  F   UNL     1       0.518   8.476   1.123  1.00  0.00    -0.167 F 
ATOM     26  F   UNL     1       0.703   6.396   0.517  1.00  0.00    -0.167 F 
ENDBRANCH  17  23
ENDBRANCH   4   7
ENDBRANCH   2   3
ENDBRANCH   1   2
BRANCH   1  27
ATOM     27  C   UNL     1      -3.268  11.635   3.654  1.00  0.00     0.023 C 
BRANCH  27  28
ATOM     28  C   UNL     1      -2.772  12.905   2.966  1.00  0.00     0.116 C 
BRANCH  28  29
ATOM     29  N   UNL     1      -3.221  13.068   1.590  1.00  0.00    -0.352 N 
ATOM     30  C   UNL     1      -3.249  14.229   0.847  1.00  0.00     0.251 C 
ATOM     31  H   UNL     1      -3.543  12.254   1.138  1.00  0.00     0.163 HD
ATOM     32  O   UNL     1      -3.732  14.247  -0.280  1.00  0.00    -0.269 OA
BRANCH  30  33
ATOM     33  C   UNL     1      -2.747  15.473   1.466  1.00  0.00     0.039 A 
ATOM     34  C   UNL     1      -1.487  15.496   2.062  1.00  0.00     0.014 A 
ATOM     35  C   UNL     1      -3.595  16.580   1.553  1.00  0.00     0.014 A 
ATOM     36  C   UNL     1      -1.160  16.540   2.917  1.00  0.00     0.010 A 
ATOM     37  C   UNL     1      -3.225  17.670   2.346  1.00  0.00     0.010 A 
ATOM     38  C   UNL     1      -2.039  17.623   3.095  1.00  0.00    -0.014 A 
BRANCH  38  39
ATOM     39  C   UNL     1      -1.711  18.647   4.121  1.00  0.00     0.031 A 
ATOM     40  C   UNL     1      -2.551  18.780   5.365  1.00  0.00     0.074 A 
ATOM     41  C   UNL     1      -0.587  19.375   3.987  1.00  0.00     0.049 A 
ATOM     42  N   UNL     1      -2.349  19.532   6.419  1.00  0.00    -0.248 NA
ATOM     43  C   UNL     1      -3.776  17.969   5.441  1.00  0.00     0.031 C 
ATOM     44  C   UNL     1       0.312  19.324   2.834  1.00  0.00     0.029 A 
ATOM     45  N   UNL     1       0.018  20.259   4.844  1.00  0.00    -0.354 N 
ATOM     46  C   UNL     1      -3.422  19.296   7.269  1.00  0.00     0.074 A 
ATOM     47  C   UNL     1      -4.292  18.355   6.600  1.00  0.00     0.031 C 
ATOM     48  C   UNL     1       1.393  20.076   3.087  1.00  0.00     0.029 A 
ATOM     49  C   UNL     1       1.238  20.704   4.397  1.00  0.00     0.049 A 
ATOM     50  H   UNL     1      -0.383  20.546   5.696  1.00  0.00     0.167 HD
ATOM     51  C   UNL     1      -3.651  19.804   8.503  1.00  0.00     0.037 A 
ATOM     52  C   UNL     1       2.137  21.520   4.979  1.00  0.00     0.037 A 
ATOM     53  C   UNL     1      -2.766  20.706   9.189  1.00  0.00     0.049 A 
ATOM     54  C   UNL     1       1.839  22.096   6.333  1.00  0.00     0.074 A 
ATOM     55  C   UNL     1      -2.891  21.234  10.462  1.00  0.00     0.029 A 
ATOM     56  N   UNL     1      -1.588  21.209   8.659  1.00  0.00    -0.354 N 
ATOM     57  N   UNL     1       0.828  21.852   7.129  1.00  0.00    -0.248 NA
ATOM     58  C   UNL     1       2.797  23.078   6.861  1.00  0.00     0.031 C 
ATOM     59  C   UNL     1      -1.806  22.086  10.690  1.00  0.00     0.029 A 
ATOM     60  C   UNL     1      -0.991  22.064   9.570  1.00  0.00     0.049 A 
ATOM     61  H   UNL     1      -1.229  20.991   7.769  1.00  0.00     0.167 HD
ATOM     62  C   UNL     1       1.023  22.649   8.247  1.00  0.00     0.074 A 
ATOM     63  C   UNL     1       2.264  23.367   8.040  1.00  0.00     0.031 C 
ATOM     64  C   UNL     1       0.237  22.781   9.342  1.00  0.00     0.037 A 
BRANCH  51  65
ATOM     65  C   UNL     1      -4.911  19.396   9.207  1.00  0.00     0.064 A 
ATOM     66  C   UNL     1      -5.045  18.129   9.792  1.00  0.00     0.173 A 
ATOM     67  C   UNL     1      -5.964  20.310   9.365  1.00  0.00     0.173 A 
ATOM     68  F   UNL     1      -4.070  17.218   9.659  1.00  0.00    -0.203 F 
ATOM     69  C   UNL     1      -6.194  17.788  10.502  1.00  0.00     0.198 A 
ATOM     70  C   UNL     1      -7.102  19.973  10.093  1.00  0.00     0.198 A 
ATOM     71  F   UNL     1      -5.880  21.537   8.829  1.00  0.00    -0.203 F 
ATOM     72  F   UNL     1      -6.312  16.563  11.033  1.00  0.00    -0.200 F 
ATOM     73  C   UNL     1      -7.216  18.712  10.659  1.00  0.00     0.200 A 
ATOM     74  F   UNL     1      -8.085  20.870  10.252  1.00  0.00    -0.200 F 
ATOM     75  F   UNL     1      -8.315  18.386  11.354  1.00  0.00    -0.200 F 
ENDBRANCH  51  65
BRANCH  52  76
ATOM     76  C   UNL     1       3.410  21.824   4.279  1.00  0.00     0.064 A 
ATOM     77  C   UNL     1       4.623  21.297   4.739  1.00  0.00     0.173 A 
ATOM     78  C   UNL     1       3.434  22.614   3.121  1.00  0.00     0.173 A 
ATOM     79  F   UNL     1       4.650  20.551   5.854  1.00  0.00    -0.203 F 
ATOM     80  C   UNL     1       5.816  21.547   4.064  1.00  0.00     0.198 A 
ATOM     81  C   UNL     1       4.624  22.844   2.434  1.00  0.00     0.198 A 
ATOM     82  F   UNL     1       2.297  23.139   2.643  1.00  0.00    -0.203 F 
ATOM     83  F   UNL     1       6.967  21.049   4.535  1.00  0.00    -0.200 F 
ATOM     84  C   UNL     1       5.814  22.313   2.908  1.00  0.00     0.200 A 
ATOM     85  F   UNL     1       4.615  23.573   1.310  1.00  0.00    -0.200 F 
ATOM     86  F   UNL     1       6.959  22.541   2.251  1.00  0.00    -0.200 F 
ENDBRANCH  52  76
BRANCH  64  87
ATOM     87  C   UNL     1       0.674  23.751  10.395  1.00  0.00     0.064 A 
ATOM     88  C   UNL     1       0.494  25.130  10.222  1.00  0.00     0.173 A 
ATOM     89  C   UNL     1       1.195  23.299  11.616  1.00  0.00     0.173 A 
ATOM     90  F   UNL     1       0.011  25.608   9.065  1.00  0.00    -0.203 F 
ATOM     91  C   UNL     1       0.823  26.025  11.236  1.00  0.00     0.198 A 
ATOM     92  C   UNL     1       1.504  24.195  12.634  1.00  0.00     0.198 A 
ATOM     93  F   UNL     1       1.378  21.987  11.828  1.00  0.00    -0.203 F 
ATOM     94  F   UNL     1       0.660  27.341  11.044  1.00  0.00    -0.200 F 
ATOM     95  C   UNL     1       1.318  25.556  12.444  1.00  0.00     0.200 A 
ATOM     96  F   UNL     1       1.972  23.741  13.805  1.00  0.00    -0.200 F 
ATOM     97  F   UNL     1       1.618  26.418  13.425  1.00  0.00    -0.200 F 
ENDBRANCH  64  87
ENDBRANCH  38  39
ENDBRANCH  30  33
ENDBRANCH  28  29
ENDBRANCH  27  28
ENDBRANCH   1  27
TORSDOF 15
