REMARK SMILES NS(=O)(=O)c1ccc(/N=N/c2ccc(O)c(C(=O)NCCCCNC(=O)c3ccc(-c4c5nc(c(-c6c(F)c(F)c(F)c(F)c6F)c6ccc([nH]6)c(-c6c(F)c(F)c(F)c(F)c6F)c6nc(c(-c7c(F)c(F)c(F)c(F)c7F)c7ccc4[nH]7)C=C6)C=C5)cc3)c2)cc1
REMARK SMILES IDX 20 1 19 2 17 3 18 4 16 6 11 7 12 8 90 9 13 10 14 11 10 12
REMARK SMILES IDX 9 13 8 14 5 15 6 16 92 17 7 18 91 19 2 20 3 21 4 22 1 23
REMARK SMILES IDX 15 26 21 28 22 29 23 30 24 31 25 32 26 34 27 35 28 36 89 37
REMARK SMILES IDX 29 38 88 39 30 40 31 41 32 42 82 43 33 44 87 45 81 46 83 47
REMARK SMILES IDX 34 48 86 49 80 50 79 51 35 53 67 54 47 55 66 56 48 57 51 58
REMARK SMILES IDX 65 59 84 60 49 61 50 62 64 64 85 65 52 66 36 67 37 68 45 69
REMARK SMILES IDX 38 70 39 71 43 72 46 73 40 74 41 75 44 76 42 77 68 78 69 79
REMARK SMILES IDX 77 80 70 81 71 82 75 83 78 84 72 85 73 86 76 87 74 88 53 89
REMARK SMILES IDX 54 90 62 91 55 92 56 93 60 94 63 95 57 96 58 97 61 98 59 99
REMARK H PARENT 19 5 1 24 1 25 15 27 24 33 83 52 51 63
REMARK Flexibility Score: inf
ROOT
ATOM      1  C   UNL     1       0.644  -9.077  -3.518  1.00  0.00     0.116 C 
ENDROOT
BRANCH   1   2
ATOM      2  N   UNL     1       1.185 -10.422  -3.651  1.00  0.00    -0.352 N 
ATOM      3  C   UNL     1       2.390 -10.951  -3.244  1.00  0.00     0.255 C 
ATOM      4  O   UNL     1       2.672 -12.111  -3.551  1.00  0.00    -0.269 OA
ATOM      5  H   UNL     1       0.591 -11.060  -4.108  1.00  0.00     0.163 HD
BRANCH   3   6
ATOM      6  C   UNL     1       3.408 -10.152  -2.518  1.00  0.00     0.083 A 
ATOM      7  C   UNL     1       3.981  -8.232  -1.130  1.00  0.00     0.087 A 
ATOM      8  C   UNL     1       5.331  -8.434  -1.432  1.00  0.00     0.034 A 
ATOM      9  C   UNL     1       3.045  -9.163  -1.604  1.00  0.00     0.048 A 
ATOM     10  C   UNL     1       5.729  -9.519  -2.222  1.00  0.00     0.049 A 
ATOM     11  C   UNL     1       4.769 -10.366  -2.770  1.00  0.00     0.128 A 
BRANCH   7  12
ATOM     12  N   UNL     1       3.590  -7.077  -0.409  1.00  0.00    -0.151 NA
ATOM     13  N   UNL     1       2.504  -6.639  -0.856  1.00  0.00    -0.151 NA
BRANCH  13  14
ATOM     14  C   UNL     1       2.131  -5.416  -0.278  1.00  0.00     0.086 A 
ATOM     15  C   UNL     1       1.225  -2.943   0.677  1.00  0.00     0.082 A 
ATOM     16  C   UNL     1       0.445  -4.088   0.868  1.00  0.00     0.024 A 
ATOM     17  C   UNL     1       2.446  -3.020   0.004  1.00  0.00     0.024 A 
ATOM     18  C   UNL     1       0.903  -5.319   0.390  1.00  0.00     0.031 A 
ATOM     19  C   UNL     1       2.891  -4.256  -0.475  1.00  0.00     0.031 A 
BRANCH  15  20
ATOM     20  S   UNL     1       0.623  -1.387   1.265  1.00  0.00     0.238 S 
ATOM     21  O   UNL     1       1.289  -1.083   2.506  1.00  0.00    -0.207 OA
ATOM     22  O   UNL     1      -0.815  -1.359   1.116  1.00  0.00    -0.207 OA
BRANCH  20  23
ATOM     23  N   UNL     1       1.198  -0.279   0.139  1.00  0.00    -0.225 NA
ATOM     24  H   UNL     1       0.896   0.660   0.400  1.00  0.00     0.137 HD
ATOM     25  H   UNL     1       0.831  -0.510  -0.784  1.00  0.00     0.137 HD
ENDBRANCH  20  23
ENDBRANCH  15  20
ENDBRANCH  13  14
ENDBRANCH   7  12
BRANCH  11  26
ATOM     26  O   UNL     1       5.229 -11.388  -3.556  1.00  0.00    -0.507 OA
ATOM     27  H   UNL     1       6.150 -11.492  -3.697  1.00  0.00     0.293 HD
ENDBRANCH  11  26
ENDBRANCH   3   6
ENDBRANCH   1   2
BRANCH   1  28
ATOM     28  C   UNL     1       0.064  -8.503  -4.804  1.00  0.00     0.023 C 
BRANCH  28  29
ATOM     29  C   UNL     1      -1.132  -9.239  -5.394  1.00  0.00     0.023 C 
BRANCH  29  30
ATOM     30  C   UNL     1      -2.277  -9.525  -4.433  1.00  0.00     0.116 C 
BRANCH  30  31
ATOM     31  N   UNL     1      -2.833  -8.335  -3.802  1.00  0.00    -0.352 N 
ATOM     32  C   UNL     1      -4.146  -7.936  -3.705  1.00  0.00     0.251 C 
ATOM     33  H   UNL     1      -2.176  -7.731  -3.386  1.00  0.00     0.163 HD
ATOM     34  O   UNL     1      -4.437  -6.859  -3.196  1.00  0.00    -0.269 OA
BRANCH  32  35
ATOM     35  C   UNL     1      -5.207  -8.800  -4.261  1.00  0.00     0.039 A 
ATOM     36  C   UNL     1      -6.142  -8.248  -5.141  1.00  0.00     0.014 A 
ATOM     37  C   UNL     1      -5.235 -10.164  -3.964  1.00  0.00     0.014 A 
ATOM     38  C   UNL     1      -7.049  -9.084  -5.798  1.00  0.00     0.010 A 
ATOM     39  C   UNL     1      -6.078 -11.003  -4.682  1.00  0.00     0.010 A 
ATOM     40  C   UNL     1      -6.991 -10.474  -5.609  1.00  0.00    -0.014 A 
BRANCH  40  41
ATOM     41  C   UNL     1      -7.875 -11.407  -6.351  1.00  0.00     0.031 A 
ATOM     42  C   UNL     1      -8.835 -12.278  -5.590  1.00  0.00     0.074 A 
ATOM     43  C   UNL     1      -7.742 -11.553  -7.684  1.00  0.00     0.049 A 
ATOM     44  N   UNL     1      -9.572 -13.272  -6.014  1.00  0.00    -0.248 NA
ATOM     45  C   UNL     1      -8.949 -12.017  -4.146  1.00  0.00     0.031 C 
ATOM     46  C   UNL     1      -6.818 -10.797  -8.531  1.00  0.00     0.029 A 
ATOM     47  N   UNL     1      -8.368 -12.408  -8.557  1.00  0.00    -0.354 N 
ATOM     48  C   UNL     1     -10.207 -13.775  -4.887  1.00  0.00     0.074 A 
ATOM     49  C   UNL     1      -9.731 -13.011  -3.755  1.00  0.00     0.031 C 
ATOM     50  C   UNL     1      -6.946 -11.213  -9.801  1.00  0.00     0.029 A 
ATOM     51  C   UNL     1      -7.926 -12.295  -9.852  1.00  0.00     0.049 A 
ATOM     52  H   UNL     1      -9.069 -13.042  -8.280  1.00  0.00     0.167 HD
ATOM     53  C   UNL     1     -11.122 -14.770  -4.806  1.00  0.00     0.037 A 
ATOM     54  C   UNL     1      -8.260 -12.997 -10.953  1.00  0.00     0.037 A 
ATOM     55  C   UNL     1     -11.618 -15.501  -5.942  1.00  0.00     0.049 A 
ATOM     56  C   UNL     1      -9.283 -14.095 -10.841  1.00  0.00     0.074 A 
ATOM     57  C   UNL     1     -12.593 -16.482  -5.977  1.00  0.00     0.029 A 
ATOM     58  N   UNL     1     -11.177 -15.327  -7.245  1.00  0.00    -0.354 N 
ATOM     59  N   UNL     1      -9.922 -14.526  -9.780  1.00  0.00    -0.248 NA
ATOM     60  C   UNL     1      -9.636 -14.803 -12.080  1.00  0.00     0.031 C 
ATOM     61  C   UNL     1     -12.708 -16.935  -7.295  1.00  0.00     0.029 A 
ATOM     62  C   UNL     1     -11.847 -16.196  -8.091  1.00  0.00     0.049 A 
ATOM     63  H   UNL     1     -10.489 -14.681  -7.528  1.00  0.00     0.167 HD
ATOM     64  C   UNL     1     -10.776 -15.525 -10.227  1.00  0.00     0.074 A 
ATOM     65  C   UNL     1     -10.575 -15.637 -11.657  1.00  0.00     0.031 C 
ATOM     66  C   UNL     1     -11.651 -16.278  -9.516  1.00  0.00     0.037 A 
BRANCH  53  67
ATOM     67  C   UNL     1     -11.638 -15.126  -3.442  1.00  0.00     0.064 A 
ATOM     68  C   UNL     1     -12.452 -14.248  -2.708  1.00  0.00     0.173 A 
ATOM     69  C   UNL     1     -11.325 -16.365  -2.864  1.00  0.00     0.173 A 
ATOM     70  F   UNL     1     -12.771 -13.045  -3.209  1.00  0.00    -0.203 F 
ATOM     71  C   UNL     1     -12.897 -14.581  -1.431  1.00  0.00     0.198 A 
ATOM     72  C   UNL     1     -11.801 -16.709  -1.602  1.00  0.00     0.198 A 
ATOM     73  F   UNL     1     -10.556 -17.245  -3.524  1.00  0.00    -0.203 F 
ATOM     74  F   UNL     1     -13.618 -13.700  -0.725  1.00  0.00    -0.200 F 
ATOM     75  C   UNL     1     -12.577 -15.813  -0.882  1.00  0.00     0.200 A 
ATOM     76  F   UNL     1     -11.502 -17.906  -1.078  1.00  0.00    -0.200 F 
ATOM     77  F   UNL     1     -13.007 -16.133   0.346  1.00  0.00    -0.200 F 
ENDBRANCH  53  67
BRANCH  54  78
ATOM     78  C   UNL     1      -7.637 -12.663 -12.260  1.00  0.00     0.064 A 
ATOM     79  C   UNL     1      -8.386 -12.056 -13.278  1.00  0.00     0.173 A 
ATOM     80  C   UNL     1      -6.285 -12.932 -12.518  1.00  0.00     0.173 A 
ATOM     81  F   UNL     1      -9.688 -11.797 -13.086  1.00  0.00    -0.203 F 
ATOM     82  C   UNL     1      -7.811 -11.744 -14.508  1.00  0.00     0.198 A 
ATOM     83  C   UNL     1      -5.704 -12.595 -13.739  1.00  0.00     0.198 A 
ATOM     84  F   UNL     1      -5.522 -13.507 -11.576  1.00  0.00    -0.203 F 
ATOM     85  F   UNL     1      -8.561 -11.200 -15.476  1.00  0.00    -0.200 F 
ATOM     86  C   UNL     1      -6.469 -12.007 -14.736  1.00  0.00     0.200 A 
ATOM     87  F   UNL     1      -4.403 -12.837 -13.950  1.00  0.00    -0.200 F 
ATOM     88  F   UNL     1      -5.915 -11.700 -15.916  1.00  0.00    -0.200 F 
ENDBRANCH  54  78
BRANCH  66  89
ATOM     89  C   UNL     1     -12.505 -17.253 -10.273  1.00  0.00     0.064 A 
ATOM     90  C   UNL     1     -11.981 -18.442 -10.799  1.00  0.00     0.173 A 
ATOM     91  C   UNL     1     -13.883 -17.024 -10.407  1.00  0.00     0.173 A 
ATOM     92  F   UNL     1     -10.668 -18.700 -10.709  1.00  0.00    -0.203 F 
ATOM     93  C   UNL     1     -12.805 -19.360 -11.445  1.00  0.00     0.198 A 
ATOM     94  C   UNL     1     -14.708 -17.957 -11.027  1.00  0.00     0.198 A 
ATOM     95  F   UNL     1     -14.433 -15.904  -9.914  1.00  0.00    -0.203 F 
ATOM     96  F   UNL     1     -12.279 -20.475 -11.972  1.00  0.00    -0.200 F 
ATOM     97  C   UNL     1     -14.168 -19.122 -11.550  1.00  0.00     0.200 A 
ATOM     98  F   UNL     1     -16.026 -17.732 -11.113  1.00  0.00    -0.200 F 
ATOM     99  F   UNL     1     -14.961 -20.016 -12.157  1.00  0.00    -0.200 F 
ENDBRANCH  66  89
ENDBRANCH  40  41
ENDBRANCH  32  35
ENDBRANCH  30  31
ENDBRANCH  29  30
ENDBRANCH  28  29
ENDBRANCH   1  28
TORSDOF 16
