REMARK SMILES CCc1ccc(S(=O)(=O)c2nnn(-c3ccc(C(=O)NCCCCNC(=O)c4ccc(-c5c6nc(c(-c7c(F)c(F)c(F)c(F)c7F)c7ccc([nH]7)c(-c7c(F)c(F)c(F)c(F)c7F)c7nc(c(-c8c(F)c(F)c(F)c(F)c8F)c8ccc5[nH]8)C=C7)C=C6)cc4)cc3)c2C)cc1
REMARK SMILES IDX 21 1 20 2 18 3 19 4 17 6 14 7 15 8 92 9 16 10 91 11 13 12
REMARK SMILES IDX 10 13 11 14 93 15 12 16 94 17 7 18 8 19 9 20 6 21 3 22 4 23
REMARK SMILES IDX 96 24 5 25 95 26 2 27 1 28 22 29 23 30 24 31 25 32 26 33
REMARK SMILES IDX 27 35 28 36 29 37 90 38 30 39 89 40 31 41 32 42 33 43 83 44
REMARK SMILES IDX 34 45 88 46 82 47 84 48 35 49 87 50 81 51 80 52 36 54 68 55
REMARK SMILES IDX 48 56 67 57 49 58 52 59 66 60 85 61 50 62 51 63 65 65 86 66
REMARK SMILES IDX 53 67 37 68 38 69 46 70 39 71 40 72 44 73 47 74 41 75 42 76
REMARK SMILES IDX 45 77 43 78 69 79 70 80 78 81 71 82 72 83 76 84 79 85 73 86
REMARK SMILES IDX 74 87 77 88 75 89 54 90 55 91 63 92 56 93 57 94 61 95 64 96
REMARK SMILES IDX 58 97 59 98 62 99 60 100
REMARK H PARENT 20 5 25 34 84 53 52 64
REMARK Flexibility Score: inf
ROOT
ATOM      1  C   UNL     1      -5.311   9.380   4.093  1.00  0.00     0.116 C 
ENDROOT
BRANCH   1   2
ATOM      2  N   UNL     1      -4.680  10.054   2.970  1.00  0.00    -0.352 N 
ATOM      3  C   UNL     1      -3.390  10.095   2.498  1.00  0.00     0.251 C 
ATOM      4  O   UNL     1      -3.190  10.746   1.472  1.00  0.00    -0.269 OA
ATOM      5  H   UNL     1      -5.308  10.594   2.437  1.00  0.00     0.163 HD
BRANCH   3   6
ATOM      6  C   UNL     1      -2.253   9.345   3.111  1.00  0.00     0.039 A 
ATOM      7  C   UNL     1      -0.191   7.685   4.016  1.00  0.00     0.067 A 
ATOM      8  C   UNL     1      -0.079   8.277   2.760  1.00  0.00     0.029 A 
ATOM      9  C   UNL     1      -1.246   8.016   4.867  1.00  0.00     0.029 A 
ATOM     10  C   UNL     1      -1.132   9.078   2.300  1.00  0.00     0.016 A 
ATOM     11  C   UNL     1      -2.241   8.886   4.428  1.00  0.00     0.016 A 
BRANCH   7  12
ATOM     12  N   UNL     1       0.714   6.690   4.423  1.00  0.00    -0.216 N 
ATOM     13  C   UNL     1       1.636   4.907   5.247  1.00  0.00     0.205 A 
ATOM     14  N   UNL     1       2.624   5.778   4.868  1.00  0.00    -0.117 NA
ATOM     15  C   UNL     1       0.402   5.428   4.895  1.00  0.00     0.081 A 
ATOM     16  N   UNL     1       2.048   6.822   4.283  1.00  0.00    -0.061 NA
ATOM     17  C   UNL     1      -0.948   4.814   4.799  1.00  0.00     0.070 C 
BRANCH  13  18
ATOM     18  S   UNL     1       1.983   3.313   5.824  1.00  0.00     0.227 S 
ATOM     19  O   UNL     1       0.960   3.079   6.835  1.00  0.00    -0.217 OA
ATOM     20  O   UNL     1       3.392   3.285   6.124  1.00  0.00    -0.217 OA
BRANCH  18  21
ATOM     21  C   UNL     1       1.671   2.199   4.480  1.00  0.00     0.073 A 
ATOM     22  C   UNL     1       1.019   0.391   2.435  1.00  0.00    -0.048 A 
ATOM     23  C   UNL     1       1.296  -0.065   3.734  1.00  0.00     0.005 A 
ATOM     24  C   UNL     1       1.066   1.768   2.183  1.00  0.00     0.005 A 
ATOM     25  C   UNL     1       1.615   0.832   4.757  1.00  0.00     0.021 A 
ATOM     26  C   UNL     1       1.415   2.667   3.189  1.00  0.00     0.021 A 
BRANCH  22  27
ATOM     27  C   UNL     1       0.615  -0.598   1.366  1.00  0.00     0.032 C 
ATOM     28  C   UNL     1       1.106  -0.262  -0.038  1.00  0.00     0.009 C 
ENDBRANCH  22  27
ENDBRANCH  18  21
ENDBRANCH  13  18
ENDBRANCH   7  12
ENDBRANCH   3   6
ENDBRANCH   1   2
BRANCH   1  29
ATOM     29  C   UNL     1      -5.437  10.310   5.306  1.00  0.00     0.023 C 
BRANCH  29  30
ATOM     30  C   UNL     1      -6.549  11.364   5.204  1.00  0.00     0.023 C 
BRANCH  30  31
ATOM     31  C   UNL     1      -7.964  10.798   5.174  1.00  0.00     0.116 C 
BRANCH  31  32
ATOM     32  N   UNL     1      -8.308  10.053   6.384  1.00  0.00    -0.352 N 
ATOM     33  C   UNL     1      -9.438   9.294   6.618  1.00  0.00     0.251 C 
ATOM     34  H   UNL     1      -7.655  10.096   7.120  1.00  0.00     0.163 HD
ATOM     35  O   UNL     1      -9.825   9.072   7.759  1.00  0.00    -0.269 OA
BRANCH  33  36
ATOM     36  C   UNL     1     -10.165   8.732   5.467  1.00  0.00     0.039 A 
ATOM     37  C   UNL     1     -11.562   8.712   5.423  1.00  0.00     0.014 A 
ATOM     38  C   UNL     1      -9.411   8.228   4.409  1.00  0.00     0.014 A 
ATOM     39  C   UNL     1     -12.189   8.250   4.268  1.00  0.00     0.010 A 
ATOM     40  C   UNL     1     -10.021   7.908   3.223  1.00  0.00     0.010 A 
ATOM     41  C   UNL     1     -11.409   7.868   3.162  1.00  0.00    -0.014 A 
BRANCH  41  42
ATOM     42  C   UNL     1     -12.027   7.581   1.871  1.00  0.00     0.031 A 
ATOM     43  C   UNL     1     -12.855   8.706   1.353  1.00  0.00     0.074 A 
ATOM     44  C   UNL     1     -11.702   6.505   1.119  1.00  0.00     0.049 A 
ATOM     45  N   UNL     1     -14.134   8.719   1.183  1.00  0.00    -0.248 NA
ATOM     46  C   UNL     1     -12.219  10.020   1.151  1.00  0.00     0.031 C 
ATOM     47  C   UNL     1     -10.672   5.494   1.384  1.00  0.00     0.029 A 
ATOM     48  N   UNL     1     -12.162   6.134  -0.109  1.00  0.00    -0.354 N 
ATOM     49  C   UNL     1     -14.441   9.969   0.652  1.00  0.00     0.074 A 
ATOM     50  C   UNL     1     -13.269  10.783   0.837  1.00  0.00     0.031 C 
ATOM     51  C   UNL     1     -10.429   4.781   0.261  1.00  0.00     0.029 A 
ATOM     52  C   UNL     1     -11.390   5.168  -0.755  1.00  0.00     0.049 A 
ATOM     53  H   UNL     1     -12.976   6.517  -0.509  1.00  0.00     0.167 HD
ATOM     54  C   UNL     1     -15.543  10.132  -0.131  1.00  0.00     0.037 A 
ATOM     55  C   UNL     1     -11.521   4.745  -2.041  1.00  0.00     0.037 A 
ATOM     56  C   UNL     1     -16.444   9.016   0.026  1.00  0.00     0.049 A 
ATOM     57  C   UNL     1     -12.882   5.130  -2.491  1.00  0.00     0.074 A 
ATOM     58  C   UNL     1     -17.142   8.472   1.087  1.00  0.00     0.029 A 
ATOM     59  N   UNL     1     -16.411   8.044  -0.941  1.00  0.00    -0.354 N 
ATOM     60  N   UNL     1     -13.974   4.597  -2.022  1.00  0.00    -0.248 NA
ATOM     61  C   UNL     1     -13.034   6.438  -3.107  1.00  0.00     0.031 C 
ATOM     62  C   UNL     1     -17.065   7.060   0.891  1.00  0.00     0.029 A 
ATOM     63  C   UNL     1     -16.413   6.824  -0.319  1.00  0.00     0.049 A 
ATOM     64  H   UNL     1     -16.390   8.196  -1.914  1.00  0.00     0.167 HD
ATOM     65  C   UNL     1     -14.836   5.670  -1.857  1.00  0.00     0.074 A 
ATOM     66  C   UNL     1     -14.232   6.765  -2.615  1.00  0.00     0.031 C 
ATOM     67  C   UNL     1     -15.788   5.650  -0.879  1.00  0.00     0.037 A 
BRANCH  54  68
ATOM     68  C   UNL     1     -15.621  11.048  -1.333  1.00  0.00     0.064 A 
ATOM     69  C   UNL     1     -16.849  11.157  -2.022  1.00  0.00     0.173 A 
ATOM     70  C   UNL     1     -14.497  11.556  -2.018  1.00  0.00     0.173 A 
ATOM     71  F   UNL     1     -17.983  10.696  -1.475  1.00  0.00    -0.203 F 
ATOM     72  C   UNL     1     -16.923  11.644  -3.329  1.00  0.00     0.198 A 
ATOM     73  C   UNL     1     -14.585  12.090  -3.303  1.00  0.00     0.198 A 
ATOM     74  F   UNL     1     -13.255  11.456  -1.534  1.00  0.00    -0.203 F 
ATOM     75  F   UNL     1     -18.087  11.596  -3.991  1.00  0.00    -0.200 F 
ATOM     76  C   UNL     1     -15.789  12.102  -3.973  1.00  0.00     0.200 A 
ATOM     77  F   UNL     1     -13.470  12.510  -3.917  1.00  0.00    -0.200 F 
ATOM     78  F   UNL     1     -15.845  12.506  -5.248  1.00  0.00    -0.200 F 
ENDBRANCH  54  68
BRANCH  55  79
ATOM     79  C   UNL     1     -10.481   4.320  -3.014  1.00  0.00     0.064 A 
ATOM     80  C   UNL     1     -10.832   3.674  -4.214  1.00  0.00     0.173 A 
ATOM     81  C   UNL     1      -9.166   4.815  -2.937  1.00  0.00     0.173 A 
ATOM     82  F   UNL     1     -12.077   3.208  -4.390  1.00  0.00    -0.203 F 
ATOM     83  C   UNL     1      -9.936   3.567  -5.284  1.00  0.00     0.198 A 
ATOM     84  C   UNL     1      -8.271   4.705  -4.005  1.00  0.00     0.198 A 
ATOM     85  F   UNL     1      -8.755   5.506  -1.864  1.00  0.00    -0.203 F 
ATOM     86  F   UNL     1     -10.332   3.007  -6.437  1.00  0.00    -0.200 F 
ATOM     87  C   UNL     1      -8.661   4.096  -5.184  1.00  0.00     0.200 A 
ATOM     88  F   UNL     1      -7.052   5.254  -3.909  1.00  0.00    -0.200 F 
ATOM     89  F   UNL     1      -7.825   4.058  -6.231  1.00  0.00    -0.200 F 
ENDBRANCH  55  79
BRANCH  67  90
ATOM     90  C   UNL     1     -16.074   4.339  -0.201  1.00  0.00     0.064 A 
ATOM     91  C   UNL     1     -15.141   3.600   0.549  1.00  0.00     0.173 A 
ATOM     92  C   UNL     1     -17.398   3.878  -0.214  1.00  0.00     0.173 A 
ATOM     93  F   UNL     1     -13.878   4.022   0.694  1.00  0.00    -0.203 F 
ATOM     94  C   UNL     1     -15.513   2.430   1.212  1.00  0.00     0.198 A 
ATOM     95  C   UNL     1     -17.774   2.735   0.482  1.00  0.00     0.198 A 
ATOM     96  F   UNL     1     -18.342   4.570  -0.871  1.00  0.00    -0.203 F 
ATOM     97  F   UNL     1     -14.602   1.731   1.905  1.00  0.00    -0.200 F 
ATOM     98  C   UNL     1     -16.830   2.003   1.184  1.00  0.00     0.200 A 
ATOM     99  F   UNL     1     -19.060   2.357   0.492  1.00  0.00    -0.200 F 
ATOM    100  F   UNL     1     -17.197   0.901   1.851  1.00  0.00    -0.200 F 
ENDBRANCH  67  90
ENDBRANCH  41  42
ENDBRANCH  33  36
ENDBRANCH  31  32
ENDBRANCH  30  31
ENDBRANCH  29  30
ENDBRANCH   1  29
TORSDOF 15
