REMARK SMILES CC[C@@H](C)N(C)c1ccc(/C=C/C(=O)NCCCCNC(=O)c2ccc(-c3c4nc(c(-c5c(F)c(F)c(F)c(F)c5F)c5ccc([nH]5)c(-c5c(F)c(F)c(F)c(F)c5F)c5nc(c(-c6c(F)c(F)c(F)c(F)c6F)c6ccc3[nH]6)C=C5)C=C4)cc2)cc1F
REMARK SMILES IDX 16 1 15 2 13 3 14 4 12 6 11 7 10 8 7 9 8 10 87 11 9 12 86 13
REMARK SMILES IDX 88 14 5 15 6 16 3 17 4 18 2 19 1 20 17 21 18 22 19 23 20 24
REMARK SMILES IDX 21 25 22 27 23 28 24 29 85 30 25 31 84 32 26 33 27 34 28 35
REMARK SMILES IDX 78 36 29 37 83 38 77 39 79 40 30 41 82 42 76 43 75 44 31 46
REMARK SMILES IDX 63 47 43 48 62 49 44 50 47 51 61 52 80 53 45 54 46 55 60 57
REMARK SMILES IDX 81 58 48 59 32 60 33 61 41 62 34 63 35 64 39 65 42 66 36 67
REMARK SMILES IDX 37 68 40 69 38 70 64 71 65 72 73 73 66 74 67 75 71 76 74 77
REMARK SMILES IDX 68 78 69 79 72 80 70 81 49 82 50 83 58 84 51 85 52 86 56 87
REMARK SMILES IDX 59 88 53 89 54 90 57 91 55 92
REMARK H PARENT 15 5 20 26 79 45 47 56
REMARK Flexibility Score: inf
ROOT
ATOM      1  C   UNL     1      -7.595  -3.109   2.316  1.00  0.00     0.116 C 
ENDROOT
BRANCH   1   2
ATOM      2  N   UNL     1      -7.833  -3.727   3.609  1.00  0.00    -0.353 N 
ATOM      3  C   UNL     1      -6.978  -3.935   4.650  1.00  0.00     0.243 C 
ATOM      4  O   UNL     1      -7.401  -4.375   5.715  1.00  0.00    -0.270 OA
ATOM      5  H   UNL     1      -8.753  -4.043   3.757  1.00  0.00     0.163 HD
BRANCH   3   6
ATOM      6  C   UNL     1      -5.555  -3.546   4.530  1.00  0.00     0.072 C 
ATOM      7  C   UNL     1      -4.778  -3.961   3.518  1.00  0.00     0.014 C 
BRANCH   7   8
ATOM      8  C   UNL     1      -3.381  -3.562   3.320  1.00  0.00    -0.022 A 
ATOM      9  C   UNL     1      -0.659  -2.876   2.797  1.00  0.00     0.073 A 
ATOM     10  C   UNL     1      -1.129  -3.091   4.104  1.00  0.00     0.029 A 
ATOM     11  C   UNL     1      -1.598  -3.031   1.766  1.00  0.00     0.147 A 
ATOM     12  C   UNL     1      -2.466  -3.431   4.366  1.00  0.00     0.010 A 
ATOM     13  C   UNL     1      -2.931  -3.363   2.014  1.00  0.00     0.049 A 
ATOM     14  F   UNL     1      -1.228  -2.930   0.480  1.00  0.00    -0.205 F 
BRANCH   9  15
ATOM     15  N   UNL     1       0.678  -2.568   2.554  1.00  0.00    -0.370 N 
ATOM     16  C   UNL     1       1.681  -3.403   3.206  1.00  0.00     0.144 C 
BRANCH  15  17
ATOM     17  C   UNL     1       1.099  -1.229   2.082  1.00  0.00     0.078 C 
ATOM     18  C   UNL     1       0.580  -0.123   3.005  1.00  0.00     0.031 C 
BRANCH  17  19
ATOM     19  C   UNL     1       0.738  -0.994   0.607  1.00  0.00     0.021 C 
ATOM     20  C   UNL     1       1.503   0.160  -0.029  1.00  0.00     0.006 C 
ENDBRANCH  17  19
ENDBRANCH  15  17
ENDBRANCH   9  15
ENDBRANCH   7   8
ENDBRANCH   3   6
ENDBRANCH   1   2
BRANCH   1  21
ATOM     21  C   UNL     1      -7.607  -4.146   1.192  1.00  0.00     0.023 C 
BRANCH  21  22
ATOM     22  C   UNL     1      -9.000  -4.654   0.810  1.00  0.00     0.023 C 
BRANCH  22  23
ATOM     23  C   UNL     1      -9.957  -3.590   0.285  1.00  0.00     0.116 C 
BRANCH  23  24
ATOM     24  N   UNL     1      -9.462  -2.895  -0.893  1.00  0.00    -0.352 N 
ATOM     25  C   UNL     1     -10.179  -2.373  -1.944  1.00  0.00     0.251 C 
ATOM     26  H   UNL     1      -8.485  -2.785  -0.945  1.00  0.00     0.163 HD
ATOM     27  O   UNL     1      -9.605  -1.900  -2.916  1.00  0.00    -0.269 OA
BRANCH  25  28
ATOM     28  C   UNL     1     -11.655  -2.429  -1.909  1.00  0.00     0.039 A 
ATOM     29  C   UNL     1     -12.332  -2.940  -3.019  1.00  0.00     0.014 A 
ATOM     30  C   UNL     1     -12.362  -2.013  -0.778  1.00  0.00     0.014 A 
ATOM     31  C   UNL     1     -13.718  -3.103  -2.966  1.00  0.00     0.010 A 
ATOM     32  C   UNL     1     -13.733  -2.236  -0.703  1.00  0.00     0.010 A 
ATOM     33  C   UNL     1     -14.423  -2.788  -1.793  1.00  0.00    -0.014 A 
BRANCH  33  34
ATOM     34  C   UNL     1     -15.880  -3.044  -1.681  1.00  0.00     0.031 A 
ATOM     35  C   UNL     1     -16.837  -1.898  -1.528  1.00  0.00     0.074 A 
ATOM     36  C   UNL     1     -16.331  -4.313  -1.652  1.00  0.00     0.049 A 
ATOM     37  N   UNL     1     -18.133  -1.923  -1.341  1.00  0.00    -0.248 NA
ATOM     38  C   UNL     1     -16.262  -0.544  -1.566  1.00  0.00     0.031 C 
ATOM     39  C   UNL     1     -15.493  -5.509  -1.750  1.00  0.00     0.029 A 
ATOM     40  N   UNL     1     -17.605  -4.809  -1.526  1.00  0.00    -0.354 N 
ATOM     41  C   UNL     1     -18.522  -0.596  -1.228  1.00  0.00     0.074 A 
ATOM     42  C   UNL     1     -17.323   0.208  -1.317  1.00  0.00     0.031 C 
ATOM     43  C   UNL     1     -16.276  -6.598  -1.709  1.00  0.00     0.029 A 
ATOM     44  C   UNL     1     -17.666  -6.180  -1.545  1.00  0.00     0.049 A 
ATOM     45  H   UNL     1     -18.399  -4.235  -1.431  1.00  0.00     0.167 HD
ATOM     46  C   UNL     1     -19.772  -0.095  -1.088  1.00  0.00     0.037 A 
ATOM     47  C   UNL     1     -18.723  -7.008  -1.439  1.00  0.00     0.037 A 
ATOM     48  C   UNL     1     -20.965  -0.897  -1.031  1.00  0.00     0.049 A 
ATOM     49  C   UNL     1     -20.100  -6.426  -1.278  1.00  0.00     0.074 A 
ATOM     50  C   UNL     1     -22.281  -0.477  -0.944  1.00  0.00     0.029 A 
ATOM     51  N   UNL     1     -20.986  -2.283  -1.060  1.00  0.00    -0.354 N 
ATOM     52  N   UNL     1     -20.462  -5.167  -1.221  1.00  0.00    -0.248 NA
ATOM     53  C   UNL     1     -21.216  -7.376  -1.170  1.00  0.00     0.031 C 
ATOM     54  C   UNL     1     -23.097  -1.611  -0.881  1.00  0.00     0.029 A 
ATOM     55  C   UNL     1     -22.293  -2.736  -0.975  1.00  0.00     0.049 A 
ATOM     56  H   UNL     1     -20.192  -2.860  -1.130  1.00  0.00     0.167 HD
ATOM     57  C   UNL     1     -21.844  -5.173  -1.092  1.00  0.00     0.074 A 
ATOM     58  C   UNL     1     -22.259  -6.560  -1.092  1.00  0.00     0.031 C 
ATOM     59  C   UNL     1     -22.691  -4.120  -0.984  1.00  0.00     0.037 A 
BRANCH  46  60
ATOM     60  C   UNL     1     -19.921   1.395  -1.005  1.00  0.00     0.064 A 
ATOM     61  C   UNL     1     -20.327   2.007   0.191  1.00  0.00     0.173 A 
ATOM     62  C   UNL     1     -19.724   2.213  -2.127  1.00  0.00     0.173 A 
ATOM     63  F   UNL     1     -20.534   1.269   1.292  1.00  0.00    -0.203 F 
ATOM     64  C   UNL     1     -20.541   3.381   0.255  1.00  0.00     0.198 A 
ATOM     65  C   UNL     1     -19.911   3.591  -2.052  1.00  0.00     0.198 A 
ATOM     66  F   UNL     1     -19.323   1.678  -3.291  1.00  0.00    -0.203 F 
ATOM     67  F   UNL     1     -20.956   3.940   1.400  1.00  0.00    -0.200 F 
ATOM     68  C   UNL     1     -20.328   4.172  -0.864  1.00  0.00     0.200 A 
ATOM     69  F   UNL     1     -19.682   4.356  -3.128  1.00  0.00    -0.200 F 
ATOM     70  F   UNL     1     -20.523   5.496  -0.797  1.00  0.00    -0.200 F 
ENDBRANCH  46  60
BRANCH  47  71
ATOM     71  C   UNL     1     -18.517  -8.476  -1.524  1.00  0.00     0.064 A 
ATOM     72  C   UNL     1     -17.883  -9.189  -0.496  1.00  0.00     0.173 A 
ATOM     73  C   UNL     1     -18.926  -9.191  -2.659  1.00  0.00     0.173 A 
ATOM     74  F   UNL     1     -17.469  -8.550   0.608  1.00  0.00    -0.203 F 
ATOM     75  C   UNL     1     -17.651 -10.558  -0.608  1.00  0.00     0.198 A 
ATOM     76  C   UNL     1     -18.715 -10.564  -2.759  1.00  0.00     0.198 A 
ATOM     77  F   UNL     1     -19.554  -8.555  -3.659  1.00  0.00    -0.203 F 
ATOM     78  F   UNL     1     -17.015 -11.211   0.374  1.00  0.00    -0.200 F 
ATOM     79  C   UNL     1     -18.070 -11.245  -1.738  1.00  0.00     0.200 A 
ATOM     80  F   UNL     1     -19.141 -11.227  -3.843  1.00  0.00    -0.200 F 
ATOM     81  F   UNL     1     -17.855 -12.564  -1.841  1.00  0.00    -0.200 F 
ENDBRANCH  47  71
BRANCH  59  82
ATOM     82  C   UNL     1     -24.157  -4.415  -0.878  1.00  0.00     0.064 A 
ATOM     83  C   UNL     1     -25.020  -4.114  -1.943  1.00  0.00     0.173 A 
ATOM     84  C   UNL     1     -24.720  -4.911   0.306  1.00  0.00     0.173 A 
ATOM     85  F   UNL     1     -24.530  -3.630  -3.094  1.00  0.00    -0.203 F 
ATOM     86  C   UNL     1     -26.396  -4.283  -1.819  1.00  0.00     0.198 A 
ATOM     87  C   UNL     1     -26.094  -5.103   0.418  1.00  0.00     0.198 A 
ATOM     88  F   UNL     1     -23.934  -5.224   1.347  1.00  0.00    -0.203 F 
ATOM     89  F   UNL     1     -27.204  -3.955  -2.836  1.00  0.00    -0.200 F 
ATOM     90  C   UNL     1     -26.931  -4.779  -0.640  1.00  0.00     0.200 A 
ATOM     91  F   UNL     1     -26.609  -5.602   1.550  1.00  0.00    -0.200 F 
ATOM     92  F   UNL     1     -28.256  -4.945  -0.523  1.00  0.00    -0.200 F 
ENDBRANCH  59  82
ENDBRANCH  33  34
ENDBRANCH  25  28
ENDBRANCH  23  24
ENDBRANCH  22  23
ENDBRANCH  21  22
ENDBRANCH   1  21
TORSDOF 15
