REMARK SMILES Nc1c(CC(=O)NCCCCNC(=O)c2ccc(-c3c4nc(c(-c5c(F)c(F)c(F)c(F)c5F)c5ccc([nH]5)c(-c5c(F)c(F)c(F)c(F)c5F)c5nc(c(-c6c(F)c(F)c(F)c(F)c6F)c6ccc3[nH]6)C=C5)C=C4)cc2)cccc1C(=O)c1ccc(Br)cc1
REMARK SMILES IDX 9 1 8 2 7 3 5 4 6 5 4 7 3 8 2 9 81 10 78 11 80 12 79 13 1 14
REMARK SMILES IDX 82 17 83 18 84 19 85 20 90 21 86 22 89 23 87 24 88 25 10 26
REMARK SMILES IDX 11 27 12 28 13 29 14 31 15 32 16 33 77 34 17 35 76 36 18 37
REMARK SMILES IDX 19 38 20 39 70 40 21 41 75 42 69 43 71 44 22 45 74 46 68 47
REMARK SMILES IDX 67 48 23 50 55 51 35 52 54 53 36 54 39 55 53 56 72 57 37 58
REMARK SMILES IDX 38 59 52 61 73 62 40 63 24 64 25 65 33 66 26 67 27 68 31 69
REMARK SMILES IDX 34 70 28 71 29 72 32 73 30 74 56 75 57 76 65 77 58 78 59 79
REMARK SMILES IDX 63 80 66 81 60 82 61 83 64 84 62 85 41 86 42 87 50 88 43 89
REMARK SMILES IDX 44 90 48 91 51 92 45 93 46 94 49 95 47 96
REMARK H PARENT 7 6 1 15 1 16 12 30 71 49 39 60
REMARK Flexibility Score: inf
ROOT
ATOM      1  C   UNL     1       0.643  -0.688   3.330  1.00  0.00     0.023 C 
ENDROOT
BRANCH   1   2
ATOM      2  C   UNL     1       1.589  -1.767   2.804  1.00  0.00     0.116 C 
BRANCH   2   3
ATOM      3  N   UNL     1       0.876  -2.976   2.448  1.00  0.00    -0.356 N 
ATOM      4  C   UNL     1       0.442  -3.385   1.220  1.00  0.00     0.224 C 
ATOM      5  O   UNL     1      -0.223  -4.422   1.158  1.00  0.00    -0.275 OA
ATOM      6  H   UNL     1       0.677  -3.587   3.194  1.00  0.00     0.163 HD
BRANCH   4   7
ATOM      7  C   UNL     1       0.830  -2.623  -0.039  1.00  0.00     0.137 C 
BRANCH   7   8
ATOM      8  C   UNL     1       0.226  -1.234  -0.158  1.00  0.00    -0.015 A 
ATOM      9  C   UNL     1       1.014  -0.050  -0.181  1.00  0.00     0.046 A 
ATOM     10  C   UNL     1       0.358   1.209  -0.183  1.00  0.00     0.046 A 
ATOM     11  C   UNL     1      -1.179  -1.146  -0.180  1.00  0.00     0.006 A 
ATOM     12  C   UNL     1      -1.051   1.252  -0.185  1.00  0.00     0.014 A 
ATOM     13  C   UNL     1      -1.813   0.088  -0.191  1.00  0.00     0.001 A 
BRANCH   9  14
ATOM     14  N   UNL     1       2.398  -0.182  -0.149  1.00  0.00    -0.398 N 
ATOM     15  H   UNL     1       2.807  -1.077  -0.149  1.00  0.00     0.156 HD
ATOM     16  H   UNL     1       2.969   0.620  -0.126  1.00  0.00     0.156 HD
ENDBRANCH   9  14
BRANCH  10  17
ATOM     17  C   UNL     1       1.022   2.559  -0.131  1.00  0.00     0.195 C 
ATOM     18  O   UNL     1       0.360   3.566   0.121  1.00  0.00    -0.289 OA
BRANCH  17  19
ATOM     19  C   UNL     1       2.473   2.759  -0.292  1.00  0.00     0.023 A 
ATOM     20  C   UNL     1       3.176   3.334   0.774  1.00  0.00     0.013 A 
ATOM     21  C   UNL     1       3.146   2.349  -1.447  1.00  0.00     0.013 A 
ATOM     22  C   UNL     1       4.567   3.427   0.718  1.00  0.00     0.016 A 
ATOM     23  C   UNL     1       4.540   2.430  -1.494  1.00  0.00     0.016 A 
ATOM     24  C   UNL     1       5.244   2.956  -0.407  1.00  0.00     0.018 A 
ATOM     25  Br  UNL     1       7.133   3.006  -0.450  1.00  0.00    -0.051 Br
ENDBRANCH  17  19
ENDBRANCH  10  17
ENDBRANCH   7   8
ENDBRANCH   4   7
ENDBRANCH   2   3
ENDBRANCH   1   2
BRANCH   1  26
ATOM     26  C   UNL     1       0.101  -0.966   4.734  1.00  0.00     0.023 C 
BRANCH  26  27
ATOM     27  C   UNL     1       1.167  -1.115   5.813  1.00  0.00     0.116 C 
BRANCH  27  28
ATOM     28  N   UNL     1       2.004   0.066   5.955  1.00  0.00    -0.352 N 
ATOM     29  C   UNL     1       2.545   0.600   7.097  1.00  0.00     0.251 C 
ATOM     30  H   UNL     1       2.209   0.546   5.121  1.00  0.00     0.163 HD
ATOM     31  O   UNL     1       3.129   1.681   7.055  1.00  0.00    -0.269 OA
BRANCH  29  32
ATOM     32  C   UNL     1       2.398  -0.110   8.385  1.00  0.00     0.039 A 
ATOM     33  C   UNL     1       2.052   0.626   9.521  1.00  0.00     0.014 A 
ATOM     34  C   UNL     1       2.598  -1.490   8.478  1.00  0.00     0.014 A 
ATOM     35  C   UNL     1       1.867  -0.029  10.739  1.00  0.00     0.010 A 
ATOM     36  C   UNL     1       2.331  -2.152   9.673  1.00  0.00     0.010 A 
ATOM     37  C   UNL     1       1.981  -1.427  10.821  1.00  0.00    -0.014 A 
BRANCH  37  38
ATOM     38  C   UNL     1       1.762  -2.133  12.109  1.00  0.00     0.031 A 
ATOM     39  C   UNL     1       2.889  -2.884  12.763  1.00  0.00     0.074 A 
ATOM     40  C   UNL     1       0.539  -2.123  12.675  1.00  0.00     0.049 A 
ATOM     41  N   UNL     1       2.895  -3.557  13.886  1.00  0.00    -0.248 NA
ATOM     42  C   UNL     1       4.175  -2.905  12.049  1.00  0.00     0.031 C 
ATOM     43  C   UNL     1      -0.649  -1.481  12.110  1.00  0.00     0.029 A 
ATOM     44  N   UNL     1       0.093  -2.669  13.852  1.00  0.00    -0.354 N 
ATOM     45  C   UNL     1       4.174  -4.084  14.006  1.00  0.00     0.074 A 
ATOM     46  C   UNL     1       4.898  -3.711  12.811  1.00  0.00     0.031 C 
ATOM     47  C   UNL     1      -1.678  -1.639  12.957  1.00  0.00     0.029 A 
ATOM     48  C   UNL     1      -1.233  -2.420  14.107  1.00  0.00     0.049 A 
ATOM     49  H   UNL     1       0.670  -3.189  14.458  1.00  0.00     0.167 HD
ATOM     50  C   UNL     1       4.708  -4.788  15.032  1.00  0.00     0.037 A 
ATOM     51  C   UNL     1      -2.002  -2.780  15.152  1.00  0.00     0.037 A 
ATOM     52  C   UNL     1       3.990  -5.140  16.230  1.00  0.00     0.049 A 
ATOM     53  C   UNL     1      -1.384  -3.563  16.280  1.00  0.00     0.074 A 
ATOM     54  C   UNL     1       4.456  -5.800  17.353  1.00  0.00     0.029 A 
ATOM     55  N   UNL     1       2.650  -4.863  16.456  1.00  0.00    -0.354 N 
ATOM     56  N   UNL     1      -0.151  -3.984  16.420  1.00  0.00    -0.248 NA
ATOM     57  C   UNL     1      -2.266  -3.908  17.403  1.00  0.00     0.031 C 
ATOM     58  C   UNL     1       3.384  -5.971  18.236  1.00  0.00     0.029 A 
ATOM     59  C   UNL     1       2.265  -5.362  17.691  1.00  0.00     0.049 A 
ATOM     60  H   UNL     1       2.059  -4.383  15.832  1.00  0.00     0.167 HD
ATOM     61  C   UNL     1      -0.101  -4.618  17.654  1.00  0.00     0.074 A 
ATOM     62  C   UNL     1      -1.423  -4.503  18.233  1.00  0.00     0.031 C 
ATOM     63  C   UNL     1       0.944  -5.241  18.254  1.00  0.00     0.037 A 
BRANCH  50  64
ATOM     64  C   UNL     1       6.141  -5.222  14.906  1.00  0.00     0.064 A 
ATOM     65  C   UNL     1       7.197  -4.297  14.925  1.00  0.00     0.173 A 
ATOM     66  C   UNL     1       6.467  -6.583  14.795  1.00  0.00     0.173 A 
ATOM     67  F   UNL     1       6.942  -2.983  15.016  1.00  0.00    -0.203 F 
ATOM     68  C   UNL     1       8.520  -4.714  14.804  1.00  0.00     0.198 A 
ATOM     69  C   UNL     1       7.794  -6.999  14.709  1.00  0.00     0.198 A 
ATOM     70  F   UNL     1       5.499  -7.511  14.777  1.00  0.00    -0.203 F 
ATOM     71  F   UNL     1       9.506  -3.807  14.767  1.00  0.00    -0.200 F 
ATOM     72  C   UNL     1       8.818  -6.064  14.704  1.00  0.00     0.200 A 
ATOM     73  F   UNL     1       8.080  -8.305  14.628  1.00  0.00    -0.200 F 
ATOM     74  F   UNL     1      10.092  -6.465  14.595  1.00  0.00    -0.200 F 
ENDBRANCH  50  64
BRANCH  51  75
ATOM     75  C   UNL     1      -3.433  -2.378  15.198  1.00  0.00     0.064 A 
ATOM     76  C   UNL     1      -3.892  -1.450  16.144  1.00  0.00     0.173 A 
ATOM     77  C   UNL     1      -4.372  -2.921  14.309  1.00  0.00     0.173 A 
ATOM     78  F   UNL     1      -3.037  -0.918  17.029  1.00  0.00    -0.203 F 
ATOM     79  C   UNL     1      -5.239  -1.102  16.217  1.00  0.00     0.198 A 
ATOM     80  C   UNL     1      -5.714  -2.547  14.362  1.00  0.00     0.198 A 
ATOM     81  F   UNL     1      -3.985  -3.807  13.381  1.00  0.00    -0.203 F 
ATOM     82  F   UNL     1      -5.659  -0.255  17.166  1.00  0.00    -0.200 F 
ATOM     83  C   UNL     1      -6.148  -1.646  15.322  1.00  0.00     0.200 A 
ATOM     84  F   UNL     1      -6.586  -3.063  13.485  1.00  0.00    -0.200 F 
ATOM     85  F   UNL     1      -7.443  -1.309  15.392  1.00  0.00    -0.200 F 
ENDBRANCH  51  75
BRANCH  63  86
ATOM     86  C   UNL     1       0.705  -5.818  19.621  1.00  0.00     0.064 A 
ATOM     87  C   UNL     1      -0.122  -6.935  19.817  1.00  0.00     0.173 A 
ATOM     88  C   UNL     1       1.324  -5.256  20.748  1.00  0.00     0.173 A 
ATOM     89  F   UNL     1      -0.749  -7.503  18.775  1.00  0.00    -0.203 F 
ATOM     90  C   UNL     1      -0.351  -7.441  21.094  1.00  0.00     0.198 A 
ATOM     91  C   UNL     1       1.122  -5.788  22.018  1.00  0.00     0.198 A 
ATOM     92  F   UNL     1       2.132  -4.193  20.616  1.00  0.00    -0.203 F 
ATOM     93  F   UNL     1      -1.196  -8.467  21.263  1.00  0.00    -0.200 F 
ATOM     94  C   UNL     1       0.276  -6.871  22.192  1.00  0.00     0.200 A 
ATOM     95  F   UNL     1       1.743  -5.246  23.076  1.00  0.00    -0.200 F 
ATOM     96  F   UNL     1       0.055  -7.361  23.419  1.00  0.00    -0.200 F 
ENDBRANCH  63  86
ENDBRANCH  37  38
ENDBRANCH  29  32
ENDBRANCH  27  28
ENDBRANCH  26  27
ENDBRANCH   1  26
TORSDOF 15
