REMARK SMILES O=C(NCCCCNC(=O)c1cccc(S(=O)(=O)NC[C@@H]2COc3ccccc3O2)c1)c1ccc(-c2c3nc(c(-c4c(F)c(F)c(F)c(F)c4F)c4ccc([nH]4)c(-c4c(F)c(F)c(F)c(F)c4F)c4nc(c(-c5c(F)c(F)c(F)c(F)c5F)c5ccc2[nH]5)C=C4)C=C3)cc1
REMARK SMILES IDX 6 1 5 2 4 3 3 4 1 5 2 6 32 8 33 9 94 10 34 11 93 12 35 13
REMARK SMILES IDX 36 14 37 15 87 16 38 17 92 18 86 19 88 20 39 21 91 22 85 23
REMARK SMILES IDX 84 24 40 26 72 27 52 28 71 29 53 30 56 31 70 32 89 33 54 34
REMARK SMILES IDX 55 35 69 37 90 38 57 39 41 40 42 41 50 42 43 43 44 44 48 45
REMARK SMILES IDX 51 46 45 47 46 48 49 49 47 50 73 51 74 52 82 53 75 54 76 55
REMARK SMILES IDX 80 56 83 57 77 58 78 59 81 60 79 61 58 62 59 63 67 64 60 65
REMARK SMILES IDX 61 66 65 67 68 68 62 69 63 70 66 71 64 72 7 73 8 74 9 75
REMARK SMILES IDX 10 77 11 78 12 79 31 80 13 81 15 82 14 83 16 84 17 85 18 86
REMARK SMILES IDX 19 87 20 89 21 90 22 91 30 92 23 93 29 94 24 95 28 96 25 97
REMARK SMILES IDX 27 98 26 99
REMARK H PARENT 3 7 88 25 56 36 8 76 19 88
REMARK Flexibility Score: inf
ROOT
ATOM      1  C   UNL     1       4.367  -2.920   2.426  1.00  0.00     0.023 C 
ENDROOT
BRANCH   1   2
ATOM      2  C   UNL     1       4.937  -1.574   1.978  1.00  0.00     0.023 C 
BRANCH   2   3
ATOM      3  C   UNL     1       4.648  -1.190   0.531  1.00  0.00     0.116 C 
BRANCH   3   4
ATOM      4  N   UNL     1       3.225  -1.084   0.249  1.00  0.00    -0.352 N 
ATOM      5  O   UNL     1       1.252  -0.082  -0.170  1.00  0.00    -0.269 OA
ATOM      6  C   UNL     1       2.476   0.004  -0.128  1.00  0.00     0.251 C 
ATOM      7  H   UNL     1       2.720  -1.924   0.343  1.00  0.00     0.163 HD
BRANCH   6   8
ATOM      8  C   UNL     1       3.133   1.286  -0.459  1.00  0.00     0.039 A 
ATOM      9  C   UNL     1       4.266   1.327  -1.274  1.00  0.00     0.014 A 
ATOM     10  C   UNL     1       2.588   2.474   0.041  1.00  0.00     0.014 A 
ATOM     11  C   UNL     1       4.939   2.530  -1.465  1.00  0.00     0.010 A 
ATOM     12  C   UNL     1       3.220   3.693  -0.218  1.00  0.00     0.010 A 
ATOM     13  C   UNL     1       4.421   3.726  -0.943  1.00  0.00    -0.014 A 
BRANCH  13  14
ATOM     14  C   UNL     1       5.129   5.005  -1.201  1.00  0.00     0.031 A 
ATOM     15  C   UNL     1       5.756   5.782  -0.078  1.00  0.00     0.074 A 
ATOM     16  C   UNL     1       5.221   5.454  -2.467  1.00  0.00     0.049 A 
ATOM     17  N   UNL     1       6.411   6.916  -0.124  1.00  0.00    -0.248 NA
ATOM     18  C   UNL     1       5.627   5.219   1.274  1.00  0.00     0.031 C 
ATOM     19  C   UNL     1       4.643   4.791  -3.637  1.00  0.00     0.029 A 
ATOM     20  N   UNL     1       5.841   6.562  -2.984  1.00  0.00    -0.354 N 
ATOM     21  C   UNL     1       6.753   7.212   1.189  1.00  0.00     0.074 A 
ATOM     22  C   UNL     1       6.215   6.150   2.014  1.00  0.00     0.031 C 
ATOM     23  C   UNL     1       4.966   5.484  -4.739  1.00  0.00     0.029 A 
ATOM     24  C   UNL     1       5.726   6.666  -4.348  1.00  0.00     0.049 A 
ATOM     25  H   UNL     1       6.322   7.219  -2.431  1.00  0.00     0.167 HD
ATOM     26  C   UNL     1       7.459   8.268   1.659  1.00  0.00     0.037 A 
ATOM     27  C   UNL     1       6.170   7.617  -5.191  1.00  0.00     0.037 A 
ATOM     28  C   UNL     1       8.011   9.311   0.832  1.00  0.00     0.049 A 
ATOM     29  C   UNL     1       6.937   8.783  -4.641  1.00  0.00     0.074 A 
ATOM     30  C   UNL     1       8.774  10.402   1.212  1.00  0.00     0.029 A 
ATOM     31  N   UNL     1       7.856   9.393  -0.544  1.00  0.00    -0.354 N 
ATOM     32  N   UNL     1       7.279   9.036  -3.401  1.00  0.00    -0.248 NA
ATOM     33  C   UNL     1       7.378   9.799  -5.606  1.00  0.00     0.031 C 
ATOM     34  C   UNL     1       9.047  11.165   0.071  1.00  0.00     0.029 A 
ATOM     35  C   UNL     1       8.492  10.527  -1.026  1.00  0.00     0.049 A 
ATOM     36  H   UNL     1       7.367   8.742  -1.097  1.00  0.00     0.167 HD
ATOM     37  C   UNL     1       7.984  10.229  -3.436  1.00  0.00     0.074 A 
ATOM     38  C   UNL     1       8.038  10.642  -4.824  1.00  0.00     0.031 C 
ATOM     39  C   UNL     1       8.534  10.923  -2.410  1.00  0.00     0.037 A 
BRANCH  26  40
ATOM     40  C   UNL     1       7.665   8.363   3.143  1.00  0.00     0.064 A 
ATOM     41  C   UNL     1       8.552   7.513   3.820  1.00  0.00     0.173 A 
ATOM     42  C   UNL     1       7.001   9.348   3.890  1.00  0.00     0.173 A 
ATOM     43  F   UNL     1       9.203   6.548   3.153  1.00  0.00    -0.203 F 
ATOM     44  C   UNL     1       8.750   7.631   5.194  1.00  0.00     0.198 A 
ATOM     45  C   UNL     1       7.219   9.479   5.259  1.00  0.00     0.198 A 
ATOM     46  F   UNL     1       6.146  10.190   3.290  1.00  0.00    -0.203 F 
ATOM     47  F   UNL     1       9.572   6.783   5.826  1.00  0.00    -0.200 F 
ATOM     48  C   UNL     1       8.089   8.618   5.910  1.00  0.00     0.200 A 
ATOM     49  F   UNL     1       6.588  10.440   5.948  1.00  0.00    -0.200 F 
ATOM     50  F   UNL     1       8.285   8.734   7.231  1.00  0.00    -0.200 F 
ENDBRANCH  26  40
BRANCH  27  51
ATOM     51  C   UNL     1       5.894   7.491  -6.644  1.00  0.00     0.064 A 
ATOM     52  C   UNL     1       6.921   7.194  -7.548  1.00  0.00     0.173 A 
ATOM     53  C   UNL     1       4.595   7.635  -7.151  1.00  0.00     0.173 A 
ATOM     54  F   UNL     1       8.183   7.066  -7.111  1.00  0.00    -0.203 F 
ATOM     55  C   UNL     1       6.660   7.052  -8.909  1.00  0.00     0.198 A 
ATOM     56  C   UNL     1       4.330   7.466  -8.507  1.00  0.00     0.198 A 
ATOM     57  F   UNL     1       3.577   7.913  -6.322  1.00  0.00    -0.203 F 
ATOM     58  F   UNL     1       7.664   6.797  -9.759  1.00  0.00    -0.200 F 
ATOM     59  C   UNL     1       5.363   7.180  -9.386  1.00  0.00     0.200 A 
ATOM     60  F   UNL     1       3.074   7.574  -8.961  1.00  0.00    -0.200 F 
ATOM     61  F   UNL     1       5.111   7.029 -10.693  1.00  0.00    -0.200 F 
ENDBRANCH  27  51
BRANCH  39  62
ATOM     62  C   UNL     1       9.260  12.188  -2.755  1.00  0.00     0.064 A 
ATOM     63  C   UNL     1       8.568  13.353  -3.119  1.00  0.00     0.173 A 
ATOM     64  C   UNL     1      10.660  12.244  -2.695  1.00  0.00     0.173 A 
ATOM     65  F   UNL     1       7.230  13.343  -3.208  1.00  0.00    -0.203 F 
ATOM     66  C   UNL     1       9.255  14.523  -3.431  1.00  0.00     0.198 A 
ATOM     67  C   UNL     1      11.342  13.422  -2.983  1.00  0.00     0.198 A 
ATOM     68  F   UNL     1      11.366  11.157  -2.349  1.00  0.00    -0.203 F 
ATOM     69  F   UNL     1       8.577  15.612  -3.818  1.00  0.00    -0.200 F 
ATOM     70  C   UNL     1      10.640  14.558  -3.357  1.00  0.00     0.200 A 
ATOM     71  F   UNL     1      12.679  13.458  -2.903  1.00  0.00    -0.200 F 
ATOM     72  F   UNL     1      11.299  15.687  -3.655  1.00  0.00    -0.200 F 
ENDBRANCH  39  62
ENDBRANCH  13  14
ENDBRANCH   6   8
ENDBRANCH   3   4
ENDBRANCH   2   3
ENDBRANCH   1   2
BRANCH   1  73
ATOM     73  C   UNL     1       4.725  -4.111   1.542  1.00  0.00     0.116 C 
BRANCH  73  74
ATOM     74  N   UNL     1       6.161  -4.312   1.447  1.00  0.00    -0.352 N 
ATOM     75  C   UNL     1       6.915  -5.431   1.691  1.00  0.00     0.251 C 
ATOM     76  H   UNL     1       6.673  -3.522   1.161  1.00  0.00     0.163 HD
ATOM     77  O   UNL     1       8.139  -5.334   1.732  1.00  0.00    -0.269 OA
BRANCH  75  78
ATOM     78  C   UNL     1       6.290  -6.766   1.842  1.00  0.00     0.041 A 
ATOM     79  C   UNL     1       6.844  -7.691   2.731  1.00  0.00     0.014 A 
ATOM     80  C   UNL     1       5.257  -7.162   0.997  1.00  0.00     0.035 A 
ATOM     81  C   UNL     1       6.345  -8.998   2.783  1.00  0.00     0.002 A 
ATOM     82  C   UNL     1       4.800  -8.477   1.006  1.00  0.00     0.083 A 
ATOM     83  C   UNL     1       5.327  -9.399   1.911  1.00  0.00     0.022 A 
BRANCH  82  84
ATOM     84  S   UNL     1       3.583  -8.998  -0.178  1.00  0.00     0.240 S 
ATOM     85  O   UNL     1       4.189  -9.978  -1.045  1.00  0.00    -0.207 OA
ATOM     86  O   UNL     1       2.370  -9.249   0.566  1.00  0.00    -0.207 OA
BRANCH  84  87
ATOM     87  N   UNL     1       3.274  -7.591  -1.078  1.00  0.00    -0.207 NA
ATOM     88  H   UNL     1       3.615  -6.806  -0.522  1.00  0.00     0.141 HD
BRANCH  87  89
ATOM     89  C   UNL     1       3.852  -7.432  -2.443  1.00  0.00     0.147 C 
BRANCH  89  90
ATOM     90  C   UNL     1       5.391  -7.443  -2.533  1.00  0.00     0.226 C 
ATOM     91  C   UNL     1       6.060  -6.087  -2.283  1.00  0.00     0.276 C 
ATOM     92  O   UNL     1       5.778  -7.958  -3.825  1.00  0.00    -0.482 OA
ATOM     93  O   UNL     1       5.686  -5.119  -3.264  1.00  0.00    -0.486 OA
ATOM     94  C   UNL     1       5.968  -6.994  -4.778  1.00  0.00     0.161 A 
ATOM     95  C   UNL     1       5.918  -5.622  -4.516  1.00  0.00     0.161 A 
ATOM     96  C   UNL     1       6.242  -7.440  -6.068  1.00  0.00     0.050 A 
ATOM     97  C   UNL     1       6.112  -4.699  -5.539  1.00  0.00     0.050 A 
ATOM     98  C   UNL     1       6.460  -6.517  -7.093  1.00  0.00     0.004 A 
ATOM     99  C   UNL     1       6.393  -5.147  -6.829  1.00  0.00     0.004 A 
ENDBRANCH  89  90
ENDBRANCH  87  89
ENDBRANCH  84  87
ENDBRANCH  82  84
ENDBRANCH  75  78
ENDBRANCH  73  74
ENDBRANCH   1  73
TORSDOF 15
