REMARK SMILES CC1CCN(S(=O)(=O)N2CCC[C@H](c3cccc(C(=O)NCCCCNC(=O)c4ccc(-c5c6nc(c(-c7c(F)c(F)c(F)c(F)c7F)c7ccc([nH]7)c(-c7c(F)c(F)c(F)c(F)c7F)c7nc(c(-c8c(F)c(F)c(F)c(F)c8F)c8ccc5[nH]8)C=C7)C=C6)cc4)c3)C2)CC1
REMARK SMILES IDX 23 1 22 2 21 3 19 4 20 5 18 7 14 8 15 9 92 10 16 11 17 12
REMARK SMILES IDX 13 13 9 14 10 15 93 16 11 17 12 18 6 19 7 20 8 21 5 22 1 23
REMARK SMILES IDX 2 24 3 25 95 26 4 27 94 28 24 29 25 30 26 31 27 32 28 34
REMARK SMILES IDX 29 35 30 36 91 37 31 38 90 39 32 40 33 41 34 42 84 43 35 44
REMARK SMILES IDX 89 45 83 46 85 47 36 48 88 49 82 50 81 51 37 53 69 54 49 55
REMARK SMILES IDX 68 56 50 57 53 58 67 59 86 60 51 61 52 62 66 64 87 65 54 66
REMARK SMILES IDX 38 67 39 68 47 69 40 70 41 71 45 72 48 73 42 74 43 75 46 76
REMARK SMILES IDX 44 77 70 78 71 79 79 80 72 81 73 82 77 83 80 84 74 85 75 86
REMARK SMILES IDX 78 87 76 88 55 89 56 90 64 91 57 92 58 93 62 94 65 95 59 96
REMARK SMILES IDX 60 97 63 98 61 99
REMARK H PARENT 21 6 26 33 85 52 53 63
REMARK Flexibility Score: inf
ROOT
ATOM      1  C   UNL     1       2.884  -8.778  -4.214  1.00  0.00     0.023 C 
ENDROOT
BRANCH   1   2
ATOM      2  C   UNL     1       3.489  -7.501  -4.776  1.00  0.00     0.116 C 
BRANCH   2   3
ATOM      3  N   UNL     1       3.438  -7.366  -6.228  1.00  0.00    -0.352 N 
ATOM      4  C   UNL     1       3.120  -6.286  -7.035  1.00  0.00     0.251 C 
ATOM      5  O   UNL     1       3.143  -6.434  -8.255  1.00  0.00    -0.269 OA
ATOM      6  H   UNL     1       3.671  -8.187  -6.720  1.00  0.00     0.163 HD
BRANCH   4   7
ATOM      7  C   UNL     1       2.682  -4.983  -6.463  1.00  0.00     0.040 A 
ATOM      8  C   UNL     1       2.424  -3.618  -4.470  1.00  0.00    -0.043 A 
ATOM      9  C   UNL     1       1.459  -2.856  -5.142  1.00  0.00     0.004 A 
ATOM     10  C   UNL     1       3.135  -4.560  -5.219  1.00  0.00     0.017 A 
ATOM     11  C   UNL     1       1.151  -3.119  -6.482  1.00  0.00     0.001 A 
ATOM     12  C   UNL     1       1.723  -4.217  -7.127  1.00  0.00     0.014 A 
BRANCH   8  13
ATOM     13  C   UNL     1       2.547  -3.687  -2.950  1.00  0.00     0.034 C 
ATOM     14  N   UNL     1       2.589  -1.319  -2.221  1.00  0.00    -0.188 NA
ATOM     15  C   UNL     1       4.000  -1.379  -1.799  1.00  0.00     0.103 C 
ATOM     16  C   UNL     1       1.839  -2.588  -2.155  1.00  0.00     0.111 C 
ATOM     17  C   UNL     1       4.728  -2.509  -2.528  1.00  0.00     0.017 C 
ATOM     18  C   UNL     1       3.975  -3.825  -2.389  1.00  0.00     0.011 C 
BRANCH  14  19
ATOM     19  S   UNL     1       1.755   0.110  -1.974  1.00  0.00     0.281 S 
ATOM     20  O   UNL     1       0.445  -0.039  -2.561  1.00  0.00    -0.195 OA
ATOM     21  O   UNL     1       2.614   1.203  -2.379  1.00  0.00    -0.195 OA
BRANCH  19  22
ATOM     22  N   UNL     1       1.600   0.217  -0.284  1.00  0.00    -0.189 NA
ATOM     23  C   UNL     1      -2.653   0.089  -0.001  1.00  0.00     0.008 C 
ATOM     24  C   UNL     1      -1.225   0.208   0.530  1.00  0.00    -0.012 C 
ATOM     25  C   UNL     1      -0.542   1.470  -0.035  1.00  0.00     0.020 C 
ATOM     26  C   UNL     1      -0.444  -1.081   0.232  1.00  0.00     0.020 C 
ATOM     27  C   UNL     1       0.975   1.496   0.171  1.00  0.00     0.104 C 
ATOM     28  C   UNL     1       1.036  -0.890   0.516  1.00  0.00     0.104 C 
ENDBRANCH  19  22
ENDBRANCH  14  19
ENDBRANCH   8  13
ENDBRANCH   4   7
ENDBRANCH   2   3
ENDBRANCH   1   2
BRANCH   1  29
ATOM     29  C   UNL     1       3.566 -10.076  -4.616  1.00  0.00     0.023 C 
BRANCH  29  30
ATOM     30  C   UNL     1       5.069 -10.133  -4.376  1.00  0.00     0.116 C 
BRANCH  30  31
ATOM     31  N   UNL     1       5.451  -9.950  -2.980  1.00  0.00    -0.352 N 
ATOM     32  C   UNL     1       6.163 -10.783  -2.148  1.00  0.00     0.251 C 
ATOM     33  H   UNL     1       5.155  -9.104  -2.573  1.00  0.00     0.163 HD
ATOM     34  O   UNL     1       6.307 -10.503  -0.962  1.00  0.00    -0.269 OA
BRANCH  32  35
ATOM     35  C   UNL     1       6.712 -12.047  -2.680  1.00  0.00     0.039 A 
ATOM     36  C   UNL     1       6.439 -13.240  -2.006  1.00  0.00     0.014 A 
ATOM     37  C   UNL     1       7.426 -12.062  -3.880  1.00  0.00     0.014 A 
ATOM     38  C   UNL     1       6.776 -14.458  -2.599  1.00  0.00     0.010 A 
ATOM     39  C   UNL     1       7.682 -13.276  -4.510  1.00  0.00     0.010 A 
ATOM     40  C   UNL     1       7.337 -14.486  -3.887  1.00  0.00    -0.014 A 
BRANCH  40  41
ATOM     41  C   UNL     1       7.518 -15.762  -4.625  1.00  0.00     0.031 A 
ATOM     42  C   UNL     1       8.889 -16.211  -5.042  1.00  0.00     0.074 A 
ATOM     43  C   UNL     1       6.433 -16.470  -4.999  1.00  0.00     0.049 A 
ATOM     44  N   UNL     1       9.236 -17.237  -5.776  1.00  0.00    -0.248 NA
ATOM     45  C   UNL     1      10.018 -15.381  -4.595  1.00  0.00     0.031 C 
ATOM     46  C   UNL     1       5.045 -16.114  -4.696  1.00  0.00     0.029 A 
ATOM     47  N   UNL     1       6.323 -17.626  -5.732  1.00  0.00    -0.354 N 
ATOM     48  C   UNL     1      10.618 -17.171  -5.886  1.00  0.00     0.074 A 
ATOM     49  C   UNL     1      11.042 -15.975  -5.191  1.00  0.00     0.031 C 
ATOM     50  C   UNL     1       4.227 -17.041  -5.218  1.00  0.00     0.029 A 
ATOM     51  C   UNL     1       5.025 -18.027  -5.939  1.00  0.00     0.049 A 
ATOM     52  H   UNL     1       7.101 -18.121  -6.076  1.00  0.00     0.167 HD
ATOM     53  C   UNL     1      11.458 -18.042  -6.495  1.00  0.00     0.037 A 
ATOM     54  C   UNL     1       4.531 -19.061  -6.648  1.00  0.00     0.037 A 
ATOM     55  C   UNL     1      11.031 -19.236  -7.178  1.00  0.00     0.049 A 
ATOM     56  C   UNL     1       5.486 -19.987  -7.353  1.00  0.00     0.074 A 
ATOM     57  C   UNL     1      11.809 -20.214  -7.771  1.00  0.00     0.029 A 
ATOM     58  N   UNL     1       9.708 -19.606  -7.372  1.00  0.00    -0.354 N 
ATOM     59  N   UNL     1       6.796 -19.961  -7.382  1.00  0.00    -0.248 NA
ATOM     60  C   UNL     1       4.891 -21.086  -8.128  1.00  0.00     0.031 C 
ATOM     61  C   UNL     1      10.957 -21.141  -8.380  1.00  0.00     0.029 A 
ATOM     62  C   UNL     1       9.648 -20.776  -8.112  1.00  0.00     0.049 A 
ATOM     63  H   UNL     1       8.927 -19.110  -7.033  1.00  0.00     0.167 HD
ATOM     64  C   UNL     1       7.183 -21.046  -8.157  1.00  0.00     0.074 A 
ATOM     65  C   UNL     1       5.969 -21.726  -8.559  1.00  0.00     0.031 C 
ATOM     66  C   UNL     1       8.431 -21.441  -8.508  1.00  0.00     0.037 A 
BRANCH  53  67
ATOM     67  C   UNL     1      12.928 -17.735  -6.455  1.00  0.00     0.064 A 
ATOM     68  C   UNL     1      13.663 -17.797  -5.260  1.00  0.00     0.173 A 
ATOM     69  C   UNL     1      13.621 -17.417  -7.633  1.00  0.00     0.173 A 
ATOM     70  F   UNL     1      13.048 -18.087  -4.103  1.00  0.00    -0.203 F 
ATOM     71  C   UNL     1      15.027 -17.521  -5.242  1.00  0.00     0.198 A 
ATOM     72  C   UNL     1      14.992 -17.176  -7.616  1.00  0.00     0.198 A 
ATOM     73  F   UNL     1      12.970 -17.351  -8.804  1.00  0.00    -0.203 F 
ATOM     74  F   UNL     1      15.696 -17.535  -4.081  1.00  0.00    -0.200 F 
ATOM     75  C   UNL     1      15.693 -17.220  -6.421  1.00  0.00     0.200 A 
ATOM     76  F   UNL     1      15.636 -16.900  -8.759  1.00  0.00    -0.200 F 
ATOM     77  F   UNL     1      17.008 -16.965  -6.403  1.00  0.00    -0.200 F 
ENDBRANCH  53  67
BRANCH  54  78
ATOM     78  C   UNL     1       3.061 -19.276  -6.730  1.00  0.00     0.064 A 
ATOM     79  C   UNL     1       2.462 -20.398  -6.140  1.00  0.00     0.173 A 
ATOM     80  C   UNL     1       2.227 -18.375  -7.409  1.00  0.00     0.173 A 
ATOM     81  F   UNL     1       3.219 -21.300  -5.499  1.00  0.00    -0.203 F 
ATOM     82  C   UNL     1       1.091 -20.622  -6.245  1.00  0.00     0.198 A 
ATOM     83  C   UNL     1       0.851 -18.583  -7.485  1.00  0.00     0.198 A 
ATOM     84  F   UNL     1       2.747 -17.283  -7.989  1.00  0.00    -0.203 F 
ATOM     85  F   UNL     1       0.553 -21.730  -5.716  1.00  0.00    -0.200 F 
ATOM     86  C   UNL     1       0.285 -19.711  -6.912  1.00  0.00     0.200 A 
ATOM     87  F   UNL     1       0.075 -17.691  -8.115  1.00  0.00    -0.200 F 
ATOM     88  F   UNL     1      -1.034 -19.925  -7.008  1.00  0.00    -0.200 F 
ENDBRANCH  54  78
BRANCH  66  89
ATOM     89  C   UNL     1       8.552 -22.673  -9.359  1.00  0.00     0.064 A 
ATOM     90  C   UNL     1       8.158 -22.677 -10.706  1.00  0.00     0.173 A 
ATOM     91  C   UNL     1       9.111 -23.849  -8.836  1.00  0.00     0.173 A 
ATOM     92  F   UNL     1       7.603 -21.584 -11.250  1.00  0.00    -0.203 F 
ATOM     93  C   UNL     1       8.299 -23.820 -11.489  1.00  0.00     0.198 A 
ATOM     94  C   UNL     1       9.282 -24.978  -9.632  1.00  0.00     0.198 A 
ATOM     95  F   UNL     1       9.510 -23.897  -7.556  1.00  0.00    -0.203 F 
ATOM     96  F   UNL     1       7.871 -23.815 -12.759  1.00  0.00    -0.200 F 
ATOM     97  C   UNL     1       8.869 -24.965 -10.955  1.00  0.00     0.200 A 
ATOM     98  F   UNL     1       9.849 -26.078  -9.118  1.00  0.00    -0.200 F 
ATOM     99  F   UNL     1       9.015 -26.059 -11.715  1.00  0.00    -0.200 F 
ENDBRANCH  66  89
ENDBRANCH  40  41
ENDBRANCH  32  35
ENDBRANCH  30  31
ENDBRANCH  29  30
ENDBRANCH   1  29
TORSDOF 14
