REMARK SMILES Cc1ccccc1N(CCC(=O)NCCCCNC(=O)c1ccc(-c2c3nc(c(-c4c(F)c(F)c(F)c(F)c4F)c4ccc([nH]4)c(-c4c(F)c(F)c(F)c(F)c4F)c4nc(c(-c5c(F)c(F)c(F)c(F)c5F)c5ccc2[nH]5)C=C4)C=C3)cc1)C(=O)[C@@H]1C=C[C@H]([NH3+])C1
REMARK SMILES IDX 14 1 13 2 11 3 12 4 10 6 9 7 8 8 7 9 1 10 2 11 3 12 4 13
REMARK SMILES IDX 6 14 5 15 84 16 85 17 86 18 87 19 91 20 88 21 89 22 90 23
REMARK SMILES IDX 15 27 16 28 17 29 18 30 19 31 20 33 21 34 22 35 83 36 23 37
REMARK SMILES IDX 82 38 24 39 25 40 26 41 76 42 27 43 81 44 75 45 77 46 28 47
REMARK SMILES IDX 80 48 74 49 73 50 29 52 61 53 41 54 60 55 42 56 45 57 59 58
REMARK SMILES IDX 78 59 43 60 44 61 58 63 79 64 46 65 30 66 31 67 39 68 32 69
REMARK SMILES IDX 33 70 37 71 40 72 34 73 35 74 38 75 36 76 62 77 63 78 71 79
REMARK SMILES IDX 64 80 65 81 69 82 72 83 66 84 67 85 70 86 68 87 47 88 48 89
REMARK SMILES IDX 56 90 49 91 50 92 54 93 57 94 51 95 52 96 55 97 53 98
REMARK H PARENT 13 5 90 24 90 25 90 26 18 32 77 51 45 62
REMARK Flexibility Score: inf
ROOT
ATOM      1  C   UNL     1       1.490   3.724   3.054  1.00  0.00     0.116 C 
ENDROOT
BRANCH   1   2
ATOM      2  N   UNL     1       1.331   3.432   1.637  1.00  0.00    -0.356 N 
ATOM      3  C   UNL     1       1.661   2.343   0.894  1.00  0.00     0.221 C 
ATOM      4  O   UNL     1       1.261   2.287  -0.271  1.00  0.00    -0.275 OA
ATOM      5  H   UNL     1       0.906   4.156   1.123  1.00  0.00     0.163 HD
BRANCH   3   6
ATOM      6  C   UNL     1       2.518   1.239   1.454  1.00  0.00     0.122 C 
BRANCH   6   7
ATOM      7  C   UNL     1       3.817   1.095   0.638  1.00  0.00     0.135 C 
BRANCH   7   8
ATOM      8  N   UNL     1       4.868   2.087   1.004  1.00  0.00    -0.311 N 
BRANCH   8   9
ATOM      9  C   UNL     1       5.575   1.817   2.308  1.00  0.00     0.047 A 
ATOM     10  C   UNL     1       7.294   3.809   2.493  1.00  0.00     0.046 C 
ATOM     11  C   UNL     1       6.514   2.627   3.005  1.00  0.00    -0.027 A 
ATOM     12  C   UNL     1       6.846   2.324   4.363  1.00  0.00     0.005 A 
ATOM     13  C   UNL     1       6.409   1.180   5.010  1.00  0.00     0.000 A 
ATOM     14  C   UNL     1       5.237   0.612   2.998  1.00  0.00     0.026 A 
ATOM     15  C   UNL     1       5.638   0.292   4.303  1.00  0.00     0.002 A 
ENDBRANCH   8   9
BRANCH   8  16
ATOM     16  C   UNL     1       5.023   3.256   0.208  1.00  0.00     0.234 C 
ATOM     17  O   UNL     1       5.734   4.215   0.520  1.00  0.00    -0.274 OA
BRANCH  16  18
ATOM     18  C   UNL     1       4.257   3.404  -1.154  1.00  0.00     0.108 C 
ATOM     19  C   UNL     1       5.195   3.828  -2.258  1.00  0.00    -0.012 C 
ATOM     20  C   UNL     1       3.257   4.578  -1.169  1.00  0.00     0.087 C 
ATOM     21  C   UNL     1       5.043   5.119  -2.585  1.00  0.00     0.033 C 
ATOM     22  C   UNL     1       3.993   5.785  -1.760  1.00  0.00     0.205 C 
BRANCH  22  23
ATOM     23  N   UNL     1       4.589   6.625  -0.732  1.00  0.00    -0.352 N 
ATOM     24  H   UNL     1       5.221   6.065  -0.160  1.00  0.00     0.345 HD
ATOM     25  H   UNL     1       3.853   7.016  -0.143  1.00  0.00     0.345 HD
ATOM     26  H   UNL     1       5.111   7.383  -1.172  1.00  0.00     0.345 HD
ENDBRANCH  22  23
ENDBRANCH  16  18
ENDBRANCH   8  16
ENDBRANCH   7   8
ENDBRANCH   6   7
ENDBRANCH   3   6
ENDBRANCH   1   2
BRANCH   1  27
ATOM     27  C   UNL     1       2.905   4.061   3.528  1.00  0.00     0.023 C 
BRANCH  27  28
ATOM     28  C   UNL     1       3.655   5.124   2.727  1.00  0.00     0.023 C 
BRANCH  28  29
ATOM     29  C   UNL     1       3.692   6.521   3.324  1.00  0.00     0.116 C 
BRANCH  29  30
ATOM     30  N   UNL     1       5.032   7.122   3.343  1.00  0.00    -0.352 N 
ATOM     31  C   UNL     1       5.383   8.447   3.573  1.00  0.00     0.251 C 
ATOM     32  H   UNL     1       5.780   6.505   3.170  1.00  0.00     0.163 HD
ATOM     33  O   UNL     1       6.532   8.809   3.712  1.00  0.00    -0.269 OA
BRANCH  31  34
ATOM     34  C   UNL     1       4.261   9.393   3.748  1.00  0.00     0.039 A 
ATOM     35  C   UNL     1       3.907   9.686   5.068  1.00  0.00     0.014 A 
ATOM     36  C   UNL     1       3.354   9.502   2.696  1.00  0.00     0.014 A 
ATOM     37  C   UNL     1       2.559   9.782   5.380  1.00  0.00     0.010 A 
ATOM     38  C   UNL     1       2.010   9.534   3.020  1.00  0.00     0.010 A 
ATOM     39  C   UNL     1       1.624   9.551   4.371  1.00  0.00    -0.014 A 
BRANCH  39  40
ATOM     40  C   UNL     1       0.268   9.099   4.670  1.00  0.00     0.031 A 
ATOM     41  C   UNL     1      -0.881   9.992   4.430  1.00  0.00     0.074 A 
ATOM     42  C   UNL     1       0.051   7.841   5.130  1.00  0.00     0.049 A 
ATOM     43  N   UNL     1      -2.036   9.828   4.983  1.00  0.00    -0.248 NA
ATOM     44  C   UNL     1      -0.802  11.200   3.612  1.00  0.00     0.031 C 
ATOM     45  C   UNL     1      -1.225   7.127   5.189  1.00  0.00     0.029 A 
ATOM     46  N   UNL     1       0.933   7.018   5.857  1.00  0.00    -0.354 N 
ATOM     47  C   UNL     1      -2.909  10.669   4.344  1.00  0.00     0.074 A 
ATOM     48  C   UNL     1      -2.077  11.606   3.635  1.00  0.00     0.031 C 
ATOM     49  C   UNL     1      -1.149   6.173   6.128  1.00  0.00     0.029 A 
ATOM     50  C   UNL     1       0.129   6.331   6.796  1.00  0.00     0.049 A 
ATOM     51  H   UNL     1       1.907   6.938   5.736  1.00  0.00     0.167 HD
ATOM     52  C   UNL     1      -4.233  10.359   4.348  1.00  0.00     0.037 A 
ATOM     53  C   UNL     1       0.303   6.462   8.142  1.00  0.00     0.037 A 
ATOM     54  C   UNL     1      -4.551   9.376   5.383  1.00  0.00     0.049 A 
ATOM     55  C   UNL     1      -0.924   6.931   8.886  1.00  0.00     0.074 A 
ATOM     56  C   UNL     1      -4.965   8.057   5.364  1.00  0.00     0.029 A 
ATOM     57  N   UNL     1      -4.229   9.668   6.708  1.00  0.00    -0.354 N 
ATOM     58  N   UNL     1      -1.968   7.447   8.302  1.00  0.00    -0.248 NA
ATOM     59  C   UNL     1      -1.048   6.917  10.341  1.00  0.00     0.031 C 
ATOM     60  C   UNL     1      -4.793   7.529   6.674  1.00  0.00     0.029 A 
ATOM     61  C   UNL     1      -4.324   8.540   7.497  1.00  0.00     0.049 A 
ATOM     62  H   UNL     1      -3.969  10.559   7.037  1.00  0.00     0.167 HD
ATOM     63  C   UNL     1      -2.846   7.896   9.251  1.00  0.00     0.074 A 
ATOM     64  C   UNL     1      -2.246   7.505  10.512  1.00  0.00     0.031 C 
ATOM     65  C   UNL     1      -3.971   8.590   8.910  1.00  0.00     0.037 A 
BRANCH  52  66
ATOM     66  C   UNL     1      -5.212  10.796   3.279  1.00  0.00     0.064 A 
ATOM     67  C   UNL     1      -6.590  10.539   3.431  1.00  0.00     0.173 A 
ATOM     68  C   UNL     1      -4.848  11.334   2.022  1.00  0.00     0.173 A 
ATOM     69  F   UNL     1      -7.072  10.005   4.563  1.00  0.00    -0.203 F 
ATOM     70  C   UNL     1      -7.518  10.797   2.414  1.00  0.00     0.198 A 
ATOM     71  C   UNL     1      -5.783  11.649   1.034  1.00  0.00     0.198 A 
ATOM     72  F   UNL     1      -3.573  11.510   1.662  1.00  0.00    -0.203 F 
ATOM     73  F   UNL     1      -8.807  10.472   2.590  1.00  0.00    -0.200 F 
ATOM     74  C   UNL     1      -7.117  11.367   1.222  1.00  0.00     0.200 A 
ATOM     75  F   UNL     1      -5.367  12.194  -0.119  1.00  0.00    -0.200 F 
ATOM     76  F   UNL     1      -8.004  11.620   0.251  1.00  0.00    -0.200 F 
ENDBRANCH  52  66
BRANCH  53  77
ATOM     77  C   UNL     1       1.702   6.775   8.527  1.00  0.00     0.064 A 
ATOM     78  C   UNL     1       2.697   5.812   8.271  1.00  0.00     0.173 A 
ATOM     79  C   UNL     1       2.117   8.089   8.771  1.00  0.00     0.173 A 
ATOM     80  F   UNL     1       2.348   4.539   8.026  1.00  0.00    -0.203 F 
ATOM     81  C   UNL     1       4.037   6.171   8.150  1.00  0.00     0.198 A 
ATOM     82  C   UNL     1       3.462   8.443   8.658  1.00  0.00     0.198 A 
ATOM     83  F   UNL     1       1.214   9.053   8.998  1.00  0.00    -0.203 F 
ATOM     84  F   UNL     1       4.946   5.251   7.798  1.00  0.00    -0.200 F 
ATOM     85  C   UNL     1       4.414   7.493   8.315  1.00  0.00     0.200 A 
ATOM     86  F   UNL     1       3.825   9.728   8.784  1.00  0.00    -0.200 F 
ATOM     87  F   UNL     1       5.685   7.860   8.102  1.00  0.00    -0.200 F 
ENDBRANCH  53  77
BRANCH  65  88
ATOM     88  C   UNL     1      -4.868   9.329   9.874  1.00  0.00     0.064 A 
ATOM     89  C   UNL     1      -4.423   9.913  11.073  1.00  0.00     0.173 A 
ATOM     90  C   UNL     1      -6.216   9.590   9.533  1.00  0.00     0.173 A 
ATOM     91  F   UNL     1      -3.138   9.847  11.446  1.00  0.00    -0.203 F 
ATOM     92  C   UNL     1      -5.280  10.640  11.905  1.00  0.00     0.198 A 
ATOM     93  C   UNL     1      -7.053  10.363  10.338  1.00  0.00     0.198 A 
ATOM     94  F   UNL     1      -6.751   9.120   8.397  1.00  0.00    -0.203 F 
ATOM     95  F   UNL     1      -4.818  11.139  13.060  1.00  0.00    -0.200 F 
ATOM     96  C   UNL     1      -6.591  10.873  11.534  1.00  0.00     0.200 A 
ATOM     97  F   UNL     1      -8.306  10.623   9.939  1.00  0.00    -0.200 F 
ATOM     98  F   UNL     1      -7.398  11.603  12.315  1.00  0.00    -0.200 F 
ENDBRANCH  65  88
ENDBRANCH  39  40
ENDBRANCH  31  34
ENDBRANCH  29  30
ENDBRANCH  28  29
ENDBRANCH  27  28
ENDBRANCH   1  27
TORSDOF 17
