REMARK SMILES C[C@@H](C(=O)NCCCCNC(=O)c1ccc(-c2c3nc(c(-c4c(F)c(F)c(F)c(F)c4F)c4ccc([nH]4)c(-c4c(F)c(F)c(F)c(F)c4F)c4nc(c(-c5c(F)c(F)c(F)c(F)c5F)c5ccc2[nH]5)C=C4)C=C3)cc1)c1ccc(O[C@H]2CCCC2=O)cc1F
REMARK SMILES IDX 7 1 6 2 5 3 3 4 4 5 2 7 1 8 76 9 77 10 88 11 78 12 87 13
REMARK SMILES IDX 89 14 79 15 80 16 81 17 82 18 85 19 83 20 84 21 86 22 8 23
REMARK SMILES IDX 9 24 10 25 11 26 12 28 13 29 14 30 75 31 15 32 74 33 16 34
REMARK SMILES IDX 17 35 18 36 68 37 19 38 73 39 67 40 69 41 20 42 72 43 66 44
REMARK SMILES IDX 65 45 21 47 53 48 33 49 52 50 34 51 37 52 51 53 70 54 35 55
REMARK SMILES IDX 36 56 50 58 71 59 38 60 22 61 23 62 31 63 24 64 25 65 29 66
REMARK SMILES IDX 32 67 26 68 27 69 30 70 28 71 54 72 55 73 63 74 56 75 57 76
REMARK SMILES IDX 61 77 64 78 58 79 59 80 62 81 60 82 39 83 40 84 48 85 41 86
REMARK SMILES IDX 42 87 46 88 49 89 43 90 44 91 47 92 45 93
REMARK H PARENT 5 6 10 27 69 46 37 57
REMARK Flexibility Score: inf
ROOT
ATOM      1  C   UNL     1       4.287  -0.667   1.001  1.00  0.00     0.023 C 
ENDROOT
BRANCH   1   2
ATOM      2  C   UNL     1       3.465  -1.810   0.398  1.00  0.00     0.116 C 
BRANCH   2   3
ATOM      3  N   UNL     1       2.397  -2.192   1.296  1.00  0.00    -0.356 N 
ATOM      4  C   UNL     1       1.087  -1.807   1.313  1.00  0.00     0.227 C 
ATOM      5  O   UNL     1       0.448  -2.076   2.333  1.00  0.00    -0.274 OA
ATOM      6  H   UNL     1       2.654  -2.827   2.003  1.00  0.00     0.163 HD
BRANCH   4   7
ATOM      7  C   UNL     1       0.465  -1.098   0.093  1.00  0.00     0.108 C 
ATOM      8  C   UNL     1       0.966   0.347  -0.014  1.00  0.00     0.023 C 
BRANCH   7   9
ATOM      9  C   UNL     1      -1.060  -1.201   0.121  1.00  0.00     0.000 A 
ATOM     10  C   UNL     1      -1.904  -0.096   0.282  1.00  0.00     0.011 A 
ATOM     11  C   UNL     1      -1.662  -2.463   0.031  1.00  0.00     0.130 A 
ATOM     12  C   UNL     1      -3.289  -0.266   0.356  1.00  0.00     0.047 A 
ATOM     13  C   UNL     1      -3.045  -2.638   0.124  1.00  0.00     0.086 A 
ATOM     14  F   UNL     1      -0.895  -3.550  -0.147  1.00  0.00    -0.207 F 
ATOM     15  C   UNL     1      -3.870  -1.534   0.285  1.00  0.00     0.123 A 
BRANCH  15  16
ATOM     16  O   UNL     1      -5.226  -1.514   0.396  1.00  0.00    -0.483 OA
BRANCH  16  17
ATOM     17  C   UNL     1      -6.014  -2.660   0.207  1.00  0.00     0.239 C 
ATOM     18  C   UNL     1      -6.109  -3.121  -1.254  1.00  0.00     0.054 C 
ATOM     19  C   UNL     1      -5.835  -3.957   0.989  1.00  0.00     0.173 C 
ATOM     20  C   UNL     1      -5.798  -4.616  -1.272  1.00  0.00     0.012 C 
ATOM     21  C   UNL     1      -6.098  -5.154   0.119  1.00  0.00     0.080 C 
ATOM     22  O   UNL     1      -5.581  -4.032   2.184  1.00  0.00    -0.296 OA
ENDBRANCH  16  17
ENDBRANCH  15  16
ENDBRANCH   7   9
ENDBRANCH   4   7
ENDBRANCH   2   3
ENDBRANCH   1   2
BRANCH   1  23
ATOM     23  C   UNL     1       5.082  -1.043   2.256  1.00  0.00     0.023 C 
BRANCH  23  24
ATOM     24  C   UNL     1       6.085  -2.176   2.076  1.00  0.00     0.116 C 
BRANCH  24  25
ATOM     25  N   UNL     1       7.056  -1.907   1.028  1.00  0.00    -0.352 N 
ATOM     26  C   UNL     1       8.399  -2.174   0.994  1.00  0.00     0.251 C 
ATOM     27  H   UNL     1       6.695  -1.469   0.224  1.00  0.00     0.163 HD
ATOM     28  O   UNL     1       9.079  -1.748   0.059  1.00  0.00    -0.269 OA
BRANCH  26  29
ATOM     29  C   UNL     1       9.047  -2.937   2.082  1.00  0.00     0.039 A 
ATOM     30  C   UNL     1      10.298  -2.510   2.537  1.00  0.00     0.014 A 
ATOM     31  C   UNL     1       8.451  -4.071   2.642  1.00  0.00     0.014 A 
ATOM     32  C   UNL     1      10.925  -3.188   3.582  1.00  0.00     0.010 A 
ATOM     33  C   UNL     1       9.043  -4.703   3.734  1.00  0.00     0.010 A 
ATOM     34  C   UNL     1      10.289  -4.272   4.211  1.00  0.00    -0.014 A 
BRANCH  34  35
ATOM     35  C   UNL     1      10.927  -4.946   5.370  1.00  0.00     0.031 A 
ATOM     36  C   UNL     1      11.379  -6.377   5.273  1.00  0.00     0.074 A 
ATOM     37  C   UNL     1      11.080  -4.267   6.523  1.00  0.00     0.049 A 
ATOM     38  N   UNL     1      11.980  -7.116   6.172  1.00  0.00    -0.248 NA
ATOM     39  C   UNL     1      11.099  -7.078   4.011  1.00  0.00     0.031 C 
ATOM     40  C   UNL     1      10.620  -2.898   6.764  1.00  0.00     0.029 A 
ATOM     41  N   UNL     1      11.665  -4.634   7.709  1.00  0.00    -0.354 N 
ATOM     42  C   UNL     1      12.154  -8.361   5.584  1.00  0.00     0.074 A 
ATOM     43  C   UNL     1      11.536  -8.301   4.277  1.00  0.00     0.031 C 
ATOM     44  C   UNL     1      10.965  -2.531   8.008  1.00  0.00     0.029 A 
ATOM     45  C   UNL     1      11.648  -3.643   8.660  1.00  0.00     0.049 A 
ATOM     46  H   UNL     1      12.059  -5.523   7.863  1.00  0.00     0.167 HD
ATOM     47  C   UNL     1      12.799  -9.447   6.075  1.00  0.00     0.037 A 
ATOM     48  C   UNL     1      12.134  -3.632   9.915  1.00  0.00     0.037 A 
ATOM     49  C   UNL     1      13.420  -9.504   7.373  1.00  0.00     0.049 A 
ATOM     50  C   UNL     1      12.861  -4.845  10.430  1.00  0.00     0.074 A 
ATOM     51  C   UNL     1      14.126 -10.545   7.949  1.00  0.00     0.029 A 
ATOM     52  N   UNL     1      13.407  -8.470   8.299  1.00  0.00    -0.354 N 
ATOM     53  N   UNL     1      13.085  -5.991   9.834  1.00  0.00    -0.248 NA
ATOM     54  C   UNL     1      13.419  -4.754  11.786  1.00  0.00     0.031 C 
ATOM     55  C   UNL     1      14.508 -10.156   9.238  1.00  0.00     0.029 A 
ATOM     56  C   UNL     1      14.083  -8.854   9.447  1.00  0.00     0.049 A 
ATOM     57  H   UNL     1      12.981  -7.594   8.161  1.00  0.00     0.167 HD
ATOM     58  C   UNL     1      13.825  -6.749  10.731  1.00  0.00     0.074 A 
ATOM     59  C   UNL     1      14.037  -5.921  11.900  1.00  0.00     0.031 C 
ATOM     60  C   UNL     1      14.282  -8.019  10.603  1.00  0.00     0.037 A 
BRANCH  47  61
ATOM     61  C   UNL     1      12.882 -10.660   5.193  1.00  0.00     0.064 A 
ATOM     62  C   UNL     1      13.680 -10.669   4.037  1.00  0.00     0.173 A 
ATOM     63  C   UNL     1      12.194 -11.837   5.523  1.00  0.00     0.173 A 
ATOM     64  F   UNL     1      14.349  -9.566   3.670  1.00  0.00    -0.203 F 
ATOM     65  C   UNL     1      13.764 -11.802   3.232  1.00  0.00     0.198 A 
ATOM     66  C   UNL     1      12.305 -12.978   4.731  1.00  0.00     0.198 A 
ATOM     67  F   UNL     1      11.422 -11.886   6.619  1.00  0.00    -0.203 F 
ATOM     68  F   UNL     1      14.495 -11.771   2.109  1.00  0.00    -0.200 F 
ATOM     69  C   UNL     1      13.083 -12.957   3.584  1.00  0.00     0.200 A 
ATOM     70  F   UNL     1      11.657 -14.098   5.079  1.00  0.00    -0.200 F 
ATOM     71  F   UNL     1      13.172 -14.050   2.813  1.00  0.00    -0.200 F 
ENDBRANCH  47  61
BRANCH  48  72
ATOM     72  C   UNL     1      11.979  -2.420  10.761  1.00  0.00     0.064 A 
ATOM     73  C   UNL     1      13.085  -1.632  11.107  1.00  0.00     0.173 A 
ATOM     74  C   UNL     1      10.722  -2.031  11.248  1.00  0.00     0.173 A 
ATOM     75  F   UNL     1      14.310  -1.973  10.681  1.00  0.00    -0.203 F 
ATOM     76  C   UNL     1      12.945  -0.517  11.931  1.00  0.00     0.198 A 
ATOM     77  C   UNL     1      10.579  -0.898  12.046  1.00  0.00     0.198 A 
ATOM     78  F   UNL     1       9.631  -2.746  10.938  1.00  0.00    -0.203 F 
ATOM     79  F   UNL     1      14.027   0.188  12.290  1.00  0.00    -0.200 F 
ATOM     80  C   UNL     1      11.692  -0.148  12.396  1.00  0.00     0.200 A 
ATOM     81  F   UNL     1       9.364  -0.537  12.480  1.00  0.00    -0.200 F 
ATOM     82  F   UNL     1      11.557   0.924  13.187  1.00  0.00    -0.200 F 
ENDBRANCH  48  72
BRANCH  60  83
ATOM     83  C   UNL     1      15.075  -8.576  11.749  1.00  0.00     0.064 A 
ATOM     84  C   UNL     1      14.471  -8.894  12.975  1.00  0.00     0.173 A 
ATOM     85  C   UNL     1      16.453  -8.804  11.618  1.00  0.00     0.173 A 
ATOM     86  F   UNL     1      13.159  -8.681  13.157  1.00  0.00    -0.203 F 
ATOM     87  C   UNL     1      15.225  -9.383  14.039  1.00  0.00     0.198 A 
ATOM     88  C   UNL     1      17.198  -9.324  12.673  1.00  0.00     0.198 A 
ATOM     89  F   UNL     1      17.078  -8.525  10.464  1.00  0.00    -0.203 F 
ATOM     90  F   UNL     1      14.637  -9.621  15.220  1.00  0.00    -0.200 F 
ATOM     91  C   UNL     1      16.586  -9.602  13.886  1.00  0.00     0.200 A 
ATOM     92  F   UNL     1      18.510  -9.547  12.519  1.00  0.00    -0.200 F 
ATOM     93  F   UNL     1      17.310 -10.070  14.911  1.00  0.00    -0.200 F 
ENDBRANCH  60  83
ENDBRANCH  34  35
ENDBRANCH  26  29
ENDBRANCH  24  25
ENDBRANCH  23  24
ENDBRANCH   1  23
TORSDOF 14
