REMARK SMILES Cc1cnc(NC(=O)NC[C@H]2CC[C@H](C(=O)NCCCCNC(=O)c3ccc(-c4c5nc(c(-c6c(F)c(F)c(F)c(F)c6F)c6ccc([nH]6)c(-c6c(F)c(F)c(F)c(F)c6F)c6nc(c(-c7c(F)c(F)c(F)c(F)c7F)c7ccc4[nH]7)C=C6)C=C5)cc3)O2)s1
REMARK SMILES IDX 19 1 18 2 17 3 15 4 16 5 14 7 11 8 12 9 88 10 13 11 10 12
REMARK SMILES IDX 9 13 6 14 7 15 8 17 5 19 1 20 2 21 3 22 89 23 4 24 20 25
REMARK SMILES IDX 21 26 22 27 23 28 24 30 25 31 26 32 87 33 27 34 86 35 28 36
REMARK SMILES IDX 29 37 30 38 80 39 31 40 85 41 79 42 81 43 32 44 84 45 78 46
REMARK SMILES IDX 77 47 33 49 65 50 45 51 64 52 46 53 49 54 63 55 82 56 47 57
REMARK SMILES IDX 48 58 62 60 83 61 50 62 34 63 35 64 43 65 36 66 37 67 41 68
REMARK SMILES IDX 44 69 38 70 39 71 42 72 40 73 66 74 67 75 75 76 68 77 69 78
REMARK SMILES IDX 73 79 76 80 70 81 71 82 74 83 72 84 51 85 52 86 60 87 53 88
REMARK SMILES IDX 54 89 58 90 61 91 55 92 56 93 59 94 57 95
REMARK H PARENT 17 6 6 16 9 18 22 29 81 48 49 59
REMARK Flexibility Score: inf
ROOT
ATOM      1  C   UNL     1      -2.788   4.705  -1.698  1.00  0.00     0.023 C 
ENDROOT
BRANCH   1   2
ATOM      2  C   UNL     1      -2.744   3.187  -1.878  1.00  0.00     0.116 C 
BRANCH   2   3
ATOM      3  N   UNL     1      -2.675   2.807  -3.270  1.00  0.00    -0.354 N 
ATOM      4  C   UNL     1      -1.615   2.398  -4.023  1.00  0.00     0.249 C 
ATOM      5  O   UNL     1      -1.850   2.105  -5.201  1.00  0.00    -0.272 OA
ATOM      6  H   UNL     1      -3.533   2.849  -3.752  1.00  0.00     0.163 HD
BRANCH   4   7
ATOM      7  C   UNL     1      -0.160   2.380  -3.487  1.00  0.00     0.207 C 
ATOM      8  C   UNL     1       0.698   2.750  -1.335  1.00  0.00     0.138 C 
ATOM      9  C   UNL     1       0.693   4.083  -2.045  1.00  0.00     0.037 C 
ATOM     10  O   UNL     1       0.077   1.793  -2.207  1.00  0.00    -0.363 OA
ATOM     11  C   UNL     1       0.453   3.769  -3.493  1.00  0.00     0.045 C 
BRANCH   8  12
ATOM     12  C   UNL     1       2.025   2.232  -0.762  1.00  0.00     0.149 C 
BRANCH  12  13
ATOM     13  N   UNL     1       3.056   1.809  -1.694  1.00  0.00    -0.335 N 
ATOM     14  N   UNL     1       4.450   3.575  -2.520  1.00  0.00    -0.284 N 
ATOM     15  C   UNL     1       4.089   2.301  -2.373  1.00  0.00     0.321 C 
ATOM     16  H   UNL     1       5.119   3.685  -3.234  1.00  0.00     0.174 HD
ATOM     17  O   UNL     1       4.718   1.470  -3.043  1.00  0.00    -0.248 OA
ATOM     18  H   UNL     1       2.960   0.848  -1.884  1.00  0.00     0.165 HD
BRANCH  14  19
ATOM     19  C   UNL     1       4.135   4.759  -1.939  1.00  0.00     0.190 A 
ATOM     20  C   UNL     1       2.408   7.237   0.423  1.00  0.00     0.058 C 
ATOM     21  C   UNL     1       3.224   6.511  -0.581  1.00  0.00     0.023 A 
ATOM     22  C   UNL     1       3.567   6.878  -1.867  1.00  0.00     0.128 A 
ATOM     23  S   UNL     1       3.861   4.947  -0.272  1.00  0.00    -0.102 S 
ATOM     24  N   UNL     1       4.146   5.880  -2.624  1.00  0.00    -0.228 NA
ENDBRANCH  14  19
ENDBRANCH  12  13
ENDBRANCH   8  12
ENDBRANCH   4   7
ENDBRANCH   2   3
ENDBRANCH   1   2
BRANCH   1  25
ATOM     25  C   UNL     1      -4.189   5.314  -1.745  1.00  0.00     0.023 C 
BRANCH  25  26
ATOM     26  C   UNL     1      -5.133   4.832  -0.649  1.00  0.00     0.116 C 
BRANCH  26  27
ATOM     27  N   UNL     1      -4.656   5.089   0.702  1.00  0.00    -0.352 N 
ATOM     28  C   UNL     1      -5.409   5.221   1.848  1.00  0.00     0.251 C 
ATOM     29  H   UNL     1      -3.681   5.179   0.809  1.00  0.00     0.163 HD
ATOM     30  O   UNL     1      -4.891   5.521   2.913  1.00  0.00    -0.269 OA
BRANCH  28  31
ATOM     31  C   UNL     1      -6.874   5.048   1.748  1.00  0.00     0.039 A 
ATOM     32  C   UNL     1      -7.706   6.074   2.199  1.00  0.00     0.014 A 
ATOM     33  C   UNL     1      -7.410   3.915   1.132  1.00  0.00     0.014 A 
ATOM     34  C   UNL     1      -9.078   6.001   1.956  1.00  0.00     0.010 A 
ATOM     35  C   UNL     1      -8.764   3.879   0.824  1.00  0.00     0.010 A 
ATOM     36  C   UNL     1      -9.610   4.924   1.227  1.00  0.00    -0.014 A 
BRANCH  36  37
ATOM     37  C   UNL     1     -11.047   4.873   0.866  1.00  0.00     0.031 A 
ATOM     38  C   UNL     1     -11.919   3.780   1.412  1.00  0.00     0.074 A 
ATOM     39  C   UNL     1     -11.544   5.757  -0.020  1.00  0.00     0.049 A 
ATOM     40  N   UNL     1     -13.174   3.512   1.151  1.00  0.00    -0.248 NA
ATOM     41  C   UNL     1     -11.286   2.841   2.351  1.00  0.00     0.031 C 
ATOM     42  C   UNL     1     -10.779   6.820  -0.673  1.00  0.00     0.029 A 
ATOM     43  N   UNL     1     -12.807   5.888  -0.539  1.00  0.00    -0.354 N 
ATOM     44  C   UNL     1     -13.473   2.370   1.881  1.00  0.00     0.074 A 
ATOM     45  C   UNL     1     -12.255   1.960   2.545  1.00  0.00     0.031 C 
ATOM     46  C   UNL     1     -11.591   7.503  -1.496  1.00  0.00     0.029 A 
ATOM     47  C   UNL     1     -12.924   6.909  -1.450  1.00  0.00     0.049 A 
ATOM     48  H   UNL     1     -13.559   5.306  -0.283  1.00  0.00     0.167 HD
ATOM     49  C   UNL     1     -14.663   1.736   2.008  1.00  0.00     0.037 A 
ATOM     50  C   UNL     1     -13.987   7.317  -2.170  1.00  0.00     0.037 A 
ATOM     51  C   UNL     1     -15.877   2.160   1.363  1.00  0.00     0.049 A 
ATOM     52  C   UNL     1     -15.305   6.614  -1.995  1.00  0.00     0.074 A 
ATOM     53  C   UNL     1     -17.148   1.624   1.472  1.00  0.00     0.029 A 
ATOM     54  N   UNL     1     -15.969   3.231   0.484  1.00  0.00    -0.354 N 
ATOM     55  N   UNL     1     -15.596   5.579  -1.245  1.00  0.00    -0.248 NA
ATOM     56  C   UNL     1     -16.444   7.143  -2.757  1.00  0.00     0.031 C 
ATOM     57  C   UNL     1     -18.002   2.347   0.632  1.00  0.00     0.029 A 
ATOM     58  C   UNL     1     -17.272   3.362   0.033  1.00  0.00     0.049 A 
ATOM     59  H   UNL     1     -15.219   3.811   0.221  1.00  0.00     0.167 HD
ATOM     60  C   UNL     1     -16.951   5.344  -1.427  1.00  0.00     0.074 A 
ATOM     61  C   UNL     1     -17.430   6.355  -2.347  1.00  0.00     0.031 C 
ATOM     62  C   UNL     1     -17.729   4.376  -0.883  1.00  0.00     0.037 A 
BRANCH  49  63
ATOM     63  C   UNL     1     -14.701   0.521   2.888  1.00  0.00     0.064 A 
ATOM     64  C   UNL     1     -14.555   0.621   4.281  1.00  0.00     0.173 A 
ATOM     65  C   UNL     1     -14.889  -0.755   2.338  1.00  0.00     0.173 A 
ATOM     66  F   UNL     1     -14.358   1.818   4.855  1.00  0.00    -0.203 F 
ATOM     67  C   UNL     1     -14.554  -0.515   5.085  1.00  0.00     0.198 A 
ATOM     68  C   UNL     1     -14.919  -1.887   3.149  1.00  0.00     0.198 A 
ATOM     69  F   UNL     1     -15.038  -0.906   1.014  1.00  0.00    -0.203 F 
ATOM     70  F   UNL     1     -14.350  -0.400   6.404  1.00  0.00    -0.200 F 
ATOM     71  C   UNL     1     -14.741  -1.767   4.519  1.00  0.00     0.200 A 
ATOM     72  F   UNL     1     -15.110  -3.096   2.603  1.00  0.00    -0.200 F 
ATOM     73  F   UNL     1     -14.738  -2.861   5.295  1.00  0.00    -0.200 F 
ENDBRANCH  49  63
BRANCH  50  74
ATOM     74  C   UNL     1     -13.849   8.468  -3.097  1.00  0.00     0.064 A 
ATOM     75  C   UNL     1     -14.426   9.709  -2.794  1.00  0.00     0.173 A 
ATOM     76  C   UNL     1     -13.122   8.359  -4.291  1.00  0.00     0.173 A 
ATOM     77  F   UNL     1     -15.145   9.856  -1.671  1.00  0.00    -0.203 F 
ATOM     78  C   UNL     1     -14.293  10.794  -3.657  1.00  0.00     0.198 A 
ATOM     79  C   UNL     1     -12.969   9.452  -5.142  1.00  0.00     0.198 A 
ATOM     80  F   UNL     1     -12.544   7.195  -4.622  1.00  0.00    -0.203 F 
ATOM     81  F   UNL     1     -14.882  11.960  -3.360  1.00  0.00    -0.200 F 
ATOM     82  C   UNL     1     -13.559  10.667  -4.827  1.00  0.00     0.200 A 
ATOM     83  F   UNL     1     -12.247   9.329  -6.264  1.00  0.00    -0.200 F 
ATOM     84  F   UNL     1     -13.423  11.714  -5.653  1.00  0.00    -0.200 F 
ENDBRANCH  50  74
BRANCH  62  85
ATOM     85  C   UNL     1     -19.183   4.378  -1.251  1.00  0.00     0.064 A 
ATOM     86  C   UNL     1     -19.619   3.967  -2.519  1.00  0.00     0.173 A 
ATOM     87  C   UNL     1     -20.154   4.752  -0.309  1.00  0.00     0.173 A 
ATOM     88  F   UNL     1     -18.728   3.616  -3.458  1.00  0.00    -0.203 F 
ATOM     89  C   UNL     1     -20.974   3.951  -2.838  1.00  0.00     0.198 A 
ATOM     90  C   UNL     1     -21.509   4.709  -0.623  1.00  0.00     0.198 A 
ATOM     91  F   UNL     1     -19.787   5.147   0.919  1.00  0.00    -0.203 F 
ATOM     92  F   UNL     1     -21.367   3.595  -4.069  1.00  0.00    -0.200 F 
ATOM     93  C   UNL     1     -21.918   4.314  -1.888  1.00  0.00     0.200 A 
ATOM     94  F   UNL     1     -22.420   5.050   0.299  1.00  0.00    -0.200 F 
ATOM     95  F   UNL     1     -23.222   4.291  -2.194  1.00  0.00    -0.200 F 
ENDBRANCH  62  85
ENDBRANCH  36  37
ENDBRANCH  28  31
ENDBRANCH  26  27
ENDBRANCH  25  26
ENDBRANCH   1  25
TORSDOF 14
