REMARK SMILES O=C(NCCCCNC(=O)c1ccccc1NC(=O)c1ccncc1)c1ccc(-c2c3nc(c(-c4c(F)c(F)c(F)c(F)c4F)c4ccc([nH]4)c(-c4c(F)c(F)c(F)c(F)c4F)c4nc(c(-c5c(F)c(F)c(F)c(F)c5F)c5ccc2[nH]5)C=C4)C=C3)cc1
REMARK SMILES IDX 5 1 4 2 3 3 1 4 2 5 26 7 27 8 88 9 28 10 87 11 29 12 30 13
REMARK SMILES IDX 31 14 81 15 32 16 86 17 80 18 82 19 33 20 85 21 79 22 78 23
REMARK SMILES IDX 34 25 66 26 46 27 65 28 47 29 50 30 64 31 83 32 48 33 49 34
REMARK SMILES IDX 63 36 84 37 51 38 35 39 36 40 44 41 37 42 38 43 42 44 45 45
REMARK SMILES IDX 39 46 40 47 43 48 41 49 67 50 68 51 76 52 69 53 70 54 74 55
REMARK SMILES IDX 77 56 71 57 72 58 75 59 73 60 52 61 53 62 61 63 54 64 55 65
REMARK SMILES IDX 59 66 62 67 56 68 57 69 60 70 58 71 6 72 7 73 8 74 9 75
REMARK SMILES IDX 10 77 11 78 12 79 16 80 13 81 15 82 14 83 17 84 18 85 19 87
REMARK SMILES IDX 20 88 21 89 25 90 22 91 24 92 23 93
REMARK H PARENT 3 6 82 24 50 35 8 76 17 86
REMARK Flexibility Score: inf
ROOT
ATOM      1  C   UNL     1       4.745  -2.659  -0.321  1.00  0.00     0.023 C 
ENDROOT
BRANCH   1   2
ATOM      2  C   UNL     1       4.481  -1.217  -0.736  1.00  0.00     0.116 C 
BRANCH   2   3
ATOM      3  N   UNL     1       3.064  -0.894  -0.815  1.00  0.00    -0.352 N 
ATOM      4  O   UNL     1       1.104   0.053  -0.219  1.00  0.00    -0.269 OA
ATOM      5  C   UNL     1       2.326   0.024  -0.104  1.00  0.00     0.251 C 
ATOM      6  H   UNL     1       2.555  -1.412  -1.480  1.00  0.00     0.163 HD
BRANCH   5   7
ATOM      7  C   UNL     1       2.997   0.949   0.835  1.00  0.00     0.039 A 
ATOM      8  C   UNL     1       4.174   1.607   0.476  1.00  0.00     0.014 A 
ATOM      9  C   UNL     1       2.448   1.147   2.106  1.00  0.00     0.014 A 
ATOM     10  C   UNL     1       4.900   2.295   1.442  1.00  0.00     0.010 A 
ATOM     11  C   UNL     1       3.131   1.923   3.047  1.00  0.00     0.010 A 
ATOM     12  C   UNL     1       4.393   2.456   2.742  1.00  0.00    -0.014 A 
BRANCH  12  13
ATOM     13  C   UNL     1       5.204   3.186   3.752  1.00  0.00     0.031 A 
ATOM     14  C   UNL     1       5.728   2.488   4.979  1.00  0.00     0.074 A 
ATOM     15  C   UNL     1       5.520   4.476   3.529  1.00  0.00     0.049 A 
ATOM     16  N   UNL     1       6.501   2.955   5.929  1.00  0.00    -0.248 NA
ATOM     17  C   UNL     1       5.327   1.086   5.176  1.00  0.00     0.031 C 
ATOM     18  C   UNL     1       5.063   5.267   2.385  1.00  0.00     0.029 A 
ATOM     19  N   UNL     1       6.320   5.340   4.232  1.00  0.00    -0.354 N 
ATOM     20  C   UNL     1       6.654   1.921   6.844  1.00  0.00     0.074 A 
ATOM     21  C   UNL     1       5.876   0.805   6.349  1.00  0.00     0.031 C 
ATOM     22  C   UNL     1       5.638   6.478   2.430  1.00  0.00     0.029 A 
ATOM     23  C   UNL     1       6.458   6.568   3.633  1.00  0.00     0.049 A 
ATOM     24  H   UNL     1       6.753   5.103   5.084  1.00  0.00     0.167 HD
ATOM     25  C   UNL     1       7.384   1.900   7.986  1.00  0.00     0.037 A 
ATOM     26  C   UNL     1       7.167   7.648   4.008  1.00  0.00     0.037 A 
ATOM     27  C   UNL     1       8.188   2.998   8.459  1.00  0.00     0.049 A 
ATOM     28  C   UNL     1       7.977   7.592   5.272  1.00  0.00     0.074 A 
ATOM     29  C   UNL     1       8.997   3.056   9.580  1.00  0.00     0.029 A 
ATOM     30  N   UNL     1       8.285   4.232   7.833  1.00  0.00    -0.354 N 
ATOM     31  N   UNL     1       8.139   6.595   6.106  1.00  0.00    -0.248 NA
ATOM     32  C   UNL     1       8.702   8.814   5.644  1.00  0.00     0.031 C 
ATOM     33  C   UNL     1       9.554   4.337   9.655  1.00  0.00     0.029 A 
ATOM     34  C   UNL     1       9.128   5.064   8.556  1.00  0.00     0.049 A 
ATOM     35  H   UNL     1       7.824   4.481   7.000  1.00  0.00     0.167 HD
ATOM     36  C   UNL     1       9.000   7.060   7.090  1.00  0.00     0.074 A 
ATOM     37  C   UNL     1       9.340   8.423   6.738  1.00  0.00     0.031 C 
ATOM     38  C   UNL     1       9.463   6.415   8.189  1.00  0.00     0.037 A 
BRANCH  25  39
ATOM     39  C   UNL     1       7.339   0.653   8.820  1.00  0.00     0.064 A 
ATOM     40  C   UNL     1       7.986  -0.527   8.424  1.00  0.00     0.173 A 
ATOM     41  C   UNL     1       6.679   0.653  10.059  1.00  0.00     0.173 A 
ATOM     42  F   UNL     1       8.621  -0.584   7.244  1.00  0.00    -0.203 F 
ATOM     43  C   UNL     1       7.955  -1.666   9.226  1.00  0.00     0.198 A 
ATOM     44  C   UNL     1       6.673  -0.478  10.870  1.00  0.00     0.198 A 
ATOM     45  F   UNL     1       6.050   1.758  10.490  1.00  0.00    -0.203 F 
ATOM     46  F   UNL     1       8.546  -2.794   8.808  1.00  0.00    -0.200 F 
ATOM     47  C   UNL     1       7.305  -1.639  10.451  1.00  0.00     0.200 A 
ATOM     48  F   UNL     1       6.054  -0.447  12.059  1.00  0.00    -0.200 F 
ATOM     49  F   UNL     1       7.283  -2.733  11.224  1.00  0.00    -0.200 F 
ENDBRANCH  25  39
BRANCH  26  50
ATOM     50  C   UNL     1       7.154   8.867   3.161  1.00  0.00     0.064 A 
ATOM     51  C   UNL     1       8.295   9.260   2.448  1.00  0.00     0.173 A 
ATOM     52  C   UNL     1       6.001   9.655   3.037  1.00  0.00     0.173 A 
ATOM     53  F   UNL     1       9.427   8.548   2.551  1.00  0.00    -0.203 F 
ATOM     54  C   UNL     1       8.286  10.403   1.651  1.00  0.00     0.198 A 
ATOM     55  C   UNL     1       5.985  10.782   2.218  1.00  0.00     0.198 A 
ATOM     56  F   UNL     1       4.883   9.318   3.696  1.00  0.00    -0.203 F 
ATOM     57  F   UNL     1       9.401  10.778   1.010  1.00  0.00    -0.200 F 
ATOM     58  C   UNL     1       7.129  11.159   1.532  1.00  0.00     0.200 A 
ATOM     59  F   UNL     1       4.861  11.500   2.093  1.00  0.00    -0.200 F 
ATOM     60  F   UNL     1       7.119  12.253   0.759  1.00  0.00    -0.200 F 
ENDBRANCH  26  50
BRANCH  38  61
ATOM     61  C   UNL     1      10.416   7.168   9.068  1.00  0.00     0.064 A 
ATOM     62  C   UNL     1       9.984   8.218   9.892  1.00  0.00     0.173 A 
ATOM     63  C   UNL     1      11.775   6.823   9.100  1.00  0.00     0.173 A 
ATOM     64  F   UNL     1       8.697   8.596   9.883  1.00  0.00    -0.203 F 
ATOM     65  C   UNL     1      10.884   8.915  10.692  1.00  0.00     0.198 A 
ATOM     66  C   UNL     1      12.668   7.504   9.922  1.00  0.00     0.198 A 
ATOM     67  F   UNL     1      12.237   5.822   8.335  1.00  0.00    -0.203 F 
ATOM     68  F   UNL     1      10.459   9.949  11.432  1.00  0.00    -0.200 F 
ATOM     69  C   UNL     1      12.224   8.555  10.711  1.00  0.00     0.200 A 
ATOM     70  F   UNL     1      13.960   7.149   9.947  1.00  0.00    -0.200 F 
ATOM     71  F   UNL     1      13.089   9.227  11.482  1.00  0.00    -0.200 F 
ENDBRANCH  38  61
ENDBRANCH  12  13
ENDBRANCH   5   7
ENDBRANCH   2   3
ENDBRANCH   1   2
BRANCH   1  72
ATOM     72  C   UNL     1       4.260  -3.728  -1.299  1.00  0.00     0.023 C 
BRANCH  72  73
ATOM     73  C   UNL     1       4.679  -3.526  -2.752  1.00  0.00     0.116 C 
BRANCH  73  74
ATOM     74  N   UNL     1       6.120  -3.416  -2.911  1.00  0.00    -0.352 N 
ATOM     75  C   UNL     1       6.943  -4.045  -3.807  1.00  0.00     0.253 C 
ATOM     76  H   UNL     1       6.567  -2.801  -2.285  1.00  0.00     0.163 HD
ATOM     77  O   UNL     1       8.159  -3.900  -3.729  1.00  0.00    -0.269 OA
BRANCH  75  78
ATOM     78  C   UNL     1       6.379  -4.904  -4.868  1.00  0.00     0.063 A 
ATOM     79  C   UNL     1       6.801  -6.241  -4.864  1.00  0.00     0.016 A 
ATOM     80  C   UNL     1       5.493  -4.421  -5.855  1.00  0.00     0.054 A 
ATOM     81  C   UNL     1       6.337  -7.120  -5.837  1.00  0.00     0.001 A 
ATOM     82  C   UNL     1       5.091  -5.310  -6.858  1.00  0.00     0.027 A 
ATOM     83  C   UNL     1       5.492  -6.651  -6.837  1.00  0.00     0.002 A 
BRANCH  80  84
ATOM     84  N   UNL     1       5.082  -3.070  -5.814  1.00  0.00    -0.321 N 
ATOM     85  C   UNL     1       4.042  -2.378  -6.387  1.00  0.00     0.255 C 
ATOM     86  H   UNL     1       5.663  -2.505  -5.256  1.00  0.00     0.170 HD
ATOM     87  O   UNL     1       3.996  -1.153  -6.269  1.00  0.00    -0.269 OA
BRANCH  85  88
ATOM     88  C   UNL     1       2.928  -3.045  -7.081  1.00  0.00     0.043 A 
ATOM     89  C   UNL     1       2.215  -4.089  -6.493  1.00  0.00     0.034 A 
ATOM     90  C   UNL     1       2.565  -2.568  -8.339  1.00  0.00     0.034 A 
ATOM     91  C   UNL     1       1.208  -4.673  -7.239  1.00  0.00     0.112 A 
ATOM     92  C   UNL     1       1.536  -3.213  -8.996  1.00  0.00     0.112 A 
ATOM     93  N   UNL     1       0.865  -4.266  -8.481  1.00  0.00    -0.265 NA
ENDBRANCH  85  88
ENDBRANCH  80  84
ENDBRANCH  75  78
ENDBRANCH  73  74
ENDBRANCH  72  73
ENDBRANCH   1  72
TORSDOF 13
