REMARK SMILES C[C@H](CC(=O)NCCCCNC(=O)c1ccc(-c2c3nc(c(-c4c(F)c(F)c(F)c(F)c4F)c4ccc([nH]4)c(-c4c(F)c(F)c(F)c(F)c4F)c4nc(c(-c5c(F)c(F)c(F)c(F)c5F)c5ccc2[nH]5)C=C4)C=C3)cc1)NC(=O)CS[C@H]1CCS(=O)(=O)C1
REMARK SMILES IDX 7 1 6 2 4 3 5 4 3 6 2 7 1 8 77 9 78 10 79 12 80 13 81 14
REMARK SMILES IDX 82 15 83 16 88 17 84 18 85 19 86 20 87 21 8 22 9 23 10 24
REMARK SMILES IDX 11 25 12 26 13 28 14 29 15 30 76 31 16 32 75 33 17 34 18 35
REMARK SMILES IDX 19 36 69 37 20 38 74 39 68 40 70 41 21 42 73 43 67 44 66 45
REMARK SMILES IDX 22 47 54 48 34 49 53 50 35 51 38 52 52 53 71 54 36 55 37 56
REMARK SMILES IDX 51 58 72 59 39 60 23 61 24 62 32 63 25 64 26 65 30 66 33 67
REMARK SMILES IDX 27 68 28 69 31 70 29 71 55 72 56 73 64 74 57 75 58 76 62 77
REMARK SMILES IDX 65 78 59 79 60 80 63 81 61 82 40 83 41 84 49 85 42 86 43 87
REMARK SMILES IDX 47 88 50 89 44 90 45 91 48 92 46 93
REMARK H PARENT 6 5 77 11 11 27 70 46 38 57
REMARK Flexibility Score: inf
ROOT
ATOM      1  C   UNL     1      -2.607  -2.203   1.132  1.00  0.00     0.116 C 
ENDROOT
BRANCH   1   2
ATOM      2  N   UNL     1      -1.945  -0.995   0.722  1.00  0.00    -0.356 N 
ATOM      3  C   UNL     1      -1.699  -0.811  -0.604  1.00  0.00     0.222 C 
ATOM      4  O   UNL     1      -0.546  -0.616  -0.971  1.00  0.00    -0.275 OA
ATOM      5  H   UNL     1      -1.677  -0.317   1.383  1.00  0.00     0.163 HD
BRANCH   3   6
ATOM      6  C   UNL     1      -2.880  -0.911  -1.545  1.00  0.00     0.124 C 
BRANCH   6   7
ATOM      7  C   UNL     1      -2.566  -1.788  -2.758  1.00  0.00     0.088 C 
ATOM      8  C   UNL     1      -2.588  -3.284  -2.463  1.00  0.00     0.031 C 
BRANCH   7   9
ATOM      9  N   UNL     1      -3.509  -1.490  -3.826  1.00  0.00    -0.352 N 
ATOM     10  C   UNL     1      -3.267  -1.242  -5.146  1.00  0.00     0.230 C 
ATOM     11  H   UNL     1      -4.456  -1.463  -3.558  1.00  0.00     0.163 HD
ATOM     12  O   UNL     1      -4.246  -1.118  -5.885  1.00  0.00    -0.274 OA
BRANCH  10  13
ATOM     13  C   UNL     1      -1.838  -1.135  -5.672  1.00  0.00     0.169 C 
BRANCH  13  14
ATOM     14  S   UNL     1      -1.441   0.581  -6.187  1.00  0.00    -0.148 SA
BRANCH  14  15
ATOM     15  C   UNL     1      -0.423   1.219  -4.793  1.00  0.00     0.063 C 
ATOM     16  C   UNL     1      -0.049   2.683  -5.056  1.00  0.00     0.031 C 
ATOM     17  C   UNL     1      -1.143   1.192  -3.461  1.00  0.00     0.151 C 
ATOM     18  C   UNL     1       0.479   3.247  -3.743  1.00  0.00     0.138 C 
ATOM     19  S   UNL     1      -0.600   2.589  -2.503  1.00  0.00     0.151 S 
ATOM     20  O   UNL     1       0.211   2.160  -1.381  1.00  0.00    -0.229 OA
ATOM     21  O   UNL     1      -1.724   3.481  -2.331  1.00  0.00    -0.229 OA
ENDBRANCH  14  15
ENDBRANCH  13  14
ENDBRANCH  10  13
ENDBRANCH   7   9
ENDBRANCH   6   7
ENDBRANCH   3   6
ENDBRANCH   1   2
BRANCH   1  22
ATOM     22  C   UNL     1      -1.671  -3.392   0.868  1.00  0.00     0.023 C 
BRANCH  22  23
ATOM     23  C   UNL     1      -0.525  -3.506   1.862  1.00  0.00     0.023 C 
BRANCH  23  24
ATOM     24  C   UNL     1      -1.000  -3.427   3.295  1.00  0.00     0.116 C 
BRANCH  24  25
ATOM     25  N   UNL     1      -2.223  -4.199   3.511  1.00  0.00    -0.352 N 
ATOM     26  C   UNL     1      -2.609  -4.903   4.612  1.00  0.00     0.251 C 
ATOM     27  H   UNL     1      -2.856  -4.212   2.756  1.00  0.00     0.163 HD
ATOM     28  O   UNL     1      -3.610  -5.605   4.601  1.00  0.00    -0.269 OA
BRANCH  26  29
ATOM     29  C   UNL     1      -1.744  -4.817   5.787  1.00  0.00     0.039 A 
ATOM     30  C   UNL     1      -1.275  -6.000   6.349  1.00  0.00     0.014 A 
ATOM     31  C   UNL     1      -1.298  -3.564   6.217  1.00  0.00     0.014 A 
ATOM     32  C   UNL     1      -0.316  -5.920   7.346  1.00  0.00     0.010 A 
ATOM     33  C   UNL     1      -0.246  -3.497   7.107  1.00  0.00     0.010 A 
ATOM     34  C   UNL     1       0.222  -4.672   7.707  1.00  0.00    -0.014 A 
BRANCH  34  35
ATOM     35  C   UNL     1       1.244  -4.585   8.764  1.00  0.00     0.031 A 
ATOM     36  C   UNL     1       0.933  -3.841  10.029  1.00  0.00     0.074 A 
ATOM     37  C   UNL     1       2.436  -5.178   8.570  1.00  0.00     0.049 A 
ATOM     38  N   UNL     1       1.663  -3.706  11.105  1.00  0.00    -0.248 NA
ATOM     39  C   UNL     1      -0.353  -3.125  10.086  1.00  0.00     0.031 C 
ATOM     40  C   UNL     1       2.853  -5.860   7.342  1.00  0.00     0.029 A 
ATOM     41  N   UNL     1       3.505  -5.322   9.411  1.00  0.00    -0.354 N 
ATOM     42  C   UNL     1       0.926  -2.892  11.954  1.00  0.00     0.074 A 
ATOM     43  C   UNL     1      -0.261  -2.487  11.241  1.00  0.00     0.031 C 
ATOM     44  C   UNL     1       4.065  -6.404   7.533  1.00  0.00     0.029 A 
ATOM     45  C   UNL     1       4.520  -6.077   8.880  1.00  0.00     0.049 A 
ATOM     46  H   UNL     1       3.542  -4.922  10.310  1.00  0.00     0.167 HD
ATOM     47  C   UNL     1       1.199  -2.550  13.233  1.00  0.00     0.037 A 
ATOM     48  C   UNL     1       5.679  -6.472   9.436  1.00  0.00     0.037 A 
ATOM     49  C   UNL     1       2.379  -2.980  13.931  1.00  0.00     0.049 A 
ATOM     50  C   UNL     1       5.954  -6.085  10.863  1.00  0.00     0.074 A 
ATOM     51  C   UNL     1       2.747  -2.735  15.240  1.00  0.00     0.029 A 
ATOM     52  N   UNL     1       3.390  -3.747  13.365  1.00  0.00    -0.354 N 
ATOM     53  N   UNL     1       5.215  -5.384  11.690  1.00  0.00    -0.248 NA
ATOM     54  C   UNL     1       7.216  -6.560  11.439  1.00  0.00     0.031 C 
ATOM     55  C   UNL     1       4.008  -3.304  15.449  1.00  0.00     0.029 A 
ATOM     56  C   UNL     1       4.393  -3.965  14.293  1.00  0.00     0.049 A 
ATOM     57  H   UNL     1       3.392  -4.085  12.440  1.00  0.00     0.167 HD
ATOM     58  C   UNL     1       5.907  -5.358  12.893  1.00  0.00     0.074 A 
ATOM     59  C   UNL     1       7.112  -6.139  12.690  1.00  0.00     0.031 C 
ATOM     60  C   UNL     1       5.582  -4.746  14.060  1.00  0.00     0.037 A 
BRANCH  47  61
ATOM     61  C   UNL     1       0.204  -1.677  13.942  1.00  0.00     0.064 A 
ATOM     62  C   UNL     1      -1.088  -2.130  14.256  1.00  0.00     0.173 A 
ATOM     63  C   UNL     1       0.546  -0.370  14.317  1.00  0.00     0.173 A 
ATOM     64  F   UNL     1      -1.477  -3.364  13.901  1.00  0.00    -0.203 F 
ATOM     65  C   UNL     1      -2.008  -1.297  14.887  1.00  0.00     0.198 A 
ATOM     66  C   UNL     1      -0.364   0.448  14.982  1.00  0.00     0.198 A 
ATOM     67  F   UNL     1       1.765   0.117  14.038  1.00  0.00    -0.203 F 
ATOM     68  F   UNL     1      -3.255  -1.731  15.117  1.00  0.00    -0.200 F 
ATOM     69  C   UNL     1      -1.643  -0.012  15.257  1.00  0.00     0.200 A 
ATOM     70  F   UNL     1      -0.005   1.686  15.349  1.00  0.00    -0.200 F 
ATOM     71  F   UNL     1      -2.526   0.786  15.871  1.00  0.00    -0.200 F 
ENDBRANCH  47  61
BRANCH  48  72
ATOM     72  C   UNL     1       6.630  -7.311   8.661  1.00  0.00     0.064 A 
ATOM     73  C   UNL     1       6.883  -8.642   9.023  1.00  0.00     0.173 A 
ATOM     74  C   UNL     1       7.307  -6.801   7.544  1.00  0.00     0.173 A 
ATOM     75  F   UNL     1       6.268  -9.174  10.090  1.00  0.00    -0.203 F 
ATOM     76  C   UNL     1       7.799  -9.419   8.318  1.00  0.00     0.198 A 
ATOM     77  C   UNL     1       8.198  -7.590   6.819  1.00  0.00     0.198 A 
ATOM     78  F   UNL     1       7.091  -5.538   7.146  1.00  0.00    -0.203 F 
ATOM     79  F   UNL     1       8.061 -10.671   8.719  1.00  0.00    -0.200 F 
ATOM     80  C   UNL     1       8.452  -8.894   7.213  1.00  0.00     0.200 A 
ATOM     81  F   UNL     1       8.810  -7.084   5.740  1.00  0.00    -0.200 F 
ATOM     82  F   UNL     1       9.331  -9.643   6.533  1.00  0.00    -0.200 F 
ENDBRANCH  48  72
BRANCH  60  83
ATOM     83  C   UNL     1       6.528  -4.937  15.211  1.00  0.00     0.064 A 
ATOM     84  C   UNL     1       7.818  -4.385  15.210  1.00  0.00     0.173 A 
ATOM     85  C   UNL     1       6.133  -5.682  16.333  1.00  0.00     0.173 A 
ATOM     86  F   UNL     1       8.248  -3.673  14.156  1.00  0.00    -0.203 F 
ATOM     87  C   UNL     1       8.695  -4.617  16.265  1.00  0.00     0.198 A 
ATOM     88  C   UNL     1       6.998  -5.875  17.405  1.00  0.00     0.198 A 
ATOM     89  F   UNL     1       4.906  -6.221  16.391  1.00  0.00    -0.203 F 
ATOM     90  F   UNL     1       9.949  -4.147  16.205  1.00  0.00    -0.200 F 
ATOM     91  C   UNL     1       8.284  -5.357  17.363  1.00  0.00     0.200 A 
ATOM     92  F   UNL     1       6.591  -6.573  18.474  1.00  0.00    -0.200 F 
ATOM     93  F   UNL     1       9.131  -5.582  18.376  1.00  0.00    -0.200 F 
ENDBRANCH  60  83
ENDBRANCH  34  35
ENDBRANCH  26  29
ENDBRANCH  24  25
ENDBRANCH  23  24
ENDBRANCH  22  23
ENDBRANCH   1  22
TORSDOF 16
