REMARK SMILES COc1cccc(O[C@@H](C)c2nnc(SCC(=O)NCCCCNC(=O)c3ccc(-c4c5nc(c(-c6c(F)c(F)c(F)c(F)c6F)c6ccc([nH]6)c(-c6c(F)c(F)c(F)c(F)c6F)c6nc(c(-c7c(F)c(F)c(F)c(F)c7F)c7ccc4[nH]7)C=C6)C=C5)cc3)n2C)c1
REMARK SMILES IDX 17 1 18 2 19 3 16 5 15 6 14 7 11 8 12 9 90 10 13 11 91 12
REMARK SMILES IDX 9 13 10 14 8 15 7 16 3 17 4 18 92 19 5 20 6 21 2 22 1 23
REMARK SMILES IDX 20 24 21 25 22 26 23 27 24 28 25 29 26 31 27 32 28 33 89 34
REMARK SMILES IDX 29 35 88 36 30 37 31 38 32 39 82 40 33 41 87 42 81 43 83 44
REMARK SMILES IDX 34 45 86 46 80 47 79 48 35 50 67 51 47 52 66 53 48 54 51 55
REMARK SMILES IDX 65 56 84 57 49 58 50 59 64 61 85 62 52 63 36 64 37 65 45 66
REMARK SMILES IDX 38 67 39 68 43 69 46 70 40 71 41 72 44 73 42 74 68 75 69 76
REMARK SMILES IDX 77 77 70 78 71 79 75 80 78 81 72 82 73 83 76 84 74 85 53 86
REMARK SMILES IDX 54 87 62 88 55 89 56 90 60 91 63 92 57 93 58 94 61 95 59 96
REMARK H PARENT 19 4 24 30 83 49 51 60
REMARK Flexibility Score: inf
ROOT
ATOM      1  C   UNL     1       5.536   6.482   1.290  1.00  0.00     0.230 C 
ATOM      2  O   UNL     1       5.738   6.371   2.502  1.00  0.00    -0.274 OA
ATOM      3  N   UNL     1       4.387   7.090   0.898  1.00  0.00    -0.355 N 
ATOM      4  H   UNL     1       3.810   7.407   1.630  1.00  0.00     0.163 HD
ENDROOT
BRANCH   1   5
ATOM      5  C   UNL     1       6.582   6.050   0.290  1.00  0.00     0.178 C 
BRANCH   5   6
ATOM      6  S   UNL     1       6.176   4.651  -0.742  1.00  0.00    -0.076 SA
BRANCH   6   7
ATOM      7  C   UNL     1       5.576   3.305   0.153  1.00  0.00     0.191 A 
ATOM      8  C   UNL     1       5.029   1.751   1.607  1.00  0.00     0.174 A 
ATOM      9  N   UNL     1       4.615   1.365   0.418  1.00  0.00    -0.130 NA
ATOM     10  N   UNL     1       5.729   2.940   1.464  1.00  0.00    -0.306 N 
ATOM     11  N   UNL     1       4.927   2.347  -0.476  1.00  0.00    -0.123 NA
ATOM     12  C   UNL     1       6.493   3.541   2.523  1.00  0.00     0.154 C 
BRANCH   8  13
ATOM     13  C   UNL     1       4.789   1.042   2.908  1.00  0.00     0.238 C 
ATOM     14  C   UNL     1       4.591  -0.468   2.809  1.00  0.00     0.062 C 
BRANCH  13  15
ATOM     15  O   UNL     1       3.777   1.717   3.676  1.00  0.00    -0.483 OA
BRANCH  15  16
ATOM     16  C   UNL     1       2.474   1.813   3.276  1.00  0.00     0.124 A 
ATOM     17  C   UNL     1       0.561   1.488   1.808  1.00  0.00     0.122 A 
ATOM     18  C   UNL     1      -0.240   2.206   2.694  1.00  0.00     0.046 A 
ATOM     19  C   UNL     1       1.915   1.304   2.103  1.00  0.00     0.092 A 
ATOM     20  C   UNL     1       0.299   2.715   3.873  1.00  0.00     0.008 A 
ATOM     21  C   UNL     1       1.651   2.515   4.161  1.00  0.00     0.047 A 
BRANCH  17  22
ATOM     22  O   UNL     1      -0.074   1.036   0.682  1.00  0.00    -0.497 OA
ATOM     23  C   UNL     1       0.610   0.042  -0.077  1.00  0.00     0.278 C 
ENDBRANCH  17  22
ENDBRANCH  15  16
ENDBRANCH  13  15
ENDBRANCH   8  13
ENDBRANCH   6   7
ENDBRANCH   5   6
ENDBRANCH   1   5
BRANCH   3  24
ATOM     24  C   UNL     1       3.884   7.342  -0.437  1.00  0.00     0.116 C 
BRANCH  24  25
ATOM     25  C   UNL     1       2.622   6.528  -0.717  1.00  0.00     0.023 C 
BRANCH  25  26
ATOM     26  C   UNL     1       1.439   6.839   0.207  1.00  0.00     0.023 C 
BRANCH  26  27
ATOM     27  C   UNL     1       1.041   8.309   0.295  1.00  0.00     0.116 C 
BRANCH  27  28
ATOM     28  N   UNL     1       0.692   8.883  -0.994  1.00  0.00    -0.352 N 
ATOM     29  C   UNL     1      -0.383   9.666  -1.337  1.00  0.00     0.251 C 
ATOM     30  H   UNL     1       1.317   8.682  -1.727  1.00  0.00     0.163 HD
ATOM     31  O   UNL     1      -0.583   9.955  -2.514  1.00  0.00    -0.269 OA
BRANCH  29  32
ATOM     32  C   UNL     1      -1.321  10.137  -0.296  1.00  0.00     0.039 A 
ATOM     33  C   UNL     1      -2.694  10.043  -0.539  1.00  0.00     0.014 A 
ATOM     34  C   UNL     1      -0.858  10.666   0.911  1.00  0.00     0.014 A 
ATOM     35  C   UNL     1      -3.601  10.418   0.453  1.00  0.00     0.010 A 
ATOM     36  C   UNL     1      -1.762  10.967   1.928  1.00  0.00     0.010 A 
ATOM     37  C   UNL     1      -3.143  10.847   1.710  1.00  0.00    -0.014 A 
BRANCH  37  38
ATOM     38  C   UNL     1      -4.097  11.162   2.805  1.00  0.00     0.031 A 
ATOM     39  C   UNL     1      -4.185  12.556   3.363  1.00  0.00     0.074 A 
ATOM     40  C   UNL     1      -4.854  10.179   3.330  1.00  0.00     0.049 A 
ATOM     41  N   UNL     1      -4.930  13.013   4.338  1.00  0.00    -0.248 NA
ATOM     42  C   UNL     1      -3.300  13.566   2.762  1.00  0.00     0.031 C 
ATOM     43  C   UNL     1      -4.828   8.777   2.909  1.00  0.00     0.029 A 
ATOM     44  N   UNL     1      -5.790  10.206   4.334  1.00  0.00    -0.354 N 
ATOM     45  C   UNL     1      -4.600  14.355   4.470  1.00  0.00     0.074 A 
ATOM     46  C   UNL     1      -3.544  14.625   3.519  1.00  0.00     0.031 C 
ATOM     47  C   UNL     1      -5.728   8.086   3.625  1.00  0.00     0.029 A 
ATOM     48  C   UNL     1      -6.365   8.983   4.584  1.00  0.00     0.049 A 
ATOM     49  H   UNL     1      -6.026  11.023   4.829  1.00  0.00     0.167 HD
ATOM     50  C   UNL     1      -5.147  15.285   5.290  1.00  0.00     0.037 A 
ATOM     51  C   UNL     1      -7.297   8.626   5.488  1.00  0.00     0.037 A 
ATOM     52  C   UNL     1      -6.207  15.015   6.227  1.00  0.00     0.049 A 
ATOM     53  C   UNL     1      -7.871   9.673   6.404  1.00  0.00     0.074 A 
ATOM     54  C   UNL     1      -6.861  15.899   7.069  1.00  0.00     0.029 A 
ATOM     55  N   UNL     1      -6.764  13.764   6.452  1.00  0.00    -0.354 N 
ATOM     56  N   UNL     1      -7.601  10.954   6.471  1.00  0.00    -0.248 NA
ATOM     57  C   UNL     1      -8.887   9.224   7.366  1.00  0.00     0.031 C 
ATOM     58  C   UNL     1      -7.773  15.174   7.842  1.00  0.00     0.029 A 
ATOM     59  C   UNL     1      -7.736  13.849   7.438  1.00  0.00     0.049 A 
ATOM     60  H   UNL     1      -6.508  12.939   5.981  1.00  0.00     0.167 HD
ATOM     61  C   UNL     1      -8.433  11.470   7.456  1.00  0.00     0.074 A 
ATOM     62  C   UNL     1      -9.231  10.365   7.946  1.00  0.00     0.031 C 
ATOM     63  C   UNL     1      -8.528  12.743   7.913  1.00  0.00     0.037 A 
BRANCH  50  64
ATOM     64  C   UNL     1      -4.609  16.686   5.208  1.00  0.00     0.064 A 
ATOM     65  C   UNL     1      -4.817  17.491   4.077  1.00  0.00     0.173 A 
ATOM     66  C   UNL     1      -3.909  17.246   6.288  1.00  0.00     0.173 A 
ATOM     67  F   UNL     1      -5.471  17.002   3.012  1.00  0.00    -0.203 F 
ATOM     68  C   UNL     1      -4.317  18.789   4.017  1.00  0.00     0.198 A 
ATOM     69  C   UNL     1      -3.440  18.556   6.238  1.00  0.00     0.198 A 
ATOM     70  F   UNL     1      -3.687  16.525   7.397  1.00  0.00    -0.203 F 
ATOM     71  F   UNL     1      -4.481  19.517   2.904  1.00  0.00    -0.200 F 
ATOM     72  C   UNL     1      -3.636  19.323   5.100  1.00  0.00     0.200 A 
ATOM     73  F   UNL     1      -2.796  19.076   7.292  1.00  0.00    -0.200 F 
ATOM     74  F   UNL     1      -3.162  20.576   5.044  1.00  0.00    -0.200 F 
ENDBRANCH  50  64
BRANCH  51  75
ATOM     75  C   UNL     1      -7.767   7.216   5.556  1.00  0.00     0.064 A 
ATOM     76  C   UNL     1      -9.078   6.875   5.192  1.00  0.00     0.173 A 
ATOM     77  C   UNL     1      -6.925   6.185   5.997  1.00  0.00     0.173 A 
ATOM     78  F   UNL     1      -9.928   7.829   4.784  1.00  0.00    -0.203 F 
ATOM     79  C   UNL     1      -9.536   5.563   5.292  1.00  0.00     0.198 A 
ATOM     80  C   UNL     1      -7.374   4.867   6.065  1.00  0.00     0.198 A 
ATOM     81  F   UNL     1      -5.661   6.455   6.354  1.00  0.00    -0.203 F 
ATOM     82  F   UNL     1     -10.809   5.276   4.989  1.00  0.00    -0.200 F 
ATOM     83  C   UNL     1      -8.682   4.559   5.722  1.00  0.00     0.200 A 
ATOM     84  F   UNL     1      -6.541   3.898   6.468  1.00  0.00    -0.200 F 
ATOM     85  F   UNL     1      -9.122   3.297   5.817  1.00  0.00    -0.200 F 
ENDBRANCH  51  75
BRANCH  63  86
ATOM     86  C   UNL     1      -9.559  13.019   8.971  1.00  0.00     0.064 A 
ATOM     87  C   UNL     1      -9.426  12.532  10.280  1.00  0.00     0.173 A 
ATOM     88  C   UNL     1     -10.683  13.807   8.676  1.00  0.00     0.173 A 
ATOM     89  F   UNL     1      -8.378  11.763  10.612  1.00  0.00    -0.203 F 
ATOM     90  C   UNL     1     -10.397  12.794  11.244  1.00  0.00     0.198 A 
ATOM     91  C   UNL     1     -11.632  14.098   9.652  1.00  0.00     0.198 A 
ATOM     92  F   UNL     1     -10.855  14.306   7.443  1.00  0.00    -0.203 F 
ATOM     93  F   UNL     1     -10.279  12.269  12.471  1.00  0.00    -0.200 F 
ATOM     94  C   UNL     1     -11.495  13.582  10.931  1.00  0.00     0.200 A 
ATOM     95  F   UNL     1     -12.683  14.874   9.352  1.00  0.00    -0.200 F 
ATOM     96  F   UNL     1     -12.424  13.838  11.862  1.00  0.00    -0.200 F 
ENDBRANCH  63  86
ENDBRANCH  37  38
ENDBRANCH  29  32
ENDBRANCH  27  28
ENDBRANCH  26  27
ENDBRANCH  25  26
ENDBRANCH  24  25
ENDBRANCH   3  24
TORSDOF 17
