REMARK SMILES CC[C@@](C)([NH2+]CC(=O)N[C@@H](C)c1ccc(F)cc1)C(=O)NCCCCNC(=O)c1ccc(-c2c3nc(c(-c4c(F)c(F)c(F)c(F)c4F)c4ccc([nH]4)c(-c4c(F)c(F)c(F)c(F)c4F)c4nc(c(-c5c(F)c(F)c(F)c(F)c5F)c5ccc2[nH]5)C=C4)C=C3)cc1
REMARK SMILES IDX 22 1 21 2 19 3 20 4 3 6 4 7 2 8 1 9 5 10 6 13 7 14 8 15 9 16
REMARK SMILES IDX 10 18 11 19 12 20 13 21 18 22 14 23 17 24 15 25 16 26 23 27
REMARK SMILES IDX 24 28 25 29 26 30 27 31 28 33 29 34 30 35 91 36 31 37 90 38
REMARK SMILES IDX 32 39 33 40 34 41 84 42 35 43 89 44 83 45 85 46 36 47 88 48
REMARK SMILES IDX 82 49 81 50 37 52 69 53 49 54 68 55 50 56 53 57 67 58 86 59
REMARK SMILES IDX 51 60 52 61 66 63 87 64 54 65 38 66 39 67 47 68 40 69 41 70
REMARK SMILES IDX 45 71 48 72 42 73 43 74 46 75 44 76 70 77 71 78 79 79 72 80
REMARK SMILES IDX 73 81 77 82 80 83 74 84 75 85 78 86 76 87 55 88 56 89 64 90
REMARK SMILES IDX 57 91 58 92 62 93 65 94 59 95 60 96 63 97 61 98
REMARK H PARENT 21 5 5 11 5 12 9 17 26 32 85 51 53 62
REMARK Flexibility Score: inf
ROOT
ATOM      1  C   UNL     1       2.986   2.993  -3.658  1.00  0.00     0.116 C 
ENDROOT
BRANCH   1   2
ATOM      2  N   UNL     1       2.912   2.894  -2.199  1.00  0.00    -0.351 N 
ATOM      3  C   UNL     1       2.176   1.931  -1.501  1.00  0.00     0.281 C 
ATOM      4  O   UNL     1       2.842   1.141  -0.825  1.00  0.00    -0.268 OA
ATOM      5  H   UNL     1       3.417   3.554  -1.671  1.00  0.00     0.163 HD
BRANCH   3   6
ATOM      6  C   UNL     1       0.557   1.982  -1.438  1.00  0.00     0.172 C 
ATOM      7  C   UNL     1      -0.474   0.851  -1.623  1.00  0.00     0.090 C 
BRANCH   6   8
ATOM      8  C   UNL     1       0.331   2.383   0.079  1.00  0.00     0.075 C 
ATOM      9  C   UNL     1       0.539   1.213   1.085  1.00  0.00     0.011 C 
ENDBRANCH   6   8
BRANCH   6  10
ATOM     10  N   UNL     1       0.192   2.996  -2.429  1.00  0.00    -0.326 N 
ATOM     11  H   UNL     1       1.016   3.581  -2.566  1.00  0.00     0.347 HD
ATOM     12  H   UNL     1      -0.635   3.431  -2.020  1.00  0.00     0.347 HD
BRANCH  10  13
ATOM     13  C   UNL     1      -0.273   2.592  -3.779  1.00  0.00     0.362 C 
BRANCH  13  14
ATOM     14  C   UNL     1       0.132   1.353  -4.662  1.00  0.00     0.275 C 
ATOM     15  O   UNL     1      -0.448   1.329  -5.771  1.00  0.00    -0.268 OA
ATOM     16  N   UNL     1       0.967   0.290  -4.546  1.00  0.00    -0.345 N 
ATOM     17  H   UNL     1       0.994  -0.182  -5.410  1.00  0.00     0.164 HD
BRANCH  16  18
ATOM     18  C   UNL     1       1.851  -0.419  -3.596  1.00  0.00     0.109 C 
ATOM     19  C   UNL     1       1.185  -1.602  -2.870  1.00  0.00     0.036 C 
BRANCH  18  20
ATOM     20  C   UNL     1       3.131  -0.948  -4.246  1.00  0.00    -0.026 A 
ATOM     21  C   UNL     1       4.374  -0.360  -3.942  1.00  0.00     0.009 A 
ATOM     22  C   UNL     1       3.129  -2.127  -5.011  1.00  0.00     0.009 A 
ATOM     23  C   UNL     1       5.569  -0.901  -4.418  1.00  0.00     0.039 A 
ATOM     24  C   UNL     1       4.329  -2.703  -5.436  1.00  0.00     0.039 A 
ATOM     25  C   UNL     1       5.535  -2.077  -5.150  1.00  0.00     0.123 A 
ATOM     26  F   UNL     1       6.684  -2.632  -5.556  1.00  0.00    -0.207 F 
ENDBRANCH  18  20
ENDBRANCH  16  18
ENDBRANCH  13  14
ENDBRANCH  10  13
ENDBRANCH   6  10
ENDBRANCH   3   6
ENDBRANCH   1   2
BRANCH   1  27
ATOM     27  C   UNL     1       3.309   4.363  -4.252  1.00  0.00     0.023 C 
BRANCH  27  28
ATOM     28  C   UNL     1       4.722   4.478  -4.844  1.00  0.00     0.023 C 
BRANCH  28  29
ATOM     29  C   UNL     1       5.126   3.460  -5.918  1.00  0.00     0.116 C 
BRANCH  29  30
ATOM     30  N   UNL     1       4.358   3.521  -7.153  1.00  0.00    -0.352 N 
ATOM     31  C   UNL     1       4.821   3.405  -8.447  1.00  0.00     0.251 C 
ATOM     32  H   UNL     1       3.389   3.661  -7.052  1.00  0.00     0.163 HD
ATOM     33  O   UNL     1       4.057   3.506  -9.404  1.00  0.00    -0.269 OA
BRANCH  31  34
ATOM     34  C   UNL     1       6.270   3.220  -8.684  1.00  0.00     0.039 A 
ATOM     35  C   UNL     1       6.942   4.143  -9.489  1.00  0.00     0.014 A 
ATOM     36  C   UNL     1       6.973   2.195  -8.046  1.00  0.00     0.014 A 
ATOM     37  C   UNL     1       8.336   4.101  -9.571  1.00  0.00     0.010 A 
ATOM     38  C   UNL     1       8.367   2.197  -8.075  1.00  0.00     0.010 A 
ATOM     39  C   UNL     1       9.064   3.163  -8.819  1.00  0.00    -0.014 A 
BRANCH  39  40
ATOM     40  C   UNL     1      10.550   3.204  -8.774  1.00  0.00     0.031 A 
ATOM     41  C   UNL     1      11.360   2.057  -9.309  1.00  0.00     0.074 A 
ATOM     42  C   UNL     1      11.172   4.251  -8.194  1.00  0.00     0.049 A 
ATOM     43  N   UNL     1      12.659   1.889  -9.304  1.00  0.00    -0.248 NA
ATOM     44  C   UNL     1      10.613   0.941  -9.909  1.00  0.00     0.031 C 
ATOM     45  C   UNL     1      10.502   5.406  -7.593  1.00  0.00     0.029 A 
ATOM     46  N   UNL     1      12.509   4.514  -8.009  1.00  0.00    -0.354 N 
ATOM     47  C   UNL     1      12.881   0.649  -9.885  1.00  0.00     0.074 A 
ATOM     48  C   UNL     1      11.584   0.083 -10.186  1.00  0.00     0.031 C 
ATOM     49  C   UNL     1      11.427   6.267  -7.141  1.00  0.00     0.029 A 
ATOM     50  C   UNL     1      12.756   5.711  -7.381  1.00  0.00     0.049 A 
ATOM     51  H   UNL     1      13.223   3.901  -8.300  1.00  0.00     0.167 HD
ATOM     52  C   UNL     1      14.061   0.048 -10.167  1.00  0.00     0.037 A 
ATOM     53  C   UNL     1      13.920   6.297  -7.038  1.00  0.00     0.037 A 
ATOM     54  C   UNL     1      15.352   0.625  -9.900  1.00  0.00     0.049 A 
ATOM     55  C   UNL     1      15.217   5.605  -7.359  1.00  0.00     0.074 A 
ATOM     56  C   UNL     1      16.601   0.116 -10.207  1.00  0.00     0.029 A 
ATOM     57  N   UNL     1      15.559   1.841  -9.267  1.00  0.00    -0.354 N 
ATOM     58  N   UNL     1      15.414   4.458  -7.962  1.00  0.00    -0.248 NA
ATOM     59  C   UNL     1      16.455   6.289  -6.955  1.00  0.00     0.031 C 
ATOM     60  C   UNL     1      17.566   1.004  -9.723  1.00  0.00     0.029 A 
ATOM     61  C   UNL     1      16.917   2.089  -9.157  1.00  0.00     0.049 A 
ATOM     62  H   UNL     1      14.846   2.439  -8.943  1.00  0.00     0.167 HD
ATOM     63  C   UNL     1      16.790   4.294  -8.032  1.00  0.00     0.074 A 
ATOM     64  C   UNL     1      17.384   5.464  -7.420  1.00  0.00     0.031 C 
ATOM     65  C   UNL     1      17.496   3.263  -8.556  1.00  0.00     0.037 A 
BRANCH  52  66
ATOM     66  C   UNL     1      14.020  -1.302 -10.819  1.00  0.00     0.064 A 
ATOM     67  C   UNL     1      14.442  -2.445 -10.122  1.00  0.00     0.173 A 
ATOM     68  C   UNL     1      13.634  -1.455 -12.159  1.00  0.00     0.173 A 
ATOM     69  F   UNL     1      14.829  -2.351  -8.841  1.00  0.00    -0.203 F 
ATOM     70  C   UNL     1      14.490  -3.688 -10.748  1.00  0.00     0.198 A 
ATOM     71  C   UNL     1      13.657  -2.704 -12.773  1.00  0.00     0.198 A 
ATOM     72  F   UNL     1      13.214  -0.394 -12.865  1.00  0.00    -0.203 F 
ATOM     73  F   UNL     1      14.927  -4.760 -10.072  1.00  0.00    -0.200 F 
ATOM     74  C   UNL     1      14.094  -3.817 -12.070  1.00  0.00     0.200 A 
ATOM     75  F   UNL     1      13.254  -2.831 -14.044  1.00  0.00    -0.200 F 
ATOM     76  F   UNL     1      14.134  -5.015 -12.669  1.00  0.00    -0.200 F 
ENDBRANCH  52  66
BRANCH  53  77
ATOM     77  C   UNL     1      13.911   7.633  -6.386  1.00  0.00     0.064 A 
ATOM     78  C   UNL     1      13.458   7.804  -5.070  1.00  0.00     0.173 A 
ATOM     79  C   UNL     1      14.346   8.771  -7.079  1.00  0.00     0.173 A 
ATOM     80  F   UNL     1      13.030   6.747  -4.364  1.00  0.00    -0.203 F 
ATOM     81  C   UNL     1      13.424   9.066  -4.479  1.00  0.00     0.198 A 
ATOM     82  C   UNL     1      14.335  10.028  -6.479  1.00  0.00     0.198 A 
ATOM     83  F   UNL     1      14.809   8.654  -8.332  1.00  0.00    -0.203 F 
ATOM     84  F   UNL     1      12.959   9.207  -3.230  1.00  0.00    -0.200 F 
ATOM     85  C   UNL     1      13.867  10.176  -5.182  1.00  0.00     0.200 A 
ATOM     86  F   UNL     1      14.788  11.094  -7.153  1.00  0.00    -0.200 F 
ATOM     87  F   UNL     1      13.848  11.387  -4.608  1.00  0.00    -0.200 F 
ENDBRANCH  53  77
BRANCH  65  88
ATOM     88  C   UNL     1      18.993   3.352  -8.522  1.00  0.00     0.064 A 
ATOM     89  C   UNL     1      19.720   3.535  -9.709  1.00  0.00     0.173 A 
ATOM     90  C   UNL     1      19.711   3.163  -7.333  1.00  0.00     0.173 A 
ATOM     91  F   UNL     1      19.079   3.712 -10.874  1.00  0.00    -0.203 F 
ATOM     92  C   UNL     1      21.111   3.508  -9.707  1.00  0.00     0.198 A 
ATOM     93  C   UNL     1      21.103   3.163  -7.331  1.00  0.00     0.198 A 
ATOM     94  F   UNL     1      19.060   2.996  -6.171  1.00  0.00    -0.203 F 
ATOM     95  F   UNL     1      21.784   3.647 -10.858  1.00  0.00    -0.200 F 
ATOM     96  C   UNL     1      21.802   3.324  -8.519  1.00  0.00     0.200 A 
ATOM     97  F   UNL     1      21.769   3.007  -6.179  1.00  0.00    -0.200 F 
ATOM     98  F   UNL     1      23.142   3.301  -8.518  1.00  0.00    -0.200 F 
ENDBRANCH  65  88
ENDBRANCH  39  40
ENDBRANCH  31  34
ENDBRANCH  29  30
ENDBRANCH  28  29
ENDBRANCH  27  28
ENDBRANCH   1  27
TORSDOF 17
