REMARK SMILES Cc1ccccc1OCC(=O)N1C[C@@H](O)C[C@H]1C(=O)NCCCCNC(=O)c1ccc(-c2c3nc(c(-c4c(F)c(F)c(F)c(F)c4F)c4ccc([nH]4)c(-c4c(F)c(F)c(F)c(F)c4F)c4nc(c(-c5c(F)c(F)c(F)c(F)c5F)c5ccc2[nH]5)C=C4)C=C3)cc1
REMARK SMILES IDX 21 1 20 2 18 3 19 4 17 6 12 7 13 8 14 9 16 10 10 11 11 12
REMARK SMILES IDX 9 13 8 14 7 15 1 16 2 17 3 18 4 19 6 20 5 21 15 22 22 24
REMARK SMILES IDX 23 25 24 26 25 27 26 28 27 30 28 31 29 32 90 33 30 34 89 35
REMARK SMILES IDX 31 36 32 37 33 38 83 39 34 40 88 41 82 42 84 43 35 44 87 45
REMARK SMILES IDX 81 46 80 47 36 49 68 50 48 51 67 52 49 53 52 54 66 55 85 56
REMARK SMILES IDX 50 57 51 58 65 60 86 61 53 62 37 63 38 64 46 65 39 66 40 67
REMARK SMILES IDX 44 68 47 69 41 70 42 71 45 72 43 73 69 74 70 75 78 76 71 77
REMARK SMILES IDX 72 78 76 79 79 80 73 81 74 82 77 83 75 84 54 85 55 86 63 87
REMARK SMILES IDX 56 88 57 89 61 90 64 91 58 92 59 93 62 94 60 95
REMARK H PARENT 20 5 15 23 25 29 84 48 52 59
REMARK Flexibility Score: inf
ROOT
ATOM      1  C   UNL     1       1.475   0.045   4.504  1.00  0.00     0.116 C 
ENDROOT
BRANCH   1   2
ATOM      2  N   UNL     1       2.924  -0.004   4.468  1.00  0.00    -0.354 N 
ATOM      3  C   UNL     1       3.858   0.959   4.219  1.00  0.00     0.242 C 
ATOM      4  O   UNL     1       5.023   0.677   4.521  1.00  0.00    -0.273 OA
ATOM      5  H   UNL     1       3.302  -0.893   4.659  1.00  0.00     0.163 HD
BRANCH   3   6
ATOM      6  C   UNL     1       3.495   2.390   3.771  1.00  0.00     0.177 C 
ATOM      7  N   UNL     1       2.614   2.498   2.608  1.00  0.00    -0.325 N 
ATOM      8  C   UNL     1       1.424   3.277   2.893  1.00  0.00     0.152 C 
ATOM      9  C   UNL     1       1.717   3.990   4.212  1.00  0.00     0.136 C 
ATOM     10  C   UNL     1       2.806   3.166   4.895  1.00  0.00     0.069 C 
BRANCH   7  11
ATOM     11  C   UNL     1       3.094   2.165   1.355  1.00  0.00     0.261 C 
ATOM     12  O   UNL     1       4.199   1.636   1.214  1.00  0.00    -0.271 OA
BRANCH  11  13
ATOM     13  C   UNL     1       2.268   2.560   0.121  1.00  0.00     0.329 C 
BRANCH  13  14
ATOM     14  O   UNL     1       0.887   2.299   0.123  1.00  0.00    -0.484 OA
BRANCH  14  15
ATOM     15  C   UNL     1       0.346   1.065  -0.070  1.00  0.00     0.122 A 
ATOM     16  C   UNL     1       2.413  -0.445  -0.505  1.00  0.00     0.048 C 
ATOM     17  C   UNL     1       0.943  -0.174  -0.352  1.00  0.00    -0.009 A 
ATOM     18  C   UNL     1       0.106  -1.314  -0.431  1.00  0.00     0.007 A 
ATOM     19  C   UNL     1      -1.273  -1.237  -0.244  1.00  0.00     0.001 A 
ATOM     20  C   UNL     1      -1.053   1.126   0.083  1.00  0.00     0.047 A 
ATOM     21  C   UNL     1      -1.858  -0.008   0.005  1.00  0.00     0.004 A 
ENDBRANCH  14  15
ENDBRANCH  13  14
ENDBRANCH  11  13
ENDBRANCH   7  11
BRANCH   9  22
ATOM     22  O   UNL     1       0.567   4.097   5.037  1.00  0.00    -0.391 OA
ATOM     23  H   UNL     1       0.230   3.210   5.238  1.00  0.00     0.211 HD
ENDBRANCH   9  22
ENDBRANCH   3   6
ENDBRANCH   1   2
BRANCH   1  24
ATOM     24  C   UNL     1       0.814  -0.557   3.268  1.00  0.00     0.023 C 
BRANCH  24  25
ATOM     25  C   UNL     1       1.112  -2.036   3.022  1.00  0.00     0.023 C 
BRANCH  25  26
ATOM     26  C   UNL     1       0.524  -2.982   4.058  1.00  0.00     0.116 C 
BRANCH  26  27
ATOM     27  N   UNL     1      -0.865  -3.356   3.831  1.00  0.00    -0.352 N 
ATOM     28  C   UNL     1      -1.733  -4.071   4.647  1.00  0.00     0.251 C 
ATOM     29  H   UNL     1      -1.246  -3.058   2.974  1.00  0.00     0.163 HD
ATOM     30  O   UNL     1      -2.844  -4.366   4.246  1.00  0.00    -0.269 OA
BRANCH  28  31
ATOM     31  C   UNL     1      -1.357  -4.345   6.061  1.00  0.00     0.039 A 
ATOM     32  C   UNL     1      -2.323  -4.117   7.050  1.00  0.00     0.014 A 
ATOM     33  C   UNL     1      -0.041  -4.606   6.427  1.00  0.00     0.014 A 
ATOM     34  C   UNL     1      -1.917  -3.876   8.361  1.00  0.00     0.010 A 
ATOM     35  C   UNL     1       0.378  -4.261   7.697  1.00  0.00     0.010 A 
ATOM     36  C   UNL     1      -0.553  -3.816   8.639  1.00  0.00    -0.014 A 
BRANCH  36  37
ATOM     37  C   UNL     1      -0.001  -3.144   9.809  1.00  0.00     0.031 A 
ATOM     38  C   UNL     1       0.672  -3.909  10.880  1.00  0.00     0.074 A 
ATOM     39  C   UNL     1      -0.004  -1.791   9.837  1.00  0.00     0.049 A 
ATOM     40  N   UNL     1       0.931  -3.428  12.049  1.00  0.00    -0.248 NA
ATOM     41  C   UNL     1       1.036  -5.316  10.752  1.00  0.00     0.031 C 
ATOM     42  C   UNL     1       0.781  -0.917  10.706  1.00  0.00     0.029 A 
ATOM     43  N   UNL     1      -0.890  -0.918   9.178  1.00  0.00    -0.354 N 
ATOM     44  C   UNL     1       1.727  -4.331  12.713  1.00  0.00     0.074 A 
ATOM     45  C   UNL     1       1.645  -5.533  11.924  1.00  0.00     0.031 C 
ATOM     46  C   UNL     1       0.188   0.285  10.765  1.00  0.00     0.029 A 
ATOM     47  C   UNL     1      -1.077   0.171  10.061  1.00  0.00     0.049 A 
ATOM     48  H   UNL     1      -1.296  -1.040   8.289  1.00  0.00     0.167 HD
ATOM     49  C   UNL     1       2.453  -3.895  13.782  1.00  0.00     0.037 A 
ATOM     50  C   UNL     1      -2.295   0.448  10.610  1.00  0.00     0.037 A 
ATOM     51  C   UNL     1       1.991  -2.572  14.210  1.00  0.00     0.049 A 
ATOM     52  C   UNL     1      -2.315   0.415  12.119  1.00  0.00     0.074 A 
ATOM     53  C   UNL     1       2.509  -1.295  14.087  1.00  0.00     0.029 A 
ATOM     54  N   UNL     1       0.680  -2.426  14.657  1.00  0.00    -0.354 N 
ATOM     55  N   UNL     1      -1.405  -0.172  12.844  1.00  0.00    -0.248 NA
ATOM     56  C   UNL     1      -3.379   1.004  12.928  1.00  0.00     0.031 C 
ATOM     57  C   UNL     1       1.468  -0.374  14.384  1.00  0.00     0.029 A 
ATOM     58  C   UNL     1       0.335  -1.092  14.728  1.00  0.00     0.049 A 
ATOM     59  H   UNL     1       0.082  -3.173  14.891  1.00  0.00     0.167 HD
ATOM     60  C   UNL     1      -1.751  -0.090  14.167  1.00  0.00     0.074 A 
ATOM     61  C   UNL     1      -2.981   0.679  14.170  1.00  0.00     0.031 C 
ATOM     62  C   UNL     1      -1.002  -0.687  15.142  1.00  0.00     0.037 A 
BRANCH  49  63
ATOM     63  C   UNL     1       3.712  -4.541  14.343  1.00  0.00     0.064 A 
ATOM     64  C   UNL     1       4.417  -3.915  15.399  1.00  0.00     0.173 A 
ATOM     65  C   UNL     1       4.356  -5.684  13.822  1.00  0.00     0.173 A 
ATOM     66  F   UNL     1       3.932  -2.826  16.012  1.00  0.00    -0.203 F 
ATOM     67  C   UNL     1       5.662  -4.369  15.857  1.00  0.00     0.198 A 
ATOM     68  C   UNL     1       5.579  -6.161  14.309  1.00  0.00     0.198 A 
ATOM     69  F   UNL     1       3.870  -6.376  12.791  1.00  0.00    -0.203 F 
ATOM     70  F   UNL     1       6.304  -3.693  16.820  1.00  0.00    -0.200 F 
ATOM     71  C   UNL     1       6.241  -5.495  15.314  1.00  0.00     0.200 A 
ATOM     72  F   UNL     1       6.119  -7.263  13.767  1.00  0.00    -0.200 F 
ATOM     73  F   UNL     1       7.433  -5.929  15.744  1.00  0.00    -0.200 F 
ENDBRANCH  49  63
BRANCH  50  74
ATOM     74  C   UNL     1      -3.434   0.073   9.734  1.00  0.00     0.064 A 
ATOM     75  C   UNL     1      -3.593   0.763   8.518  1.00  0.00     0.173 A 
ATOM     76  C   UNL     1      -4.097  -1.151   9.877  1.00  0.00     0.173 A 
ATOM     77  F   UNL     1      -2.970   1.937   8.328  1.00  0.00    -0.203 F 
ATOM     78  C   UNL     1      -4.289   0.200   7.451  1.00  0.00     0.198 A 
ATOM     79  C   UNL     1      -4.803  -1.708   8.807  1.00  0.00     0.198 A 
ATOM     80  F   UNL     1      -3.963  -1.868  11.002  1.00  0.00    -0.203 F 
ATOM     81  F   UNL     1      -4.326   0.833   6.269  1.00  0.00    -0.200 F 
ATOM     82  C   UNL     1      -4.870  -1.049   7.588  1.00  0.00     0.200 A 
ATOM     83  F   UNL     1      -5.335  -2.933   8.927  1.00  0.00    -0.200 F 
ATOM     84  F   UNL     1      -5.454  -1.637   6.535  1.00  0.00    -0.200 F 
ENDBRANCH  50  74
BRANCH  62  85
ATOM     85  C   UNL     1      -1.419  -0.882  16.581  1.00  0.00     0.064 A 
ATOM     86  C   UNL     1      -2.753  -1.003  17.005  1.00  0.00     0.173 A 
ATOM     87  C   UNL     1      -0.442  -1.108  17.582  1.00  0.00     0.173 A 
ATOM     88  F   UNL     1      -3.771  -0.935  16.137  1.00  0.00    -0.203 F 
ATOM     89  C   UNL     1      -3.087  -1.263  18.338  1.00  0.00     0.198 A 
ATOM     90  C   UNL     1      -0.778  -1.426  18.898  1.00  0.00     0.198 A 
ATOM     91  F   UNL     1       0.869  -1.055  17.305  1.00  0.00    -0.203 F 
ATOM     92  F   UNL     1      -4.377  -1.327  18.698  1.00  0.00    -0.200 F 
ATOM     93  C   UNL     1      -2.101  -1.486  19.281  1.00  0.00     0.200 A 
ATOM     94  F   UNL     1       0.190  -1.694  19.786  1.00  0.00    -0.200 F 
ATOM     95  F   UNL     1      -2.426  -1.782  20.546  1.00  0.00    -0.200 F 
ENDBRANCH  62  85
ENDBRANCH  36  37
ENDBRANCH  28  31
ENDBRANCH  26  27
ENDBRANCH  25  26
ENDBRANCH  24  25
ENDBRANCH   1  24
TORSDOF 16
