REMARK SMILES O=CN1CC[NH+](C[C@@H](CC(=O)Nc2ccc(C(F)(F)F)nc2)C(=O)NCCCCNC(=O)c2ccc(-c3c4nc(c(-c5c(F)c(F)c(F)c(F)c5F)c5ccc([nH]5)c(-c5c(F)c(F)c(F)c(F)c5F)c5nc(c(-c6c(F)c(F)c(F)c(F)c6F)c6ccc3[nH]6)C=C5)C=C4)cc2)CC1
REMARK SMILES IDX 26 1 25 2 23 3 24 4 8 6 7 7 6 8 1 9 2 10 3 11 4 12 97 13
REMARK SMILES IDX 5 14 96 15 9 17 10 18 11 19 12 20 13 22 14 23 22 24 15 25
REMARK SMILES IDX 21 26 16 27 17 28 18 29 19 30 20 31 27 32 28 33 29 34 30 35
REMARK SMILES IDX 31 36 32 38 33 39 34 40 95 41 35 42 94 43 36 44 37 45 38 46
REMARK SMILES IDX 88 47 39 48 93 49 87 50 89 51 40 52 92 53 86 54 85 55 41 57
REMARK SMILES IDX 73 58 53 59 72 60 54 61 57 62 71 63 90 64 55 65 56 66 70 68
REMARK SMILES IDX 91 69 58 70 42 71 43 72 51 73 44 74 45 75 49 76 52 77 46 78
REMARK SMILES IDX 47 79 50 80 48 81 74 82 75 83 83 84 76 85 77 86 81 87 84 88
REMARK SMILES IDX 78 89 79 90 82 91 80 92 59 93 60 94 68 95 61 96 62 97 66 98
REMARK SMILES IDX 69 99 63 100 64 101 67 102 65 103
REMARK H PARENT 25 5 6 16 12 21 30 37 89 56 57 67
REMARK Flexibility Score: inf
ROOT
ATOM      1  C   UNL     1       7.860   4.477  -1.563  1.00  0.00     0.116 C 
ENDROOT
BRANCH   1   2
ATOM      2  N   UNL     1       7.340   4.713  -0.254  1.00  0.00    -0.356 N 
ATOM      3  C   UNL     1       6.388   3.950   0.365  1.00  0.00     0.229 C 
ATOM      4  O   UNL     1       6.153   4.188   1.552  1.00  0.00    -0.275 OA
ATOM      5  H   UNL     1       7.696   5.485   0.243  1.00  0.00     0.163 HD
BRANCH   3   6
ATOM      6  C   UNL     1       5.543   2.898  -0.405  1.00  0.00     0.142 C 
BRANCH   6   7
ATOM      7  C   UNL     1       4.249   3.583  -0.870  1.00  0.00     0.276 C 
BRANCH   7   8
ATOM      8  N   UNL     1       3.163   2.924  -1.611  1.00  0.00    -0.331 N 
ATOM      9  O   UNL     1       0.360  -0.165   1.349  1.00  0.00    -0.279 OA
ATOM     10  C   UNL     1       1.245  -0.287   0.518  1.00  0.00     0.340 C 
ATOM     11  N   UNL     1       1.890   0.743  -0.130  1.00  0.00    -0.334 N 
ATOM     12  C   UNL     1       3.075   0.483  -0.925  1.00  0.00     0.180 C 
ATOM     13  C   UNL     1       1.609   2.135   0.221  1.00  0.00     0.180 C 
ATOM     14  C   UNL     1       3.280   1.524  -2.030  1.00  0.00     0.284 C 
ATOM     15  C   UNL     1       1.843   3.101  -0.959  1.00  0.00     0.284 C 
ATOM     16  H   UNL     1       3.258   3.439  -2.486  1.00  0.00     0.348 HD
ENDBRANCH   7   8
ENDBRANCH   6   7
BRANCH   6  17
ATOM     17  C   UNL     1       6.339   1.882  -1.239  1.00  0.00     0.119 C 
BRANCH  17  18
ATOM     18  C   UNL     1       6.944   1.899  -2.658  1.00  0.00     0.225 C 
ATOM     19  O   UNL     1       8.041   1.325  -2.784  1.00  0.00    -0.275 OA
ATOM     20  N   UNL     1       6.419   2.315  -3.837  1.00  0.00    -0.325 N 
ATOM     21  H   UNL     1       6.942   1.988  -4.604  1.00  0.00     0.169 HD
BRANCH  20  22
ATOM     22  C   UNL     1       5.327   3.089  -4.245  1.00  0.00     0.059 A 
ATOM     23  C   UNL     1       5.067   4.386  -3.833  1.00  0.00     0.030 A 
ATOM     24  C   UNL     1       4.487   2.580  -5.229  1.00  0.00     0.137 A 
ATOM     25  C   UNL     1       3.890   5.028  -4.223  1.00  0.00     0.035 A 
ATOM     26  N   UNL     1       3.332   3.166  -5.626  1.00  0.00    -0.250 NA
ATOM     27  C   UNL     1       3.000   4.357  -5.052  1.00  0.00     0.144 A 
BRANCH  27  28
ATOM     28  C   UNL     1       1.623   4.961  -5.286  1.00  0.00     0.433 C 
ATOM     29  F   UNL     1       1.603   5.856  -6.313  1.00  0.00    -0.165 F 
ATOM     30  F   UNL     1       0.658   4.039  -5.561  1.00  0.00    -0.165 F 
ATOM     31  F   UNL     1       1.164   5.649  -4.196  1.00  0.00    -0.165 F 
ENDBRANCH  27  28
ENDBRANCH  20  22
ENDBRANCH  17  18
ENDBRANCH   6  17
ENDBRANCH   3   6
ENDBRANCH   1   2
BRANCH   1  32
ATOM     32  C   UNL     1       8.289   5.667  -2.394  1.00  0.00     0.023 C 
BRANCH  32  33
ATOM     33  C   UNL     1       9.726   6.092  -2.188  1.00  0.00     0.023 C 
BRANCH  33  34
ATOM     34  C   UNL     1      10.747   4.966  -2.265  1.00  0.00     0.116 C 
BRANCH  34  35
ATOM     35  N   UNL     1      10.787   4.267  -3.546  1.00  0.00    -0.352 N 
ATOM     36  C   UNL     1      11.889   4.015  -4.338  1.00  0.00     0.251 C 
ATOM     37  H   UNL     1       9.925   3.935  -3.886  1.00  0.00     0.163 HD
ATOM     38  O   UNL     1      11.780   3.497  -5.442  1.00  0.00    -0.269 OA
BRANCH  36  39
ATOM     39  C   UNL     1      13.212   4.436  -3.834  1.00  0.00     0.039 A 
ATOM     40  C   UNL     1      13.999   5.289  -4.606  1.00  0.00     0.014 A 
ATOM     41  C   UNL     1      13.584   4.104  -2.529  1.00  0.00     0.014 A 
ATOM     42  C   UNL     1      15.118   5.891  -4.028  1.00  0.00     0.010 A 
ATOM     43  C   UNL     1      14.616   4.804  -1.922  1.00  0.00     0.010 A 
ATOM     44  C   UNL     1      15.403   5.696  -2.666  1.00  0.00    -0.014 A 
BRANCH  44  45
ATOM     45  C   UNL     1      16.537   6.389  -2.000  1.00  0.00     0.031 A 
ATOM     46  C   UNL     1      17.631   5.575  -1.363  1.00  0.00     0.074 A 
ATOM     47  C   UNL     1      16.554   7.734  -1.908  1.00  0.00     0.049 A 
ATOM     48  N   UNL     1      18.671   5.974  -0.677  1.00  0.00    -0.248 NA
ATOM     49  C   UNL     1      17.519   4.111  -1.480  1.00  0.00     0.031 C 
ATOM     50  C   UNL     1      15.525   8.635  -2.431  1.00  0.00     0.029 A 
ATOM     51  N   UNL     1      17.473   8.580  -1.337  1.00  0.00    -0.354 N 
ATOM     52  C   UNL     1      19.320   4.815  -0.272  1.00  0.00     0.074 A 
ATOM     53  C   UNL     1      18.515   3.700  -0.713  1.00  0.00     0.031 C 
ATOM     54  C   UNL     1      15.890   9.906  -2.195  1.00  0.00     0.029 A 
ATOM     55  C   UNL     1      17.155   9.911  -1.466  1.00  0.00     0.049 A 
ATOM     56  H   UNL     1      18.283   8.262  -0.878  1.00  0.00     0.167 HD
ATOM     57  C   UNL     1      20.503   4.688   0.374  1.00  0.00     0.037 A 
ATOM     58  C   UNL     1      17.813  11.008  -1.044  1.00  0.00     0.037 A 
ATOM     59  C   UNL     1      21.316   5.799   0.786  1.00  0.00     0.049 A 
ATOM     60  C   UNL     1      19.120  10.840  -0.313  1.00  0.00     0.074 A 
ATOM     61  C   UNL     1      22.555   5.781   1.401  1.00  0.00     0.029 A 
ATOM     62  N   UNL     1      20.966   7.132   0.625  1.00  0.00    -0.354 N 
ATOM     63  N   UNL     1      19.762   9.740  -0.002  1.00  0.00    -0.248 NA
ATOM     64  C   UNL     1      19.798  12.071   0.118  1.00  0.00     0.031 C 
ATOM     65  C   UNL     1      22.930   7.102   1.662  1.00  0.00     0.029 A 
ATOM     66  C   UNL     1      21.957   7.946   1.150  1.00  0.00     0.049 A 
ATOM     67  H   UNL     1      20.138   7.452   0.201  1.00  0.00     0.167 HD
ATOM     68  C   UNL     1      20.934  10.145   0.624  1.00  0.00     0.074 A 
ATOM     69  C   UNL     1      20.920  11.593   0.637  1.00  0.00     0.031 C 
ATOM     70  C   UNL     1      21.933   9.387   1.139  1.00  0.00     0.037 A 
BRANCH  57  71
ATOM     71  C   UNL     1      20.985   3.294   0.663  1.00  0.00     0.064 A 
ATOM     72  C   UNL     1      21.365   2.416  -0.366  1.00  0.00     0.173 A 
ATOM     73  C   UNL     1      21.078   2.832   1.984  1.00  0.00     0.173 A 
ATOM     74  F   UNL     1      21.280   2.802  -1.649  1.00  0.00    -0.203 F 
ATOM     75  C   UNL     1      21.780   1.118  -0.085  1.00  0.00     0.198 A 
ATOM     76  C   UNL     1      21.531   1.545   2.263  1.00  0.00     0.198 A 
ATOM     77  F   UNL     1      20.731   3.628   3.006  1.00  0.00    -0.203 F 
ATOM     78  F   UNL     1      22.072   0.278  -1.088  1.00  0.00    -0.200 F 
ATOM     79  C   UNL     1      21.870   0.685   1.229  1.00  0.00     0.200 A 
ATOM     80  F   UNL     1      21.632   1.133   3.534  1.00  0.00    -0.200 F 
ATOM     81  F   UNL     1      22.275  -0.563   1.498  1.00  0.00    -0.200 F 
ENDBRANCH  57  71
BRANCH  58  82
ATOM     82  C   UNL     1      17.273  12.364  -1.333  1.00  0.00     0.064 A 
ATOM     83  C   UNL     1      17.938  13.230  -2.214  1.00  0.00     0.173 A 
ATOM     84  C   UNL     1      16.100  12.833  -0.725  1.00  0.00     0.173 A 
ATOM     85  F   UNL     1      19.076  12.838  -2.807  1.00  0.00    -0.203 F 
ATOM     86  C   UNL     1      17.466  14.519  -2.454  1.00  0.00     0.198 A 
ATOM     87  C   UNL     1      15.611  14.111  -0.990  1.00  0.00     0.198 A 
ATOM     88  F   UNL     1      15.421  12.045   0.122  1.00  0.00    -0.203 F 
ATOM     89  F   UNL     1      18.152  15.342  -3.259  1.00  0.00    -0.200 F 
ATOM     90  C   UNL     1      16.299  14.957  -1.846  1.00  0.00     0.200 A 
ATOM     91  F   UNL     1      14.474  14.524  -0.412  1.00  0.00    -0.200 F 
ATOM     92  F   UNL     1      15.844  16.195  -2.078  1.00  0.00    -0.200 F 
ENDBRANCH  58  82
BRANCH  70  93
ATOM     93  C   UNL     1      23.122  10.106   1.712  1.00  0.00     0.064 A 
ATOM     94  C   UNL     1      23.043  10.837   2.906  1.00  0.00     0.173 A 
ATOM     95  C   UNL     1      24.370  10.025   1.073  1.00  0.00     0.173 A 
ATOM     96  F   UNL     1      21.871  10.957   3.549  1.00  0.00    -0.203 F 
ATOM     97  C   UNL     1      24.161  11.488   3.422  1.00  0.00     0.198 A 
ATOM     98  C   UNL     1      25.493  10.645   1.612  1.00  0.00     0.198 A 
ATOM     99  F   UNL     1      24.503   9.330  -0.067  1.00  0.00    -0.203 F 
ATOM    100  F   UNL     1      24.049  12.227   4.534  1.00  0.00    -0.200 F 
ATOM    101  C   UNL     1      25.386  11.384   2.780  1.00  0.00     0.200 A 
ATOM    102  F   UNL     1      26.679  10.528   0.999  1.00  0.00    -0.200 F 
ATOM    103  F   UNL     1      26.462  12.003   3.283  1.00  0.00    -0.200 F 
ENDBRANCH  70  93
ENDBRANCH  44  45
ENDBRANCH  36  39
ENDBRANCH  34  35
ENDBRANCH  33  34
ENDBRANCH  32  33
ENDBRANCH   1  32
TORSDOF 17
