REMARK SMILES CC[C@H](C)[C@@H](Nc1ccc(Cl)c(Br)c1)C(=O)NCCCCNC(=O)c1ccc(-c2c3nc(c(-c4c(F)c(F)c(F)c(F)c4F)c4ccc([nH]4)c(-c4c(F)c(F)c(F)c(F)c4F)c4nc(c(-c5c(F)c(F)c(F)c(F)c5F)c5ccc2[nH]5)C=C4)C=C3)cc1
REMARK SMILES IDX 19 1 18 2 17 3 15 4 16 5 5 7 3 8 4 9 2 10 1 11 6 12 7 14
REMARK SMILES IDX 8 15 14 16 9 17 12 18 10 19 13 20 11 21 20 22 21 23 22 24
REMARK SMILES IDX 23 25 24 27 25 28 26 29 87 30 27 31 86 32 28 33 29 34 30 35
REMARK SMILES IDX 80 36 31 37 85 38 79 39 81 40 32 41 84 42 78 43 77 44 33 46
REMARK SMILES IDX 65 47 45 48 64 49 46 50 49 51 63 52 82 53 47 54 48 55 62 57
REMARK SMILES IDX 83 58 50 59 34 60 35 61 43 62 36 63 37 64 41 65 44 66 38 67
REMARK SMILES IDX 39 68 42 69 40 70 66 71 67 72 75 73 68 74 69 75 73 76 76 77
REMARK SMILES IDX 70 78 71 79 74 80 72 81 51 82 52 83 60 84 53 85 54 86 58 87
REMARK SMILES IDX 61 88 55 89 56 90 59 91 57 92
REMARK H PARENT 17 6 6 13 22 26 81 45 49 56
REMARK Flexibility Score: inf
ROOT
ATOM      1  C   UNL     1       4.324   3.028  -1.823  1.00  0.00     0.023 C 
ENDROOT
BRANCH   1   2
ATOM      2  C   UNL     1       3.477   3.999  -1.012  1.00  0.00     0.116 C 
BRANCH   2   3
ATOM      3  N   UNL     1       2.401   4.572  -1.796  1.00  0.00    -0.354 N 
ATOM      4  C   UNL     1       1.062   4.619  -1.521  1.00  0.00     0.242 C 
ATOM      5  O   UNL     1       0.345   5.262  -2.296  1.00  0.00    -0.273 OA
ATOM      6  H   UNL     1       2.672   4.987  -2.647  1.00  0.00     0.163 HD
BRANCH   4   7
ATOM      7  C   UNL     1       0.446   3.863  -0.310  1.00  0.00     0.171 C 
BRANCH   7   8
ATOM      8  C   UNL     1       0.572   2.315  -0.505  1.00  0.00     0.018 C 
ATOM      9  C   UNL     1      -0.262   1.540   0.530  1.00  0.00     0.010 C 
BRANCH   8  10
ATOM     10  C   UNL     1       0.186   1.858  -1.934  1.00  0.00     0.002 C 
ATOM     11  C   UNL     1       0.567   0.411  -2.225  1.00  0.00     0.004 C 
ENDBRANCH   8  10
ENDBRANCH   7   8
BRANCH   7  12
ATOM     12  N   UNL     1       1.049   4.265   0.987  1.00  0.00    -0.373 N 
ATOM     13  H   UNL     1       1.026   3.602   1.714  1.00  0.00     0.161 HD
BRANCH  12  14
ATOM     14  C   UNL     1       1.640   5.484   1.269  1.00  0.00     0.036 A 
ATOM     15  C   UNL     1       1.266   6.684   0.661  1.00  0.00     0.027 A 
ATOM     16  C   UNL     1       2.790   5.489   2.073  1.00  0.00     0.043 A 
ATOM     17  C   UNL     1       2.051   7.836   0.791  1.00  0.00     0.024 A 
ATOM     18  C   UNL     1       3.592   6.630   2.196  1.00  0.00     0.038 A 
ATOM     19  C   UNL     1       3.228   7.806   1.539  1.00  0.00     0.055 A 
ATOM     20  Br  UNL     1       5.192   6.467   3.205  1.00  0.00    -0.049 Br
ATOM     21  Cl  UNL     1       4.195   9.236   1.574  1.00  0.00    -0.083 Cl
ENDBRANCH  12  14
ENDBRANCH   7  12
ENDBRANCH   4   7
ENDBRANCH   2   3
ENDBRANCH   1   2
BRANCH   1  22
ATOM     22  C   UNL     1       5.148   3.683  -2.929  1.00  0.00     0.023 C 
BRANCH  22  23
ATOM     23  C   UNL     1       6.047   4.827  -2.478  1.00  0.00     0.116 C 
BRANCH  23  24
ATOM     24  N   UNL     1       7.019   4.446  -1.460  1.00  0.00    -0.352 N 
ATOM     25  C   UNL     1       8.330   4.855  -1.353  1.00  0.00     0.251 C 
ATOM     26  H   UNL     1       6.700   3.822  -0.768  1.00  0.00     0.163 HD
ATOM     27  O   UNL     1       9.073   4.402  -0.491  1.00  0.00    -0.269 OA
BRANCH  25  28
ATOM     28  C   UNL     1       8.834   5.815  -2.351  1.00  0.00     0.039 A 
ATOM     29  C   UNL     1       8.163   7.025  -2.544  1.00  0.00     0.014 A 
ATOM     30  C   UNL     1       9.870   5.423  -3.201  1.00  0.00     0.014 A 
ATOM     31  C   UNL     1       8.408   7.756  -3.699  1.00  0.00     0.010 A 
ATOM     32  C   UNL     1      10.161   6.197  -4.325  1.00  0.00     0.010 A 
ATOM     33  C   UNL     1       9.386   7.331  -4.616  1.00  0.00    -0.014 A 
BRANCH  33  34
ATOM     34  C   UNL     1       9.532   8.048  -5.907  1.00  0.00     0.031 A 
ATOM     35  C   UNL     1       9.141   7.382  -7.199  1.00  0.00     0.074 A 
ATOM     36  C   UNL     1       9.935   9.331  -5.906  1.00  0.00     0.049 A 
ATOM     37  N   UNL     1       9.188   7.853  -8.420  1.00  0.00    -0.248 NA
ATOM     38  C   UNL     1       8.626   6.007  -7.109  1.00  0.00     0.031 C 
ATOM     39  C   UNL     1      10.295  10.097  -4.713  1.00  0.00     0.029 A 
ATOM     40  N   UNL     1      10.071  10.226  -6.935  1.00  0.00    -0.354 N 
ATOM     41  C   UNL     1       8.729   6.832  -9.241  1.00  0.00     0.074 A 
ATOM     42  C   UNL     1       8.428   5.705  -8.385  1.00  0.00     0.031 C 
ATOM     43  C   UNL     1      10.545  11.366  -5.069  1.00  0.00     0.029 A 
ATOM     44  C   UNL     1      10.423  11.485  -6.519  1.00  0.00     0.049 A 
ATOM     45  H   UNL     1       9.930   9.989  -7.880  1.00  0.00     0.167 HD
ATOM     46  C   UNL     1       8.563   6.837 -10.586  1.00  0.00     0.037 A 
ATOM     47  C   UNL     1      10.629  12.609  -7.228  1.00  0.00     0.037 A 
ATOM     48  C   UNL     1       8.845   7.964 -11.436  1.00  0.00     0.049 A 
ATOM     49  C   UNL     1      10.496  12.573  -8.721  1.00  0.00     0.074 A 
ATOM     50  C   UNL     1       8.728   8.061 -12.812  1.00  0.00     0.029 A 
ATOM     51  N   UNL     1       9.293   9.197 -10.986  1.00  0.00    -0.354 N 
ATOM     52  N   UNL     1      10.118  11.584  -9.493  1.00  0.00    -0.248 NA
ATOM     53  C   UNL     1      10.842  13.804  -9.444  1.00  0.00     0.031 C 
ATOM     54  C   UNL     1       9.130   9.345 -13.197  1.00  0.00     0.029 A 
ATOM     55  C   UNL     1       9.466  10.059 -12.058  1.00  0.00     0.049 A 
ATOM     56  H   UNL     1       9.462   9.427 -10.044  1.00  0.00     0.167 HD
ATOM     57  C   UNL     1      10.181  12.069 -10.790  1.00  0.00     0.074 A 
ATOM     58  C   UNL     1      10.611  13.450 -10.701  1.00  0.00     0.031 C 
ATOM     59  C   UNL     1       9.912  11.424 -11.952  1.00  0.00     0.037 A 
BRANCH  46  60
ATOM     60  C   UNL     1       8.066   5.575 -11.226  1.00  0.00     0.064 A 
ATOM     61  C   UNL     1       6.726   5.176 -11.117  1.00  0.00     0.173 A 
ATOM     62  C   UNL     1       8.931   4.773 -11.986  1.00  0.00     0.173 A 
ATOM     63  F   UNL     1       5.864   5.899 -10.388  1.00  0.00    -0.203 F 
ATOM     64  C   UNL     1       6.274   4.009 -11.730  1.00  0.00     0.198 A 
ATOM     65  C   UNL     1       8.471   3.619 -12.616  1.00  0.00     0.198 A 
ATOM     66  F   UNL     1      10.221   5.112 -12.124  1.00  0.00    -0.203 F 
ATOM     67  F   UNL     1       4.999   3.626 -11.579  1.00  0.00    -0.200 F 
ATOM     68  C   UNL     1       7.145   3.235 -12.483  1.00  0.00     0.200 A 
ATOM     69  F   UNL     1       9.312   2.876 -13.349  1.00  0.00    -0.200 F 
ATOM     70  F   UNL     1       6.708   2.115 -13.073  1.00  0.00    -0.200 F 
ENDBRANCH  46  60
BRANCH  47  71
ATOM     71  C   UNL     1      10.968  13.863  -6.513  1.00  0.00     0.064 A 
ATOM     72  C   UNL     1      10.022  14.887  -6.384  1.00  0.00     0.173 A 
ATOM     73  C   UNL     1      12.216  14.037  -5.897  1.00  0.00     0.173 A 
ATOM     74  F   UNL     1       8.823  14.769  -6.973  1.00  0.00    -0.203 F 
ATOM     75  C   UNL     1      10.309  16.039  -5.657  1.00  0.00     0.198 A 
ATOM     76  C   UNL     1      12.493  15.180  -5.153  1.00  0.00     0.198 A 
ATOM     77  F   UNL     1      13.151  13.081  -5.993  1.00  0.00    -0.203 F 
ATOM     78  F   UNL     1       9.392  17.012  -5.557  1.00  0.00    -0.200 F 
ATOM     79  C   UNL     1      11.540  16.180  -5.033  1.00  0.00     0.200 A 
ATOM     80  F   UNL     1      13.679  15.307  -4.541  1.00  0.00    -0.200 F 
ATOM     81  F   UNL     1      11.807  17.280  -4.316  1.00  0.00    -0.200 F 
ENDBRANCH  47  71
BRANCH  59  82
ATOM     82  C   UNL     1      10.082  12.205 -13.219  1.00  0.00     0.064 A 
ATOM     83  C   UNL     1      11.355  12.472 -13.742  1.00  0.00     0.173 A 
ATOM     84  C   UNL     1       8.964  12.658 -13.934  1.00  0.00     0.173 A 
ATOM     85  F   UNL     1      12.453  12.070 -13.083  1.00  0.00    -0.203 F 
ATOM     86  C   UNL     1      11.504  13.181 -14.930  1.00  0.00     0.198 A 
ATOM     87  C   UNL     1       9.117  13.349 -15.133  1.00  0.00     0.198 A 
ATOM     88  F   UNL     1       7.726  12.423 -13.475  1.00  0.00    -0.203 F 
ATOM     89  F   UNL     1      12.730  13.457 -15.395  1.00  0.00    -0.200 F 
ATOM     90  C   UNL     1      10.385  13.614 -15.627  1.00  0.00     0.200 A 
ATOM     91  F   UNL     1       8.036  13.761 -15.809  1.00  0.00    -0.200 F 
ATOM     92  F   UNL     1      10.531  14.295 -16.772  1.00  0.00    -0.200 F 
ENDBRANCH  59  82
ENDBRANCH  33  34
ENDBRANCH  25  28
ENDBRANCH  23  24
ENDBRANCH  22  23
ENDBRANCH   1  22
TORSDOF 15
