REMARK SMILES [NH3+][C@H](C(=O)NCCCCNC(=O)c1ccc(-c2c3nc(c(-c4c(F)c(F)c(F)c(F)c4F)c4ccc([nH]4)c(-c4c(F)c(F)c(F)c(F)c4F)c4nc(c(-c5c(F)c(F)c(F)c(F)c5F)c5ccc2[nH]5)C=C4)C=C3)cc1)c1ccc(OCC(=O)N2CCCC2)cc1
REMARK SMILES IDX 6 1 5 2 3 3 4 4 2 6 1 7 76 11 77 12 90 13 78 14 89 15 79 16
REMARK SMILES IDX 80 17 81 18 82 19 83 20 84 21 85 22 88 23 86 24 87 25 7 26
REMARK SMILES IDX 8 27 9 28 10 29 11 30 12 32 13 33 14 34 75 35 15 36 74 37
REMARK SMILES IDX 16 38 17 39 18 40 68 41 19 42 73 43 67 44 69 45 20 46 72 47
REMARK SMILES IDX 66 48 65 49 21 51 53 52 33 53 52 54 34 55 37 56 51 57 70 58
REMARK SMILES IDX 35 59 36 60 50 62 71 63 38 64 22 65 23 66 31 67 24 68 25 69
REMARK SMILES IDX 29 70 32 71 26 72 27 73 30 74 28 75 54 76 55 77 63 78 56 79
REMARK SMILES IDX 57 80 61 81 64 82 58 83 59 84 62 85 60 86 39 87 40 88 48 89
REMARK SMILES IDX 41 90 42 91 46 92 49 93 43 94 44 95 47 96 45 97
REMARK H PARENT 5 5 1 8 1 9 1 10 10 31 69 50 37 61
REMARK Flexibility Score: inf
ROOT
ATOM      1  C   UNL     1      -0.440   1.468   1.494  1.00  0.00     0.116 C 
ENDROOT
BRANCH   1   2
ATOM      2  N   UNL     1       0.783   1.255   0.741  1.00  0.00    -0.351 N 
ATOM      3  C   UNL     1       1.143   0.254  -0.118  1.00  0.00     0.283 C 
ATOM      4  O   UNL     1       2.148   0.475  -0.807  1.00  0.00    -0.268 OA
ATOM      5  H   UNL     1       1.469   1.949   0.871  1.00  0.00     0.163 HD
BRANCH   3   6
ATOM      6  C   UNL     1       0.492  -1.159  -0.128  1.00  0.00     0.302 C 
BRANCH   6   7
ATOM      7  N   UNL     1       1.040  -1.892   1.040  1.00  0.00    -0.343 N 
ATOM      8  H   UNL     1       0.637  -2.829   1.072  1.00  0.00     0.345 HD
ATOM      9  H   UNL     1       0.805  -1.391   1.897  1.00  0.00     0.345 HD
ATOM     10  H   UNL     1       2.054  -1.960   0.953  1.00  0.00     0.345 HD
ENDBRANCH   6   7
BRANCH   6  11
ATOM     11  C   UNL     1      -1.023  -1.266  -0.201  1.00  0.00     0.019 A 
ATOM     12  C   UNL     1      -1.829  -0.239  -0.704  1.00  0.00     0.014 A 
ATOM     13  C   UNL     1      -1.661  -2.450   0.219  1.00  0.00     0.014 A 
ATOM     14  C   UNL     1      -3.217  -0.314  -0.589  1.00  0.00     0.047 A 
ATOM     15  C   UNL     1      -3.053  -2.553   0.275  1.00  0.00     0.047 A 
ATOM     16  C   UNL     1      -3.831  -1.464  -0.089  1.00  0.00     0.120 A 
BRANCH  16  17
ATOM     17  O   UNL     1      -5.186  -1.379   0.025  1.00  0.00    -0.484 OA
BRANCH  17  18
ATOM     18  C   UNL     1      -5.921  -2.586  -0.046  1.00  0.00     0.329 C 
BRANCH  18  19
ATOM     19  C   UNL     1      -5.927  -3.373  -1.367  1.00  0.00     0.260 C 
ATOM     20  O   UNL     1      -5.903  -4.607  -1.349  1.00  0.00    -0.271 OA
ATOM     21  N   UNL     1      -6.083  -2.671  -2.543  1.00  0.00    -0.340 N 
ATOM     22  C   UNL     1      -6.000  -1.237  -2.747  1.00  0.00     0.119 C 
ATOM     23  C   UNL     1      -6.338  -3.360  -3.795  1.00  0.00     0.119 C 
ATOM     24  C   UNL     1      -6.784  -1.002  -4.022  1.00  0.00     0.023 C 
ATOM     25  C   UNL     1      -6.514  -2.260  -4.837  1.00  0.00     0.023 C 
ENDBRANCH  18  19
ENDBRANCH  17  18
ENDBRANCH  16  17
ENDBRANCH   6  11
ENDBRANCH   3   6
ENDBRANCH   1   2
BRANCH   1  26
ATOM     26  C   UNL     1      -0.249   2.160   2.841  1.00  0.00     0.023 C 
BRANCH  26  27
ATOM     27  C   UNL     1       0.608   3.425   2.860  1.00  0.00     0.023 C 
BRANCH  27  28
ATOM     28  C   UNL     1       0.214   4.538   1.894  1.00  0.00     0.116 C 
BRANCH  28  29
ATOM     29  N   UNL     1      -1.091   5.115   2.173  1.00  0.00    -0.352 N 
ATOM     30  C   UNL     1      -1.461   6.404   2.470  1.00  0.00     0.251 C 
ATOM     31  H   UNL     1      -1.836   4.473   2.143  1.00  0.00     0.163 HD
ATOM     32  O   UNL     1      -2.635   6.629   2.776  1.00  0.00    -0.269 OA
BRANCH  30  33
ATOM     33  C   UNL     1      -0.490   7.526   2.473  1.00  0.00     0.039 A 
ATOM     34  C   UNL     1      -0.613   8.505   3.465  1.00  0.00     0.014 A 
ATOM     35  C   UNL     1       0.508   7.660   1.504  1.00  0.00     0.014 A 
ATOM     36  C   UNL     1       0.297   9.565   3.527  1.00  0.00     0.010 A 
ATOM     37  C   UNL     1       1.468   8.671   1.616  1.00  0.00     0.010 A 
ATOM     38  C   UNL     1       1.375   9.636   2.629  1.00  0.00    -0.014 A 
BRANCH  38  39
ATOM     39  C   UNL     1       2.406  10.702   2.769  1.00  0.00     0.031 A 
ATOM     40  C   UNL     1       2.614  11.730   1.689  1.00  0.00     0.074 A 
ATOM     41  C   UNL     1       3.183  10.730   3.870  1.00  0.00     0.049 A 
ATOM     42  N   UNL     1       3.451  12.739   1.657  1.00  0.00    -0.248 NA
ATOM     43  C   UNL     1       1.794  11.598   0.476  1.00  0.00     0.031 C 
ATOM     44  C   UNL     1       3.137   9.753   4.960  1.00  0.00     0.029 A 
ATOM     45  N   UNL     1       4.164  11.610   4.258  1.00  0.00    -0.354 N 
ATOM     46  C   UNL     1       3.254  13.360   0.430  1.00  0.00     0.074 A 
ATOM     47  C   UNL     1       2.267  12.576  -0.282  1.00  0.00     0.031 C 
ATOM     48  C   UNL     1       4.022  10.104   5.905  1.00  0.00     0.029 A 
ATOM     49  C   UNL     1       4.721  11.312   5.479  1.00  0.00     0.049 A 
ATOM     50  H   UNL     1       4.441  12.382   3.714  1.00  0.00     0.167 HD
ATOM     51  C   UNL     1       3.818  14.496  -0.049  1.00  0.00     0.037 A 
ATOM     52  C   UNL     1       5.684  11.942   6.179  1.00  0.00     0.037 A 
ATOM     53  C   UNL     1       4.796  15.282   0.659  1.00  0.00     0.049 A 
ATOM     54  C   UNL     1       6.286  13.207   5.630  1.00  0.00     0.074 A 
ATOM     55  C   UNL     1       5.398  16.467   0.271  1.00  0.00     0.029 A 
ATOM     56  N   UNL     1       5.318  14.961   1.903  1.00  0.00    -0.354 N 
ATOM     57  N   UNL     1       6.033  13.823   4.501  1.00  0.00    -0.248 NA
ATOM     58  C   UNL     1       7.295  13.875   6.464  1.00  0.00     0.031 C 
ATOM     59  C   UNL     1       6.314  16.841   1.261  1.00  0.00     0.029 A 
ATOM     60  C   UNL     1       6.245  15.917   2.291  1.00  0.00     0.049 A 
ATOM     61  H   UNL     1       5.067  14.170   2.434  1.00  0.00     0.167 HD
ATOM     62  C   UNL     1       6.834  14.957   4.497  1.00  0.00     0.074 A 
ATOM     63  C   UNL     1       7.557  14.961   5.751  1.00  0.00     0.031 C 
ATOM     64  C   UNL     1       6.963  15.908   3.539  1.00  0.00     0.037 A 
BRANCH  51  65
ATOM     65  C   UNL     1       3.376  14.971  -1.405  1.00  0.00     0.064 A 
ATOM     66  C   UNL     1       2.085  15.482  -1.615  1.00  0.00     0.173 A 
ATOM     67  C   UNL     1       4.260  14.963  -2.494  1.00  0.00     0.173 A 
ATOM     68  F   UNL     1       1.196  15.504  -0.610  1.00  0.00    -0.203 F 
ATOM     69  C   UNL     1       1.688  15.940  -2.868  1.00  0.00     0.198 A 
ATOM     70  C   UNL     1       3.870  15.452  -3.739  1.00  0.00     0.198 A 
ATOM     71  F   UNL     1       5.508  14.494  -2.349  1.00  0.00    -0.203 F 
ATOM     72  F   UNL     1       0.435  16.379  -3.054  1.00  0.00    -0.200 F 
ATOM     73  C   UNL     1       2.583  15.932  -3.927  1.00  0.00     0.200 A 
ATOM     74  F   UNL     1       4.740  15.457  -4.758  1.00  0.00    -0.200 F 
ATOM     75  F   UNL     1       2.203  16.383  -5.131  1.00  0.00    -0.200 F 
ENDBRANCH  51  65
BRANCH  52  76
ATOM     76  C   UNL     1       6.124  11.399   7.492  1.00  0.00     0.064 A 
ATOM     77  C   UNL     1       5.849  12.080   8.686  1.00  0.00     0.173 A 
ATOM     78  C   UNL     1       6.841  10.197   7.578  1.00  0.00     0.173 A 
ATOM     79  F   UNL     1       5.183  13.244   8.655  1.00  0.00    -0.203 F 
ATOM     80  C   UNL     1       6.298  11.594   9.913  1.00  0.00     0.198 A 
ATOM     81  C   UNL     1       7.262   9.695   8.807  1.00  0.00     0.198 A 
ATOM     82  F   UNL     1       7.125   9.503   6.465  1.00  0.00    -0.203 F 
ATOM     83  F   UNL     1       6.069  12.293  11.032  1.00  0.00    -0.200 F 
ATOM     84  C   UNL     1       6.999  10.399   9.973  1.00  0.00     0.200 A 
ATOM     85  F   UNL     1       7.925   8.532   8.863  1.00  0.00    -0.200 F 
ATOM     86  F   UNL     1       7.430   9.931  11.152  1.00  0.00    -0.200 F 
ENDBRANCH  52  76
BRANCH  64  87
ATOM     87  C   UNL     1       7.909  17.040   3.824  1.00  0.00     0.064 A 
ATOM     88  C   UNL     1       9.299  16.845   3.869  1.00  0.00     0.173 A 
ATOM     89  C   UNL     1       7.421  18.336   4.051  1.00  0.00     0.173 A 
ATOM     90  F   UNL     1       9.816  15.623   3.673  1.00  0.00    -0.203 F 
ATOM     91  C   UNL     1      10.160  17.897   4.173  1.00  0.00     0.198 A 
ATOM     92  C   UNL     1       8.288  19.391   4.321  1.00  0.00     0.198 A 
ATOM     93  F   UNL     1       6.103  18.579   4.011  1.00  0.00    -0.203 F 
ATOM     94  F   UNL     1      11.477  17.672   4.275  1.00  0.00    -0.200 F 
ATOM     95  C   UNL     1       9.655  19.169   4.394  1.00  0.00     0.200 A 
ATOM     96  F   UNL     1       7.799  20.623   4.520  1.00  0.00    -0.200 F 
ATOM     97  F   UNL     1      10.485  20.179   4.689  1.00  0.00    -0.200 F 
ENDBRANCH  64  87
ENDBRANCH  38  39
ENDBRANCH  30  33
ENDBRANCH  28  29
ENDBRANCH  27  28
ENDBRANCH  26  27
ENDBRANCH   1  26
TORSDOF 16
