REMARK SMILES COc1cc(OC)c(-c2cc(C(=O)NCCCCNC(=O)c3ccc(-c4c5nc(c(-c6c(F)c(F)c(F)c(F)c6F)c6ccc([nH]6)c(-c6c(F)c(F)c(F)c(F)c6F)c6nc(c(-c7c(F)c(F)c(F)c(F)c7F)c7ccc4[nH]7)C=C6)C=C5)cc3)c3c(-c4ccc(Cl)cc4)[nH]nc3n2)cc1OC
REMARK SMILES IDX 16 1 15 2 14 3 12 4 13 5 11 7 9 8 10 9 97 10 96 11 85 12
REMARK SMILES IDX 95 13 86 14 94 15 8 17 3 18 4 19 99 20 5 21 98 22 2 23 1 24
REMARK SMILES IDX 100 25 101 26 6 27 7 28 87 29 88 30 93 31 89 32 92 33 90 34
REMARK SMILES IDX 91 35 17 36 18 37 19 38 20 39 21 41 22 42 23 43 84 44 24 45
REMARK SMILES IDX 83 46 25 47 26 48 27 49 77 50 28 51 82 52 76 53 78 54 29 55
REMARK SMILES IDX 81 56 75 57 74 58 30 60 62 61 42 62 61 63 43 64 46 65 60 66
REMARK SMILES IDX 79 67 44 68 45 69 59 71 80 72 47 73 31 74 32 75 40 76 33 77
REMARK SMILES IDX 34 78 38 79 41 80 35 81 36 82 39 83 37 84 63 85 64 86 72 87
REMARK SMILES IDX 65 88 66 89 70 90 73 91 67 92 68 93 71 94 69 95 48 96 49 97
REMARK SMILES IDX 57 98 50 99 51 100 55 101 58 102 52 103 53 104 56 105 54 106
REMARK H PARENT 14 6 94 16 19 40 78 59 46 70
REMARK Flexibility Score: inf
ROOT
ATOM      1  C   UNL     1       4.452   6.114  -4.266  1.00  0.00     0.023 C 
ENDROOT
BRANCH   1   2
ATOM      2  C   UNL     1       5.254   6.279  -2.977  1.00  0.00     0.116 C 
BRANCH   2   3
ATOM      3  N   UNL     1       5.396   7.667  -2.582  1.00  0.00    -0.352 N 
ATOM      4  C   UNL     1       4.845   8.473  -1.619  1.00  0.00     0.252 C 
ATOM      5  O   UNL     1       5.471   9.512  -1.429  1.00  0.00    -0.269 OA
ATOM      6  H   UNL     1       6.048   8.148  -3.141  1.00  0.00     0.163 HD
BRANCH   4   7
ATOM      7  C   UNL     1       3.653   8.140  -0.802  1.00  0.00     0.055 A 
ATOM      8  C   UNL     1       2.024   6.468   0.070  1.00  0.00     0.077 A 
ATOM      9  C   UNL     1       2.984   6.916  -0.874  1.00  0.00     0.043 A 
ATOM     10  N   UNL     1       1.535   7.198   1.099  1.00  0.00    -0.226 NA
ATOM     11  C   UNL     1       2.024   8.466   1.113  1.00  0.00     0.182 A 
ATOM     12  C   UNL     1       3.043   8.929   0.195  1.00  0.00     0.059 A 
ATOM     13  N   UNL     1       1.627   9.429   1.942  1.00  0.00    -0.154 NA
ATOM     14  C   UNL     1       3.197  10.274   0.501  1.00  0.00     0.075 A 
ATOM     15  N   UNL     1       2.333  10.497   1.550  1.00  0.00    -0.275 N 
ATOM     16  H   UNL     1       2.242  11.377   1.981  1.00  0.00     0.190 HD
BRANCH   8  17
ATOM     17  C   UNL     1       1.567   5.075  -0.075  1.00  0.00     0.046 A 
ATOM     18  C   UNL     1       1.075   2.335  -0.625  1.00  0.00     0.164 A 
ATOM     19  C   UNL     1       0.075   3.305  -0.802  1.00  0.00     0.097 A 
ATOM     20  C   UNL     1       2.332   2.716  -0.164  1.00  0.00     0.161 A 
ATOM     21  C   UNL     1       0.317   4.673  -0.566  1.00  0.00     0.132 A 
ATOM     22  C   UNL     1       2.540   4.068   0.142  1.00  0.00     0.064 A 
BRANCH  18  23
ATOM     23  O   UNL     1       0.812   1.075  -1.091  1.00  0.00    -0.493 OA
ATOM     24  C   UNL     1       0.206   0.244  -0.100  1.00  0.00     0.278 C 
ENDBRANCH  18  23
BRANCH  20  25
ATOM     25  O   UNL     1       3.473   1.978  -0.021  1.00  0.00    -0.493 OA
ATOM     26  C   UNL     1       3.409   0.566  -0.115  1.00  0.00     0.278 C 
ENDBRANCH  20  25
BRANCH  21  27
ATOM     27  O   UNL     1      -0.752   5.471  -0.881  1.00  0.00    -0.496 OA
ATOM     28  C   UNL     1      -0.479   6.729  -1.487  1.00  0.00     0.278 C 
ENDBRANCH  21  27
ENDBRANCH   8  17
BRANCH  14  29
ATOM     29  C   UNL     1       3.962  11.381  -0.062  1.00  0.00     0.000 A 
ATOM     30  C   UNL     1       4.958  12.004   0.703  1.00  0.00     0.012 A 
ATOM     31  C   UNL     1       3.751  11.798  -1.384  1.00  0.00     0.012 A 
ATOM     32  C   UNL     1       5.776  12.983   0.132  1.00  0.00     0.021 A 
ATOM     33  C   UNL     1       4.578  12.768  -1.958  1.00  0.00     0.021 A 
ATOM     34  C   UNL     1       5.596  13.345  -1.202  1.00  0.00     0.041 A 
ATOM     35  Cl  UNL     1       6.653  14.495  -1.925  1.00  0.00    -0.084 Cl
ENDBRANCH  14  29
ENDBRANCH   4   7
ENDBRANCH   2   3
ENDBRANCH   1   2
BRANCH   1  36
ATOM     36  C   UNL     1       5.210   6.519  -5.542  1.00  0.00     0.023 C 
BRANCH  36  37
ATOM     37  C   UNL     1       6.532   5.787  -5.778  1.00  0.00     0.116 C 
BRANCH  37  38
ATOM     38  N   UNL     1       6.378   4.338  -5.851  1.00  0.00    -0.352 N 
ATOM     39  C   UNL     1       7.369   3.375  -5.813  1.00  0.00     0.251 C 
ATOM     40  H   UNL     1       5.455   4.006  -5.937  1.00  0.00     0.163 HD
ATOM     41  O   UNL     1       7.189   2.275  -6.310  1.00  0.00    -0.269 OA
BRANCH  39  42
ATOM     42  C   UNL     1       8.651   3.688  -5.153  1.00  0.00     0.039 A 
ATOM     43  C   UNL     1       9.860   3.312  -5.733  1.00  0.00     0.014 A 
ATOM     44  C   UNL     1       8.634   4.365  -3.934  1.00  0.00     0.014 A 
ATOM     45  C   UNL     1      11.046   3.712  -5.123  1.00  0.00     0.010 A 
ATOM     46  C   UNL     1       9.801   4.856  -3.384  1.00  0.00     0.010 A 
ATOM     47  C   UNL     1      11.014   4.522  -3.968  1.00  0.00    -0.014 A 
BRANCH  47  48
ATOM     48  C   UNL     1      12.239   5.208  -3.544  1.00  0.00     0.031 A 
ATOM     49  C   UNL     1      12.865   5.948  -4.671  1.00  0.00     0.074 A 
ATOM     50  C   UNL     1      12.684   5.344  -2.272  1.00  0.00     0.049 A 
ATOM     51  N   UNL     1      13.933   5.611  -5.312  1.00  0.00    -0.248 NA
ATOM     52  C   UNL     1      12.134   7.067  -5.295  1.00  0.00     0.031 C 
ATOM     53  C   UNL     1      11.978   4.958  -1.047  1.00  0.00     0.029 A 
ATOM     54  N   UNL     1      13.824   5.936  -1.783  1.00  0.00    -0.354 N 
ATOM     55  C   UNL     1      14.173   6.653  -6.201  1.00  0.00     0.074 A 
ATOM     56  C   UNL     1      12.934   7.369  -6.323  1.00  0.00     0.031 C 
ATOM     57  C   UNL     1      12.573   5.527   0.026  1.00  0.00     0.029 A 
ATOM     58  C   UNL     1      13.802   6.170  -0.405  1.00  0.00     0.049 A 
ATOM     59  H   UNL     1      14.590   6.175  -2.353  1.00  0.00     0.167 HD
ATOM     60  C   UNL     1      15.461   7.049  -6.403  1.00  0.00     0.037 A 
ATOM     61  C   UNL     1      14.726   6.828   0.344  1.00  0.00     0.037 A 
ATOM     62  C   UNL     1      16.369   6.028  -5.938  1.00  0.00     0.049 A 
ATOM     63  C   UNL     1      16.004   6.808  -0.396  1.00  0.00     0.074 A 
ATOM     64  C   UNL     1      16.825   4.797  -6.356  1.00  0.00     0.029 A 
ATOM     65  N   UNL     1      16.609   6.106  -4.596  1.00  0.00    -0.354 N 
ATOM     66  N   UNL     1      16.707   5.726  -0.575  1.00  0.00    -0.248 NA
ATOM     67  C   UNL     1      16.365   7.945  -1.236  1.00  0.00     0.031 C 
ATOM     68  C   UNL     1      17.325   4.130  -5.193  1.00  0.00     0.029 A 
ATOM     69  C   UNL     1      17.215   4.987  -4.105  1.00  0.00     0.049 A 
ATOM     70  H   UNL     1      16.370   6.885  -4.043  1.00  0.00     0.167 HD
ATOM     71  C   UNL     1      17.257   5.900  -1.824  1.00  0.00     0.074 A 
ATOM     72  C   UNL     1      17.178   7.329  -2.097  1.00  0.00     0.031 C 
ATOM     73  C   UNL     1      17.363   4.845  -2.679  1.00  0.00     0.037 A 
BRANCH  60  74
ATOM     74  C   UNL     1      15.920   8.502  -6.425  1.00  0.00     0.064 A 
ATOM     75  C   UNL     1      17.293   8.766  -6.625  1.00  0.00     0.173 A 
ATOM     76  C   UNL     1      15.169   9.592  -5.930  1.00  0.00     0.173 A 
ATOM     77  F   UNL     1      18.115   7.804  -7.072  1.00  0.00    -0.203 F 
ATOM     78  C   UNL     1      17.875   9.990  -6.277  1.00  0.00     0.198 A 
ATOM     79  C   UNL     1      15.746  10.826  -5.627  1.00  0.00     0.198 A 
ATOM     80  F   UNL     1      13.876   9.492  -5.609  1.00  0.00    -0.203 F 
ATOM     81  F   UNL     1      19.203  10.147  -6.370  1.00  0.00    -0.200 F 
ATOM     82  C   UNL     1      17.102  11.017  -5.771  1.00  0.00     0.200 A 
ATOM     83  F   UNL     1      14.981  11.799  -5.110  1.00  0.00    -0.200 F 
ATOM     84  F   UNL     1      17.663  12.168  -5.380  1.00  0.00    -0.200 F 
ENDBRANCH  60  74
BRANCH  61  85
ATOM     85  C   UNL     1      14.588   7.619   1.592  1.00  0.00     0.064 A 
ATOM     86  C   UNL     1      15.698   7.895   2.412  1.00  0.00     0.173 A 
ATOM     87  C   UNL     1      13.432   8.384   1.827  1.00  0.00     0.173 A 
ATOM     88  F   UNL     1      16.852   7.236   2.234  1.00  0.00    -0.203 F 
ATOM     89  C   UNL     1      15.668   8.910   3.376  1.00  0.00     0.198 A 
ATOM     90  C   UNL     1      13.403   9.396   2.791  1.00  0.00     0.198 A 
ATOM     91  F   UNL     1      12.347   8.232   1.055  1.00  0.00    -0.203 F 
ATOM     92  F   UNL     1      16.770   9.192   4.086  1.00  0.00    -0.200 F 
ATOM     93  C   UNL     1      14.526   9.671   3.552  1.00  0.00     0.200 A 
ATOM     94  F   UNL     1      12.305  10.153   2.927  1.00  0.00    -0.200 F 
ATOM     95  F   UNL     1      14.520  10.694   4.419  1.00  0.00    -0.200 F 
ENDBRANCH  61  85
BRANCH  73  96
ATOM     96  C   UNL     1      17.516   3.485  -2.087  1.00  0.00     0.064 A 
ATOM     97  C   UNL     1      16.539   2.816  -1.334  1.00  0.00     0.173 A 
ATOM     98  C   UNL     1      18.724   2.817  -2.332  1.00  0.00     0.173 A 
ATOM     99  F   UNL     1      15.336   3.367  -1.116  1.00  0.00    -0.203 F 
ATOM    100  C   UNL     1      16.785   1.544  -0.818  1.00  0.00     0.198 A 
ATOM    101  C   UNL     1      18.952   1.537  -1.846  1.00  0.00     0.198 A 
ATOM    102  F   UNL     1      19.679   3.406  -3.068  1.00  0.00    -0.203 F 
ATOM    103  F   UNL     1      15.852   0.925  -0.079  1.00  0.00    -0.200 F 
ATOM    104  C   UNL     1      17.988   0.904  -1.079  1.00  0.00     0.200 A 
ATOM    105  F   UNL     1      20.103   0.913  -2.133  1.00  0.00    -0.200 F 
ATOM    106  F   UNL     1      18.215  -0.328  -0.605  1.00  0.00    -0.200 F 
ENDBRANCH  73  96
ENDBRANCH  47  48
ENDBRANCH  39  42
ENDBRANCH  37  38
ENDBRANCH  36  37
ENDBRANCH   1  36
TORSDOF 16
