REMARK SMILES O=C1C[C@@H](c2cccc(O)c2)c2c(c(C(=O)NCCCCNC(=O)c3ccc(-c4c5nc(c(-c6c(F)c(F)c(F)c(F)c6F)c6ccc([nH]6)c(-c6c(F)c(F)c(F)c(F)c6F)c6nc(c(-c7c(F)c(F)c(F)c(F)c7F)c7ccc4[nH]7)C=C6)C=C5)cc3)cn2-c2cccc(C(F)(F)F)c2)N1
REMARK SMILES IDX 19 1 18 2 17 3 15 4 16 5 14 7 1 8 2 9 3 10 100 11 4 12 13 13
REMARK SMILES IDX 12 15 89 16 88 17 5 18 6 19 11 20 7 21 9 22 8 23 10 24 90 26
REMARK SMILES IDX 91 27 99 28 92 29 94 30 93 31 95 32 96 33 97 34 98 35 20 36
REMARK SMILES IDX 21 37 22 38 23 39 24 41 25 42 26 43 87 44 27 45 86 46 28 47
REMARK SMILES IDX 29 48 30 49 80 50 31 51 85 52 79 53 81 54 32 55 84 56 78 57
REMARK SMILES IDX 77 58 33 60 65 61 45 62 64 63 46 64 49 65 63 66 82 67 47 68
REMARK SMILES IDX 48 69 62 71 83 72 50 73 34 74 35 75 43 76 36 77 37 78 41 79
REMARK SMILES IDX 44 80 38 81 39 82 42 83 40 84 66 85 67 86 75 87 68 88 69 89
REMARK SMILES IDX 73 90 76 91 70 92 71 93 74 94 72 95 51 96 52 97 60 98 53 99
REMARK SMILES IDX 54 100 58 101 61 102 55 103 56 104 59 105 57 106
REMARK H PARENT 17 6 100 14 10 25 22 40 81 59 49 70
REMARK Flexibility Score: inf
ROOT
ATOM      1  C   UNL     1       6.185  -3.882   4.988  1.00  0.00     0.023 C 
ENDROOT
BRANCH   1   2
ATOM      2  C   UNL     1       6.727  -3.699   3.568  1.00  0.00     0.116 C 
BRANCH   2   3
ATOM      3  N   UNL     1       5.723  -3.925   2.549  1.00  0.00    -0.352 N 
ATOM      4  C   UNL     1       4.926  -3.098   1.798  1.00  0.00     0.254 C 
ATOM      5  O   UNL     1       4.157  -3.658   1.012  1.00  0.00    -0.269 OA
ATOM      6  H   UNL     1       5.582  -4.879   2.351  1.00  0.00     0.163 HD
BRANCH   4   7
ATOM      7  C   UNL     1       4.941  -1.640   1.899  1.00  0.00     0.081 A 
ATOM      8  O   UNL     1       1.453  -0.379  -1.143  1.00  0.00    -0.275 OA
ATOM      9  C   UNL     1       2.409  -0.090  -0.424  1.00  0.00     0.225 C 
ATOM     10  C   UNL     1       2.978   1.324  -0.378  1.00  0.00     0.115 C 
ATOM     11  N   UNL     1       3.087  -1.058   0.276  1.00  0.00    -0.324 N 
ATOM     12  C   UNL     1       3.584   1.723   0.983  1.00  0.00     0.078 C 
ATOM     13  C   UNL     1       4.072  -0.760   1.189  1.00  0.00     0.076 A 
ATOM     14  H   UNL     1       2.859  -2.003   0.118  1.00  0.00     0.170 HD
ATOM     15  C   UNL     1       4.308   0.543   1.565  1.00  0.00     0.055 A 
ATOM     16  N   UNL     1       5.338   0.528   2.478  1.00  0.00    -0.317 N 
ATOM     17  C   UNL     1       5.746  -0.788   2.631  1.00  0.00     0.107 A 
BRANCH  12  18
ATOM     18  C   UNL     1       2.524   2.295   1.911  1.00  0.00    -0.035 A 
ATOM     19  C   UNL     1       1.493   1.504   2.444  1.00  0.00     0.005 A 
ATOM     20  C   UNL     1       2.611   3.640   2.305  1.00  0.00     0.050 A 
ATOM     21  C   UNL     1       0.606   2.032   3.385  1.00  0.00     0.004 A 
ATOM     22  C   UNL     1       1.744   4.144   3.268  1.00  0.00     0.115 A 
ATOM     23  C   UNL     1       0.741   3.351   3.812  1.00  0.00     0.046 A 
BRANCH  22  24
ATOM     24  O   UNL     1       1.951   5.422   3.694  1.00  0.00    -0.508 OA
ATOM     25  H   UNL     1       1.387   5.796   4.342  1.00  0.00     0.293 HD
ENDBRANCH  22  24
ENDBRANCH  12  18
BRANCH  16  26
ATOM     26  C   UNL     1       5.882   1.568   3.269  1.00  0.00     0.046 A 
ATOM     27  C   UNL     1       7.273   1.695   3.367  1.00  0.00     0.026 A 
ATOM     28  C   UNL     1       5.049   2.312   4.107  1.00  0.00     0.039 A 
ATOM     29  C   UNL     1       7.824   2.603   4.269  1.00  0.00     0.003 A 
ATOM     30  C   UNL     1       5.596   3.220   5.027  1.00  0.00     0.058 A 
ATOM     31  C   UNL     1       6.992   3.364   5.091  1.00  0.00     0.013 A 
BRANCH  30  32
ATOM     32  C   UNL     1       4.714   4.006   5.967  1.00  0.00     0.416 C 
ATOM     33  F   UNL     1       5.109   3.882   7.267  1.00  0.00    -0.166 F 
ATOM     34  F   UNL     1       4.725   5.341   5.704  1.00  0.00    -0.166 F 
ATOM     35  F   UNL     1       3.406   3.627   5.950  1.00  0.00    -0.166 F 
ENDBRANCH  30  32
ENDBRANCH  16  26
ENDBRANCH   4   7
ENDBRANCH   2   3
ENDBRANCH   1   2
BRANCH   1  36
ATOM     36  C   UNL     1       6.043  -5.342   5.447  1.00  0.00     0.023 C 
BRANCH  36  37
ATOM     37  C   UNL     1       7.342  -6.144   5.482  1.00  0.00     0.116 C 
BRANCH  37  38
ATOM     38  N   UNL     1       8.354  -5.581   6.378  1.00  0.00    -0.352 N 
ATOM     39  C   UNL     1       9.694  -5.924   6.473  1.00  0.00     0.251 C 
ATOM     40  H   UNL     1       8.045  -4.871   6.987  1.00  0.00     0.163 HD
ATOM     41  O   UNL     1      10.342  -5.704   7.480  1.00  0.00    -0.269 OA
BRANCH  39  42
ATOM     42  C   UNL     1      10.332  -6.542   5.298  1.00  0.00     0.039 A 
ATOM     43  C   UNL     1      11.186  -7.643   5.402  1.00  0.00     0.014 A 
ATOM     44  C   UNL     1      10.007  -6.004   4.059  1.00  0.00     0.014 A 
ATOM     45  C   UNL     1      11.639  -8.247   4.232  1.00  0.00     0.010 A 
ATOM     46  C   UNL     1      10.298  -6.703   2.921  1.00  0.00     0.010 A 
ATOM     47  C   UNL     1      11.172  -7.780   2.992  1.00  0.00    -0.014 A 
BRANCH  47  48
ATOM     48  C   UNL     1      11.498  -8.465   1.749  1.00  0.00     0.031 A 
ATOM     49  C   UNL     1      11.138  -9.909   1.719  1.00  0.00     0.074 A 
ATOM     50  C   UNL     1      11.866  -7.795   0.635  1.00  0.00     0.049 A 
ATOM     51  N   UNL     1      11.935 -10.918   1.594  1.00  0.00    -0.248 NA
ATOM     52  C   UNL     1       9.737 -10.288   1.976  1.00  0.00     0.031 C 
ATOM     53  C   UNL     1      11.952  -6.345   0.419  1.00  0.00     0.029 A 
ATOM     54  N   UNL     1      12.142  -8.288  -0.601  1.00  0.00    -0.354 N 
ATOM     55  C   UNL     1      11.126 -12.050   1.570  1.00  0.00     0.074 A 
ATOM     56  C   UNL     1       9.813 -11.621   1.974  1.00  0.00     0.031 C 
ATOM     57  C   UNL     1      12.014  -6.083  -0.905  1.00  0.00     0.029 A 
ATOM     58  C   UNL     1      12.149  -7.339  -1.616  1.00  0.00     0.049 A 
ATOM     59  H   UNL     1      12.323  -9.242  -0.764  1.00  0.00     0.167 HD
ATOM     60  C   UNL     1      11.554 -13.208   0.993  1.00  0.00     0.037 A 
ATOM     61  C   UNL     1      12.222  -7.586  -2.948  1.00  0.00     0.037 A 
ATOM     62  C   UNL     1      12.986 -13.213   0.832  1.00  0.00     0.049 A 
ATOM     63  C   UNL     1      12.770  -8.960  -3.105  1.00  0.00     0.074 A 
ATOM     64  C   UNL     1      14.048 -13.089   1.710  1.00  0.00     0.029 A 
ATOM     65  N   UNL     1      13.506 -12.934  -0.410  1.00  0.00    -0.354 N 
ATOM     66  N   UNL     1      13.990  -9.289  -2.774  1.00  0.00    -0.248 NA
ATOM     67  C   UNL     1      11.815 -10.058  -3.150  1.00  0.00     0.031 C 
ATOM     68  C   UNL     1      14.974 -12.235   1.041  1.00  0.00     0.029 A 
ATOM     69  C   UNL     1      14.469 -11.971  -0.232  1.00  0.00     0.049 A 
ATOM     70  H   UNL     1      13.239 -13.346  -1.263  1.00  0.00     0.167 HD
ATOM     71  C   UNL     1      13.865 -10.524  -2.156  1.00  0.00     0.074 A 
ATOM     72  C   UNL     1      12.511 -10.976  -2.474  1.00  0.00     0.031 C 
ATOM     73  C   UNL     1      14.748 -10.934  -1.198  1.00  0.00     0.037 A 
BRANCH  60  74
ATOM     74  C   UNL     1      10.654 -14.174   0.267  1.00  0.00     0.064 A 
ATOM     75  C   UNL     1      11.155 -15.431  -0.125  1.00  0.00     0.173 A 
ATOM     76  C   UNL     1       9.418 -13.806  -0.307  1.00  0.00     0.173 A 
ATOM     77  F   UNL     1      12.338 -15.867   0.332  1.00  0.00    -0.203 F 
ATOM     78  C   UNL     1      10.494 -16.228  -1.065  1.00  0.00     0.198 A 
ATOM     79  C   UNL     1       8.734 -14.627  -1.200  1.00  0.00     0.198 A 
ATOM     80  F   UNL     1       8.880 -12.595  -0.119  1.00  0.00    -0.203 F 
ATOM     81  F   UNL     1      11.066 -17.360  -1.498  1.00  0.00    -0.200 F 
ATOM     82  C   UNL     1       9.285 -15.825  -1.603  1.00  0.00     0.200 A 
ATOM     83  F   UNL     1       7.576 -14.206  -1.727  1.00  0.00    -0.200 F 
ATOM     84  F   UNL     1       8.677 -16.559  -2.543  1.00  0.00    -0.200 F 
ENDBRANCH  60  74
BRANCH  61  85
ATOM     85  C   UNL     1      11.545  -6.858  -4.050  1.00  0.00     0.064 A 
ATOM     86  C   UNL     1      11.924  -7.047  -5.389  1.00  0.00     0.173 A 
ATOM     87  C   UNL     1      10.334  -6.168  -3.837  1.00  0.00     0.173 A 
ATOM     88  F   UNL     1      13.039  -7.732  -5.682  1.00  0.00    -0.203 F 
ATOM     89  C   UNL     1      11.129  -6.595  -6.449  1.00  0.00     0.198 A 
ATOM     90  C   UNL     1       9.544  -5.713  -4.895  1.00  0.00     0.198 A 
ATOM     91  F   UNL     1       9.842  -6.005  -2.601  1.00  0.00    -0.203 F 
ATOM     92  F   UNL     1      11.495  -6.847  -7.714  1.00  0.00    -0.200 F 
ATOM     93  C   UNL     1       9.935  -5.938  -6.201  1.00  0.00     0.200 A 
ATOM     94  F   UNL     1       8.374  -5.112  -4.640  1.00  0.00    -0.200 F 
ATOM     95  F   UNL     1       9.144  -5.560  -7.215  1.00  0.00    -0.200 F 
ENDBRANCH  61  85
BRANCH  73  96
ATOM     96  C   UNL     1      15.990 -10.111  -0.970  1.00  0.00     0.064 A 
ATOM     97  C   UNL     1      15.985  -8.768  -0.553  1.00  0.00     0.173 A 
ATOM     98  C   UNL     1      17.232 -10.758  -1.017  1.00  0.00     0.173 A 
ATOM     99  F   UNL     1      14.839  -8.102  -0.377  1.00  0.00    -0.203 F 
ATOM    100  C   UNL     1      17.168  -8.097  -0.241  1.00  0.00     0.198 A 
ATOM    101  C   UNL     1      18.409 -10.098  -0.669  1.00  0.00     0.198 A 
ATOM    102  F   UNL     1      17.300 -12.056  -1.352  1.00  0.00    -0.203 F 
ATOM    103  F   UNL     1      17.131  -6.813   0.147  1.00  0.00    -0.200 F 
ATOM    104  C   UNL     1      18.378  -8.766  -0.291  1.00  0.00     0.200 A 
ATOM    105  F   UNL     1      19.570 -10.766  -0.670  1.00  0.00    -0.200 F 
ATOM    106  F   UNL     1      19.511  -8.137   0.051  1.00  0.00    -0.200 F 
ENDBRANCH  73  96
ENDBRANCH  47  48
ENDBRANCH  39  42
ENDBRANCH  37  38
ENDBRANCH  36  37
ENDBRANCH   1  36
TORSDOF 15
