REMARK SMILES O=C(Cc1ccccc1[C@H]1CCC[NH2+]1)NCCCCNC(=O)c1ccc(-c2c3nc(c(-c4c(F)c(F)c(F)c(F)c4F)c4ccc([nH]4)c(-c4c(F)c(F)c(F)c(F)c4F)c4nc(c(-c5c(F)c(F)c(F)c(F)c5F)c5ccc2[nH]5)C=C4)C=C3)cc1
REMARK SMILES IDX 17 1 16 2 15 3 1 4 2 5 3 7 4 8 5 9 9 10 6 11 8 12 7 13 10 14
REMARK SMILES IDX 11 15 14 16 12 17 13 18 18 21 19 22 20 23 21 24 22 26 23 27
REMARK SMILES IDX 24 28 85 29 25 30 84 31 26 32 27 33 28 34 78 35 29 36 83 37
REMARK SMILES IDX 77 38 79 39 30 40 82 41 76 42 75 43 31 45 63 46 43 47 62 48
REMARK SMILES IDX 44 49 47 50 61 51 80 52 45 53 46 54 60 56 81 57 48 58 32 59
REMARK SMILES IDX 33 60 41 61 34 62 35 63 39 64 42 65 36 66 37 67 40 68 38 69
REMARK SMILES IDX 64 70 65 71 73 72 66 73 67 74 71 75 74 76 68 77 69 78 72 79
REMARK SMILES IDX 70 80 49 81 50 82 58 83 51 84 52 85 56 86 59 87 53 88 54 89
REMARK SMILES IDX 57 90 55 91
REMARK H PARENT 15 6 14 19 14 20 20 25 79 44 47 55
REMARK Flexibility Score: inf
ROOT
ATOM      1  C   UNL     1      11.202   5.995   3.040  1.00  0.00     0.023 C 
ENDROOT
BRANCH   1   2
ATOM      2  C   UNL     1      11.084   4.556   3.538  1.00  0.00     0.116 C 
BRANCH   2   3
ATOM      3  N   UNL     1       9.754   4.024   3.338  1.00  0.00    -0.356 N 
ATOM      4  O   UNL     1      10.415   2.038   2.382  1.00  0.00    -0.275 OA
ATOM      5  C   UNL     1       9.522   2.786   2.766  1.00  0.00     0.224 C 
ATOM      6  H   UNL     1       8.982   4.565   3.620  1.00  0.00     0.163 HD
BRANCH   5   7
ATOM      7  C   UNL     1       8.045   2.449   2.634  1.00  0.00     0.136 C 
BRANCH   7   8
ATOM      8  C   UNL     1       7.292   2.131   3.920  1.00  0.00    -0.030 A 
ATOM      9  C   UNL     1       8.029   1.926   5.111  1.00  0.00     0.005 A 
ATOM     10  C   UNL     1       5.879   1.958   3.954  1.00  0.00     0.013 A 
ATOM     11  C   UNL     1       7.418   1.556   6.307  1.00  0.00     0.000 A 
ATOM     12  C   UNL     1       5.305   1.515   5.173  1.00  0.00     0.010 A 
ATOM     13  C   UNL     1       6.054   1.335   6.335  1.00  0.00     0.001 A 
BRANCH  10  14
ATOM     14  C   UNL     1       4.919   2.073   2.758  1.00  0.00     0.214 C 
ATOM     15  C   UNL     1       3.589   2.784   3.054  1.00  0.00     0.076 C 
ATOM     16  N   UNL     1       5.393   2.871   1.611  1.00  0.00    -0.340 N 
ATOM     17  C   UNL     1       3.930   4.254   2.911  1.00  0.00     0.068 C 
ATOM     18  C   UNL     1       5.028   4.272   1.867  1.00  0.00     0.261 C 
ATOM     19  H   UNL     1       4.947   2.546   0.753  1.00  0.00     0.346 HD
ATOM     20  H   UNL     1       6.403   2.777   1.500  1.00  0.00     0.346 HD
ENDBRANCH  10  14
ENDBRANCH   7   8
ENDBRANCH   5   7
ENDBRANCH   2   3
ENDBRANCH   1   2
BRANCH   1  21
ATOM     21  C   UNL     1      10.281   7.002   3.736  1.00  0.00     0.023 C 
BRANCH  21  22
ATOM     22  C   UNL     1      10.415   7.074   5.254  1.00  0.00     0.116 C 
BRANCH  22  23
ATOM     23  N   UNL     1      11.741   7.487   5.686  1.00  0.00    -0.352 N 
ATOM     24  C   UNL     1      12.115   8.504   6.529  1.00  0.00     0.251 C 
ATOM     25  H   UNL     1      12.484   6.956   5.317  1.00  0.00     0.163 HD
ATOM     26  O   UNL     1      13.304   8.790   6.655  1.00  0.00    -0.269 OA
BRANCH  24  27
ATOM     27  C   UNL     1      11.095   9.281   7.268  1.00  0.00     0.039 A 
ATOM     28  C   UNL     1      11.228  10.671   7.334  1.00  0.00     0.014 A 
ATOM     29  C   UNL     1      10.021   8.653   7.902  1.00  0.00     0.014 A 
ATOM     30  C   UNL     1      10.248  11.435   7.973  1.00  0.00     0.010 A 
ATOM     31  C   UNL     1       9.005   9.420   8.471  1.00  0.00     0.010 A 
ATOM     32  C   UNL     1       9.106  10.819   8.511  1.00  0.00    -0.014 A 
BRANCH  32  33
ATOM     33  C   UNL     1       8.005  11.623   9.105  1.00  0.00     0.031 A 
ATOM     34  C   UNL     1       7.657  11.479  10.561  1.00  0.00     0.074 A 
ATOM     35  C   UNL     1       7.276  12.439   8.318  1.00  0.00     0.049 A 
ATOM     36  N   UNL     1       6.691  12.044  11.242  1.00  0.00    -0.248 NA
ATOM     37  C   UNL     1       8.487  10.558  11.352  1.00  0.00     0.031 C 
ATOM     38  C   UNL     1       7.485  12.637   6.883  1.00  0.00     0.029 A 
ATOM     39  N   UNL     1       6.205  13.247   8.611  1.00  0.00    -0.354 N 
ATOM     40  C   UNL     1       6.790  11.538  12.531  1.00  0.00     0.074 A 
ATOM     41  C   UNL     1       7.874  10.580  12.526  1.00  0.00     0.031 C 
ATOM     42  C   UNL     1       6.591  13.528   6.426  1.00  0.00     0.029 A 
ATOM     43  C   UNL     1       5.716  13.930   7.524  1.00  0.00     0.049 A 
ATOM     44  H   UNL     1       5.823  13.328   9.514  1.00  0.00     0.167 HD
ATOM     45  C   UNL     1       6.056  11.858  13.625  1.00  0.00     0.037 A 
ATOM     46  C   UNL     1       4.674  14.777   7.420  1.00  0.00     0.037 A 
ATOM     47  C   UNL     1       4.991  12.827  13.632  1.00  0.00     0.049 A 
ATOM     48  C   UNL     1       3.862  15.098   8.646  1.00  0.00     0.074 A 
ATOM     49  C   UNL     1       4.232  13.267  14.703  1.00  0.00     0.029 A 
ATOM     50  N   UNL     1       4.527  13.501  12.511  1.00  0.00    -0.354 N 
ATOM     51  N   UNL     1       4.011  14.668   9.875  1.00  0.00    -0.248 NA
ATOM     52  C   UNL     1       2.737  16.027   8.470  1.00  0.00     0.031 C 
ATOM     53  C   UNL     1       3.271  14.161  14.221  1.00  0.00     0.029 A 
ATOM     54  C   UNL     1       3.472  14.329  12.861  1.00  0.00     0.049 A 
ATOM     55  H   UNL     1       4.894  13.406  11.603  1.00  0.00     0.167 HD
ATOM     56  C   UNL     1       3.026  15.299  10.623  1.00  0.00     0.074 A 
ATOM     57  C   UNL     1       2.292  16.151   9.712  1.00  0.00     0.031 C 
ATOM     58  C   UNL     1       2.754  15.181  11.946  1.00  0.00     0.037 A 
BRANCH  45  59
ATOM     59  C   UNL     1       6.376  11.149  14.911  1.00  0.00     0.064 A 
ATOM     60  C   UNL     1       7.575  11.377  15.603  1.00  0.00     0.173 A 
ATOM     61  C   UNL     1       5.451  10.260  15.481  1.00  0.00     0.173 A 
ATOM     62  F   UNL     1       8.498  12.210  15.099  1.00  0.00    -0.203 F 
ATOM     63  C   UNL     1       7.850  10.720  16.800  1.00  0.00     0.198 A 
ATOM     64  C   UNL     1       5.714   9.631  16.695  1.00  0.00     0.198 A 
ATOM     65  F   UNL     1       4.285  10.010  14.867  1.00  0.00    -0.203 F 
ATOM     66  F   UNL     1       9.025  10.914  17.415  1.00  0.00    -0.200 F 
ATOM     67  C   UNL     1       6.917   9.854  17.349  1.00  0.00     0.200 A 
ATOM     68  F   UNL     1       4.804   8.806  17.232  1.00  0.00    -0.200 F 
ATOM     69  F   UNL     1       7.178   9.229  18.505  1.00  0.00    -0.200 F 
ENDBRANCH  45  59
BRANCH  46  70
ATOM     70  C   UNL     1       4.348  15.401   6.109  1.00  0.00     0.064 A 
ATOM     71  C   UNL     1       4.516  16.778   5.907  1.00  0.00     0.173 A 
ATOM     72  C   UNL     1       3.850  14.642   5.040  1.00  0.00     0.173 A 
ATOM     73  F   UNL     1       4.969  17.551   6.905  1.00  0.00    -0.203 F 
ATOM     74  C   UNL     1       4.176  17.376   4.695  1.00  0.00     0.198 A 
ATOM     75  C   UNL     1       3.540  15.235   3.818  1.00  0.00     0.198 A 
ATOM     76  F   UNL     1       3.674  13.320   5.179  1.00  0.00    -0.203 F 
ATOM     77  F   UNL     1       4.296  18.702   4.547  1.00  0.00    -0.200 F 
ATOM     78  C   UNL     1       3.693  16.603   3.650  1.00  0.00     0.200 A 
ATOM     79  F   UNL     1       3.089  14.482   2.806  1.00  0.00    -0.200 F 
ATOM     80  F   UNL     1       3.368  17.177   2.484  1.00  0.00    -0.200 F 
ENDBRANCH  46  70
BRANCH  58  81
ATOM     81  C   UNL     1       1.643  16.027  12.502  1.00  0.00     0.064 A 
ATOM     82  C   UNL     1       0.298  15.779  12.192  1.00  0.00     0.173 A 
ATOM     83  C   UNL     1       1.928  17.078  13.387  1.00  0.00     0.173 A 
ATOM     84  F   UNL     1      -0.029  14.796  11.339  1.00  0.00    -0.203 F 
ATOM     85  C   UNL     1      -0.718  16.569  12.726  1.00  0.00     0.198 A 
ATOM     86  C   UNL     1       0.909  17.844  13.946  1.00  0.00     0.198 A 
ATOM     87  F   UNL     1       3.198  17.355  13.723  1.00  0.00    -0.203 F 
ATOM     88  F   UNL     1      -1.992  16.346  12.374  1.00  0.00    -0.200 F 
ATOM     89  C   UNL     1      -0.412  17.594  13.608  1.00  0.00     0.200 A 
ATOM     90  F   UNL     1       1.205  18.823  14.811  1.00  0.00    -0.200 F 
ATOM     91  F   UNL     1      -1.392  18.348  14.127  1.00  0.00    -0.200 F 
ENDBRANCH  58  81
ENDBRANCH  32  33
ENDBRANCH  24  27
ENDBRANCH  22  23
ENDBRANCH  21  22
ENDBRANCH   1  21
TORSDOF 13
