REMARK SMILES CC[C@@H](C)[C@H](NC(=O)[C@H]1CCCN(S(=O)(=O)c2ccccc2)C1)C(=O)NCCCCNC(=O)c1ccc(-c2c3nc(c(-c4c(F)c(F)c(F)c(F)c4F)c4ccc([nH]4)c(-c4c(F)c(F)c(F)c(F)c4F)c4nc(c(-c5c(F)c(F)c(F)c(F)c5F)c5ccc2[nH]5)C=C4)C=C3)cc1
REMARK SMILES IDX 27 1 26 2 24 3 25 4 5 6 3 7 4 8 2 9 1 10 6 11 7 12 8 14 9 15
REMARK SMILES IDX 10 16 23 17 11 18 13 19 12 20 14 21 15 22 16 23 17 24 18 25
REMARK SMILES IDX 22 26 19 27 21 28 20 29 28 30 29 31 30 32 31 33 32 34 33 36
REMARK SMILES IDX 34 37 35 38 96 39 36 40 95 41 37 42 38 43 39 44 89 45 40 46
REMARK SMILES IDX 94 47 88 48 90 49 41 50 93 51 87 52 86 53 42 55 74 56 54 57
REMARK SMILES IDX 73 58 55 59 58 60 72 61 91 62 56 63 57 64 71 66 92 67 59 68
REMARK SMILES IDX 43 69 44 70 52 71 45 72 46 73 50 74 53 75 47 76 48 77 51 78
REMARK SMILES IDX 49 79 75 80 76 81 84 82 77 83 78 84 82 85 85 86 79 87 80 88
REMARK SMILES IDX 83 89 81 90 60 91 61 92 69 93 62 94 63 95 67 96 70 97 64 98
REMARK SMILES IDX 65 99 68 100 66 101
REMARK H PARENT 26 5 6 13 31 35 90 54 58 65
REMARK Flexibility Score: inf
ROOT
ATOM      1  C   UNL     1      -0.348   6.312   2.114  1.00  0.00     0.116 C 
ENDROOT
BRANCH   1   2
ATOM      2  N   UNL     1       0.456   5.556   3.051  1.00  0.00    -0.354 N 
ATOM      3  C   UNL     1       1.117   4.379   2.870  1.00  0.00     0.242 C 
ATOM      4  O   UNL     1       1.892   4.018   3.760  1.00  0.00    -0.273 OA
ATOM      5  H   UNL     1       0.536   5.951   3.949  1.00  0.00     0.163 HD
BRANCH   3   6
ATOM      6  C   UNL     1       0.988   3.575   1.553  1.00  0.00     0.174 C 
BRANCH   6   7
ATOM      7  C   UNL     1       1.900   4.144   0.393  1.00  0.00     0.018 C 
ATOM      8  C   UNL     1       2.804   5.315   0.820  1.00  0.00     0.010 C 
BRANCH   7   9
ATOM      9  C   UNL     1       1.160   4.450  -0.934  1.00  0.00     0.002 C 
ATOM     10  C   UNL     1       2.006   5.116  -2.013  1.00  0.00     0.004 C 
ENDBRANCH   7   9
ENDBRANCH   6   7
BRANCH   6  11
ATOM     11  N   UNL     1      -0.432   3.399   1.212  1.00  0.00    -0.344 N 
ATOM     12  C   UNL     1      -1.408   2.734   1.891  1.00  0.00     0.225 C 
ATOM     13  H   UNL     1      -0.719   3.823   0.371  1.00  0.00     0.164 HD
ATOM     14  O   UNL     1      -2.519   2.663   1.363  1.00  0.00    -0.275 OA
BRANCH  12  15
ATOM     15  C   UNL     1      -1.150   2.169   3.277  1.00  0.00     0.094 C 
ATOM     16  C   UNL     1      -1.913   2.977   4.330  1.00  0.00     0.016 C 
ATOM     17  C   UNL     1      -1.629   0.722   3.302  1.00  0.00     0.116 C 
ATOM     18  C   UNL     1      -1.726   2.353   5.707  1.00  0.00     0.018 C 
ATOM     19  N   UNL     1      -1.393   0.115   4.659  1.00  0.00    -0.197 NA
ATOM     20  C   UNL     1      -2.118   0.877   5.721  1.00  0.00     0.102 C 
BRANCH  19  21
ATOM     21  S   UNL     1      -1.757  -1.575   4.615  1.00  0.00     0.243 S 
ATOM     22  O   UNL     1      -3.203  -1.706   4.624  1.00  0.00    -0.207 OA
ATOM     23  O   UNL     1      -0.971  -2.157   3.551  1.00  0.00    -0.207 OA
BRANCH  21  24
ATOM     24  C   UNL     1      -1.147  -2.225   6.152  1.00  0.00     0.082 A 
ATOM     25  C   UNL     1       0.048  -2.952   6.168  1.00  0.00     0.022 A 
ATOM     26  C   UNL     1      -1.938  -2.141   7.303  1.00  0.00     0.022 A 
ATOM     27  C   UNL     1       0.461  -3.572   7.348  1.00  0.00     0.001 A 
ATOM     28  C   UNL     1      -1.507  -2.741   8.485  1.00  0.00     0.001 A 
ATOM     29  C   UNL     1      -0.312  -3.461   8.505  1.00  0.00     0.000 A 
ENDBRANCH  21  24
ENDBRANCH  19  21
ENDBRANCH  12  15
ENDBRANCH   6  11
ENDBRANCH   3   6
ENDBRANCH   1   2
BRANCH   1  30
ATOM     30  C   UNL     1      -1.811   6.417   2.529  1.00  0.00     0.023 C 
BRANCH  30  31
ATOM     31  C   UNL     1      -2.040   7.074   3.889  1.00  0.00     0.023 C 
BRANCH  31  32
ATOM     32  C   UNL     1      -1.290   8.380   4.103  1.00  0.00     0.116 C 
BRANCH  32  33
ATOM     33  N   UNL     1      -1.560   9.373   3.074  1.00  0.00    -0.352 N 
ATOM     34  C   UNL     1      -1.722  10.727   3.229  1.00  0.00     0.251 C 
ATOM     35  H   UNL     1      -1.635   9.031   2.154  1.00  0.00     0.163 HD
ATOM     36  O   UNL     1      -2.029  11.442   2.283  1.00  0.00    -0.269 OA
BRANCH  34  37
ATOM     37  C   UNL     1      -1.561  11.299   4.577  1.00  0.00     0.039 A 
ATOM     38  C   UNL     1      -2.614  12.032   5.129  1.00  0.00     0.014 A 
ATOM     39  C   UNL     1      -0.407  11.028   5.317  1.00  0.00     0.014 A 
ATOM     40  C   UNL     1      -2.535  12.445   6.458  1.00  0.00     0.010 A 
ATOM     41  C   UNL     1      -0.364  11.377   6.660  1.00  0.00     0.010 A 
ATOM     42  C   UNL     1      -1.426  12.090   7.241  1.00  0.00    -0.014 A 
BRANCH  42  43
ATOM     43  C   UNL     1      -1.326  12.474   8.668  1.00  0.00     0.031 A 
ATOM     44  C   UNL     1      -0.231  13.406   9.101  1.00  0.00     0.074 A 
ATOM     45  C   UNL     1      -2.147  11.916   9.577  1.00  0.00     0.049 A 
ATOM     46  N   UNL     1       0.138  13.749  10.308  1.00  0.00    -0.248 NA
ATOM     47  C   UNL     1       0.583  14.001   8.029  1.00  0.00     0.031 C 
ATOM     48  C   UNL     1      -3.220  10.967   9.281  1.00  0.00     0.029 A 
ATOM     49  N   UNL     1      -2.190  12.053  10.941  1.00  0.00    -0.354 N 
ATOM     50  C   UNL     1       1.247  14.567  10.141  1.00  0.00     0.074 A 
ATOM     51  C   UNL     1       1.517  14.635   8.721  1.00  0.00     0.031 C 
ATOM     52  C   UNL     1      -3.824  10.615  10.428  1.00  0.00     0.029 A 
ATOM     53  C   UNL     1      -3.156  11.283  11.541  1.00  0.00     0.049 A 
ATOM     54  H   UNL     1      -1.586  12.647  11.443  1.00  0.00     0.167 HD
ATOM     55  C   UNL     1       1.963  15.219  11.086  1.00  0.00     0.037 A 
ATOM     56  C   UNL     1      -3.457  11.128  12.844  1.00  0.00     0.037 A 
ATOM     57  C   UNL     1       1.660  15.183  12.492  1.00  0.00     0.049 A 
ATOM     58  C   UNL     1      -2.667  11.886  13.875  1.00  0.00     0.074 A 
ATOM     59  C   UNL     1       2.281  15.858  13.527  1.00  0.00     0.029 A 
ATOM     60  N   UNL     1       0.638  14.433  13.056  1.00  0.00    -0.354 N 
ATOM     61  N   UNL     1      -1.650  12.696  13.705  1.00  0.00    -0.248 NA
ATOM     62  C   UNL     1      -3.068  11.713  15.278  1.00  0.00     0.031 C 
ATOM     63  C   UNL     1       1.655  15.492  14.723  1.00  0.00     0.029 A 
ATOM     64  C   UNL     1       0.618  14.622  14.428  1.00  0.00     0.049 A 
ATOM     65  H   UNL     1       0.020  13.853  12.556  1.00  0.00     0.167 HD
ATOM     66  C   UNL     1      -1.309  13.152  14.971  1.00  0.00     0.074 A 
ATOM     67  C   UNL     1      -2.232  12.533  15.900  1.00  0.00     0.031 C 
ATOM     68  C   UNL     1      -0.322  14.008  15.331  1.00  0.00     0.037 A 
BRANCH  55  69
ATOM     69  C   UNL     1       3.142  16.023  10.624  1.00  0.00     0.064 A 
ATOM     70  C   UNL     1       2.983  17.208   9.891  1.00  0.00     0.173 A 
ATOM     71  C   UNL     1       4.447  15.606  10.924  1.00  0.00     0.173 A 
ATOM     72  F   UNL     1       1.755  17.640   9.565  1.00  0.00    -0.203 F 
ATOM     73  C   UNL     1       4.088  17.927   9.442  1.00  0.00     0.198 A 
ATOM     74  C   UNL     1       5.550  16.344  10.500  1.00  0.00     0.198 A 
ATOM     75  F   UNL     1       4.655  14.481  11.624  1.00  0.00    -0.203 F 
ATOM     76  F   UNL     1       3.912  19.023   8.692  1.00  0.00    -0.200 F 
ATOM     77  C   UNL     1       5.369  17.497   9.751  1.00  0.00     0.200 A 
ATOM     78  F   UNL     1       6.787  15.933  10.807  1.00  0.00    -0.200 F 
ATOM     79  F   UNL     1       6.432  18.189   9.318  1.00  0.00    -0.200 F 
ENDBRANCH  55  69
BRANCH  56  80
ATOM     80  C   UNL     1      -4.579  10.239  13.242  1.00  0.00     0.064 A 
ATOM     81  C   UNL     1      -5.782  10.776  13.721  1.00  0.00     0.173 A 
ATOM     82  C   UNL     1      -4.480   8.845  13.140  1.00  0.00     0.173 A 
ATOM     83  F   UNL     1      -5.915  12.104  13.854  1.00  0.00    -0.203 F 
ATOM     84  C   UNL     1      -6.838   9.951  14.098  1.00  0.00     0.198 A 
ATOM     85  C   UNL     1      -5.546   8.021  13.495  1.00  0.00     0.198 A 
ATOM     86  F   UNL     1      -3.352   8.283  12.681  1.00  0.00    -0.203 F 
ATOM     87  F   UNL     1      -7.964  10.489  14.587  1.00  0.00    -0.200 F 
ATOM     88  C   UNL     1      -6.723   8.574  13.979  1.00  0.00     0.200 A 
ATOM     89  F   UNL     1      -5.435   6.692  13.366  1.00  0.00    -0.200 F 
ATOM     90  F   UNL     1      -7.742   7.781  14.335  1.00  0.00    -0.200 F 
ENDBRANCH  56  80
BRANCH  68  91
ATOM     91  C   UNL     1      -0.215  14.364  16.784  1.00  0.00     0.064 A 
ATOM     92  C   UNL     1       0.306  13.466  17.724  1.00  0.00     0.173 A 
ATOM     93  C   UNL     1      -0.586  15.643  17.226  1.00  0.00     0.173 A 
ATOM     94  F   UNL     1       0.660  12.227  17.351  1.00  0.00    -0.203 F 
ATOM     95  C   UNL     1       0.439  13.830  19.061  1.00  0.00     0.198 A 
ATOM     96  C   UNL     1      -0.429  16.012  18.558  1.00  0.00     0.198 A 
ATOM     97  F   UNL     1      -1.085  16.539  16.361  1.00  0.00    -0.203 F 
ATOM     98  F   UNL     1       0.907  12.945  19.952  1.00  0.00    -0.200 F 
ATOM     99  C   UNL     1       0.079  15.105  19.475  1.00  0.00     0.200 A 
ATOM    100  F   UNL     1      -0.766  17.247  18.954  1.00  0.00    -0.200 F 
ATOM    101  F   UNL     1       0.218  15.457  20.761  1.00  0.00    -0.200 F 
ENDBRANCH  68  91
ENDBRANCH  42  43
ENDBRANCH  34  37
ENDBRANCH  32  33
ENDBRANCH  31  32
ENDBRANCH  30  31
ENDBRANCH   1  30
TORSDOF 17
