REMARK SMILES COC(=O)c1ccc([C@H]2Nc3c(C(=O)NCCCCNC(=O)c4ccc(-c5c6nc(c(-c7c(F)c(F)c(F)c(F)c7F)c7ccc([nH]7)c(-c7c(F)c(F)c(F)c(F)c7F)c7nc(c(-c8c(F)c(F)c(F)c(F)c8F)c8ccc5[nH]8)C=C7)C=C6)cc4)cccc3[C@H]3[C@H]4CC[C@H](C4)[C@H]32)cc1
REMARK SMILES IDX 17 1 16 2 15 3 13 4 14 5 12 7 9 8 10 9 96 10 11 11 90 13
REMARK SMILES IDX 94 14 89 15 91 16 93 17 95 18 86 19 88 20 92 21 87 22 8 23
REMARK SMILES IDX 5 24 6 25 98 26 7 27 97 28 3 29 4 30 2 31 1 32 18 33 19 34
REMARK SMILES IDX 20 35 21 36 22 38 23 39 24 40 85 41 25 42 84 43 26 44 27 45
REMARK SMILES IDX 28 46 78 47 29 48 83 49 77 50 79 51 30 52 82 53 76 54 75 55
REMARK SMILES IDX 31 57 63 58 43 59 62 60 44 61 47 62 61 63 80 64 45 65 46 66
REMARK SMILES IDX 60 68 81 69 48 70 32 71 33 72 41 73 34 74 35 75 39 76 42 77
REMARK SMILES IDX 36 78 37 79 40 80 38 81 64 82 65 83 73 84 66 85 67 86 71 87
REMARK SMILES IDX 74 88 68 89 69 90 72 91 70 92 49 93 50 94 58 95 51 96 52 97
REMARK SMILES IDX 56 98 59 99 53 100 54 101 57 102 55 103
REMARK H PARENT 15 6 10 12 20 37 79 56 47 67
REMARK Flexibility Score: inf
ROOT
ATOM      1  C   UNL     1       0.241 -13.460  -0.018  1.00  0.00     0.023 C 
ENDROOT
BRANCH   1   2
ATOM      2  C   UNL     1      -0.973 -12.543  -0.118  1.00  0.00     0.116 C 
BRANCH   2   3
ATOM      3  N   UNL     1      -0.786 -11.170   0.345  1.00  0.00    -0.352 N 
ATOM      4  C   UNL     1      -1.237  -9.985  -0.234  1.00  0.00     0.253 C 
ATOM      5  O   UNL     1      -1.013  -8.907   0.311  1.00  0.00    -0.269 OA
ATOM      6  H   UNL     1      -0.273 -11.068   1.178  1.00  0.00     0.163 HD
BRANCH   4   7
ATOM      7  C   UNL     1      -1.917 -10.039  -1.556  1.00  0.00     0.063 A 
ATOM      8  C   UNL     1      -1.262  -7.019  -3.547  1.00  0.00     0.113 C 
ATOM      9  N   UNL     1      -0.882  -7.999  -2.498  1.00  0.00    -0.377 N 
ATOM     10  C   UNL     1      -0.748  -7.611  -4.901  1.00  0.00     0.027 C 
ATOM     11  C   UNL     1      -1.434  -9.283  -2.634  1.00  0.00     0.051 A 
ATOM     12  H   UNL     1      -0.281  -7.763  -1.754  1.00  0.00     0.161 HD
ATOM     13  C   UNL     1      -0.742  -9.165  -4.992  1.00  0.00     0.030 C 
ATOM     14  C   UNL     1      -1.218  -7.222  -6.324  1.00  0.00    -0.005 C 
ATOM     15  C   UNL     1      -1.595  -9.803  -3.931  1.00  0.00    -0.020 A 
ATOM     16  C   UNL     1      -0.967  -9.444  -6.505  1.00  0.00    -0.003 C 
ATOM     17  C   UNL     1      -2.620  -7.750  -6.710  1.00  0.00     0.004 C 
ATOM     18  C   UNL     1      -0.342  -8.193  -7.144  1.00  0.00     0.008 C 
ATOM     19  C   UNL     1      -2.908 -10.999  -1.779  1.00  0.00     0.016 A 
ATOM     20  C   UNL     1      -2.408 -10.923  -4.128  1.00  0.00     0.006 A 
ATOM     21  C   UNL     1      -2.418  -9.244  -6.936  1.00  0.00     0.004 C 
ATOM     22  C   UNL     1      -3.150 -11.446  -3.072  1.00  0.00     0.001 A 
BRANCH   8  23
ATOM     23  C   UNL     1      -2.713  -6.533  -3.390  1.00  0.00    -0.025 A 
ATOM     24  C   UNL     1      -5.468  -5.901  -3.231  1.00  0.00     0.060 A 
ATOM     25  C   UNL     1      -4.819  -6.450  -2.129  1.00  0.00     0.016 A 
ATOM     26  C   UNL     1      -4.725  -5.514  -4.344  1.00  0.00     0.016 A 
ATOM     27  C   UNL     1      -3.456  -6.761  -2.213  1.00  0.00     0.007 A 
ATOM     28  C   UNL     1      -3.348  -5.772  -4.385  1.00  0.00     0.007 A 
BRANCH  24  29
ATOM     29  C   UNL     1      -6.939  -5.768  -3.205  1.00  0.00     0.337 C 
ATOM     30  O   UNL     1      -7.577  -5.355  -2.251  1.00  0.00    -0.246 OA
BRANCH  29  31
ATOM     31  O   UNL     1      -7.431  -6.288  -4.357  1.00  0.00    -0.465 OA
ATOM     32  C   UNL     1      -8.855  -6.399  -4.417  1.00  0.00     0.282 C 
ENDBRANCH  29  31
ENDBRANCH  24  29
ENDBRANCH   8  23
ENDBRANCH   4   7
ENDBRANCH   2   3
ENDBRANCH   1   2
BRANCH   1  33
ATOM     33  C   UNL     1       0.724 -13.805   1.384  1.00  0.00     0.023 C 
BRANCH  33  34
ATOM     34  C   UNL     1      -0.319 -14.391   2.330  1.00  0.00     0.116 C 
BRANCH  34  35
ATOM     35  N   UNL     1      -0.876 -15.662   1.887  1.00  0.00    -0.352 N 
ATOM     36  C   UNL     1      -0.981 -16.862   2.553  1.00  0.00     0.251 C 
ATOM     37  H   UNL     1      -1.234 -15.662   0.969  1.00  0.00     0.163 HD
ATOM     38  O   UNL     1      -1.415 -17.850   1.968  1.00  0.00    -0.269 OA
BRANCH  36  39
ATOM     39  C   UNL     1      -0.533 -16.985   3.961  1.00  0.00     0.039 A 
ATOM     40  C   UNL     1       0.229 -18.099   4.329  1.00  0.00     0.014 A 
ATOM     41  C   UNL     1      -0.848 -16.015   4.914  1.00  0.00     0.014 A 
ATOM     42  C   UNL     1       0.751 -18.189   5.623  1.00  0.00     0.010 A 
ATOM     43  C   UNL     1      -0.260 -16.063   6.176  1.00  0.00     0.010 A 
ATOM     44  C   UNL     1       0.553 -17.147   6.543  1.00  0.00    -0.014 A 
BRANCH  44  45
ATOM     45  C   UNL     1       1.199 -17.163   7.884  1.00  0.00     0.031 A 
ATOM     46  C   UNL     1       0.359 -17.183   9.132  1.00  0.00     0.074 A 
ATOM     47  C   UNL     1       2.541 -17.087   7.981  1.00  0.00     0.049 A 
ATOM     48  N   UNL     1       0.733 -17.108  10.385  1.00  0.00    -0.248 NA
ATOM     49  C   UNL     1      -1.098 -17.274   8.946  1.00  0.00     0.031 C 
ATOM     50  C   UNL     1       3.469 -17.012   6.851  1.00  0.00     0.029 A 
ATOM     51  N   UNL     1       3.360 -17.042   9.084  1.00  0.00    -0.354 N 
ATOM     52  C   UNL     1      -0.438 -17.135  11.132  1.00  0.00     0.074 A 
ATOM     53  C   UNL     1      -1.537 -17.174  10.192  1.00  0.00     0.031 C 
ATOM     54  C   UNL     1       4.726 -16.945   7.316  1.00  0.00     0.029 A 
ATOM     55  C   UNL     1       4.695 -16.930   8.775  1.00  0.00     0.049 A 
ATOM     56  H   UNL     1       3.023 -17.086  10.007  1.00  0.00     0.167 HD
ATOM     57  C   UNL     1      -0.582 -17.152  12.479  1.00  0.00     0.037 A 
ATOM     58  C   UNL     1       5.771 -16.814   9.577  1.00  0.00     0.037 A 
ATOM     59  C   UNL     1       0.512 -17.130  13.414  1.00  0.00     0.049 A 
ATOM     60  C   UNL     1       5.581 -16.820  11.071  1.00  0.00     0.074 A 
ATOM     61  C   UNL     1       0.467 -17.186  14.796  1.00  0.00     0.029 A 
ATOM     62  N   UNL     1       1.851 -17.044  13.062  1.00  0.00    -0.354 N 
ATOM     63  N   UNL     1       4.472 -16.909  11.764  1.00  0.00    -0.248 NA
ATOM     64  C   UNL     1       6.794 -16.718  11.895  1.00  0.00     0.031 C 
ATOM     65  C   UNL     1       1.774 -17.089  15.283  1.00  0.00     0.029 A 
ATOM     66  C   UNL     1       2.639 -17.029  14.202  1.00  0.00     0.049 A 
ATOM     67  H   UNL     1       2.191 -17.001  12.139  1.00  0.00     0.167 HD
ATOM     68  C   UNL     1       4.854 -16.904  13.099  1.00  0.00     0.074 A 
ATOM     69  C   UNL     1       6.299 -16.822  13.120  1.00  0.00     0.031 C 
ATOM     70  C   UNL     1       4.077 -16.960  14.208  1.00  0.00     0.037 A 
BRANCH  57  71
ATOM     71  C   UNL     1      -1.979 -17.212  13.027  1.00  0.00     0.064 A 
ATOM     72  C   UNL     1      -2.766 -18.367  12.902  1.00  0.00     0.173 A 
ATOM     73  C   UNL     1      -2.519 -16.125  13.731  1.00  0.00     0.173 A 
ATOM     74  F   UNL     1      -2.302 -19.431  12.230  1.00  0.00    -0.203 F 
ATOM     75  C   UNL     1      -4.050 -18.422  13.439  1.00  0.00     0.198 A 
ATOM     76  C   UNL     1      -3.791 -16.195  14.294  1.00  0.00     0.198 A 
ATOM     77  F   UNL     1      -1.806 -14.998  13.886  1.00  0.00    -0.203 F 
ATOM     78  F   UNL     1      -4.799 -19.520  13.268  1.00  0.00    -0.200 F 
ATOM     79  C   UNL     1      -4.557 -17.340  14.142  1.00  0.00     0.200 A 
ATOM     80  F   UNL     1      -4.274 -15.154  14.986  1.00  0.00    -0.200 F 
ATOM     81  F   UNL     1      -5.788 -17.399  14.669  1.00  0.00    -0.200 F 
ENDBRANCH  57  71
BRANCH  58  82
ATOM     82  C   UNL     1       7.132 -16.687   8.989  1.00  0.00     0.064 A 
ATOM     83  C   UNL     1       8.082 -17.708   9.137  1.00  0.00     0.173 A 
ATOM     84  C   UNL     1       7.519 -15.534   8.289  1.00  0.00     0.173 A 
ATOM     85  F   UNL     1       7.767 -18.821   9.816  1.00  0.00    -0.203 F 
ATOM     86  C   UNL     1       9.374 -17.569   8.635  1.00  0.00     0.198 A 
ATOM     87  C   UNL     1       8.802 -15.410   7.759  1.00  0.00     0.198 A 
ATOM     88  F   UNL     1       6.648 -14.530   8.114  1.00  0.00    -0.203 F 
ATOM     89  F   UNL     1      10.278 -18.536   8.842  1.00  0.00    -0.200 F 
ATOM     90  C   UNL     1       9.732 -16.422   7.942  1.00  0.00     0.200 A 
ATOM     91  F   UNL     1       9.139 -14.307   7.077  1.00  0.00    -0.200 F 
ATOM     92  F   UNL     1      10.975 -16.288   7.461  1.00  0.00    -0.200 F 
ENDBRANCH  58  82
BRANCH  70  93
ATOM     93  C   UNL     1       4.774 -16.979  15.539  1.00  0.00     0.064 A 
ATOM     94  C   UNL     1       5.419 -15.844  16.051  1.00  0.00     0.173 A 
ATOM     95  C   UNL     1       4.760 -18.139  16.329  1.00  0.00     0.173 A 
ATOM     96  F   UNL     1       5.473 -14.715  15.329  1.00  0.00    -0.203 F 
ATOM     97  C   UNL     1       6.049 -15.878  17.293  1.00  0.00     0.198 A 
ATOM     98  C   UNL     1       5.362 -18.160  17.584  1.00  0.00     0.198 A 
ATOM     99  F   UNL     1       4.150 -19.250  15.889  1.00  0.00    -0.203 F 
ATOM    100  F   UNL     1       6.703 -14.797  17.740  1.00  0.00    -0.200 F 
ATOM    101  C   UNL     1       6.013 -17.033  18.061  1.00  0.00     0.200 A 
ATOM    102  F   UNL     1       5.314 -19.272  18.331  1.00  0.00    -0.200 F 
ATOM    103  F   UNL     1       6.612 -17.061  19.259  1.00  0.00    -0.200 F 
ENDBRANCH  70  93
ENDBRANCH  44  45
ENDBRANCH  36  39
ENDBRANCH  34  35
ENDBRANCH  33  34
ENDBRANCH   1  33
TORSDOF 14
