REMARK SMILES NC(=O)c1c(NC(=O)[C@H]2[C@@H](C(=O)NCCCCNC(=O)c3ccc(-c4c5nc(c(-c6c(F)c(F)c(F)c(F)c6F)c6ccc([nH]6)c(-c6c(F)c(F)c(F)c(F)c6F)c6nc(c(-c7c(F)c(F)c(F)c(F)c7F)c7ccc4[nH]7)C=C6)C=C5)cc3)[C@@H]3C=C[C@H]2C3)sc2c1CCCCCC2
REMARK SMILES IDX 14 1 13 2 11 3 12 4 10 6 9 7 87 8 84 9 86 10 88 11 85 12
REMARK SMILES IDX 7 13 6 14 8 16 5 17 4 18 91 19 89 20 90 21 2 22 1 23 3 26
REMARK SMILES IDX 92 27 93 28 94 29 97 31 96 32 95 33 15 35 16 36 17 37 18 38
REMARK SMILES IDX 19 39 20 41 21 42 22 43 83 44 23 45 82 46 24 47 25 48 26 49
REMARK SMILES IDX 76 50 27 51 81 52 75 53 77 54 28 55 80 56 74 57 73 58 29 60
REMARK SMILES IDX 61 61 41 62 60 63 42 64 45 65 59 66 78 67 43 68 44 69 58 71
REMARK SMILES IDX 79 72 46 73 30 74 31 75 39 76 32 77 33 78 37 79 40 80 34 81
REMARK SMILES IDX 35 82 38 83 36 84 62 85 63 86 71 87 64 88 65 89 69 90 72 91
REMARK SMILES IDX 66 92 67 93 70 94 68 95 47 96 48 97 56 98 49 99 50 100
REMARK SMILES IDX 54 101 57 102 51 103 52 104 55 105 53 106
REMARK H PARENT 13 5 6 15 1 24 1 25 18 40 77 59 45 70
REMARK Flexibility Score: 90.00
ROOT
ATOM      1  C   UNL     1       0.773  -4.247  -1.831  1.00  0.00     0.116 C 
ENDROOT
BRANCH   1   2
ATOM      2  N   UNL     1       0.232  -2.884  -1.886  1.00  0.00    -0.356 N 
ATOM      3  C   UNL     1       0.895  -1.795  -2.419  1.00  0.00     0.224 C 
ATOM      4  O   UNL     1       0.632  -1.553  -3.603  1.00  0.00    -0.275 OA
ATOM      5  H   UNL     1      -0.668  -2.734  -1.517  1.00  0.00     0.163 HD
BRANCH   3   6
ATOM      6  C   UNL     1       1.904  -0.888  -1.616  1.00  0.00     0.098 C 
ATOM      7  C   UNL     1       2.416  -1.477  -0.330  1.00  0.00     0.099 C 
ATOM      8  C   UNL     1       3.112  -0.294   0.414  1.00  0.00     0.025 C 
ATOM      9  C   UNL     1       1.829   0.634  -1.123  1.00  0.00     0.025 C 
ATOM     10  C   UNL     1       4.011   0.562  -0.477  1.00  0.00    -0.027 C 
ATOM     11  C   UNL     1       1.940   0.675   0.427  1.00  0.00     0.017 C 
ATOM     12  C   UNL     1       3.212   1.192  -1.351  1.00  0.00    -0.027 C 
BRANCH   7  13
ATOM     13  C   UNL     1       1.292  -2.014   0.534  1.00  0.00     0.229 C 
ATOM     14  N   UNL     1      -0.034  -1.701   0.530  1.00  0.00    -0.317 N 
ATOM     15  H   UNL     1      -0.446  -2.277   1.214  1.00  0.00     0.170 HD
ATOM     16  O   UNL     1       1.629  -2.829   1.412  1.00  0.00    -0.274 OA
BRANCH  14  17
ATOM     17  C   UNL     1      -1.081  -0.935  -0.001  1.00  0.00     0.108 A 
ATOM     18  C   UNL     1      -1.549   0.077  -0.862  1.00  0.00     0.077 A 
ATOM     19  C   UNL     1      -2.961   0.412  -0.553  1.00  0.00    -0.019 A 
ATOM     20  S   UNL     1      -2.432  -1.646   0.822  1.00  0.00    -0.122 S 
ATOM     21  C   UNL     1      -3.568  -0.545   0.230  1.00  0.00     0.011 A 
BRANCH  18  22
ATOM     22  C   UNL     1      -0.959   0.967  -1.871  1.00  0.00     0.251 C 
ATOM     23  N   UNL     1      -0.735   0.499  -3.129  1.00  0.00    -0.365 N 
ATOM     24  H   UNL     1      -0.340   1.089  -3.811  1.00  0.00     0.159 HD
ATOM     25  H   UNL     1      -0.967  -0.430  -3.357  1.00  0.00     0.159 HD
ATOM     26  O   UNL     1      -0.820   2.176  -1.685  1.00  0.00    -0.269 OA
ENDBRANCH  18  22
BRANCH  19  27
ATOM     27  C   UNL     1      -3.665   1.621  -1.139  1.00  0.00     0.037 C 
BRANCH  27  28
ATOM     28  C   UNL     1      -4.385   1.304  -2.440  1.00  0.00     0.005 C 
BRANCH  28  29
ATOM     29  C   UNL     1      -5.384   0.156  -2.332  1.00  0.00     0.000 CG0
ATOM     30  G   UNL     1      -6.447   0.324  -1.244  1.00  0.00     0.000 G0
ENDBRANCH  28  29
ENDBRANCH  27  28
ENDBRANCH  19  27
BRANCH  21  31
ATOM     31  C   UNL     1      -4.998  -0.784   0.629  1.00  0.00     0.047 C 
BRANCH  31  32
ATOM     32  C   UNL     1      -6.034   0.261   0.237  1.00  0.00     0.006 C 
BRANCH  32  33
ATOM     33  C   UNL     1      -6.447   0.324  -1.244  1.00  0.00     0.000 CG0
ATOM     34  G   UNL     1      -5.384   0.156  -2.332  1.00  0.00     0.000 G0
ENDBRANCH  32  33
ENDBRANCH  31  32
ENDBRANCH  21  31
ENDBRANCH  14  17
ENDBRANCH   7  13
ENDBRANCH   3   6
ENDBRANCH   1   2
BRANCH   1  35
ATOM     35  C   UNL     1       0.319  -5.122  -0.641  1.00  0.00     0.023 C 
BRANCH  35  36
ATOM     36  C   UNL     1      -1.171  -5.446  -0.439  1.00  0.00     0.023 C 
BRANCH  36  37
ATOM     37  C   UNL     1      -1.824  -6.291  -1.523  1.00  0.00     0.116 C 
BRANCH  37  38
ATOM     38  N   UNL     1      -1.203  -7.599  -1.710  1.00  0.00    -0.352 N 
ATOM     39  C   UNL     1      -1.521  -8.587  -2.631  1.00  0.00     0.251 C 
ATOM     40  H   UNL     1      -0.459  -7.809  -1.100  1.00  0.00     0.163 HD
ATOM     41  O   UNL     1      -1.157  -9.733  -2.470  1.00  0.00    -0.269 OA
BRANCH  39  42
ATOM     42  C   UNL     1      -2.342  -8.226  -3.808  1.00  0.00     0.039 A 
ATOM     43  C   UNL     1      -3.347  -9.085  -4.260  1.00  0.00     0.014 A 
ATOM     44  C   UNL     1      -2.121  -7.006  -4.439  1.00  0.00     0.014 A 
ATOM     45  C   UNL     1      -4.196  -8.652  -5.276  1.00  0.00     0.010 A 
ATOM     46  C   UNL     1      -3.043  -6.521  -5.338  1.00  0.00     0.010 A 
ATOM     47  C   UNL     1      -4.069  -7.347  -5.784  1.00  0.00    -0.014 A 
BRANCH  47  48
ATOM     48  C   UNL     1      -5.110  -6.799  -6.655  1.00  0.00     0.031 A 
ATOM     49  C   UNL     1      -6.488  -6.956  -6.115  1.00  0.00     0.074 A 
ATOM     50  C   UNL     1      -4.873  -6.039  -7.747  1.00  0.00     0.049 A 
ATOM     51  N   UNL     1      -7.435  -7.690  -6.596  1.00  0.00    -0.248 NA
ATOM     52  C   UNL     1      -6.818  -6.337  -4.820  1.00  0.00     0.031 C 
ATOM     53  C   UNL     1      -3.578  -5.542  -8.222  1.00  0.00     0.029 A 
ATOM     54  N   UNL     1      -5.755  -5.451  -8.612  1.00  0.00    -0.354 N 
ATOM     55  C   UNL     1      -8.547  -7.457  -5.791  1.00  0.00     0.074 A 
ATOM     56  C   UNL     1      -8.064  -6.775  -4.621  1.00  0.00     0.031 C 
ATOM     57  C   UNL     1      -3.771  -4.551  -9.118  1.00  0.00     0.029 A 
ATOM     58  C   UNL     1      -5.189  -4.467  -9.417  1.00  0.00     0.049 A 
ATOM     59  H   UNL     1      -6.706  -5.701  -8.661  1.00  0.00     0.167 HD
ATOM     60  C   UNL     1      -9.800  -7.576  -6.312  1.00  0.00     0.037 A 
ATOM     61  C   UNL     1      -5.827  -3.633 -10.272  1.00  0.00     0.037 A 
ATOM     62  C   UNL     1      -9.755  -8.277  -7.572  1.00  0.00     0.049 A 
ATOM     63  C   UNL     1      -7.116  -4.263 -10.626  1.00  0.00     0.074 A 
ATOM     64  C   UNL     1      -9.514  -9.563  -8.000  1.00  0.00     0.029 A 
ATOM     65  N   UNL     1      -9.602  -7.452  -8.652  1.00  0.00    -0.354 N 
ATOM     66  N   UNL     1      -7.217  -5.341 -11.351  1.00  0.00    -0.248 NA
ATOM     67  C   UNL     1      -8.326  -3.876  -9.910  1.00  0.00     0.031 C 
ATOM     68  C   UNL     1      -9.001  -9.445  -9.329  1.00  0.00     0.029 A 
ATOM     69  C   UNL     1      -8.988  -8.098  -9.687  1.00  0.00     0.049 A 
ATOM     70  H   UNL     1      -9.897  -6.513  -8.680  1.00  0.00     0.167 HD
ATOM     71  C   UNL     1      -8.309  -5.998 -10.824  1.00  0.00     0.074 A 
ATOM     72  C   UNL     1      -9.058  -4.975 -10.107  1.00  0.00     0.031 C 
ATOM     73  C   UNL     1      -8.314  -7.359 -10.730  1.00  0.00     0.037 A 
BRANCH  60  74
ATOM     74  C   UNL     1     -10.954  -6.634  -6.010  1.00  0.00     0.064 A 
ATOM     75  C   UNL     1     -12.208  -6.888  -6.612  1.00  0.00     0.173 A 
ATOM     76  C   UNL     1     -10.798  -5.338  -5.473  1.00  0.00     0.173 A 
ATOM     77  F   UNL     1     -12.466  -8.079  -7.174  1.00  0.00    -0.203 F 
ATOM     78  C   UNL     1     -13.183  -5.894  -6.745  1.00  0.00     0.198 A 
ATOM     79  C   UNL     1     -11.794  -4.364  -5.564  1.00  0.00     0.198 A 
ATOM     80  F   UNL     1      -9.644  -4.913  -4.949  1.00  0.00    -0.203 F 
ATOM     81  F   UNL     1     -14.299  -6.144  -7.444  1.00  0.00    -0.200 F 
ATOM     82  C   UNL     1     -12.971  -4.630  -6.229  1.00  0.00     0.200 A 
ATOM     83  F   UNL     1     -11.557  -3.137  -5.080  1.00  0.00    -0.200 F 
ATOM     84  F   UNL     1     -13.871  -3.656  -6.414  1.00  0.00    -0.200 F 
ENDBRANCH  60  74
BRANCH  61  85
ATOM     85  C   UNL     1      -5.481  -2.258 -10.702  1.00  0.00     0.064 A 
ATOM     86  C   UNL     1      -6.083  -1.681 -11.834  1.00  0.00     0.173 A 
ATOM     87  C   UNL     1      -4.782  -1.383  -9.850  1.00  0.00     0.173 A 
ATOM     88  F   UNL     1      -6.793  -2.439 -12.683  1.00  0.00    -0.203 F 
ATOM     89  C   UNL     1      -6.035  -0.304 -12.070  1.00  0.00     0.198 A 
ATOM     90  C   UNL     1      -4.727  -0.009 -10.092  1.00  0.00     0.198 A 
ATOM     91  F   UNL     1      -4.225  -1.828  -8.715  1.00  0.00    -0.203 F 
ATOM     92  F   UNL     1      -6.690   0.217 -13.116  1.00  0.00    -0.200 F 
ATOM     93  C   UNL     1      -5.370   0.533 -11.190  1.00  0.00     0.200 A 
ATOM     94  F   UNL     1      -4.108   0.795  -9.215  1.00  0.00    -0.200 F 
ATOM     95  F   UNL     1      -5.388   1.860 -11.373  1.00  0.00    -0.200 F 
ENDBRANCH  61  85
BRANCH  73  96
ATOM     96  C   UNL     1      -7.432  -8.112 -11.679  1.00  0.00     0.064 A 
ATOM     97  C   UNL     1      -6.030  -8.035 -11.707  1.00  0.00     0.173 A 
ATOM     98  C   UNL     1      -8.051  -8.995 -12.575  1.00  0.00     0.173 A 
ATOM     99  F   UNL     1      -5.359  -7.281 -10.827  1.00  0.00    -0.203 F 
ATOM    100  C   UNL     1      -5.290  -8.769 -12.633  1.00  0.00     0.198 A 
ATOM    101  C   UNL     1      -7.307  -9.758 -13.467  1.00  0.00     0.198 A 
ATOM    102  F   UNL     1      -9.386  -9.138 -12.564  1.00  0.00    -0.203 F 
ATOM    103  F   UNL     1      -3.954  -8.654 -12.667  1.00  0.00    -0.200 F 
ATOM    104  C   UNL     1      -5.929  -9.633 -13.508  1.00  0.00     0.200 A 
ATOM    105  F   UNL     1      -7.928 -10.623 -14.280  1.00  0.00    -0.200 F 
ATOM    106  F   UNL     1      -5.215 -10.359 -14.379  1.00  0.00    -0.200 F 
ENDBRANCH  73  96
ENDBRANCH  47  48
ENDBRANCH  39  42
ENDBRANCH  37  38
ENDBRANCH  36  37
ENDBRANCH  35  36
ENDBRANCH   1  35
TORSDOF 14
