REMARK SMILES CCC[N@@H+]1CC2(CCN(C(=O)Cn3nnnc3C)CC2)C[C@H]1C(=O)NCCCCNC(=O)c1ccc(-c2c3nc(c(-c4c(F)c(F)c(F)c(F)c4F)c4ccc([nH]4)c(-c4c(F)c(F)c(F)c(F)c4F)c4nc(c(-c5c(F)c(F)c(F)c(F)c5F)c5ccc2[nH]5)C=C4)C=C3)cc1
REMARK SMILES IDX 27 1 26 2 25 3 23 4 24 5 22 7 4 8 5 9 6 11 21 12 7 13 20 14
REMARK SMILES IDX 8 15 19 16 9 17 10 18 11 19 3 20 2 21 1 22 12 23 13 24 14 25
REMARK SMILES IDX 17 26 15 27 16 28 18 29 28 30 29 31 30 32 31 33 32 35 33 36
REMARK SMILES IDX 34 37 95 38 35 39 94 40 36 41 37 42 38 43 88 44 39 45 93 46
REMARK SMILES IDX 87 47 89 48 40 49 92 50 86 51 85 52 41 54 73 55 53 56 72 57
REMARK SMILES IDX 54 58 57 59 71 60 90 61 55 62 56 63 70 65 91 66 58 67 42 68
REMARK SMILES IDX 43 69 51 70 44 71 45 72 49 73 52 74 46 75 47 76 50 77 48 78
REMARK SMILES IDX 74 79 75 80 83 81 76 82 77 83 81 84 84 85 78 86 79 87 82 88
REMARK SMILES IDX 80 89 59 90 60 91 68 92 61 93 62 94 66 95 69 96 63 97 64 98
REMARK SMILES IDX 67 99 65 100
REMARK H PARENT 25 6 4 10 30 34 89 53 57 64
REMARK Flexibility Score: inf
ROOT
ATOM      1  C   UNL     1      -1.863  -1.884   3.987  1.00  0.00     0.023 C 
ENDROOT
BRANCH   1   2
ATOM      2  C   UNL     1      -0.494  -2.337   4.506  1.00  0.00     0.116 C 
BRANCH   2   3
ATOM      3  N   UNL     1      -0.016  -3.597   3.979  1.00  0.00    -0.351 N 
ATOM      4  C   UNL     1       0.880  -3.941   3.016  1.00  0.00     0.278 C 
ATOM      5  O   UNL     1       1.167  -5.151   3.003  1.00  0.00    -0.268 OA
ATOM      6  H   UNL     1      -0.432  -4.377   4.414  1.00  0.00     0.163 HD
BRANCH   4   7
ATOM      7  C   UNL     1       1.591  -3.010   1.988  1.00  0.00     0.274 C 
ATOM      8  N   UNL     1       0.660  -2.192   1.165  1.00  0.00    -0.324 N 
ATOM      9  C   UNL     1       0.717  -0.847   1.742  1.00  0.00     0.270 C 
ATOM     10  H   UNL     1      -0.309  -2.510   1.172  1.00  0.00     0.348 HD
ATOM     11  C   UNL     1       2.110  -0.632   2.372  1.00  0.00     0.029 C 
ATOM     12  C   UNL     1       2.683  -2.058   2.479  1.00  0.00     0.088 C 
ATOM     13  C   UNL     1       2.161   0.003   3.776  1.00  0.00     0.034 C 
ATOM     14  C   UNL     1       2.917   0.354   1.488  1.00  0.00     0.034 C 
ATOM     15  C   UNL     1       1.427   1.321   3.808  1.00  0.00     0.120 C 
ATOM     16  C   UNL     1       2.325   1.787   1.537  1.00  0.00     0.120 C 
ATOM     17  N   UNL     1       2.054   2.272   2.899  1.00  0.00    -0.341 N 
ATOM     18  C   UNL     1       2.103   3.643   3.147  1.00  0.00     0.244 C 
ATOM     19  O   UNL     1       2.406   4.453   2.266  1.00  0.00    -0.273 OA
BRANCH   8  20
ATOM     20  C   UNL     1       1.091  -2.274  -0.254  1.00  0.00     0.262 C 
BRANCH  20  21
ATOM     21  C   UNL     1       0.292  -1.467  -1.292  1.00  0.00     0.058 C 
ATOM     22  C   UNL     1       0.890  -0.110  -1.644  1.00  0.00     0.010 C 
ENDBRANCH  20  21
ENDBRANCH   8  20
BRANCH  18  23
ATOM     23  C   UNL     1       1.816   4.149   4.548  1.00  0.00     0.248 C 
BRANCH  23  24
ATOM     24  N   UNL     1       0.414   4.421   4.736  1.00  0.00    -0.220 N 
ATOM     25  N   UNL     1      -0.439   3.413   4.996  1.00  0.00    -0.044 NA
ATOM     26  C   UNL     1      -0.257   5.612   4.795  1.00  0.00     0.148 A 
ATOM     27  N   UNL     1      -1.623   3.983   5.143  1.00  0.00    -0.024 NA
ATOM     28  N   UNL     1      -1.526   5.344   5.028  1.00  0.00    -0.114 NA
ATOM     29  C   UNL     1       0.334   6.957   4.656  1.00  0.00     0.091 C 
ENDBRANCH  23  24
ENDBRANCH  18  23
ENDBRANCH   4   7
ENDBRANCH   2   3
ENDBRANCH   1   2
BRANCH   1  30
ATOM     30  C   UNL     1      -3.032  -2.068   4.963  1.00  0.00     0.023 C 
BRANCH  30  31
ATOM     31  C   UNL     1      -2.989  -1.176   6.204  1.00  0.00     0.116 C 
BRANCH  31  32
ATOM     32  N   UNL     1      -3.192   0.254   5.935  1.00  0.00    -0.352 N 
ATOM     33  C   UNL     1      -3.080   1.288   6.855  1.00  0.00     0.251 C 
ATOM     34  H   UNL     1      -3.430   0.504   5.013  1.00  0.00     0.163 HD
ATOM     35  O   UNL     1      -3.773   2.301   6.776  1.00  0.00    -0.269 OA
BRANCH  33  36
ATOM     36  C   UNL     1      -2.102   1.137   7.944  1.00  0.00     0.039 A 
ATOM     37  C   UNL     1      -2.343   1.564   9.256  1.00  0.00     0.014 A 
ATOM     38  C   UNL     1      -0.940   0.449   7.616  1.00  0.00     0.014 A 
ATOM     39  C   UNL     1      -1.432   1.211  10.252  1.00  0.00     0.010 A 
ATOM     40  C   UNL     1      -0.189  -0.089   8.617  1.00  0.00     0.010 A 
ATOM     41  C   UNL     1      -0.365   0.368   9.916  1.00  0.00    -0.014 A 
BRANCH  41  42
ATOM     42  C   UNL     1       0.577  -0.149  10.895  1.00  0.00     0.031 A 
ATOM     43  C   UNL     1      -0.015  -1.064  11.907  1.00  0.00     0.074 A 
ATOM     44  C   UNL     1       1.908  -0.078  10.671  1.00  0.00     0.049 A 
ATOM     45  N   UNL     1      -0.123  -0.876  13.180  1.00  0.00    -0.248 NA
ATOM     46  C   UNL     1      -0.699  -2.278  11.429  1.00  0.00     0.031 C 
ATOM     47  C   UNL     1       2.612   0.459   9.497  1.00  0.00     0.029 A 
ATOM     48  N   UNL     1       2.922  -0.611  11.397  1.00  0.00    -0.354 N 
ATOM     49  C   UNL     1      -0.697  -2.038  13.693  1.00  0.00     0.074 A 
ATOM     50  C   UNL     1      -1.230  -2.745  12.560  1.00  0.00     0.031 C 
ATOM     51  C   UNL     1       3.885   0.007   9.483  1.00  0.00     0.029 A 
ATOM     52  C   UNL     1       4.135  -0.705  10.721  1.00  0.00     0.049 A 
ATOM     53  H   UNL     1       2.809  -0.908  12.329  1.00  0.00     0.167 HD
ATOM     54  C   UNL     1      -0.434  -2.444  14.969  1.00  0.00     0.037 A 
ATOM     55  C   UNL     1       5.227  -1.386  11.153  1.00  0.00     0.037 A 
ATOM     56  C   UNL     1       0.159  -1.365  15.728  1.00  0.00     0.049 A 
ATOM     57  C   UNL     1       5.044  -1.606  12.616  1.00  0.00     0.074 A 
ATOM     58  C   UNL     1      -0.222  -0.071  16.036  1.00  0.00     0.029 A 
ATOM     59  N   UNL     1       1.516  -1.405  15.953  1.00  0.00    -0.354 N 
ATOM     60  N   UNL     1       5.045  -0.641  13.496  1.00  0.00    -0.248 NA
ATOM     61  C   UNL     1       4.354  -2.824  13.021  1.00  0.00     0.031 C 
ATOM     62  C   UNL     1       0.971   0.702  15.896  1.00  0.00     0.029 A 
ATOM     63  C   UNL     1       2.017  -0.175  15.611  1.00  0.00     0.049 A 
ATOM     64  H   UNL     1       2.030  -2.171  16.295  1.00  0.00     0.167 HD
ATOM     65  C   UNL     1       4.016  -0.959  14.371  1.00  0.00     0.074 A 
ATOM     66  C   UNL     1       3.663  -2.344  14.060  1.00  0.00     0.031 C 
ATOM     67  C   UNL     1       3.331   0.011  15.047  1.00  0.00     0.037 A 
BRANCH  54  68
ATOM     68  C   UNL     1      -0.311  -3.889  15.420  1.00  0.00     0.064 A 
ATOM     69  C   UNL     1      -0.016  -4.142  16.778  1.00  0.00     0.173 A 
ATOM     70  C   UNL     1      -0.149  -4.996  14.559  1.00  0.00     0.173 A 
ATOM     71  F   UNL     1      -0.155  -3.177  17.700  1.00  0.00    -0.203 F 
ATOM     72  C   UNL     1       0.535  -5.352  17.206  1.00  0.00     0.198 A 
ATOM     73  C   UNL     1       0.352  -6.221  15.001  1.00  0.00     0.198 A 
ATOM     74  F   UNL     1      -0.362  -4.929  13.242  1.00  0.00    -0.203 F 
ATOM     75  F   UNL     1       0.945  -5.482  18.475  1.00  0.00    -0.200 F 
ATOM     76  C   UNL     1       0.736  -6.385  16.313  1.00  0.00     0.200 A 
ATOM     77  F   UNL     1       0.540  -7.210  14.116  1.00  0.00    -0.200 F 
ATOM     78  F   UNL     1       1.338  -7.516  16.701  1.00  0.00    -0.200 F 
ENDBRANCH  54  68
BRANCH  55  79
ATOM     79  C   UNL     1       6.223  -2.143  10.353  1.00  0.00     0.064 A 
ATOM     80  C   UNL     1       7.431  -2.573  10.926  1.00  0.00     0.173 A 
ATOM     81  C   UNL     1       5.894  -2.704   9.102  1.00  0.00     0.173 A 
ATOM     82  F   UNL     1       7.804  -2.117  12.131  1.00  0.00    -0.203 F 
ATOM     83  C   UNL     1       8.242  -3.530  10.305  1.00  0.00     0.198 A 
ATOM     84  C   UNL     1       6.706  -3.655   8.481  1.00  0.00     0.198 A 
ATOM     85  F   UNL     1       4.732  -2.413   8.500  1.00  0.00    -0.203 F 
ATOM     86  F   UNL     1       9.355  -3.961  10.915  1.00  0.00    -0.200 F 
ATOM     87  C   UNL     1       7.872  -4.080   9.089  1.00  0.00     0.200 A 
ATOM     88  F   UNL     1       6.319  -4.200   7.319  1.00  0.00    -0.200 F 
ATOM     89  F   UNL     1       8.613  -5.043   8.524  1.00  0.00    -0.200 F 
ENDBRANCH  55  79
BRANCH  67  90
ATOM     90  C   UNL     1       3.856   1.419  15.013  1.00  0.00     0.064 A 
ATOM     91  C   UNL     1       3.987   2.187  13.842  1.00  0.00     0.173 A 
ATOM     92  C   UNL     1       4.071   2.071  16.234  1.00  0.00     0.173 A 
ATOM     93  F   UNL     1       3.700   1.672  12.642  1.00  0.00    -0.203 F 
ATOM     94  C   UNL     1       4.357   3.531  13.895  1.00  0.00     0.198 A 
ATOM     95  C   UNL     1       4.403   3.421  16.286  1.00  0.00     0.198 A 
ATOM     96  F   UNL     1       3.906   1.404  17.388  1.00  0.00    -0.203 F 
ATOM     97  F   UNL     1       4.482   4.238  12.761  1.00  0.00    -0.200 F 
ATOM     98  C   UNL     1       4.556   4.148  15.117  1.00  0.00     0.200 A 
ATOM     99  F   UNL     1       4.545   4.025  17.474  1.00  0.00    -0.200 F 
ATOM    100  F   UNL     1       4.868   5.450  15.171  1.00  0.00    -0.200 F 
ENDBRANCH  67  90
ENDBRANCH  41  42
ENDBRANCH  33  36
ENDBRANCH  31  32
ENDBRANCH  30  31
ENDBRANCH   1  30
TORSDOF 15
