REMARK SMILES CC[N@H+]([C@@H]1CSCC(C)(C)C1)[C@@H]1COC[C@@H]1C(=O)NCCCCNC(=O)c1ccc(-c2c3nc(c(-c4c(F)c(F)c(F)c(F)c4F)c4ccc([nH]4)c(-c4c(F)c(F)c(F)c(F)c4F)c4nc(c(-c5c(F)c(F)c(F)c(F)c5F)c5ccc2[nH]5)C=C4)C=C3)cc1
REMARK SMILES IDX 21 1 20 2 19 3 17 4 18 5 16 7 12 8 13 9 14 10 15 11 3 12
REMARK SMILES IDX 2 14 1 15 4 16 5 17 11 18 6 19 8 20 7 21 9 22 10 23 22 24
REMARK SMILES IDX 23 25 24 26 25 27 26 29 27 30 28 31 89 32 29 33 88 34 30 35
REMARK SMILES IDX 31 36 32 37 82 38 33 39 87 40 81 41 83 42 34 43 86 44 80 45
REMARK SMILES IDX 79 46 35 48 67 49 47 50 66 51 48 52 51 53 65 54 84 55 49 56
REMARK SMILES IDX 50 57 64 59 85 60 52 61 36 62 37 63 45 64 38 65 39 66 43 67
REMARK SMILES IDX 46 68 40 69 41 70 44 71 42 72 68 73 69 74 77 75 70 76 71 77
REMARK SMILES IDX 75 78 78 79 72 80 73 81 76 82 74 83 53 84 54 85 62 86 55 87
REMARK SMILES IDX 56 88 60 89 63 90 57 91 58 92 61 93 59 94
REMARK H PARENT 19 6 3 13 24 28 83 47 51 58
REMARK Flexibility Score: inf
ROOT
ATOM      1  C   UNL     1      -0.873   4.445   3.439  1.00  0.00     0.023 C 
ENDROOT
BRANCH   1   2
ATOM      2  C   UNL     1       0.446   4.921   4.062  1.00  0.00     0.116 C 
BRANCH   2   3
ATOM      3  N   UNL     1       1.069   3.859   4.843  1.00  0.00    -0.356 N 
ATOM      4  C   UNL     1       2.048   2.944   4.577  1.00  0.00     0.231 C 
ATOM      5  O   UNL     1       2.265   2.120   5.470  1.00  0.00    -0.274 OA
ATOM      6  H   UNL     1       0.707   3.786   5.756  1.00  0.00     0.163 HD
BRANCH   4   7
ATOM      7  C   UNL     1       2.878   2.984   3.293  1.00  0.00     0.164 C 
ATOM      8  C   UNL     1       2.667   1.820   2.300  1.00  0.00     0.225 C 
ATOM      9  C   UNL     1       3.453   0.707   3.016  1.00  0.00     0.226 C 
ATOM     10  O   UNL     1       4.621   1.342   3.560  1.00  0.00    -0.374 OA
ATOM     11  C   UNL     1       4.351   2.751   3.653  1.00  0.00     0.180 C 
BRANCH   8  12
ATOM     12  N   UNL     1       1.308   1.518   1.800  1.00  0.00    -0.327 N 
ATOM     13  H   UNL     1       0.756   1.497   2.657  1.00  0.00     0.348 HD
BRANCH  12  14
ATOM     14  C   UNL     1       1.155   0.167   1.240  1.00  0.00     0.259 C 
ATOM     15  C   UNL     1       1.671  -0.018  -0.183  1.00  0.00     0.071 C 
ENDBRANCH  12  14
BRANCH  12  16
ATOM     16  C   UNL     1       0.621   2.610   1.034  1.00  0.00     0.194 C 
ATOM     17  C   UNL     1      -0.747   2.260   0.376  1.00  0.00     0.134 C 
ATOM     18  C   UNL     1       1.530   3.680   0.366  1.00  0.00     0.073 C 
ATOM     19  S   UNL     1      -1.275   3.156  -1.105  1.00  0.00    -0.155 SA
ATOM     20  C   UNL     1       0.996   4.687  -0.682  1.00  0.00    -0.021 C 
ATOM     21  C   UNL     1      -0.527   4.755  -0.768  1.00  0.00     0.076 C 
ATOM     22  C   UNL     1       1.622   4.323  -2.043  1.00  0.00     0.012 C 
ATOM     23  C   UNL     1       1.492   6.111  -0.315  1.00  0.00     0.012 C 
ENDBRANCH  12  16
ENDBRANCH   8  12
ENDBRANCH   4   7
ENDBRANCH   2   3
ENDBRANCH   1   2
BRANCH   1  24
ATOM     24  C   UNL     1      -2.161   5.064   3.957  1.00  0.00     0.023 C 
BRANCH  24  25
ATOM     25  C   UNL     1      -2.491   6.409   3.321  1.00  0.00     0.116 C 
BRANCH  25  26
ATOM     26  N   UNL     1      -2.845   6.349   1.905  1.00  0.00    -0.352 N 
ATOM     27  C   UNL     1      -3.690   7.167   1.171  1.00  0.00     0.251 C 
ATOM     28  H   UNL     1      -2.421   5.621   1.396  1.00  0.00     0.163 HD
ATOM     29  O   UNL     1      -3.811   7.026  -0.037  1.00  0.00    -0.269 OA
BRANCH  27  30
ATOM     30  C   UNL     1      -4.548   8.116   1.907  1.00  0.00     0.039 A 
ATOM     31  C   UNL     1      -5.931   7.986   1.764  1.00  0.00     0.014 A 
ATOM     32  C   UNL     1      -4.005   8.914   2.908  1.00  0.00     0.014 A 
ATOM     33  C   UNL     1      -6.768   8.500   2.754  1.00  0.00     0.010 A 
ATOM     34  C   UNL     1      -4.825   9.307   3.955  1.00  0.00     0.010 A 
ATOM     35  C   UNL     1      -6.208   9.062   3.911  1.00  0.00    -0.014 A 
BRANCH  35  36
ATOM     36  C   UNL     1      -7.026   9.338   5.121  1.00  0.00     0.031 A 
ATOM     37  C   UNL     1      -7.023  10.713   5.722  1.00  0.00     0.074 A 
ATOM     38  C   UNL     1      -7.654   8.324   5.754  1.00  0.00     0.049 A 
ATOM     39  N   UNL     1      -7.504  11.119   6.868  1.00  0.00    -0.248 NA
ATOM     40  C   UNL     1      -6.329  11.761   4.957  1.00  0.00     0.031 C 
ATOM     41  C   UNL     1      -7.663   6.922   5.326  1.00  0.00     0.029 A 
ATOM     42  N   UNL     1      -8.399   8.315   6.909  1.00  0.00    -0.354 N 
ATOM     43  C   UNL     1      -7.124  12.448   6.982  1.00  0.00     0.074 A 
ATOM     44  C   UNL     1      -6.327  12.765   5.818  1.00  0.00     0.031 C 
ATOM     45  C   UNL     1      -8.409   6.201   6.179  1.00  0.00     0.029 A 
ATOM     46  C   UNL     1      -8.896   7.076   7.239  1.00  0.00     0.049 A 
ATOM     47  H   UNL     1      -8.561   9.121   7.450  1.00  0.00     0.167 HD
ATOM     48  C   UNL     1      -7.436  13.334   7.957  1.00  0.00     0.037 A 
ATOM     49  C   UNL     1      -9.659   6.692   8.280  1.00  0.00     0.037 A 
ATOM     50  C   UNL     1      -8.293  13.036   9.071  1.00  0.00     0.049 A 
ATOM     51  C   UNL     1     -10.071   7.718   9.300  1.00  0.00     0.074 A 
ATOM     52  C   UNL     1      -8.739  13.882  10.069  1.00  0.00     0.029 A 
ATOM     53  N   UNL     1      -8.854  11.791   9.318  1.00  0.00    -0.354 N 
ATOM     54  N   UNL     1      -9.753   8.987   9.367  1.00  0.00    -0.248 NA
ATOM     55  C   UNL     1     -10.952   7.261  10.384  1.00  0.00     0.031 C 
ATOM     56  C   UNL     1      -9.560  13.145  10.930  1.00  0.00     0.029 A 
ATOM     57  C   UNL     1      -9.647  11.848  10.450  1.00  0.00     0.049 A 
ATOM     58  H   UNL     1      -8.709  10.986   8.769  1.00  0.00     0.167 HD
ATOM     59  C   UNL     1     -10.414   9.487  10.480  1.00  0.00     0.074 A 
ATOM     60  C   UNL     1     -11.161   8.386  11.053  1.00  0.00     0.031 C 
ATOM     61  C   UNL     1     -10.402  10.744  10.984  1.00  0.00     0.037 A 
BRANCH  48  62
ATOM     62  C   UNL     1      -6.859  14.713   7.839  1.00  0.00     0.064 A 
ATOM     63  C   UNL     1      -7.284  15.604   6.842  1.00  0.00     0.173 A 
ATOM     64  C   UNL     1      -5.864  15.147   8.727  1.00  0.00     0.173 A 
ATOM     65  F   UNL     1      -8.219  15.228   5.956  1.00  0.00    -0.203 F 
ATOM     66  C   UNL     1      -6.705  16.863   6.712  1.00  0.00     0.198 A 
ATOM     67  C   UNL     1      -5.310  16.419   8.615  1.00  0.00     0.198 A 
ATOM     68  F   UNL     1      -5.423  14.335   9.700  1.00  0.00    -0.203 F 
ATOM     69  F   UNL     1      -7.080  17.670   5.710  1.00  0.00    -0.200 F 
ATOM     70  C   UNL     1      -5.723  17.271   7.601  1.00  0.00     0.200 A 
ATOM     71  F   UNL     1      -4.366  16.817   9.479  1.00  0.00    -0.200 F 
ATOM     72  F   UNL     1      -5.163  18.482   7.472  1.00  0.00    -0.200 F 
ENDBRANCH  48  62
BRANCH  49  73
ATOM     73  C   UNL     1     -10.127   5.285   8.386  1.00  0.00     0.064 A 
ATOM     74  C   UNL     1     -11.471   4.962   8.146  1.00  0.00     0.173 A 
ATOM     75  C   UNL     1      -9.257   4.242   8.731  1.00  0.00     0.173 A 
ATOM     76  F   UNL     1     -12.345   5.930   7.832  1.00  0.00    -0.203 F 
ATOM     77  C   UNL     1     -11.931   3.653   8.268  1.00  0.00     0.198 A 
ATOM     78  C   UNL     1      -9.714   2.928   8.830  1.00  0.00     0.198 A 
ATOM     79  F   UNL     1      -7.962   4.497   8.964  1.00  0.00    -0.203 F 
ATOM     80  F   UNL     1     -13.229   3.380   8.074  1.00  0.00    -0.200 F 
ATOM     81  C   UNL     1     -11.051   2.636   8.606  1.00  0.00     0.200 A 
ATOM     82  F   UNL     1      -8.859   1.946   9.146  1.00  0.00    -0.200 F 
ATOM     83  F   UNL     1     -11.494   1.376   8.724  1.00  0.00    -0.200 F 
ENDBRANCH  49  73
BRANCH  61  84
ATOM     84  C   UNL     1     -11.255  11.010  12.187  1.00  0.00     0.064 A 
ATOM     85  C   UNL     1     -10.875  10.577  13.464  1.00  0.00     0.173 A 
ATOM     86  C   UNL     1     -12.434  11.758  12.063  1.00  0.00     0.173 A 
ATOM     87  F   UNL     1      -9.762   9.846  13.626  1.00  0.00    -0.203 F 
ATOM     88  C   UNL     1     -11.656  10.873  14.578  1.00  0.00     0.198 A 
ATOM     89  C   UNL     1     -13.201  12.072  13.181  1.00  0.00     0.198 A 
ATOM     90  F   UNL     1     -12.834  12.197  10.860  1.00  0.00    -0.203 F 
ATOM     91  F   UNL     1     -11.293  10.425  15.787  1.00  0.00    -0.200 F 
ATOM     92  C   UNL     1     -12.813  11.627  14.437  1.00  0.00     0.200 A 
ATOM     93  F   UNL     1     -14.312  12.807  13.046  1.00  0.00    -0.200 F 
ATOM     94  F   UNL     1     -13.557  11.920  15.511  1.00  0.00    -0.200 F 
ENDBRANCH  61  84
ENDBRANCH  35  36
ENDBRANCH  27  30
ENDBRANCH  25  26
ENDBRANCH  24  25
ENDBRANCH   1  24
TORSDOF 14
