REMARK SMILES O=C(NCCCCNC(=O)[C@H]1[NH2+]CC[C@H]1c1cccc(Oc2ccccc2)c1)c1ccc(-c2c3nc(c(-c4c(F)c(F)c(F)c(F)c4F)c4ccc([nH]4)c(-c4c(F)c(F)c(F)c(F)c4F)c4nc(c(-c5c(F)c(F)c(F)c(F)c5F)c5ccc2[nH]5)C=C4)C=C3)cc1
REMARK SMILES IDX 6 1 5 2 4 3 3 4 1 5 2 6 29 8 30 9 91 10 31 11 90 12 32 13
REMARK SMILES IDX 33 14 34 15 84 16 35 17 89 18 83 19 85 20 36 21 88 22 82 23
REMARK SMILES IDX 81 24 37 26 69 27 49 28 68 29 50 30 53 31 67 32 86 33 51 34
REMARK SMILES IDX 52 35 66 37 87 38 54 39 38 40 39 41 47 42 40 43 41 44 45 45
REMARK SMILES IDX 48 46 42 47 43 48 46 49 44 50 70 51 71 52 79 53 72 54 73 55
REMARK SMILES IDX 77 56 80 57 74 58 75 59 78 60 76 61 55 62 56 63 64 64 57 65
REMARK SMILES IDX 58 66 62 67 65 68 59 69 60 70 63 71 61 72 7 73 8 74 9 75
REMARK SMILES IDX 10 77 11 78 12 79 15 80 13 81 14 84 16 85 17 86 28 87 18 88
REMARK SMILES IDX 20 89 19 90 21 91 22 92 23 93 27 94 24 95 26 96 25 97
REMARK H PARENT 3 7 85 25 53 36 8 76 12 82 12 83
REMARK Flexibility Score: inf
ROOT
ATOM      1  C   UNL     1       6.887  -3.121  -0.508  1.00  0.00     0.023 C 
ENDROOT
BRANCH   1   2
ATOM      2  C   UNL     1       5.485  -3.311   0.124  1.00  0.00     0.023 C 
BRANCH   2   3
ATOM      3  C   UNL     1       4.879  -2.129   0.936  1.00  0.00     0.116 C 
BRANCH   3   4
ATOM      4  N   UNL     1       3.490  -1.857   0.548  1.00  0.00    -0.352 N 
ATOM      5  O   UNL     1       1.454  -0.876   0.472  1.00  0.00    -0.269 OA
ATOM      6  C   UNL     1       2.627  -0.804   0.789  1.00  0.00     0.251 C 
ATOM      7  H   UNL     1       3.090  -2.573   0.003  1.00  0.00     0.163 HD
BRANCH   6   8
ATOM      8  C   UNL     1       3.107   0.390   1.509  1.00  0.00     0.039 A 
ATOM      9  C   UNL     1       4.153   1.152   1.007  1.00  0.00     0.014 A 
ATOM     10  C   UNL     1       2.515   0.732   2.725  1.00  0.00     0.014 A 
ATOM     11  C   UNL     1       4.798   2.065   1.825  1.00  0.00     0.010 A 
ATOM     12  C   UNL     1       3.109   1.712   3.522  1.00  0.00     0.010 A 
ATOM     13  C   UNL     1       4.321   2.296   3.119  1.00  0.00    -0.014 A 
BRANCH  13  14
ATOM     14  C   UNL     1       5.195   2.996   4.089  1.00  0.00     0.031 A 
ATOM     15  C   UNL     1       5.769   2.217   5.245  1.00  0.00     0.074 A 
ATOM     16  C   UNL     1       5.554   4.274   3.879  1.00  0.00     0.049 A 
ATOM     17  N   UNL     1       6.544   2.623   6.219  1.00  0.00    -0.248 NA
ATOM     18  C   UNL     1       5.419   0.788   5.324  1.00  0.00     0.031 C 
ATOM     19  C   UNL     1       5.102   5.104   2.762  1.00  0.00     0.029 A 
ATOM     20  N   UNL     1       6.402   5.088   4.582  1.00  0.00    -0.354 N 
ATOM     21  C   UNL     1       6.726   1.520   7.045  1.00  0.00     0.074 A 
ATOM     22  C   UNL     1       5.973   0.429   6.472  1.00  0.00     0.031 C 
ATOM     23  C   UNL     1       5.706   6.300   2.834  1.00  0.00     0.029 A 
ATOM     24  C   UNL     1       6.539   6.338   4.032  1.00  0.00     0.049 A 
ATOM     25  H   UNL     1       6.868   4.805   5.401  1.00  0.00     0.167 HD
ATOM     26  C   UNL     1       7.462   1.428   8.177  1.00  0.00     0.037 A 
ATOM     27  C   UNL     1       7.245   7.400   4.462  1.00  0.00     0.037 A 
ATOM     28  C   UNL     1       8.252   2.506   8.708  1.00  0.00     0.049 A 
ATOM     29  C   UNL     1       8.048   7.273   5.726  1.00  0.00     0.074 A 
ATOM     30  C   UNL     1       9.060   2.515   9.830  1.00  0.00     0.029 A 
ATOM     31  N   UNL     1       8.340   3.769   8.139  1.00  0.00    -0.354 N 
ATOM     32  N   UNL     1       8.201   6.231   6.508  1.00  0.00    -0.248 NA
ATOM     33  C   UNL     1       8.773   8.470   6.168  1.00  0.00     0.031 C 
ATOM     34  C   UNL     1       9.605   3.797   9.964  1.00  0.00     0.029 A 
ATOM     35  C   UNL     1       9.177   4.571   8.897  1.00  0.00     0.049 A 
ATOM     36  H   UNL     1       7.876   4.053   7.319  1.00  0.00     0.167 HD
ATOM     37  C   UNL     1       9.054   6.639   7.524  1.00  0.00     0.074 A 
ATOM     38  C   UNL     1       9.400   8.019   7.246  1.00  0.00     0.031 C 
ATOM     39  C   UNL     1       9.508   5.939   8.592  1.00  0.00     0.037 A 
BRANCH  26  40
ATOM     40  C   UNL     1       7.420   0.132   8.936  1.00  0.00     0.064 A 
ATOM     41  C   UNL     1       8.041  -1.032   8.461  1.00  0.00     0.173 A 
ATOM     42  C   UNL     1       6.768   0.067  10.177  1.00  0.00     0.173 A 
ATOM     43  F   UNL     1       8.659  -1.031   7.270  1.00  0.00    -0.203 F 
ATOM     44  C   UNL     1       7.992  -2.219   9.190  1.00  0.00     0.198 A 
ATOM     45  C   UNL     1       6.746  -1.113  10.917  1.00  0.00     0.198 A 
ATOM     46  F   UNL     1       6.156   1.151  10.678  1.00  0.00    -0.203 F 
ATOM     47  F   UNL     1       8.553  -3.331   8.695  1.00  0.00    -0.200 F 
ATOM     48  C   UNL     1       7.353  -2.256  10.420  1.00  0.00     0.200 A 
ATOM     49  F   UNL     1       6.135  -1.144  12.110  1.00  0.00    -0.200 F 
ATOM     50  F   UNL     1       7.314  -3.397  11.123  1.00  0.00    -0.200 F 
ENDBRANCH  26  40
BRANCH  27  51
ATOM     51  C   UNL     1       7.218   8.666   3.686  1.00  0.00     0.064 A 
ATOM     52  C   UNL     1       8.354   9.119   3.003  1.00  0.00     0.173 A 
ATOM     53  C   UNL     1       6.049   9.436   3.593  1.00  0.00     0.173 A 
ATOM     54  F   UNL     1       9.500   8.427   3.078  1.00  0.00    -0.203 F 
ATOM     55  C   UNL     1       8.325  10.300   2.264  1.00  0.00     0.198 A 
ATOM     56  C   UNL     1       6.012  10.600   2.830  1.00  0.00     0.198 A 
ATOM     57  F   UNL     1       4.933   9.043   4.226  1.00  0.00    -0.203 F 
ATOM     58  F   UNL     1       9.435  10.730   1.648  1.00  0.00    -0.200 F 
ATOM     59  C   UNL     1       7.152  11.035   2.171  1.00  0.00     0.200 A 
ATOM     60  F   UNL     1       4.872  11.297   2.729  1.00  0.00    -0.200 F 
ATOM     61  F   UNL     1       7.121  12.163   1.449  1.00  0.00    -0.200 F 
ENDBRANCH  27  51
BRANCH  39  62
ATOM     62  C   UNL     1      10.459   6.646   9.511  1.00  0.00     0.064 A 
ATOM     63  C   UNL     1      10.025   7.659  10.379  1.00  0.00     0.173 A 
ATOM     64  C   UNL     1      11.815   6.291   9.536  1.00  0.00     0.173 A 
ATOM     65  F   UNL     1       8.740   8.043  10.381  1.00  0.00    -0.203 F 
ATOM     66  C   UNL     1      10.925   8.315  11.214  1.00  0.00     0.198 A 
ATOM     67  C   UNL     1      12.706   6.929  10.393  1.00  0.00     0.198 A 
ATOM     68  F   UNL     1      12.275   5.322   8.730  1.00  0.00    -0.203 F 
ATOM     69  F   UNL     1      10.501   9.318  11.995  1.00  0.00    -0.200 F 
ATOM     70  C   UNL     1      12.262   7.946  11.224  1.00  0.00     0.200 A 
ATOM     71  F   UNL     1      13.995   6.563  10.411  1.00  0.00    -0.200 F 
ATOM     72  F   UNL     1      13.127   8.580  12.028  1.00  0.00    -0.200 F 
ENDBRANCH  39  62
ENDBRANCH  13  14
ENDBRANCH   6   8
ENDBRANCH   3   4
ENDBRANCH   2   3
ENDBRANCH   1   2
BRANCH   1  73
ATOM     73  C   UNL     1       6.923  -2.881  -2.034  1.00  0.00     0.116 C 
BRANCH  73  74
ATOM     74  N   UNL     1       7.677  -3.876  -2.786  1.00  0.00    -0.351 N 
ATOM     75  C   UNL     1       7.584  -4.554  -3.947  1.00  0.00     0.278 C 
ATOM     76  H   UNL     1       8.497  -4.128  -2.302  1.00  0.00     0.163 HD
ATOM     77  O   UNL     1       8.727  -4.782  -4.403  1.00  0.00    -0.268 OA
BRANCH  75  78
ATOM     78  C   UNL     1       6.394  -5.236  -4.707  1.00  0.00     0.280 C 
ATOM     79  N   UNL     1       6.522  -6.717  -4.542  1.00  0.00    -0.335 N 
ATOM     80  C   UNL     1       4.898  -4.970  -4.947  1.00  0.00     0.093 C 
ATOM     81  C   UNL     1       5.331  -7.356  -5.089  1.00  0.00     0.262 C 
ATOM     82  H   UNL     1       6.609  -6.945  -3.552  1.00  0.00     0.346 HD
ATOM     83  H   UNL     1       7.351  -7.050  -5.034  1.00  0.00     0.346 HD
ATOM     84  C   UNL     1       4.472  -6.256  -5.683  1.00  0.00     0.076 C 
BRANCH  80  85
ATOM     85  C   UNL     1       3.946  -4.535  -3.860  1.00  0.00    -0.034 A 
ATOM     86  C   UNL     1       2.937  -5.319  -3.281  1.00  0.00     0.004 A 
ATOM     87  C   UNL     1       3.950  -3.163  -3.578  1.00  0.00     0.051 A 
ATOM     88  C   UNL     1       1.967  -4.734  -2.457  1.00  0.00     0.004 A 
ATOM     89  C   UNL     1       3.033  -2.578  -2.712  1.00  0.00     0.127 A 
ATOM     90  C   UNL     1       2.019  -3.368  -2.170  1.00  0.00     0.047 A 
BRANCH  89  91
ATOM     91  O   UNL     1       3.058  -1.253  -2.338  1.00  0.00    -0.457 OA
BRANCH  91  92
ATOM     92  C   UNL     1       4.054  -0.438  -2.821  1.00  0.00     0.127 A 
ATOM     93  C   UNL     1       5.170  -0.150  -2.039  1.00  0.00     0.047 A 
ATOM     94  C   UNL     1       3.894   0.205  -4.038  1.00  0.00     0.047 A 
ATOM     95  C   UNL     1       6.112   0.799  -2.432  1.00  0.00     0.004 A 
ATOM     96  C   UNL     1       4.846   1.140  -4.453  1.00  0.00     0.004 A 
ATOM     97  C   UNL     1       5.944   1.450  -3.645  1.00  0.00     0.000 A 
ENDBRANCH  91  92
ENDBRANCH  89  91
ENDBRANCH  80  85
ENDBRANCH  75  78
ENDBRANCH  73  74
ENDBRANCH   1  73
TORSDOF 14
