REMARK SMILES Cc1ccccc1OCC(=O)c1nc(C)c(C(=O)NCCCCNC(=O)c2ccc(-c3c4nc(c(-c5c(F)c(F)c(F)c(F)c5F)c5ccc([nH]5)c(-c5c(F)c(F)c(F)c(F)c5F)c5nc(c(-c6c(F)c(F)c(F)c(F)c6F)c6ccc3[nH]6)C=C5)C=C4)cc2)s1
REMARK SMILES IDX 20 1 19 2 17 3 18 4 16 6 12 7 13 8 90 9 14 10 15 11 10 12
REMARK SMILES IDX 11 13 9 14 8 15 7 16 1 17 2 18 3 19 4 20 6 21 5 22 21 23
REMARK SMILES IDX 22 24 23 25 24 26 25 27 26 29 27 30 28 31 89 32 29 33 88 34
REMARK SMILES IDX 30 35 31 36 32 37 82 38 33 39 87 40 81 41 83 42 34 43 86 44
REMARK SMILES IDX 80 45 79 46 35 48 67 49 47 50 66 51 48 52 51 53 65 54 84 55
REMARK SMILES IDX 49 56 50 57 64 59 85 60 52 61 36 62 37 63 45 64 38 65 39 66
REMARK SMILES IDX 43 67 46 68 40 69 41 70 44 71 42 72 68 73 69 74 77 75 70 76
REMARK SMILES IDX 71 77 75 78 78 79 72 80 73 81 76 82 74 83 53 84 54 85 62 86
REMARK SMILES IDX 55 87 56 88 60 89 63 90 57 91 58 92 61 93 59 94
REMARK H PARENT 19 5 24 28 83 47 51 58
REMARK Flexibility Score: inf
ROOT
ATOM      1  C   UNL     1       2.218   3.236   7.780  1.00  0.00     0.116 C 
ENDROOT
BRANCH   1   2
ATOM      2  N   UNL     1       1.142   3.527   6.865  1.00  0.00    -0.351 N 
ATOM      3  C   UNL     1       0.973   3.442   5.508  1.00  0.00     0.263 C 
ATOM      4  O   UNL     1      -0.167   3.794   5.172  1.00  0.00    -0.268 OA
ATOM      5  H   UNL     1       0.340   3.867   7.324  1.00  0.00     0.163 HD
BRANCH   3   6
ATOM      6  C   UNL     1       1.970   3.003   4.529  1.00  0.00     0.115 A 
ATOM      7  C   UNL     1       2.859   2.439   2.283  1.00  0.00     0.164 A 
ATOM      8  N   UNL     1       3.760   2.237   3.213  1.00  0.00    -0.237 NA
ATOM      9  S   UNL     1       1.380   3.017   2.870  1.00  0.00    -0.105 S 
ATOM     10  C   UNL     1       3.297   2.574   4.481  1.00  0.00     0.062 A 
ATOM     11  C   UNL     1       4.354   2.389   5.503  1.00  0.00     0.068 C 
BRANCH   7  12
ATOM     12  C   UNL     1       3.181   2.201   0.880  1.00  0.00     0.228 C 
ATOM     13  O   UNL     1       4.283   1.765   0.521  1.00  0.00    -0.288 OA
BRANCH  12  14
ATOM     14  C   UNL     1       2.186   2.593  -0.213  1.00  0.00     0.313 C 
BRANCH  14  15
ATOM     15  O   UNL     1       0.819   2.299  -0.114  1.00  0.00    -0.485 OA
BRANCH  15  16
ATOM     16  C   UNL     1       0.295   1.043  -0.138  1.00  0.00     0.122 A 
ATOM     17  C   UNL     1       2.362  -0.485  -0.501  1.00  0.00     0.048 C 
ATOM     18  C   UNL     1       0.901  -0.212  -0.288  1.00  0.00    -0.009 A 
ATOM     19  C   UNL     1       0.083  -1.363  -0.195  1.00  0.00     0.007 A 
ATOM     20  C   UNL     1      -1.297  -1.280  -0.009  1.00  0.00     0.001 A 
ATOM     21  C   UNL     1      -1.102   1.107   0.035  1.00  0.00     0.047 A 
ATOM     22  C   UNL     1      -1.895  -0.037   0.095  1.00  0.00     0.004 A 
ENDBRANCH  15  16
ENDBRANCH  14  15
ENDBRANCH  12  14
ENDBRANCH   7  12
ENDBRANCH   3   6
ENDBRANCH   1   2
BRANCH   1  23
ATOM     23  C   UNL     1       3.172   4.429   7.948  1.00  0.00     0.023 C 
BRANCH  23  24
ATOM     24  C   UNL     1       2.685   5.522   8.902  1.00  0.00     0.023 C 
BRANCH  24  25
ATOM     25  C   UNL     1       2.766   5.102  10.364  1.00  0.00     0.116 C 
BRANCH  25  26
ATOM     26  N   UNL     1       4.064   5.286  10.999  1.00  0.00    -0.352 N 
ATOM     27  C   UNL     1       4.553   4.781  12.197  1.00  0.00     0.251 C 
ATOM     28  H   UNL     1       4.693   5.858  10.502  1.00  0.00     0.163 HD
ATOM     29  O   UNL     1       5.635   5.159  12.616  1.00  0.00    -0.269 OA
BRANCH  27  30
ATOM     30  C   UNL     1       3.835   3.678  12.897  1.00  0.00     0.039 A 
ATOM     31  C   UNL     1       4.594   2.650  13.476  1.00  0.00     0.014 A 
ATOM     32  C   UNL     1       2.458   3.538  12.802  1.00  0.00     0.014 A 
ATOM     33  C   UNL     1       4.010   1.402  13.694  1.00  0.00     0.010 A 
ATOM     34  C   UNL     1       1.915   2.274  12.869  1.00  0.00     0.010 A 
ATOM     35  C   UNL     1       2.704   1.190  13.261  1.00  0.00    -0.014 A 
BRANCH  35  36
ATOM     36  C   UNL     1       2.110  -0.124  13.048  1.00  0.00     0.031 A 
ATOM     37  C   UNL     1       0.940  -0.565  13.841  1.00  0.00     0.074 A 
ATOM     38  C   UNL     1       2.508  -0.855  11.980  1.00  0.00     0.049 A 
ATOM     39  N   UNL     1       0.555  -1.794  13.925  1.00  0.00    -0.248 NA
ATOM     40  C   UNL     1       0.106   0.344  14.624  1.00  0.00     0.031 C 
ATOM     41  C   UNL     1       1.799  -1.973  11.362  1.00  0.00     0.029 A 
ATOM     42  N   UNL     1       3.750  -0.828  11.319  1.00  0.00    -0.354 N 
ATOM     43  C   UNL     1      -0.686  -1.808  14.513  1.00  0.00     0.074 A 
ATOM     44  C   UNL     1      -0.906  -0.458  14.973  1.00  0.00     0.031 C 
ATOM     45  C   UNL     1       2.671  -2.705  10.653  1.00  0.00     0.029 A 
ATOM     46  C   UNL     1       3.990  -2.164  10.913  1.00  0.00     0.049 A 
ATOM     47  H   UNL     1       4.330  -0.047  11.170  1.00  0.00     0.167 HD
ATOM     48  C   UNL     1      -1.448  -2.934  14.441  1.00  0.00     0.037 A 
ATOM     49  C   UNL     1       5.042  -2.884  11.399  1.00  0.00     0.037 A 
ATOM     50  C   UNL     1      -0.751  -4.010  13.750  1.00  0.00     0.049 A 
ATOM     51  C   UNL     1       4.644  -4.151  12.117  1.00  0.00     0.074 A 
ATOM     52  C   UNL     1      -0.785  -4.464  12.442  1.00  0.00     0.029 A 
ATOM     53  N   UNL     1       0.380  -4.569  14.333  1.00  0.00    -0.354 N 
ATOM     54  N   UNL     1       3.447  -4.370  12.587  1.00  0.00    -0.248 NA
ATOM     55  C   UNL     1       5.555  -5.261  12.378  1.00  0.00     0.031 C 
ATOM     56  C   UNL     1       0.350  -5.284  12.231  1.00  0.00     0.029 A 
ATOM     57  C   UNL     1       1.064  -5.339  13.414  1.00  0.00     0.049 A 
ATOM     58  H   UNL     1       0.654  -4.434  15.268  1.00  0.00     0.167 HD
ATOM     59  C   UNL     1       3.409  -5.597  13.200  1.00  0.00     0.074 A 
ATOM     60  C   UNL     1       4.751  -6.121  13.030  1.00  0.00     0.031 C 
ATOM     61  C   UNL     1       2.268  -6.060  13.794  1.00  0.00     0.037 A 
BRANCH  48  62
ATOM     62  C   UNL     1      -2.914  -2.962  14.778  1.00  0.00     0.064 A 
ATOM     63  C   UNL     1      -3.826  -3.720  14.014  1.00  0.00     0.173 A 
ATOM     64  C   UNL     1      -3.481  -2.231  15.837  1.00  0.00     0.173 A 
ATOM     65  F   UNL     1      -3.417  -4.508  13.012  1.00  0.00    -0.203 F 
ATOM     66  C   UNL     1      -5.204  -3.681  14.238  1.00  0.00     0.198 A 
ATOM     67  C   UNL     1      -4.864  -2.150  16.029  1.00  0.00     0.198 A 
ATOM     68  F   UNL     1      -2.706  -1.597  16.729  1.00  0.00    -0.203 F 
ATOM     69  F   UNL     1      -6.023  -4.421  13.477  1.00  0.00    -0.200 F 
ATOM     70  C   UNL     1      -5.726  -2.871  15.225  1.00  0.00     0.200 A 
ATOM     71  F   UNL     1      -5.357  -1.362  16.995  1.00  0.00    -0.200 F 
ATOM     72  F   UNL     1      -7.051  -2.796  15.410  1.00  0.00    -0.200 F 
ENDBRANCH  48  62
BRANCH  49  73
ATOM     73  C   UNL     1       6.224  -2.041  11.704  1.00  0.00     0.064 A 
ATOM     74  C   UNL     1       6.886  -1.428  10.622  1.00  0.00     0.173 A 
ATOM     75  C   UNL     1       6.422  -1.495  12.978  1.00  0.00     0.173 A 
ATOM     76  F   UNL     1       6.723  -1.912   9.380  1.00  0.00    -0.203 F 
ATOM     77  C   UNL     1       7.602  -0.245  10.787  1.00  0.00     0.198 A 
ATOM     78  C   UNL     1       7.152  -0.314  13.140  1.00  0.00     0.198 A 
ATOM     79  F   UNL     1       5.798  -2.019  14.043  1.00  0.00    -0.203 F 
ATOM     80  F   UNL     1       8.111   0.382   9.717  1.00  0.00    -0.200 F 
ATOM     81  C   UNL     1       7.706   0.329  12.042  1.00  0.00     0.200 A 
ATOM     82  F   UNL     1       7.229   0.260  14.350  1.00  0.00    -0.200 F 
ATOM     83  F   UNL     1       8.297   1.523  12.187  1.00  0.00    -0.200 F 
ENDBRANCH  49  73
BRANCH  61  84
ATOM     84  C   UNL     1       2.119  -7.263  14.703  1.00  0.00     0.064 A 
ATOM     85  C   UNL     1       3.165  -7.833  15.444  1.00  0.00     0.173 A 
ATOM     86  C   UNL     1       0.830  -7.797  14.975  1.00  0.00     0.173 A 
ATOM     87  F   UNL     1       4.413  -7.355  15.375  1.00  0.00    -0.203 F 
ATOM     88  C   UNL     1       2.951  -8.885  16.343  1.00  0.00     0.198 A 
ATOM     89  C   UNL     1       0.613  -8.801  15.917  1.00  0.00     0.198 A 
ATOM     90  F   UNL     1      -0.270  -7.341  14.358  1.00  0.00    -0.203 F 
ATOM     91  F   UNL     1       3.993  -9.418  16.996  1.00  0.00    -0.200 F 
ATOM     92  C   UNL     1       1.676  -9.357  16.591  1.00  0.00     0.200 A 
ATOM     93  F   UNL     1      -0.638  -9.206  16.182  1.00  0.00    -0.200 F 
ATOM     94  F   UNL     1       1.472 -10.327  17.492  1.00  0.00    -0.200 F 
ENDBRANCH  61  84
ENDBRANCH  35  36
ENDBRANCH  27  30
ENDBRANCH  25  26
ENDBRANCH  24  25
ENDBRANCH  23  24
ENDBRANCH   1  23
TORSDOF 15
