REMARK SMILES Cc1cscc1-c1nc(C)c(C(=O)NCCCCNC(=O)c2ccc(-c3c4nc(c(-c5c(F)c(F)c(F)c(F)c5F)c5ccc([nH]5)c(-c5c(F)c(F)c(F)c(F)c5F)c5nc(c(-c6c(F)c(F)c(F)c(F)c6F)c6ccc3[nH]6)C=C5)C=C4)cc2)c(C)n1
REMARK SMILES IDX 17 1 16 2 15 3 14 4 12 5 13 6 11 8 7 9 8 10 87 11 9 12 85 13
REMARK SMILES IDX 10 14 86 15 6 16 1 17 2 18 3 19 4 20 5 21 18 22 19 23 20 24
REMARK SMILES IDX 21 26 22 27 23 28 84 29 24 30 83 31 25 32 26 33 27 34 77 35
REMARK SMILES IDX 28 36 82 37 76 38 78 39 29 40 81 41 75 42 74 43 30 45 62 46
REMARK SMILES IDX 42 47 61 48 43 49 46 50 60 51 79 52 44 53 45 54 59 56 80 57
REMARK SMILES IDX 47 58 31 59 32 60 40 61 33 62 34 63 38 64 41 65 35 66 36 67
REMARK SMILES IDX 39 68 37 69 63 70 64 71 72 72 65 73 66 74 70 75 73 76 67 77
REMARK SMILES IDX 68 78 71 79 69 80 48 81 49 82 57 83 50 84 51 85 55 86 58 87
REMARK SMILES IDX 52 88 53 89 56 90 54 91
REMARK H PARENT 14 7 19 25 78 44 46 55
REMARK Flexibility Score: inf
ROOT
ATOM      1  C   UNL     1       5.189   7.437  -3.923  1.00  0.00     0.023 C 
ENDROOT
BRANCH   1   2
ATOM      2  C   UNL     1       4.576   6.198  -3.275  1.00  0.00     0.023 C 
BRANCH   2   3
ATOM      3  C   UNL     1       5.189   5.800  -1.928  1.00  0.00     0.116 C 
BRANCH   3   4
ATOM      4  N   UNL     1       4.367   6.266  -0.837  1.00  0.00    -0.352 N 
ATOM      5  C   UNL     1       3.312   5.844  -0.079  1.00  0.00     0.254 C 
ATOM      6  O   UNL     1       2.944   6.744   0.685  1.00  0.00    -0.269 OA
ATOM      7  H   UNL     1       4.654   7.164  -0.551  1.00  0.00     0.163 HD
BRANCH   5   8
ATOM      8  C   UNL     1       2.595   4.518  -0.040  1.00  0.00     0.082 A 
ATOM      9  C   UNL     1       1.097   2.214   0.268  1.00  0.00     0.160 A 
ATOM     10  N   UNL     1       1.898   2.321  -0.786  1.00  0.00    -0.232 NA
ATOM     11  N   UNL     1       0.960   3.149   1.198  1.00  0.00    -0.232 NA
ATOM     12  C   UNL     1       2.605   3.468  -0.961  1.00  0.00     0.054 A 
ATOM     13  C   UNL     1       1.719   4.275   1.053  1.00  0.00     0.054 A 
ATOM     14  C   UNL     1       3.308   3.382  -2.265  1.00  0.00     0.068 C 
ATOM     15  C   UNL     1       1.511   5.223   2.207  1.00  0.00     0.068 C 
BRANCH   9  16
ATOM     16  C   UNL     1       0.359   0.971   0.373  1.00  0.00     0.033 A 
ATOM     17  C   UNL     1       2.354  -0.672   0.094  1.00  0.00     0.046 C 
ATOM     18  C   UNL     1       0.899  -0.363   0.249  1.00  0.00    -0.029 A 
ATOM     19  C   UNL     1      -0.106  -1.310   0.291  1.00  0.00     0.069 A 
ATOM     20  S   UNL     1      -1.658  -0.622   0.491  1.00  0.00    -0.151 S 
ATOM     21  C   UNL     1      -1.014   0.962   0.520  1.00  0.00     0.077 A 
ENDBRANCH   9  16
ENDBRANCH   5   8
ENDBRANCH   3   4
ENDBRANCH   2   3
ENDBRANCH   1   2
BRANCH   1  22
ATOM     22  C   UNL     1       6.660   7.294  -4.285  1.00  0.00     0.116 C 
BRANCH  22  23
ATOM     23  N   UNL     1       6.954   6.154  -5.143  1.00  0.00    -0.352 N 
ATOM     24  C   UNL     1       8.022   6.004  -5.995  1.00  0.00     0.251 C 
ATOM     25  H   UNL     1       6.315   5.405  -5.108  1.00  0.00     0.163 HD
ATOM     26  O   UNL     1       8.128   5.019  -6.716  1.00  0.00    -0.269 OA
BRANCH  24  27
ATOM     27  C   UNL     1       9.010   7.095  -6.063  1.00  0.00     0.039 A 
ATOM     28  C   UNL     1       9.240   7.717  -7.291  1.00  0.00     0.014 A 
ATOM     29  C   UNL     1       9.607   7.571  -4.894  1.00  0.00     0.014 A 
ATOM     30  C   UNL     1      10.014   8.876  -7.333  1.00  0.00     0.010 A 
ATOM     31  C   UNL     1      10.310   8.767  -4.926  1.00  0.00     0.010 A 
ATOM     32  C   UNL     1      10.516   9.433  -6.145  1.00  0.00    -0.014 A 
BRANCH  32  33
ATOM     33  C   UNL     1      11.260  10.714  -6.152  1.00  0.00     0.031 A 
ATOM     34  C   UNL     1      12.702  10.741  -5.737  1.00  0.00     0.074 A 
ATOM     35  C   UNL     1      10.617  11.857  -6.459  1.00  0.00     0.049 A 
ATOM     36  N   UNL     1      13.506  11.764  -5.603  1.00  0.00    -0.248 NA
ATOM     37  C   UNL     1      13.313   9.447  -5.394  1.00  0.00     0.031 C 
ATOM     38  C   UNL     1       9.202  11.964  -6.821  1.00  0.00     0.029 A 
ATOM     39  N   UNL     1      11.070  13.152  -6.506  1.00  0.00    -0.354 N 
ATOM     40  C   UNL     1      14.707  11.240  -5.145  1.00  0.00     0.074 A 
ATOM     41  C   UNL     1      14.510   9.818  -4.968  1.00  0.00     0.031 C 
ATOM     42  C   UNL     1       8.910  13.249  -7.079  1.00  0.00     0.029 A 
ATOM     43  C   UNL     1      10.106  14.060  -6.870  1.00  0.00     0.049 A 
ATOM     44  H   UNL     1      11.998  13.405  -6.298  1.00  0.00     0.167 HD
ATOM     45  C   UNL     1      15.876  11.883  -4.920  1.00  0.00     0.037 A 
ATOM     46  C   UNL     1      10.183  15.395  -7.019  1.00  0.00     0.037 A 
ATOM     47  C   UNL     1      16.076  13.291  -5.131  1.00  0.00     0.049 A 
ATOM     48  C   UNL     1      11.499  16.084  -6.775  1.00  0.00     0.074 A 
ATOM     49  C   UNL     1      17.238  14.029  -4.996  1.00  0.00     0.029 A 
ATOM     50  N   UNL     1      15.083  14.176  -5.528  1.00  0.00    -0.354 N 
ATOM     51  N   UNL     1      12.647  15.569  -6.410  1.00  0.00    -0.248 NA
ATOM     52  C   UNL     1      11.529  17.540  -6.971  1.00  0.00     0.031 C 
ATOM     53  C   UNL     1      16.941  15.367  -5.277  1.00  0.00     0.029 A 
ATOM     54  C   UNL     1      15.604  15.456  -5.627  1.00  0.00     0.049 A 
ATOM     55  H   UNL     1      14.148  13.930  -5.712  1.00  0.00     0.167 HD
ATOM     56  C   UNL     1      13.542  16.629  -6.358  1.00  0.00     0.074 A 
ATOM     57  C   UNL     1      12.806  17.815  -6.743  1.00  0.00     0.031 C 
ATOM     58  C   UNL     1      14.855  16.621  -6.021  1.00  0.00     0.037 A 
BRANCH  45  59
ATOM     59  C   UNL     1      17.031  11.060  -4.430  1.00  0.00     0.064 A 
ATOM     60  C   UNL     1      17.672  10.128  -5.261  1.00  0.00     0.173 A 
ATOM     61  C   UNL     1      17.513  11.215  -3.123  1.00  0.00     0.173 A 
ATOM     62  F   UNL     1      17.238   9.932  -6.516  1.00  0.00    -0.203 F 
ATOM     63  C   UNL     1      18.732   9.359  -4.791  1.00  0.00     0.198 A 
ATOM     64  C   UNL     1      18.593  10.464  -2.665  1.00  0.00     0.198 A 
ATOM     65  F   UNL     1      16.937  12.093  -2.288  1.00  0.00    -0.203 F 
ATOM     66  F   UNL     1      19.292   8.436  -5.585  1.00  0.00    -0.200 F 
ATOM     67  C   UNL     1      19.195   9.531  -3.495  1.00  0.00     0.200 A 
ATOM     68  F   UNL     1      19.046  10.638  -1.415  1.00  0.00    -0.200 F 
ATOM     69  F   UNL     1      20.217   8.791  -3.044  1.00  0.00    -0.200 F 
ENDBRANCH  45  59
BRANCH  46  70
ATOM     70  C   UNL     1       8.991  16.165  -7.456  1.00  0.00     0.064 A 
ATOM     71  C   UNL     1       8.931  16.724  -8.740  1.00  0.00     0.173 A 
ATOM     72  C   UNL     1       7.892  16.360  -6.607  1.00  0.00     0.173 A 
ATOM     73  F   UNL     1       9.967  16.581  -9.580  1.00  0.00    -0.203 F 
ATOM     74  C   UNL     1       7.827  17.466  -9.152  1.00  0.00     0.198 A 
ATOM     75  C   UNL     1       6.777  17.081  -7.029  1.00  0.00     0.198 A 
ATOM     76  F   UNL     1       7.897  15.840  -5.371  1.00  0.00    -0.203 F 
ATOM     77  F   UNL     1       7.814  18.025 -10.370  1.00  0.00    -0.200 F 
ATOM     78  C   UNL     1       6.748  17.640  -8.298  1.00  0.00     0.200 A 
ATOM     79  F   UNL     1       5.731  17.236  -6.206  1.00  0.00    -0.200 F 
ATOM     80  F   UNL     1       5.684  18.351  -8.696  1.00  0.00    -0.200 F 
ENDBRANCH  46  70
BRANCH  58  81
ATOM     81  C   UNL     1      15.586  17.928  -6.085  1.00  0.00     0.064 A 
ATOM     82  C   UNL     1      15.382  18.931  -5.126  1.00  0.00     0.173 A 
ATOM     83  C   UNL     1      16.534  18.163  -7.093  1.00  0.00     0.173 A 
ATOM     84  F   UNL     1      14.475  18.759  -4.152  1.00  0.00    -0.203 F 
ATOM     85  C   UNL     1      16.086  20.130  -5.186  1.00  0.00     0.198 A 
ATOM     86  C   UNL     1      17.255  19.352  -7.134  1.00  0.00     0.198 A 
ATOM     87  F   UNL     1      16.768  17.232  -8.030  1.00  0.00    -0.203 F 
ATOM     88  F   UNL     1      15.845  21.091  -4.284  1.00  0.00    -0.200 F 
ATOM     89  C   UNL     1      17.026  20.337  -6.185  1.00  0.00     0.200 A 
ATOM     90  F   UNL     1      18.171  19.546  -8.093  1.00  0.00    -0.200 F 
ATOM     91  F   UNL     1      17.708  21.489  -6.237  1.00  0.00    -0.200 F 
ENDBRANCH  58  81
ENDBRANCH  32  33
ENDBRANCH  24  27
ENDBRANCH  22  23
ENDBRANCH   1  22
TORSDOF 12
