REMARK SMILES CC[C@H](C(=O)NCCCCNC(=O)c1ccc(-c2c3nc(c(-c4c(F)c(F)c(F)c(F)c4F)c4ccc([nH]4)c(-c4c(F)c(F)c(F)c(F)c4F)c4nc(c(-c5c(F)c(F)c(F)c(F)c5F)c5ccc2[nH]5)C=C4)C=C3)cc1)[N@@H+](C)[C@H]1CC[C@@H]([NH2+]C)CC1
REMARK SMILES IDX 8 1 7 2 6 3 4 4 5 5 3 7 2 8 1 9 77 10 78 11 79 13 86 14
REMARK SMILES IDX 80 15 85 16 81 17 82 18 83 19 84 20 9 23 10 24 11 25 12 26
REMARK SMILES IDX 13 28 14 29 15 30 76 31 16 32 75 33 17 34 18 35 19 36 69 37
REMARK SMILES IDX 20 38 74 39 68 40 70 41 21 42 73 43 67 44 66 45 22 47 54 48
REMARK SMILES IDX 34 49 53 50 35 51 38 52 52 53 71 54 36 55 37 56 51 58 72 59
REMARK SMILES IDX 39 60 23 61 24 62 32 63 25 64 26 65 30 66 33 67 27 68 28 69
REMARK SMILES IDX 31 70 29 71 55 72 56 73 64 74 57 75 58 76 62 77 65 78 59 79
REMARK SMILES IDX 60 80 63 81 61 82 40 83 41 84 49 85 42 86 43 87 47 88 50 89
REMARK SMILES IDX 44 90 45 91 48 92 46 93
REMARK H PARENT 6 6 77 12 83 21 83 22 11 27 70 46 38 57
REMARK Flexibility Score: inf
ROOT
ATOM      1  C   UNL     1       2.472   2.119   0.009  1.00  0.00     0.023 C 
ENDROOT
BRANCH   1   2
ATOM      2  C   UNL     1       1.659   1.085   0.777  1.00  0.00     0.116 C 
BRANCH   2   3
ATOM      3  N   UNL     1       0.968   0.120  -0.048  1.00  0.00    -0.351 N 
ATOM      4  C   UNL     1       0.433  -1.094   0.297  1.00  0.00     0.278 C 
ATOM      5  O   UNL     1      -0.259  -1.630  -0.574  1.00  0.00    -0.268 OA
ATOM      6  H   UNL     1       0.868   0.371  -0.995  1.00  0.00     0.163 HD
BRANCH   4   7
ATOM      7  C   UNL     1       0.796  -1.779   1.658  1.00  0.00     0.273 C 
BRANCH   7   8
ATOM      8  C   UNL     1       0.705  -0.962   2.979  1.00  0.00     0.072 C 
ATOM      9  C   UNL     1      -0.328   0.155   3.108  1.00  0.00     0.011 C 
ENDBRANCH   7   8
BRANCH   7  10
ATOM     10  N   UNL     1       0.261  -3.178   1.750  1.00  0.00    -0.325 N 
ATOM     11  C   UNL     1       1.010  -3.998   2.697  1.00  0.00     0.333 C 
ATOM     12  H   UNL     1       0.464  -3.536   0.816  1.00  0.00     0.348 HD
BRANCH  10  13
ATOM     13  C   UNL     1      -1.205  -3.426   1.663  1.00  0.00     0.184 C 
ATOM     14  C   UNL     1      -1.650  -4.801   2.241  1.00  0.00     0.071 C 
ATOM     15  C   UNL     1      -2.079  -2.279   2.199  1.00  0.00     0.071 C 
ATOM     16  C   UNL     1      -3.166  -4.997   2.305  1.00  0.00     0.071 C 
ATOM     17  C   UNL     1      -3.576  -2.569   2.279  1.00  0.00     0.071 C 
ATOM     18  C   UNL     1      -3.871  -3.857   3.051  1.00  0.00     0.182 C 
BRANCH  18  19
ATOM     19  N   UNL     1      -3.450  -3.676   4.450  1.00  0.00    -0.346 N 
ATOM     20  C   UNL     1      -3.795  -4.787   5.320  1.00  0.00     0.331 C 
ATOM     21  H   UNL     1      -3.897  -2.834   4.814  1.00  0.00     0.346 HD
ATOM     22  H   UNL     1      -2.432  -3.610   4.446  1.00  0.00     0.346 HD
ENDBRANCH  18  19
ENDBRANCH  10  13
ENDBRANCH   7  10
ENDBRANCH   4   7
ENDBRANCH   2   3
ENDBRANCH   1   2
BRANCH   1  23
ATOM     23  C   UNL     1       1.702   2.960  -1.008  1.00  0.00     0.023 C 
BRANCH  23  24
ATOM     24  C   UNL     1       0.378   3.558  -0.541  1.00  0.00     0.116 C 
BRANCH  24  25
ATOM     25  N   UNL     1       0.507   4.434   0.613  1.00  0.00    -0.352 N 
ATOM     26  C   UNL     1       0.208   5.768   0.765  1.00  0.00     0.251 C 
ATOM     27  H   UNL     1       0.869   4.000   1.419  1.00  0.00     0.163 HD
ATOM     28  O   UNL     1       0.500   6.336   1.812  1.00  0.00    -0.269 OA
BRANCH  26  29
ATOM     29  C   UNL     1      -0.423   6.537  -0.332  1.00  0.00     0.039 A 
ATOM     30  C   UNL     1       0.052   7.825  -0.599  1.00  0.00     0.014 A 
ATOM     31  C   UNL     1      -1.478   6.018  -1.085  1.00  0.00     0.014 A 
ATOM     32  C   UNL     1      -0.477   8.554  -1.667  1.00  0.00     0.010 A 
ATOM     33  C   UNL     1      -1.939   6.707  -2.207  1.00  0.00     0.010 A 
ATOM     34  C   UNL     1      -1.447   7.984  -2.510  1.00  0.00    -0.014 A 
BRANCH  34  35
ATOM     35  C   UNL     1      -1.934   8.720  -3.708  1.00  0.00     0.031 A 
ATOM     36  C   UNL     1      -3.378   9.125  -3.830  1.00  0.00     0.074 A 
ATOM     37  C   UNL     1      -1.074   8.998  -4.708  1.00  0.00     0.049 A 
ATOM     38  N   UNL     1      -3.970   9.800  -4.785  1.00  0.00    -0.248 NA
ATOM     39  C   UNL     1      -4.283   8.695  -2.753  1.00  0.00     0.031 C 
ATOM     40  C   UNL     1       0.334   8.597  -4.747  1.00  0.00     0.029 A 
ATOM     41  N   UNL     1      -1.254   9.687  -5.882  1.00  0.00    -0.354 N 
ATOM     42  C   UNL     1      -5.310   9.868  -4.426  1.00  0.00     0.074 A 
ATOM     43  C   UNL     1      -5.457   9.111  -3.202  1.00  0.00     0.031 C 
ATOM     44  C   UNL     1       0.899   9.084  -5.863  1.00  0.00     0.029 A 
ATOM     45  C   UNL     1      -0.110   9.804  -6.633  1.00  0.00     0.049 A 
ATOM     46  H   UNL     1      -2.121  10.062  -6.159  1.00  0.00     0.167 HD
ATOM     47  C   UNL     1      -6.321  10.528  -5.042  1.00  0.00     0.037 A 
ATOM     48  C   UNL     1       0.105  10.431  -7.805  1.00  0.00     0.037 A 
ATOM     49  C   UNL     1      -6.170  11.294  -6.252  1.00  0.00     0.049 A 
ATOM     50  C   UNL     1      -1.029  11.172  -8.460  1.00  0.00     0.074 A 
ATOM     51  C   UNL     1      -7.120  12.041  -6.927  1.00  0.00     0.029 A 
ATOM     52  N   UNL     1      -4.990  11.407  -6.973  1.00  0.00    -0.354 N 
ATOM     53  N   UNL     1      -2.272  11.303  -8.065  1.00  0.00    -0.248 NA
ATOM     54  C   UNL     1      -0.723  11.868  -9.717  1.00  0.00     0.031 C 
ATOM     55  C   UNL     1      -6.528  12.566  -8.081  1.00  0.00     0.029 A 
ATOM     56  C   UNL     1      -5.193  12.197  -8.095  1.00  0.00     0.049 A 
ATOM     57  H   UNL     1      -4.134  10.988  -6.725  1.00  0.00     0.167 HD
ATOM     58  C   UNL     1      -2.887  12.121  -9.003  1.00  0.00     0.074 A 
ATOM     59  C   UNL     1      -1.874  12.472  -9.976  1.00  0.00     0.031 C 
ATOM     60  C   UNL     1      -4.175  12.543  -9.054  1.00  0.00     0.037 A 
BRANCH  47  61
ATOM     61  C   UNL     1      -7.683  10.455  -4.411  1.00  0.00     0.064 A 
ATOM     62  C   UNL     1      -7.959  11.076  -3.182  1.00  0.00     0.173 A 
ATOM     63  C   UNL     1      -8.735   9.784  -5.054  1.00  0.00     0.173 A 
ATOM     64  F   UNL     1      -6.988  11.722  -2.519  1.00  0.00    -0.203 F 
ATOM     65  C   UNL     1      -9.225  11.001  -2.607  1.00  0.00     0.198 A 
ATOM     66  C   UNL     1     -10.008   9.740  -4.492  1.00  0.00     0.198 A 
ATOM     67  F   UNL     1      -8.530   9.178  -6.233  1.00  0.00    -0.203 F 
ATOM     68  F   UNL     1      -9.448  11.555  -1.407  1.00  0.00    -0.200 F 
ATOM     69  C   UNL     1     -10.250  10.339  -3.265  1.00  0.00     0.200 A 
ATOM     70  F   UNL     1     -11.002   9.113  -5.137  1.00  0.00    -0.200 F 
ATOM     71  F   UNL     1     -11.470  10.273  -2.714  1.00  0.00    -0.200 F 
ENDBRANCH  47  61
BRANCH  48  72
ATOM     72  C   UNL     1       1.464  10.430  -8.411  1.00  0.00     0.064 A 
ATOM     73  C   UNL     1       2.224  11.607  -8.479  1.00  0.00     0.173 A 
ATOM     74  C   UNL     1       2.027   9.260  -8.939  1.00  0.00     0.173 A 
ATOM     75  F   UNL     1       1.721  12.757  -8.004  1.00  0.00    -0.203 F 
ATOM     76  C   UNL     1       3.483  11.619  -9.075  1.00  0.00     0.198 A 
ATOM     77  C   UNL     1       3.300   9.266  -9.507  1.00  0.00     0.198 A 
ATOM     78  F   UNL     1       1.345   8.106  -8.893  1.00  0.00    -0.203 F 
ATOM     79  F   UNL     1       4.165  12.768  -9.172  1.00  0.00    -0.200 F 
ATOM     80  C   UNL     1       4.022  10.447  -9.583  1.00  0.00     0.200 A 
ATOM     81  F   UNL     1       3.824   8.129  -9.982  1.00  0.00    -0.200 F 
ATOM     82  F   UNL     1       5.235  10.458 -10.153  1.00  0.00    -0.200 F 
ENDBRANCH  48  72
BRANCH  60  83
ATOM     83  C   UNL     1      -4.547  13.471 -10.176  1.00  0.00     0.064 A 
ATOM     84  C   UNL     1      -4.600  13.038 -11.510  1.00  0.00     0.173 A 
ATOM     85  C   UNL     1      -4.864  14.812  -9.910  1.00  0.00     0.173 A 
ATOM     86  F   UNL     1      -4.294  11.769 -11.821  1.00  0.00    -0.203 F 
ATOM     87  C   UNL     1      -4.912  13.924 -12.538  1.00  0.00     0.198 A 
ATOM     88  C   UNL     1      -5.210  15.686 -10.937  1.00  0.00     0.198 A 
ATOM     89  F   UNL     1      -4.838  15.277  -8.651  1.00  0.00    -0.203 F 
ATOM     90  F   UNL     1      -4.889  13.504 -13.811  1.00  0.00    -0.200 F 
ATOM     91  C   UNL     1      -5.221  15.245 -12.251  1.00  0.00     0.200 A 
ATOM     92  F   UNL     1      -5.524  16.958 -10.655  1.00  0.00    -0.200 F 
ATOM     93  F   UNL     1      -5.519  16.096 -13.242  1.00  0.00    -0.200 F 
ENDBRANCH  60  83
ENDBRANCH  34  35
ENDBRANCH  26  29
ENDBRANCH  24  25
ENDBRANCH  23  24
ENDBRANCH   1  23
TORSDOF 15
