REMARK SMILES C[C@H](CC(=O)NCCCCNC(=O)c1ccc(-c2c3nc(c(-c4c(F)c(F)c(F)c(F)c4F)c4ccc([nH]4)c(-c4c(F)c(F)c(F)c(F)c4F)c4nc(c(-c5c(F)c(F)c(F)c(F)c5F)c5ccc2[nH]5)C=C4)C=C3)cc1)Sc1ccc(F)cc1
REMARK SMILES IDX 8 1 7 2 6 3 4 4 5 5 3 7 2 8 1 9 77 10 78 11 79 12 84 13
REMARK SMILES IDX 80 14 83 15 81 16 82 17 9 18 10 19 11 20 12 21 13 23 14 24
REMARK SMILES IDX 15 25 76 26 16 27 75 28 17 29 18 30 19 31 69 32 20 33 74 34
REMARK SMILES IDX 68 35 70 36 21 37 73 38 67 39 66 40 22 42 54 43 34 44 53 45
REMARK SMILES IDX 35 46 38 47 52 48 71 49 36 50 37 51 51 53 72 54 39 55 23 56
REMARK SMILES IDX 24 57 32 58 25 59 26 60 30 61 33 62 27 63 28 64 31 65 29 66
REMARK SMILES IDX 55 67 56 68 64 69 57 70 58 71 62 72 65 73 59 74 60 75 63 76
REMARK SMILES IDX 61 77 40 78 41 79 49 80 42 81 43 82 47 83 50 84 44 85 45 86
REMARK SMILES IDX 48 87 46 88
REMARK H PARENT 6 6 11 22 70 41 38 52
REMARK Flexibility Score: inf
ROOT
ATOM      1  C   UNL     1       0.141  -1.862   3.584  1.00  0.00     0.023 C 
ENDROOT
BRANCH   1   2
ATOM      2  C   UNL     1       0.807  -0.567   3.133  1.00  0.00     0.116 C 
BRANCH   2   3
ATOM      3  N   UNL     1       2.004  -0.795   2.356  1.00  0.00    -0.356 N 
ATOM      4  C   UNL     1       2.192  -0.673   1.012  1.00  0.00     0.221 C 
ATOM      5  O   UNL     1       3.317  -0.878   0.557  1.00  0.00    -0.275 OA
ATOM      6  H   UNL     1       2.795  -1.078   2.870  1.00  0.00     0.163 HD
BRANCH   4   7
ATOM      7  C   UNL     1       1.035  -0.301   0.105  1.00  0.00     0.114 C 
BRANCH   7   8
ATOM      8  C   UNL     1       0.241  -1.483  -0.471  1.00  0.00     0.058 C 
ATOM      9  C   UNL     1       0.680  -2.885  -0.047  1.00  0.00     0.020 C 
BRANCH   8  10
ATOM     10  S   UNL     1      -1.623  -1.328  -0.534  1.00  0.00    -0.122 SA
BRANCH  10  11
ATOM     11  C   UNL     1      -2.152  -0.643   1.023  1.00  0.00     0.008 A 
ATOM     12  C   UNL     1      -2.092   0.739   1.254  1.00  0.00     0.018 A 
ATOM     13  C   UNL     1      -2.765  -1.458   1.985  1.00  0.00     0.018 A 
ATOM     14  C   UNL     1      -2.514   1.280   2.473  1.00  0.00     0.040 A 
ATOM     15  C   UNL     1      -3.217  -0.913   3.195  1.00  0.00     0.040 A 
ATOM     16  C   UNL     1      -3.059   0.445   3.439  1.00  0.00     0.123 A 
ATOM     17  F   UNL     1      -3.418   0.954   4.625  1.00  0.00    -0.207 F 
ENDBRANCH  10  11
ENDBRANCH   8  10
ENDBRANCH   7   8
ENDBRANCH   4   7
ENDBRANCH   2   3
ENDBRANCH   1   2
BRANCH   1  18
ATOM     18  C   UNL     1       0.906  -2.639   4.641  1.00  0.00     0.023 C 
BRANCH  18  19
ATOM     19  C   UNL     1       1.074  -1.863   5.935  1.00  0.00     0.116 C 
BRANCH  19  20
ATOM     20  N   UNL     1      -0.192  -1.369   6.474  1.00  0.00    -0.352 N 
ATOM     21  C   UNL     1      -0.673  -1.441   7.755  1.00  0.00     0.251 C 
ATOM     22  H   UNL     1      -0.782  -0.923   5.824  1.00  0.00     0.163 HD
ATOM     23  O   UNL     1      -1.836  -1.143   8.004  1.00  0.00    -0.269 OA
BRANCH  21  24
ATOM     24  C   UNL     1       0.225  -1.904   8.826  1.00  0.00     0.039 A 
ATOM     25  C   UNL     1      -0.257  -2.801   9.778  1.00  0.00     0.014 A 
ATOM     26  C   UNL     1       1.557  -1.483   8.852  1.00  0.00     0.014 A 
ATOM     27  C   UNL     1       0.623  -3.325  10.722  1.00  0.00     0.010 A 
ATOM     28  C   UNL     1       2.454  -2.100   9.706  1.00  0.00     0.010 A 
ATOM     29  C   UNL     1       1.992  -3.008  10.666  1.00  0.00    -0.014 A 
BRANCH  29  30
ATOM     30  C   UNL     1       2.951  -3.601  11.625  1.00  0.00     0.031 A 
ATOM     31  C   UNL     1       3.726  -2.712  12.557  1.00  0.00     0.074 A 
ATOM     32  C   UNL     1       3.153  -4.932  11.615  1.00  0.00     0.049 A 
ATOM     33  N   UNL     1       4.606  -3.038  13.469  1.00  0.00    -0.248 NA
ATOM     34  C   UNL     1       3.516  -1.261  12.424  1.00  0.00     0.031 C 
ATOM     35  C   UNL     1       2.518  -5.879  10.696  1.00  0.00     0.029 A 
ATOM     36  N   UNL     1       3.945  -5.720  12.409  1.00  0.00    -0.354 N 
ATOM     37  C   UNL     1       5.056  -1.838  14.002  1.00  0.00     0.074 A 
ATOM     38  C   UNL     1       4.418  -0.775  13.261  1.00  0.00     0.031 C 
ATOM     39  C   UNL     1       2.905  -7.124  11.011  1.00  0.00     0.029 A 
ATOM     40  C   UNL     1       3.837  -7.061  12.131  1.00  0.00     0.049 A 
ATOM     41  H   UNL     1       4.534  -5.360  13.111  1.00  0.00     0.167 HD
ATOM     42  C   UNL     1       5.897  -1.641  15.044  1.00  0.00     0.037 A 
ATOM     43  C   UNL     1       4.418  -8.117  12.728  1.00  0.00     0.037 A 
ATOM     44  C   UNL     1       6.504  -2.708  15.793  1.00  0.00     0.049 A 
ATOM     45  C   UNL     1       5.323  -7.873  13.905  1.00  0.00     0.074 A 
ATOM     46  C   UNL     1       7.327  -2.629  16.901  1.00  0.00     0.029 A 
ATOM     47  N   UNL     1       6.350  -4.057  15.503  1.00  0.00    -0.354 N 
ATOM     48  N   UNL     1       5.677  -6.738  14.458  1.00  0.00    -0.248 NA
ATOM     49  C   UNL     1       5.895  -9.060  14.551  1.00  0.00     0.031 C 
ATOM     50  C   UNL     1       7.709  -3.928  17.254  1.00  0.00     0.029 A 
ATOM     51  C   UNL     1       7.075  -4.821  16.403  1.00  0.00     0.049 A 
ATOM     52  H   UNL     1       5.805  -4.418  14.767  1.00  0.00     0.167 HD
ATOM     53  C   UNL     1       6.486  -7.073  15.534  1.00  0.00     0.074 A 
ATOM     54  C   UNL     1       6.550  -8.521  15.568  1.00  0.00     0.031 C 
ATOM     55  C   UNL     1       7.121  -6.261  16.416  1.00  0.00     0.037 A 
BRANCH  42  56
ATOM     56  C   UNL     1       6.193  -0.221  15.436  1.00  0.00     0.064 A 
ATOM     57  C   UNL     1       5.206   0.614  15.986  1.00  0.00     0.173 A 
ATOM     58  C   UNL     1       7.480   0.311  15.273  1.00  0.00     0.173 A 
ATOM     59  F   UNL     1       3.952   0.163  16.147  1.00  0.00    -0.203 F 
ATOM     60  C   UNL     1       5.488   1.935  16.323  1.00  0.00     0.198 A 
ATOM     61  C   UNL     1       7.768   1.622  15.645  1.00  0.00     0.198 A 
ATOM     62  F   UNL     1       8.463  -0.441  14.754  1.00  0.00    -0.203 F 
ATOM     63  F   UNL     1       4.513   2.729  16.787  1.00  0.00    -0.200 F 
ATOM     64  C   UNL     1       6.770   2.436  16.160  1.00  0.00     0.200 A 
ATOM     65  F   UNL     1       9.011   2.101  15.498  1.00  0.00    -0.200 F 
ATOM     66  F   UNL     1       7.042   3.706  16.490  1.00  0.00    -0.200 F 
ENDBRANCH  42  56
BRANCH  43  67
ATOM     67  C   UNL     1       4.115  -9.495  12.262  1.00  0.00     0.064 A 
ATOM     68  C   UNL     1       3.372 -10.378  13.059  1.00  0.00     0.173 A 
ATOM     69  C   UNL     1       4.557  -9.960  11.015  1.00  0.00     0.173 A 
ATOM     70  F   UNL     1       2.938  -9.985  14.266  1.00  0.00    -0.203 F 
ATOM     71  C   UNL     1       3.107 -11.679  12.640  1.00  0.00     0.198 A 
ATOM     72  C   UNL     1       4.264 -11.252  10.583  1.00  0.00     0.198 A 
ATOM     73  F   UNL     1       5.261  -9.152  10.208  1.00  0.00    -0.203 F 
ATOM     74  F   UNL     1       2.438 -12.517  13.444  1.00  0.00    -0.200 F 
ATOM     75  C   UNL     1       3.549 -12.114  11.400  1.00  0.00     0.200 A 
ATOM     76  F   UNL     1       4.677 -11.662   9.376  1.00  0.00    -0.200 F 
ATOM     77  F   UNL     1       3.290 -13.364  10.995  1.00  0.00    -0.200 F 
ENDBRANCH  43  67
BRANCH  55  78
ATOM     78  C   UNL     1       7.903  -6.927  17.512  1.00  0.00     0.064 A 
ATOM     79  C   UNL     1       9.086  -7.633  17.251  1.00  0.00     0.173 A 
ATOM     80  C   UNL     1       7.463  -6.849  18.842  1.00  0.00     0.173 A 
ATOM     81  F   UNL     1       9.543  -7.747  15.994  1.00  0.00    -0.203 F 
ATOM     82  C   UNL     1       9.775  -8.276  18.276  1.00  0.00     0.198 A 
ATOM     83  C   UNL     1       8.175  -7.461  19.869  1.00  0.00     0.198 A 
ATOM     84  F   UNL     1       6.343  -6.176  19.147  1.00  0.00    -0.203 F 
ATOM     85  F   UNL     1      10.864  -9.004  17.993  1.00  0.00    -0.200 F 
ATOM     86  C   UNL     1       9.322  -8.185  19.583  1.00  0.00     0.200 A 
ATOM     87  F   UNL     1       7.745  -7.358  21.134  1.00  0.00    -0.200 F 
ATOM     88  F   UNL     1       9.986  -8.807  20.568  1.00  0.00    -0.200 F 
ENDBRANCH  55  78
ENDBRANCH  29  30
ENDBRANCH  21  24
ENDBRANCH  19  20
ENDBRANCH  18  19
ENDBRANCH   1  18
TORSDOF 14
