REMARK SMILES O=C1C[C@H](c2cn[nH]c2C(=O)NCCCCNC(=O)c2ccc(-c3c4nc(c(-c5c(F)c(F)c(F)c(F)c5F)c5ccc([nH]5)c(-c5c(F)c(F)c(F)c(F)c5F)c5nc(c(-c6c(F)c(F)c(F)c(F)c6F)c6ccc3[nH]6)C=C5)C=C4)cc2)c2c(-c3cccs3)n[nH]c2N1
REMARK SMILES IDX 14 1 13 2 12 3 10 4 11 5 9 7 5 8 6 9 7 10 8 11 4 13 1 14
REMARK SMILES IDX 2 15 3 16 93 17 92 18 83 20 91 21 84 22 90 23 85 25 86 26
REMARK SMILES IDX 89 27 87 28 88 29 15 30 16 31 17 32 18 33 19 35 20 36 21 37
REMARK SMILES IDX 82 38 22 39 81 40 23 41 24 42 25 43 75 44 26 45 80 46 74 47
REMARK SMILES IDX 76 48 27 49 79 50 73 51 72 52 28 54 60 55 40 56 59 57 41 58
REMARK SMILES IDX 44 59 58 60 77 61 42 62 43 63 57 65 78 66 45 67 29 68 30 69
REMARK SMILES IDX 38 70 31 71 32 72 36 73 39 74 33 75 34 76 37 77 35 78 61 79
REMARK SMILES IDX 62 80 70 81 63 82 64 83 68 84 71 85 65 86 66 87 69 88 67 89
REMARK SMILES IDX 46 90 47 91 55 92 48 93 49 94 53 95 56 96 50 97 51 98 54 99
REMARK SMILES IDX 52 100
REMARK H PARENT 12 6 8 12 93 19 91 24 17 34 76 53 44 64
REMARK Flexibility Score: inf
ROOT
ATOM      1  C   UNL     1       3.654  -2.257   1.044  1.00  0.00     0.023 C 
ENDROOT
BRANCH   1   2
ATOM      2  C   UNL     1       4.968  -1.151   0.581  1.00  0.00     0.116 C 
BRANCH   2   3
ATOM      3  N   UNL     1       5.539  -0.537  -1.418  1.00  0.00    -0.351 N 
ATOM      4  C   UNL     1       5.604   0.293  -2.568  1.00  0.00     0.269 C 
ATOM      5  O   UNL     1       6.254  -0.162  -3.514  1.00  0.00    -0.268 OA
ATOM      6  H   UNL     1       6.090  -1.302  -1.702  1.00  0.00     0.163 HD
BRANCH   4   7
ATOM      7  C   UNL     1       5.035   1.617  -2.647  1.00  0.00     0.126 A 
ATOM      8  C   UNL     1       4.370   2.398  -1.715  1.00  0.00     0.011 A 
ATOM      9  C   UNL     1       4.156   3.630  -2.361  1.00  0.00     0.140 A 
ATOM     10  N   UNL     1       4.614   3.631  -3.614  1.00  0.00    -0.183 NA
ATOM     11  N   UNL     1       5.142   2.402  -3.761  1.00  0.00    -0.273 N 
ATOM     12  H   UNL     1       5.568   2.096  -4.595  1.00  0.00     0.190 HD
BRANCH   8  13
ATOM     13  C   UNL     1       4.029   1.966  -0.334  1.00  0.00     0.069 C 
ATOM     14  O   UNL     1       0.521   0.459  -0.440  1.00  0.00    -0.275 OA
ATOM     15  C   UNL     1       1.744   0.531  -0.604  1.00  0.00     0.226 C 
ATOM     16  C   UNL     1       2.504   1.803  -0.127  1.00  0.00     0.114 C 
ATOM     17  N   UNL     1       2.384  -0.569  -1.122  1.00  0.00    -0.311 N 
ATOM     18  C   UNL     1       3.719  -0.687  -0.881  1.00  0.00     0.132 A 
ATOM     19  H   UNL     1       1.897  -1.246  -1.646  1.00  0.00     0.171 HD
ATOM     20  C   UNL     1       4.646   0.644  -0.192  1.00  0.00     0.031 A 
ATOM     21  N   UNL     1       4.845  -2.152  -1.025  1.00  0.00    -0.262 N 
ATOM     22  C   UNL     1       6.465   0.012   0.103  1.00  0.00     0.108 A 
ATOM     23  N   UNL     1       6.564  -1.680  -0.401  1.00  0.00    -0.173 NA
ATOM     24  H   UNL     1       4.588  -3.037  -1.373  1.00  0.00     0.192 HD
BRANCH  22  25
ATOM     25  C   UNL     1       7.602   0.971   0.245  1.00  0.00     0.055 A 
ATOM     26  C   UNL     1       8.687   1.003  -0.602  1.00  0.00     0.022 A 
ATOM     27  S   UNL     1       7.598   2.262   1.353  1.00  0.00    -0.142 S 
ATOM     28  C   UNL     1       9.501   2.154  -0.365  1.00  0.00     0.012 A 
ATOM     29  C   UNL     1       9.054   2.893   0.709  1.00  0.00     0.065 A 
ENDBRANCH  22  25
ENDBRANCH   8  13
ENDBRANCH   4   7
ENDBRANCH   2   3
ENDBRANCH   1   2
BRANCH   1  30
ATOM     30  C   UNL     1       4.036  -3.674   1.484  1.00  0.00     0.023 C 
BRANCH  30  31
ATOM     31  C   UNL     1       5.110  -3.734   2.541  1.00  0.00     0.116 C 
BRANCH  31  32
ATOM     32  N   UNL     1       4.707  -3.017   3.745  1.00  0.00    -0.352 N 
ATOM     33  C   UNL     1       5.360  -3.078   4.956  1.00  0.00     0.251 C 
ATOM     34  H   UNL     1       3.907  -2.446   3.688  1.00  0.00     0.163 HD
ATOM     35  O   UNL     1       4.777  -2.918   6.018  1.00  0.00    -0.269 OA
BRANCH  33  36
ATOM     36  C   UNL     1       6.819  -3.245   4.894  1.00  0.00     0.039 A 
ATOM     37  C   UNL     1       7.516  -4.146   5.696  1.00  0.00     0.014 A 
ATOM     38  C   UNL     1       7.468  -2.498   3.909  1.00  0.00     0.014 A 
ATOM     39  C   UNL     1       8.899  -4.237   5.524  1.00  0.00     0.010 A 
ATOM     40  C   UNL     1       8.772  -2.762   3.603  1.00  0.00     0.010 A 
ATOM     41  C   UNL     1       9.527  -3.506   4.490  1.00  0.00    -0.014 A 
BRANCH  41  42
ATOM     42  C   UNL     1      10.910  -3.734   4.076  1.00  0.00     0.031 A 
ATOM     43  C   UNL     1      11.050  -5.155   3.657  1.00  0.00     0.074 A 
ATOM     44  C   UNL     1      11.850  -2.755   3.949  1.00  0.00     0.049 A 
ATOM     45  N   UNL     1      11.548  -6.086   4.397  1.00  0.00    -0.248 NA
ATOM     46  C   UNL     1      10.303  -5.689   2.498  1.00  0.00     0.031 C 
ATOM     47  C   UNL     1      11.715  -1.309   4.182  1.00  0.00     0.029 A 
ATOM     48  N   UNL     1      13.167  -2.844   3.546  1.00  0.00    -0.354 N 
ATOM     49  C   UNL     1      11.499  -7.244   3.635  1.00  0.00     0.074 A 
ATOM     50  C   UNL     1      10.503  -7.006   2.632  1.00  0.00     0.031 C 
ATOM     51  C   UNL     1      12.795  -0.645   3.694  1.00  0.00     0.029 A 
ATOM     52  C   UNL     1      13.779  -1.603   3.228  1.00  0.00     0.049 A 
ATOM     53  H   UNL     1      13.646  -3.702   3.483  1.00  0.00     0.167 HD
ATOM     54  C   UNL     1      12.549  -8.108   3.708  1.00  0.00     0.037 A 
ATOM     55  C   UNL     1      15.017  -1.411   2.663  1.00  0.00     0.037 A 
ATOM     56  C   UNL     1      13.361  -7.772   4.859  1.00  0.00     0.049 A 
ATOM     57  C   UNL     1      15.798  -2.654   2.912  1.00  0.00     0.074 A 
ATOM     58  C   UNL     1      13.130  -7.697   6.219  1.00  0.00     0.029 A 
ATOM     59  N   UNL     1      14.447  -6.974   4.600  1.00  0.00    -0.354 N 
ATOM     60  N   UNL     1      16.176  -3.009   4.109  1.00  0.00    -0.248 NA
ATOM     61  C   UNL     1      15.598  -3.732   1.955  1.00  0.00     0.031 C 
ATOM     62  C   UNL     1      13.816  -6.522   6.647  1.00  0.00     0.029 A 
ATOM     63  C   UNL     1      14.574  -6.034   5.584  1.00  0.00     0.049 A 
ATOM     64  H   UNL     1      15.044  -7.064   3.823  1.00  0.00     0.167 HD
ATOM     65  C   UNL     1      15.746  -4.322   4.208  1.00  0.00     0.074 A 
ATOM     66  C   UNL     1      15.416  -4.722   2.835  1.00  0.00     0.031 C 
ATOM     67  C   UNL     1      15.357  -4.836   5.413  1.00  0.00     0.037 A 
BRANCH  54  68
ATOM     68  C   UNL     1      13.139  -8.868   2.539  1.00  0.00     0.064 A 
ATOM     69  C   UNL     1      14.254  -9.699   2.787  1.00  0.00     0.173 A 
ATOM     70  C   UNL     1      12.891  -8.584   1.180  1.00  0.00     0.173 A 
ATOM     71  F   UNL     1      14.596 -10.028   4.043  1.00  0.00    -0.203 F 
ATOM     72  C   UNL     1      15.106 -10.125   1.766  1.00  0.00     0.198 A 
ATOM     73  C   UNL     1      13.718  -9.051   0.158  1.00  0.00     0.198 A 
ATOM     74  F   UNL     1      11.913  -7.766   0.781  1.00  0.00    -0.203 F 
ATOM     75  F   UNL     1      16.225 -10.796   2.070  1.00  0.00    -0.200 F 
ATOM     76  C   UNL     1      14.841  -9.794   0.452  1.00  0.00     0.200 A 
ATOM     77  F   UNL     1      13.457  -8.702  -1.110  1.00  0.00    -0.200 F 
ATOM     78  F   UNL     1      15.683 -10.155  -0.525  1.00  0.00    -0.200 F 
ENDBRANCH  54  68
BRANCH  55  79
ATOM     79  C   UNL     1      15.517  -0.392   1.682  1.00  0.00     0.064 A 
ATOM     80  C   UNL     1      16.883  -0.267   1.328  1.00  0.00     0.173 A 
ATOM     81  C   UNL     1      14.614   0.266   0.829  1.00  0.00     0.173 A 
ATOM     82  F   UNL     1      17.831  -0.893   2.042  1.00  0.00    -0.203 F 
ATOM     83  C   UNL     1      17.300   0.442   0.186  1.00  0.00     0.198 A 
ATOM     84  C   UNL     1      15.029   0.964  -0.312  1.00  0.00     0.198 A 
ATOM     85  F   UNL     1      13.294   0.162   1.032  1.00  0.00    -0.203 F 
ATOM     86  F   UNL     1      18.600   0.492  -0.145  1.00  0.00    -0.200 F 
ATOM     87  C   UNL     1      16.369   1.043  -0.642  1.00  0.00     0.200 A 
ATOM     88  F   UNL     1      14.111   1.504  -1.125  1.00  0.00    -0.200 F 
ATOM     89  F   UNL     1      16.752   1.658  -1.771  1.00  0.00    -0.200 F 
ENDBRANCH  55  79
BRANCH  67  90
ATOM     90  C   UNL     1      15.655  -4.047   6.658  1.00  0.00     0.064 A 
ATOM     91  C   UNL     1      15.128  -2.778   6.961  1.00  0.00     0.173 A 
ATOM     92  C   UNL     1      16.396  -4.689   7.658  1.00  0.00     0.173 A 
ATOM     93  F   UNL     1      14.308  -2.149   6.110  1.00  0.00    -0.203 F 
ATOM     94  C   UNL     1      15.389  -2.163   8.187  1.00  0.00     0.198 A 
ATOM     95  C   UNL     1      16.619  -4.093   8.893  1.00  0.00     0.198 A 
ATOM     96  F   UNL     1      16.859  -5.932   7.453  1.00  0.00    -0.203 F 
ATOM     97  F   UNL     1      14.890  -0.946   8.450  1.00  0.00    -0.200 F 
ATOM     98  C   UNL     1      16.135  -2.822   9.150  1.00  0.00     0.200 A 
ATOM     99  F   UNL     1      17.280  -4.767   9.842  1.00  0.00    -0.200 F 
ATOM    100  F   UNL     1      16.366  -2.245  10.338  1.00  0.00    -0.200 F 
ENDBRANCH  67  90
ENDBRANCH  41  42
ENDBRANCH  33  36
ENDBRANCH  31  32
ENDBRANCH  30  31
ENDBRANCH   1  30
TORSDOF 13
