REMARK SMILES Cc1c(Cl)ccc2c(OCC(=O)NCCCCNC(=O)c3ccc(-c4c5nc(c(-c6c(F)c(F)c(F)c(F)c6F)c6ccc([nH]6)c(-c6c(F)c(F)c(F)c(F)c6F)c6nc(c(-c7c(F)c(F)c(F)c(F)c7F)c7ccc4[nH]7)C=C6)C=C5)cc3)ccnc12
REMARK SMILES IDX 15 1 14 2 13 3 11 4 12 5 10 7 9 8 8 9 1 10 2 11 3 12 87 13
REMARK SMILES IDX 4 14 5 15 7 16 86 17 6 18 85 19 84 20 16 21 17 22 18 23
REMARK SMILES IDX 19 24 20 26 21 27 22 28 83 29 23 30 82 31 24 32 25 33 26 34
REMARK SMILES IDX 76 35 27 36 81 37 75 38 77 39 28 40 80 41 74 42 73 43 29 45
REMARK SMILES IDX 61 46 41 47 60 48 42 49 45 50 59 51 78 52 43 53 44 54 58 56
REMARK SMILES IDX 79 57 46 58 30 59 31 60 39 61 32 62 33 63 37 64 40 65 34 66
REMARK SMILES IDX 35 67 38 68 36 69 62 70 63 71 71 72 64 73 65 74 69 75 72 76
REMARK SMILES IDX 66 77 67 78 70 79 68 80 47 81 48 82 56 83 49 84 50 85 54 86
REMARK SMILES IDX 57 87 51 88 52 89 55 90 53 91
REMARK H PARENT 13 6 18 25 77 44 45 55
REMARK Flexibility Score: inf
ROOT
ATOM      1  C   UNL     1      -1.828   6.192  -0.349  1.00  0.00     0.023 C 
ENDROOT
BRANCH   1   2
ATOM      2  C   UNL     1      -1.131   7.326  -1.098  1.00  0.00     0.116 C 
BRANCH   2   3
ATOM      3  N   UNL     1       0.098   7.742  -0.450  1.00  0.00    -0.353 N 
ATOM      4  C   UNL     1       1.386   7.536  -0.851  1.00  0.00     0.257 C 
ATOM      5  O   UNL     1       2.299   7.983  -0.154  1.00  0.00    -0.271 OA
ATOM      6  H   UNL     1      -0.012   8.241   0.392  1.00  0.00     0.163 HD
BRANCH   4   7
ATOM      7  C   UNL     1       1.670   6.800  -2.164  1.00  0.00     0.329 C 
BRANCH   7   8
ATOM      8  O   UNL     1       1.106   5.506  -2.304  1.00  0.00    -0.483 OA
BRANCH   8   9
ATOM      9  C   UNL     1       1.572   4.486  -1.510  1.00  0.00     0.131 A 
ATOM     10  C   UNL     1       1.079  -0.174   0.029  1.00  0.00     0.048 C 
ATOM     11  C   UNL     1       0.643   0.940  -0.893  1.00  0.00    -0.006 A 
ATOM     12  C   UNL     1      -0.431   0.784  -1.786  1.00  0.00     0.046 A 
ATOM     13  C   UNL     1       1.305   2.177  -0.802  1.00  0.00     0.078 A 
ATOM     14  Cl  UNL     1      -1.323  -0.692  -1.917  1.00  0.00    -0.084 Cl
ATOM     15  C   UNL     1      -0.830   1.834  -2.606  1.00  0.00     0.022 A 
ATOM     16  C   UNL     1       0.894   3.249  -1.628  1.00  0.00     0.043 A 
ATOM     17  N   UNL     1       2.317   2.325   0.074  1.00  0.00    -0.256 NA
ATOM     18  C   UNL     1      -0.172   3.056  -2.530  1.00  0.00     0.016 A 
ATOM     19  C   UNL     1       2.956   3.509   0.146  1.00  0.00     0.115 A 
ATOM     20  C   UNL     1       2.631   4.607  -0.619  1.00  0.00     0.067 A 
ENDBRANCH   8   9
ENDBRANCH   7   8
ENDBRANCH   4   7
ENDBRANCH   2   3
ENDBRANCH   1   2
BRANCH   1  21
ATOM     21  C   UNL     1      -2.182   6.494   1.111  1.00  0.00     0.023 C 
BRANCH  21  22
ATOM     22  C   UNL     1      -2.965   7.782   1.347  1.00  0.00     0.116 C 
BRANCH  22  23
ATOM     23  N   UNL     1      -4.259   7.786   0.685  1.00  0.00    -0.352 N 
ATOM     24  C   UNL     1      -5.498   8.052   1.215  1.00  0.00     0.251 C 
ATOM     25  H   UNL     1      -4.246   7.570  -0.276  1.00  0.00     0.163 HD
ATOM     26  O   UNL     1      -6.511   7.896   0.541  1.00  0.00    -0.269 OA
BRANCH  24  27
ATOM     27  C   UNL     1      -5.609   8.500   2.617  1.00  0.00     0.039 A 
ATOM     28  C   UNL     1      -6.473   7.815   3.476  1.00  0.00     0.014 A 
ATOM     29  C   UNL     1      -4.857   9.583   3.083  1.00  0.00     0.014 A 
ATOM     30  C   UNL     1      -6.539   8.179   4.821  1.00  0.00     0.010 A 
ATOM     31  C   UNL     1      -4.888   9.914   4.436  1.00  0.00     0.010 A 
ATOM     32  C   UNL     1      -5.730   9.214   5.314  1.00  0.00    -0.014 A 
BRANCH  32  33
ATOM     33  C   UNL     1      -5.767   9.587   6.748  1.00  0.00     0.031 A 
ATOM     34  C   UNL     1      -6.386  10.888   7.168  1.00  0.00     0.074 A 
ATOM     35  C   UNL     1      -5.207   8.775   7.665  1.00  0.00     0.049 A 
ATOM     36  N   UNL     1      -6.502  11.398   8.368  1.00  0.00    -0.248 NA
ATOM     37  C   UNL     1      -6.931  11.736   6.097  1.00  0.00     0.031 C 
ATOM     38  C   UNL     1      -4.543   7.505   7.372  1.00  0.00     0.029 A 
ATOM     39  N   UNL     1      -5.101   8.902   9.027  1.00  0.00    -0.354 N 
ATOM     40  C   UNL     1      -7.133  12.621   8.196  1.00  0.00     0.074 A 
ATOM     41  C   UNL     1      -7.329  12.804   6.774  1.00  0.00     0.031 C 
ATOM     42  C   UNL     1      -4.111   6.962   8.522  1.00  0.00     0.029 A 
ATOM     43  C   UNL     1      -4.449   7.855   9.628  1.00  0.00     0.049 A 
ATOM     44  H   UNL     1      -5.459   9.672   9.526  1.00  0.00     0.167 HD
ATOM     45  C   UNL     1      -7.537  13.500   9.143  1.00  0.00     0.037 A 
ATOM     46  C   UNL     1      -4.158   7.640  10.926  1.00  0.00     0.037 A 
ATOM     47  C   UNL     1      -7.360  13.307  10.556  1.00  0.00     0.049 A 
ATOM     48  C   UNL     1      -4.595   8.643  11.957  1.00  0.00     0.074 A 
ATOM     49  C   UNL     1      -7.798  14.107  11.597  1.00  0.00     0.029 A 
ATOM     50  N   UNL     1      -6.685  12.238  11.127  1.00  0.00    -0.354 N 
ATOM     51  N   UNL     1      -5.260   9.760  11.791  1.00  0.00    -0.248 NA
ATOM     52  C   UNL     1      -4.246   8.357  13.356  1.00  0.00     0.031 C 
ATOM     53  C   UNL     1      -7.352  13.544  12.796  1.00  0.00     0.029 A 
ATOM     54  C   UNL     1      -6.670  12.373  12.506  1.00  0.00     0.049 A 
ATOM     55  H   UNL     1      -6.278  11.494  10.627  1.00  0.00     0.167 HD
ATOM     56  C   UNL     1      -5.427  10.299  13.059  1.00  0.00     0.074 A 
ATOM     57  C   UNL     1      -4.801   9.382  13.989  1.00  0.00     0.031 C 
ATOM     58  C   UNL     1      -6.044  11.451  13.418  1.00  0.00     0.037 A 
BRANCH  45  59
ATOM     59  C   UNL     1      -8.228  14.747   8.681  1.00  0.00     0.064 A 
ATOM     60  C   UNL     1      -9.537  14.712   8.180  1.00  0.00     0.173 A 
ATOM     61  C   UNL     1      -7.596  15.994   8.787  1.00  0.00     0.173 A 
ATOM     62  F   UNL     1     -10.179  13.541   8.050  1.00  0.00    -0.203 F 
ATOM     63  C   UNL     1     -10.182  15.880   7.782  1.00  0.00     0.198 A 
ATOM     64  C   UNL     1      -8.253  17.163   8.411  1.00  0.00     0.198 A 
ATOM     65  F   UNL     1      -6.345  16.081   9.264  1.00  0.00    -0.203 F 
ATOM     66  F   UNL     1     -11.420  15.819   7.272  1.00  0.00    -0.200 F 
ATOM     67  C   UNL     1      -9.543  17.104   7.905  1.00  0.00     0.200 A 
ATOM     68  F   UNL     1      -7.638  18.347   8.538  1.00  0.00    -0.200 F 
ATOM     69  F   UNL     1     -10.169  18.228   7.530  1.00  0.00    -0.200 F 
ENDBRANCH  45  59
BRANCH  46  70
ATOM     70  C   UNL     1      -3.442   6.400  11.321  1.00  0.00     0.064 A 
ATOM     71  C   UNL     1      -4.116   5.364  11.980  1.00  0.00     0.173 A 
ATOM     72  C   UNL     1      -2.084   6.215  11.026  1.00  0.00     0.173 A 
ATOM     73  F   UNL     1      -5.411   5.505  12.300  1.00  0.00    -0.203 F 
ATOM     74  C   UNL     1      -3.456   4.189  12.335  1.00  0.00     0.198 A 
ATOM     75  C   UNL     1      -1.430   5.032  11.364  1.00  0.00     0.198 A 
ATOM     76  F   UNL     1      -1.397   7.178  10.395  1.00  0.00    -0.203 F 
ATOM     77  F   UNL     1      -4.117   3.223  12.988  1.00  0.00    -0.200 F 
ATOM     78  C   UNL     1      -2.116   4.021  12.021  1.00  0.00     0.200 A 
ATOM     79  F   UNL     1      -0.138   4.870  11.049  1.00  0.00    -0.200 F 
ATOM     80  F   UNL     1      -1.484   2.888  12.354  1.00  0.00    -0.200 F 
ENDBRANCH  46  70
BRANCH  58  81
ATOM     81  C   UNL     1      -6.087  11.793  14.876  1.00  0.00     0.064 A 
ATOM     82  C   UNL     1      -4.956  12.289  15.540  1.00  0.00     0.173 A 
ATOM     83  C   UNL     1      -7.292  11.716  15.591  1.00  0.00     0.173 A 
ATOM     84  F   UNL     1      -3.779  12.368  14.902  1.00  0.00    -0.203 F 
ATOM     85  C   UNL     1      -5.030  12.693  16.871  1.00  0.00     0.198 A 
ATOM     86  C   UNL     1      -7.367  12.143  16.913  1.00  0.00     0.198 A 
ATOM     87  F   UNL     1      -8.402  11.255  14.995  1.00  0.00    -0.203 F 
ATOM     88  F   UNL     1      -3.933  13.146  17.493  1.00  0.00    -0.200 F 
ATOM     89  C   UNL     1      -6.237  12.630  17.552  1.00  0.00     0.200 A 
ATOM     90  F   UNL     1      -8.537  12.095  17.566  1.00  0.00    -0.200 F 
ATOM     91  F   UNL     1      -6.310  13.040  18.826  1.00  0.00    -0.200 F 
ENDBRANCH  58  81
ENDBRANCH  32  33
ENDBRANCH  24  27
ENDBRANCH  22  23
ENDBRANCH  21  22
ENDBRANCH   1  21
TORSDOF 13
