REMARK SMILES Cc1c(CC(=O)N[C@@H](C)C(=O)NCCCCNC(=O)c2ccc(-c3c4nc(c(-c5c(F)c(F)c(F)c(F)c5F)c5ccc([nH]5)c(-c5c(F)c(F)c(F)c(F)c5F)c5nc(c(-c6c(F)c(F)c(F)c(F)c6F)c6ccc3[nH]6)C=C5)C=C4)cc2)c(=O)oc2cc3oc4c(c3cc12)CCCC4
REMARK SMILES IDX 14 1 13 2 12 3 10 4 11 5 8 7 9 8 7 9 5 10 6 11 4 13 3 14
REMARK SMILES IDX 1 15 2 16 94 17 83 18 86 19 93 20 84 21 85 22 87 23 92 24
REMARK SMILES IDX 88 25 91 26 89 27 90 28 95 29 98 30 96 31 97 32 15 33 16 34
REMARK SMILES IDX 17 35 18 36 19 38 20 39 21 40 82 41 22 42 81 43 23 44 24 45
REMARK SMILES IDX 25 46 75 47 26 48 80 49 74 50 76 51 27 52 79 53 73 54 72 55
REMARK SMILES IDX 28 57 60 58 40 59 59 60 41 61 44 62 58 63 77 64 42 65 43 66
REMARK SMILES IDX 57 68 78 69 45 70 29 71 30 72 38 73 31 74 32 75 36 76 39 77
REMARK SMILES IDX 33 78 34 79 37 80 35 81 61 82 62 83 70 84 63 85 64 86 68 87
REMARK SMILES IDX 71 88 65 89 66 90 69 91 67 92 46 93 47 94 55 95 48 96 49 97
REMARK SMILES IDX 53 98 56 99 50 100 51 101 54 102 52 103
REMARK H PARENT 12 6 7 12 17 37 76 56 44 67
REMARK Flexibility Score: inf
ROOT
ATOM      1  C   UNL     1       6.582   1.894   3.720  1.00  0.00     0.023 C 
ENDROOT
BRANCH   1   2
ATOM      2  C   UNL     1       5.259   2.652   3.654  1.00  0.00     0.116 C 
BRANCH   2   3
ATOM      3  N   UNL     1       5.386   3.896   2.904  1.00  0.00    -0.354 N 
ATOM      4  C   UNL     1       4.594   4.460   1.949  1.00  0.00     0.242 C 
ATOM      5  O   UNL     1       4.830   5.624   1.622  1.00  0.00    -0.273 OA
ATOM      6  H   UNL     1       6.186   4.423   3.128  1.00  0.00     0.163 HD
BRANCH   4   7
ATOM      7  C   UNL     1       3.401   3.695   1.379  1.00  0.00     0.168 C 
ATOM      8  C   UNL     1       2.321   3.554   2.452  1.00  0.00     0.041 C 
BRANCH   7   9
ATOM      9  N   UNL     1       3.883   2.423   0.836  1.00  0.00    -0.344 N 
ATOM     10  C   UNL     1       3.636   1.842  -0.367  1.00  0.00     0.225 C 
ATOM     11  O   UNL     1       4.315   0.862  -0.681  1.00  0.00    -0.275 OA
ATOM     12  H   UNL     1       4.475   1.911   1.434  1.00  0.00     0.164 HD
BRANCH  10  13
ATOM     13  C   UNL     1       2.545   2.376  -1.282  1.00  0.00     0.143 C 
BRANCH  13  14
ATOM     14  C   UNL     1       1.208   2.380  -0.585  1.00  0.00     0.051 A 
ATOM     15  C   UNL     1       1.220  -0.103  -0.111  1.00  0.00     0.046 C 
ATOM     16  C   UNL     1       0.671   1.300   0.021  1.00  0.00    -0.029 A 
ATOM     17  C   UNL     1      -0.557   1.471   0.812  1.00  0.00     0.022 A 
ATOM     18  C   UNL     1       0.532   3.706  -0.558  1.00  0.00     0.340 A 
ATOM     19  C   UNL     1      -1.245   2.685   0.750  1.00  0.00     0.142 A 
ATOM     20  C   UNL     1      -1.120   0.406   1.524  1.00  0.00     0.024 A 
ATOM     21  O   UNL     1       1.023   4.691  -1.098  1.00  0.00    -0.246 OA
ATOM     22  O   UNL     1      -0.676   3.797   0.107  1.00  0.00    -0.422 OA
ATOM     23  C   UNL     1      -2.551   2.861   1.216  1.00  0.00     0.095 A 
ATOM     24  C   UNL     1      -2.483   0.487   1.831  1.00  0.00     0.025 A 
ATOM     25  C   UNL     1      -3.163   1.682   1.611  1.00  0.00     0.138 A 
ATOM     26  C   UNL     1      -3.470  -0.503   2.046  1.00  0.00     0.001 A 
ATOM     27  O   UNL     1      -4.511   1.467   1.626  1.00  0.00    -0.461 OA
ATOM     28  C   UNL     1      -4.649   0.120   1.694  1.00  0.00     0.108 A 
ATOM     29  C   UNL     1      -3.359  -1.980   1.933  1.00  0.00     0.040 C 
ATOM     30  C   UNL     1      -5.667  -0.558   0.845  1.00  0.00     0.076 C 
ATOM     31  C   UNL     1      -3.834  -2.407   0.526  1.00  0.00     0.005 C 
ATOM     32  C   UNL     1      -4.855  -1.440  -0.148  1.00  0.00     0.008 C 
ENDBRANCH  13  14
ENDBRANCH  10  13
ENDBRANCH   7   9
ENDBRANCH   4   7
ENDBRANCH   2   3
ENDBRANCH   1   2
BRANCH   1  33
ATOM     33  C   UNL     1       7.761   2.748   4.188  1.00  0.00     0.023 C 
BRANCH  33  34
ATOM     34  C   UNL     1       7.479   3.527   5.471  1.00  0.00     0.116 C 
BRANCH  34  35
ATOM     35  N   UNL     1       7.659   2.723   6.670  1.00  0.00    -0.352 N 
ATOM     36  C   UNL     1       8.831   2.467   7.344  1.00  0.00     0.251 C 
ATOM     37  H   UNL     1       6.846   2.313   7.043  1.00  0.00     0.163 HD
ATOM     38  O   UNL     1       8.881   1.694   8.283  1.00  0.00    -0.269 OA
BRANCH  36  39
ATOM     39  C   UNL     1      10.051   3.126   6.840  1.00  0.00     0.039 A 
ATOM     40  C   UNL     1      10.108   4.522   6.788  1.00  0.00     0.014 A 
ATOM     41  C   UNL     1      11.042   2.335   6.261  1.00  0.00     0.014 A 
ATOM     42  C   UNL     1      11.070   5.132   5.999  1.00  0.00     0.010 A 
ATOM     43  C   UNL     1      12.041   2.954   5.520  1.00  0.00     0.010 A 
ATOM     44  C   UNL     1      12.018   4.346   5.339  1.00  0.00    -0.014 A 
BRANCH  44  45
ATOM     45  C   UNL     1      13.026   5.058   4.541  1.00  0.00     0.031 A 
ATOM     46  C   UNL     1      14.369   5.029   5.175  1.00  0.00     0.074 A 
ATOM     47  C   UNL     1      13.053   5.036   3.192  1.00  0.00     0.049 A 
ATOM     48  N   UNL     1      15.152   4.007   5.013  1.00  0.00    -0.248 NA
ATOM     49  C   UNL     1      14.790   5.950   6.225  1.00  0.00     0.031 C 
ATOM     50  C   UNL     1      12.505   3.959   2.358  1.00  0.00     0.029 A 
ATOM     51  N   UNL     1      13.797   5.802   2.323  1.00  0.00    -0.354 N 
ATOM     52  C   UNL     1      16.117   4.078   5.993  1.00  0.00     0.074 A 
ATOM     53  C   UNL     1      15.878   5.320   6.699  1.00  0.00     0.031 C 
ATOM     54  C   UNL     1      13.093   4.017   1.147  1.00  0.00     0.029 A 
ATOM     55  C   UNL     1      13.902   5.225   1.069  1.00  0.00     0.049 A 
ATOM     56  H   UNL     1      14.207   6.663   2.566  1.00  0.00     0.167 HD
ATOM     57  C   UNL     1      17.033   3.093   6.178  1.00  0.00     0.037 A 
ATOM     58  C   UNL     1      14.854   5.494   0.143  1.00  0.00     0.037 A 
ATOM     59  C   UNL     1      17.054   1.954   5.282  1.00  0.00     0.049 A 
ATOM     60  C   UNL     1      15.969   4.582   0.578  1.00  0.00     0.074 A 
ATOM     61  C   UNL     1      17.597   0.681   5.278  1.00  0.00     0.029 A 
ATOM     62  N   UNL     1      16.449   2.069   4.058  1.00  0.00    -0.354 N 
ATOM     63  N   UNL     1      16.063   3.305   0.303  1.00  0.00    -0.248 NA
ATOM     64  C   UNL     1      16.884   5.049   1.636  1.00  0.00     0.031 C 
ATOM     65  C   UNL     1      17.565   0.208   3.925  1.00  0.00     0.029 A 
ATOM     66  C   UNL     1      17.027   1.218   3.150  1.00  0.00     0.049 A 
ATOM     67  H   UNL     1      15.702   2.679   3.857  1.00  0.00     0.167 HD
ATOM     68  C   UNL     1      16.841   2.786   1.330  1.00  0.00     0.074 A 
ATOM     69  C   UNL     1      17.419   3.904   2.041  1.00  0.00     0.031 C 
ATOM     70  C   UNL     1      16.781   1.498   1.764  1.00  0.00     0.037 A 
BRANCH  57  71
ATOM     71  C   UNL     1      18.150   3.252   7.131  1.00  0.00     0.064 A 
ATOM     72  C   UNL     1      19.408   3.595   6.612  1.00  0.00     0.173 A 
ATOM     73  C   UNL     1      18.056   2.921   8.484  1.00  0.00     0.173 A 
ATOM     74  F   UNL     1      19.532   3.929   5.317  1.00  0.00    -0.203 F 
ATOM     75  C   UNL     1      20.544   3.568   7.409  1.00  0.00     0.198 A 
ATOM     76  C   UNL     1      19.197   2.903   9.285  1.00  0.00     0.198 A 
ATOM     77  F   UNL     1      16.873   2.585   9.019  1.00  0.00    -0.203 F 
ATOM     78  F   UNL     1      21.738   3.866   6.880  1.00  0.00    -0.200 F 
ATOM     79  C   UNL     1      20.440   3.213   8.744  1.00  0.00     0.200 A 
ATOM     80  F   UNL     1      19.102   2.563  10.578  1.00  0.00    -0.200 F 
ATOM     81  F   UNL     1      21.539   3.164   9.510  1.00  0.00    -0.200 F 
ENDBRANCH  57  71
BRANCH  58  82
ATOM     82  C   UNL     1      14.990   6.940  -0.210  1.00  0.00     0.064 A 
ATOM     83  C   UNL     1      13.820   7.622  -0.621  1.00  0.00     0.173 A 
ATOM     84  C   UNL     1      16.162   7.702  -0.173  1.00  0.00     0.173 A 
ATOM     85  F   UNL     1      12.671   6.948  -0.793  1.00  0.00    -0.203 F 
ATOM     86  C   UNL     1      13.801   8.997  -0.849  1.00  0.00     0.198 A 
ATOM     87  C   UNL     1      16.140   9.085  -0.381  1.00  0.00     0.198 A 
ATOM     88  F   UNL     1      17.349   7.137   0.075  1.00  0.00    -0.203 F 
ATOM     89  F   UNL     1      12.657   9.605  -1.191  1.00  0.00    -0.200 F 
ATOM     90  C   UNL     1      14.959   9.734  -0.699  1.00  0.00     0.200 A 
ATOM     91  F   UNL     1      17.271   9.791  -0.248  1.00  0.00    -0.200 F 
ATOM     92  F   UNL     1      14.941  11.064  -0.862  1.00  0.00    -0.200 F 
ENDBRANCH  58  82
BRANCH  70  93
ATOM     93  C   UNL     1      16.290   0.472   0.825  1.00  0.00     0.064 A 
ATOM     94  C   UNL     1      16.985   0.230  -0.370  1.00  0.00     0.173 A 
ATOM     95  C   UNL     1      15.176  -0.323   1.117  1.00  0.00     0.173 A 
ATOM     96  F   UNL     1      18.085   0.938  -0.671  1.00  0.00    -0.203 F 
ATOM     97  C   UNL     1      16.575  -0.770  -1.244  1.00  0.00     0.198 A 
ATOM     98  C   UNL     1      14.776  -1.331   0.245  1.00  0.00     0.198 A 
ATOM     99  F   UNL     1      14.475  -0.128   2.245  1.00  0.00    -0.203 F 
ATOM    100  F   UNL     1      17.259  -0.991  -2.375  1.00  0.00    -0.200 F 
ATOM    101  C   UNL     1      15.475  -1.553  -0.933  1.00  0.00     0.200 A 
ATOM    102  F   UNL     1      13.720  -2.098   0.551  1.00  0.00    -0.200 F 
ATOM    103  F   UNL     1      15.094  -2.533  -1.764  1.00  0.00    -0.200 F 
ENDBRANCH  70  93
ENDBRANCH  44  45
ENDBRANCH  36  39
ENDBRANCH  34  35
ENDBRANCH  33  34
ENDBRANCH   1  33
TORSDOF 14
