REMARK SMILES C[C@@]([NH2+]Cc1ccccc1Br)(C(=O)NCCCCNC(=O)c1ccc(-c2c3nc(c(-c4c(F)c(F)c(F)c(F)c4F)c4ccc([nH]4)c(-c4c(F)c(F)c(F)c(F)c4F)c4nc(c(-c5c(F)c(F)c(F)c(F)c5F)c5ccc2[nH]5)C=C4)C=C3)cc1)C(F)(F)F
REMARK SMILES IDX 16 1 15 2 14 3 12 4 13 5 2 7 1 8 3 9 4 12 5 13 6 14 10 15
REMARK SMILES IDX 7 16 9 17 11 18 8 19 85 20 86 21 87 22 88 23 17 24 18 25
REMARK SMILES IDX 19 26 20 27 21 29 22 30 23 31 84 32 24 33 83 34 25 35 26 36
REMARK SMILES IDX 27 37 77 38 28 39 82 40 76 41 78 42 29 43 81 44 75 45 74 46
REMARK SMILES IDX 30 48 62 49 42 50 61 51 43 52 46 53 60 54 79 55 44 56 45 57
REMARK SMILES IDX 59 59 80 60 47 61 31 62 32 63 40 64 33 65 34 66 38 67 41 68
REMARK SMILES IDX 35 69 36 70 39 71 37 72 63 73 64 74 72 75 65 76 66 77 70 78
REMARK SMILES IDX 73 79 67 80 68 81 71 82 69 83 48 84 49 85 57 86 50 87 51 88
REMARK SMILES IDX 55 89 58 90 52 91 53 92 56 93 54 94
REMARK H PARENT 14 6 3 10 3 11 19 28 78 47 46 58
REMARK Flexibility Score: inf
ROOT
ATOM      1  C   UNL     1      -1.295  -2.687  -0.577  1.00  0.00     0.023 C 
ENDROOT
BRANCH   1   2
ATOM      2  C   UNL     1      -1.060  -1.689  -1.711  1.00  0.00     0.116 C 
BRANCH   2   3
ATOM      3  N   UNL     1      -1.667  -0.409  -1.407  1.00  0.00    -0.350 N 
ATOM      4  C   UNL     1      -1.123   0.767  -0.974  1.00  0.00     0.290 C 
ATOM      5  O   UNL     1      -1.939   1.665  -0.750  1.00  0.00    -0.267 OA
ATOM      6  H   UNL     1      -2.642  -0.381  -1.534  1.00  0.00     0.163 HD
BRANCH   4   7
ATOM      7  C   UNL     1       0.401   0.971  -0.822  1.00  0.00     0.268 C 
ATOM      8  C   UNL     1       0.994  -0.013   0.214  1.00  0.00     0.101 C 
BRANCH   7   9
ATOM      9  N   UNL     1       1.109   0.640  -2.114  1.00  0.00    -0.322 N 
ATOM     10  H   UNL     1       0.916  -0.339  -2.326  1.00  0.00     0.347 HD
ATOM     11  H   UNL     1       2.088   0.865  -1.939  1.00  0.00     0.347 HD
BRANCH   9  12
ATOM     12  C   UNL     1       0.753   1.425  -3.302  1.00  0.00     0.299 C 
BRANCH  12  13
ATOM     13  C   UNL     1       1.270   2.843  -3.320  1.00  0.00     0.020 A 
ATOM     14  C   UNL     1       0.347   3.878  -3.562  1.00  0.00     0.011 A 
ATOM     15  C   UNL     1       2.612   3.196  -3.089  1.00  0.00     0.026 A 
ATOM     16  C   UNL     1       0.726   5.218  -3.466  1.00  0.00     0.001 A 
ATOM     17  C   UNL     1       2.984   4.540  -2.974  1.00  0.00     0.016 A 
ATOM     18  Br  UNL     1       3.999   1.907  -2.907  1.00  0.00    -0.050 Br
ATOM     19  C   UNL     1       2.037   5.548  -3.145  1.00  0.00     0.001 A 
ENDBRANCH  12  13
ENDBRANCH   9  12
ENDBRANCH   7   9
BRANCH   7  20
ATOM     20  C   UNL     1       0.602   2.382  -0.184  1.00  0.00     0.453 C 
ATOM     21  F   UNL     1       0.139   2.424   1.091  1.00  0.00    -0.164 F 
ATOM     22  F   UNL     1       1.932   2.666  -0.106  1.00  0.00    -0.164 F 
ATOM     23  F   UNL     1       0.023   3.394  -0.853  1.00  0.00    -0.164 F 
ENDBRANCH   7  20
ENDBRANCH   4   7
ENDBRANCH   2   3
ENDBRANCH   1   2
BRANCH   1  24
ATOM     24  C   UNL     1      -2.761  -3.071  -0.364  1.00  0.00     0.023 C 
BRANCH  24  25
ATOM     25  C   UNL     1      -3.464  -3.640  -1.590  1.00  0.00     0.116 C 
BRANCH  25  26
ATOM     26  N   UNL     1      -2.813  -4.830  -2.115  1.00  0.00    -0.352 N 
ATOM     27  C   UNL     1      -3.385  -5.992  -2.572  1.00  0.00     0.251 C 
ATOM     28  H   UNL     1      -1.830  -4.799  -2.146  1.00  0.00     0.163 HD
ATOM     29  O   UNL     1      -2.685  -6.958  -2.861  1.00  0.00    -0.269 OA
BRANCH  27  30
ATOM     30  C   UNL     1      -4.854  -6.084  -2.682  1.00  0.00     0.039 A 
ATOM     31  C   UNL     1      -5.501  -7.200  -2.147  1.00  0.00     0.014 A 
ATOM     32  C   UNL     1      -5.590  -5.060  -3.285  1.00  0.00     0.014 A 
ATOM     33  C   UNL     1      -6.896  -7.259  -2.158  1.00  0.00     0.010 A 
ATOM     34  C   UNL     1      -6.980  -5.087  -3.231  1.00  0.00     0.010 A 
ATOM     35  C   UNL     1      -7.646  -6.186  -2.667  1.00  0.00    -0.014 A 
BRANCH  35  36
ATOM     36  C   UNL     1      -9.130  -6.193  -2.614  1.00  0.00     0.031 A 
ATOM     37  C   UNL     1      -9.929  -6.203  -3.886  1.00  0.00     0.074 A 
ATOM     38  C   UNL     1      -9.754  -6.121  -1.423  1.00  0.00     0.049 A 
ATOM     39  N   UNL     1     -11.226  -6.137  -4.050  1.00  0.00    -0.248 NA
ATOM     40  C   UNL     1      -9.168  -6.266  -5.144  1.00  0.00     0.031 C 
ATOM     41  C   UNL     1      -9.087  -6.056  -0.121  1.00  0.00     0.029 A 
ATOM     42  N   UNL     1     -11.090  -6.078  -1.113  1.00  0.00    -0.354 N 
ATOM     43  C   UNL     1     -11.434  -6.137  -5.423  1.00  0.00     0.074 A 
ATOM     44  C   UNL     1     -10.130  -6.154  -6.048  1.00  0.00     0.031 C 
ATOM     45  C   UNL     1     -10.016  -6.003   0.847  1.00  0.00     0.029 A 
ATOM     46  C   UNL     1     -11.341  -5.992   0.234  1.00  0.00     0.049 A 
ATOM     47  H   UNL     1     -11.802  -6.107  -1.793  1.00  0.00     0.167 HD
ATOM     48  C   UNL     1     -12.607  -6.146  -6.099  1.00  0.00     0.037 A 
ATOM     49  C   UNL     1     -12.509  -5.906   0.900  1.00  0.00     0.037 A 
ATOM     50  C   UNL     1     -13.902  -6.155  -5.472  1.00  0.00     0.049 A 
ATOM     51  C   UNL     1     -13.798  -5.915   0.123  1.00  0.00     0.074 A 
ATOM     52  C   UNL     1     -15.149  -6.227  -6.068  1.00  0.00     0.029 A 
ATOM     53  N   UNL     1     -14.117  -6.089  -4.103  1.00  0.00    -0.354 N 
ATOM     54  N   UNL     1     -13.983  -5.987  -1.173  1.00  0.00    -0.248 NA
ATOM     55  C   UNL     1     -15.041  -5.837   0.903  1.00  0.00     0.031 C 
ATOM     56  C   UNL     1     -16.119  -6.158  -5.063  1.00  0.00     0.029 A 
ATOM     57  C   UNL     1     -15.477  -6.096  -3.837  1.00  0.00     0.049 A 
ATOM     58  H   UNL     1     -13.408  -6.043  -3.421  1.00  0.00     0.167 HD
ATOM     59  C   UNL     1     -15.359  -5.994  -1.362  1.00  0.00     0.074 A 
ATOM     60  C   UNL     1     -15.961  -5.933  -0.046  1.00  0.00     0.031 C 
ATOM     61  C   UNL     1     -16.060  -6.045  -2.521  1.00  0.00     0.037 A 
BRANCH  48  62
ATOM     62  C   UNL     1     -12.544  -6.151  -7.599  1.00  0.00     0.064 A 
ATOM     63  C   UNL     1     -12.095  -7.273  -8.312  1.00  0.00     0.173 A 
ATOM     64  C   UNL     1     -12.973  -5.035  -8.334  1.00  0.00     0.173 A 
ATOM     65  F   UNL     1     -11.663  -8.361  -7.657  1.00  0.00    -0.203 F 
ATOM     66  C   UNL     1     -12.051  -7.268  -9.704  1.00  0.00     0.198 A 
ATOM     67  C   UNL     1     -12.957  -5.045  -9.726  1.00  0.00     0.198 A 
ATOM     68  F   UNL     1     -13.416  -3.938  -7.702  1.00  0.00    -0.203 F 
ATOM     69  F   UNL     1     -11.572  -8.333 -10.362  1.00  0.00    -0.200 F 
ATOM     70  C   UNL     1     -12.489  -6.157 -10.410  1.00  0.00     0.200 A 
ATOM     71  F   UNL     1     -13.392  -3.976 -10.408  1.00  0.00    -0.200 F 
ATOM     72  F   UNL     1     -12.454  -6.157 -11.750  1.00  0.00    -0.200 F 
ENDBRANCH  48  62
BRANCH  49  73
ATOM     73  C   UNL     1     -12.515  -5.829   2.384  1.00  0.00     0.064 A 
ATOM     74  C   UNL     1     -12.991  -6.898   3.157  1.00  0.00     0.173 A 
ATOM     75  C   UNL     1     -12.057  -4.689   3.059  1.00  0.00     0.173 A 
ATOM     76  F   UNL     1     -13.459  -8.002   2.556  1.00  0.00    -0.203 F 
ATOM     77  C   UNL     1     -13.029  -6.820   4.548  1.00  0.00     0.198 A 
ATOM     78  C   UNL     1     -12.069  -4.623   4.451  1.00  0.00     0.198 A 
ATOM     79  F   UNL     1     -11.587  -3.641   2.366  1.00  0.00    -0.203 F 
ATOM     80  F   UNL     1     -13.534  -7.837   5.259  1.00  0.00    -0.200 F 
ATOM     81  C   UNL     1     -12.563  -5.685   5.194  1.00  0.00     0.200 A 
ATOM     82  F   UNL     1     -11.604  -3.531   5.072  1.00  0.00    -0.200 F 
ATOM     83  F   UNL     1     -12.598  -5.611   6.531  1.00  0.00    -0.200 F 
ENDBRANCH  49  73
BRANCH  61  84
ATOM     84  C   UNL     1     -17.557  -6.076  -2.419  1.00  0.00     0.064 A 
ATOM     85  C   UNL     1     -18.294  -4.946  -2.037  1.00  0.00     0.173 A 
ATOM     86  C   UNL     1     -18.265  -7.242  -2.748  1.00  0.00     0.173 A 
ATOM     87  F   UNL     1     -17.663  -3.812  -1.698  1.00  0.00    -0.203 F 
ATOM     88  C   UNL     1     -19.683  -4.989  -1.964  1.00  0.00     0.198 A 
ATOM     89  C   UNL     1     -19.656  -7.273  -2.703  1.00  0.00     0.198 A 
ATOM     90  F   UNL     1     -17.608  -8.349  -3.126  1.00  0.00    -0.203 F 
ATOM     91  F   UNL     1     -20.364  -3.911  -1.550  1.00  0.00    -0.200 F 
ATOM     92  C   UNL     1     -20.363  -6.149  -2.304  1.00  0.00     0.200 A 
ATOM     93  F   UNL     1     -20.311  -8.390  -3.046  1.00  0.00    -0.200 F 
ATOM     94  F   UNL     1     -21.701  -6.186  -2.241  1.00  0.00    -0.200 F 
ENDBRANCH  61  84
ENDBRANCH  35  36
ENDBRANCH  27  30
ENDBRANCH  25  26
ENDBRANCH  24  25
ENDBRANCH   1  24
TORSDOF 15
