REMARK SMILES CCOC(=O)C1=NN(c2ccc([N+](=O)[O-])cc2C(F)(F)F)[C@@](C)(C(=O)NCCCCNC(=O)c2ccc(-c3c4nc(c(-c5c(F)c(F)c(F)c(F)c5F)c5ccc([nH]5)c(-c5c(F)c(F)c(F)c(F)c5F)c5nc(c(-c6c(F)c(F)c(F)c(F)c6F)c6ccc3[nH]6)C=C5)C=C4)cc2)C1
REMARK SMILES IDX 28 1 27 2 26 3 24 4 25 5 22 7 6 8 7 9 97 10 8 11 23 12 4 13
REMARK SMILES IDX 5 14 3 15 2 16 1 17 9 18 10 19 17 20 11 21 16 22 12 23 18 24
REMARK SMILES IDX 19 25 20 26 21 27 13 28 14 29 15 30 29 31 30 32 31 33 32 34
REMARK SMILES IDX 33 36 34 37 35 38 96 39 36 40 95 41 37 42 38 43 39 44 89 45
REMARK SMILES IDX 40 46 94 47 88 48 90 49 41 50 93 51 87 52 86 53 42 55 74 56
REMARK SMILES IDX 54 57 73 58 55 59 58 60 72 61 91 62 56 63 57 64 71 66 92 67
REMARK SMILES IDX 59 68 43 69 44 70 52 71 45 72 46 73 50 74 53 75 47 76 48 77
REMARK SMILES IDX 51 78 49 79 75 80 76 81 84 82 77 83 78 84 82 85 85 86 79 87
REMARK SMILES IDX 80 88 83 89 81 90 60 91 61 92 69 93 62 94 63 95 67 96 70 97
REMARK SMILES IDX 64 98 65 99 68 100 66 101
REMARK H PARENT 26 6 31 35 90 54 58 65
REMARK Flexibility Score: inf
ROOT
ATOM      1  C   UNL     1       4.514  -7.495   6.237  1.00  0.00     0.023 C 
ENDROOT
BRANCH   1   2
ATOM      2  C   UNL     1       4.928  -6.034   6.058  1.00  0.00     0.116 C 
BRANCH   2   3
ATOM      3  N   UNL     1       5.108  -5.696   4.660  1.00  0.00    -0.354 N 
ATOM      4  C   UNL     1       4.726  -4.623   3.913  1.00  0.00     0.248 C 
ATOM      5  O   UNL     1       4.975  -4.729   2.704  1.00  0.00    -0.272 OA
ATOM      6  H   UNL     1       5.604  -6.376   4.150  1.00  0.00     0.163 HD
BRANCH   4   7
ATOM      7  C   UNL     1       4.021  -3.353   4.484  1.00  0.00     0.144 C 
ATOM      8  C   UNL     1       2.757  -2.458   2.762  1.00  0.00     0.149 C 
ATOM      9  N   UNL     1       1.896  -3.133   3.461  1.00  0.00    -0.169 NA
ATOM     10  C   UNL     1       4.091  -2.249   3.394  1.00  0.00     0.106 C 
ATOM     11  N   UNL     1       2.545  -3.523   4.605  1.00  0.00    -0.249 N 
ATOM     12  C   UNL     1       4.684  -2.795   5.740  1.00  0.00     0.048 C 
BRANCH   8  13
ATOM     13  C   UNL     1       2.471  -1.858   1.408  1.00  0.00     0.354 C 
ATOM     14  O   UNL     1       3.372  -1.519   0.662  1.00  0.00    -0.245 OA
BRANCH  13  15
ATOM     15  O   UNL     1       1.146  -1.747   1.205  1.00  0.00    -0.461 OA
BRANCH  15  16
ATOM     16  C   UNL     1       0.754  -1.235  -0.075  1.00  0.00     0.230 C 
ATOM     17  C   UNL     1       0.816   0.281  -0.091  1.00  0.00     0.049 C 
ENDBRANCH  15  16
ENDBRANCH  13  15
ENDBRANCH   8  13
BRANCH  11  18
ATOM     18  C   UNL     1       1.899  -4.491   5.364  1.00  0.00     0.073 A 
ATOM     19  C   UNL     1       1.607  -5.742   4.783  1.00  0.00     0.036 A 
ATOM     20  C   UNL     1       1.467  -4.247   6.682  1.00  0.00     0.088 A 
ATOM     21  C   UNL     1       0.980  -6.763   5.501  1.00  0.00     0.088 A 
ATOM     22  C   UNL     1       0.858  -5.290   7.419  1.00  0.00     0.101 A 
ATOM     23  C   UNL     1       0.627  -6.540   6.830  1.00  0.00     0.270 A 
BRANCH  20  24
ATOM     24  C   UNL     1       1.631  -2.907   7.361  1.00  0.00     0.418 C 
ATOM     25  F   UNL     1       0.612  -2.637   8.228  1.00  0.00    -0.166 F 
ATOM     26  F   UNL     1       2.765  -2.870   8.120  1.00  0.00    -0.166 F 
ATOM     27  F   UNL     1       1.699  -1.828   6.537  1.00  0.00    -0.166 F 
ENDBRANCH  20  24
BRANCH  23  28
ATOM     28  N   UNL     1       0.022  -7.622   7.618  1.00  0.00     0.062 N 
ATOM     29  O   UNL     1      -0.069  -8.737   7.087  1.00  0.00    -0.258 OA
ATOM     30  O   UNL     1      -0.338  -7.358   8.773  1.00  0.00    -0.258 OA
ENDBRANCH  23  28
ENDBRANCH  11  18
ENDBRANCH   4   7
ENDBRANCH   2   3
ENDBRANCH   1   2
BRANCH   1  31
ATOM     31  C   UNL     1       5.589  -8.534   5.907  1.00  0.00     0.023 C 
BRANCH  31  32
ATOM     32  C   UNL     1       6.861  -8.455   6.746  1.00  0.00     0.116 C 
BRANCH  32  33
ATOM     33  N   UNL     1       6.601  -8.598   8.169  1.00  0.00    -0.352 N 
ATOM     34  C   UNL     1       7.194  -9.426   9.089  1.00  0.00     0.251 C 
ATOM     35  H   UNL     1       5.894  -8.013   8.526  1.00  0.00     0.163 HD
ATOM     36  O   UNL     1       6.741  -9.503  10.227  1.00  0.00    -0.269 OA
BRANCH  34  37
ATOM     37  C   UNL     1       8.365 -10.243   8.713  1.00  0.00     0.039 A 
ATOM     38  C   UNL     1       8.374 -11.599   9.055  1.00  0.00     0.014 A 
ATOM     39  C   UNL     1       9.461  -9.674   8.057  1.00  0.00     0.014 A 
ATOM     40  C   UNL     1       9.453 -12.403   8.683  1.00  0.00     0.010 A 
ATOM     41  C   UNL     1      10.525 -10.481   7.660  1.00  0.00     0.010 A 
ATOM     42  C   UNL     1      10.523 -11.852   7.962  1.00  0.00    -0.014 A 
BRANCH  42  43
ATOM     43  C   UNL     1      11.647 -12.695   7.497  1.00  0.00     0.031 A 
ATOM     44  C   UNL     1      12.989 -12.593   8.155  1.00  0.00     0.074 A 
ATOM     45  C   UNL     1      11.477 -13.489   6.425  1.00  0.00     0.049 A 
ATOM     46  N   UNL     1      14.128 -13.125   7.791  1.00  0.00    -0.248 NA
ATOM     47  C   UNL     1      13.066 -11.767   9.369  1.00  0.00     0.031 C 
ATOM     48  C   UNL     1      10.230 -13.648   5.677  1.00  0.00     0.029 A 
ATOM     49  N   UNL     1      12.369 -14.296   5.766  1.00  0.00    -0.354 N 
ATOM     50  C   UNL     1      15.067 -12.655   8.697  1.00  0.00     0.074 A 
ATOM     51  C   UNL     1      14.362 -11.817   9.645  1.00  0.00     0.031 C 
ATOM     52  C   UNL     1      10.436 -14.500   4.659  1.00  0.00     0.029 A 
ATOM     53  C   UNL     1      11.832 -14.928   4.674  1.00  0.00     0.049 A 
ATOM     54  H   UNL     1      13.305 -14.411   6.050  1.00  0.00     0.167 HD
ATOM     55  C   UNL     1      16.399 -12.890   8.723  1.00  0.00     0.037 A 
ATOM     56  C   UNL     1      12.406 -15.751   3.778  1.00  0.00     0.037 A 
ATOM     57  C   UNL     1      17.097 -13.763   7.820  1.00  0.00     0.049 A 
ATOM     58  C   UNL     1      13.862 -16.085   3.899  1.00  0.00     0.074 A 
ATOM     59  C   UNL     1      18.442 -14.091   7.797  1.00  0.00     0.029 A 
ATOM     60  N   UNL     1      16.496 -14.462   6.785  1.00  0.00    -0.354 N 
ATOM     61  N   UNL     1      14.742 -15.631   4.756  1.00  0.00    -0.248 NA
ATOM     62  C   UNL     1      14.405 -17.044   2.926  1.00  0.00     0.031 C 
ATOM     63  C   UNL     1      18.654 -14.995   6.748  1.00  0.00     0.029 A 
ATOM     64  C   UNL     1      17.441 -15.228   6.122  1.00  0.00     0.049 A 
ATOM     65  H   UNL     1      15.540 -14.420   6.555  1.00  0.00     0.167 HD
ATOM     66  C   UNL     1      15.941 -16.242   4.427  1.00  0.00     0.074 A 
ATOM     67  C   UNL     1      15.677 -17.109   3.297  1.00  0.00     0.031 C 
ATOM     68  C   UNL     1      17.156 -16.088   5.006  1.00  0.00     0.037 A 
BRANCH  55  69
ATOM     69  C   UNL     1      17.194 -12.163   9.758  1.00  0.00     0.064 A 
ATOM     70  C   UNL     1      17.342 -12.671  11.055  1.00  0.00     0.173 A 
ATOM     71  C   UNL     1      17.826 -10.953   9.440  1.00  0.00     0.173 A 
ATOM     72  F   UNL     1      16.739 -13.817  11.403  1.00  0.00    -0.203 F 
ATOM     73  C   UNL     1      18.094 -11.985  12.004  1.00  0.00     0.198 A 
ATOM     74  C   UNL     1      18.582 -10.274  10.390  1.00  0.00     0.198 A 
ATOM     75  F   UNL     1      17.701 -10.428   8.212  1.00  0.00    -0.203 F 
ATOM     76  F   UNL     1      18.210 -12.475  13.246  1.00  0.00    -0.200 F 
ATOM     77  C   UNL     1      18.715 -10.790  11.671  1.00  0.00     0.200 A 
ATOM     78  F   UNL     1      19.177  -9.116  10.069  1.00  0.00    -0.200 F 
ATOM     79  F   UNL     1      19.434 -10.128  12.588  1.00  0.00    -0.200 F 
ENDBRANCH  55  69
BRANCH  56  80
ATOM     80  C   UNL     1      11.588 -16.314   2.682  1.00  0.00     0.064 A 
ATOM     81  C   UNL     1      10.992 -17.574   2.810  1.00  0.00     0.173 A 
ATOM     82  C   UNL     1      11.367 -15.591   1.503  1.00  0.00     0.173 A 
ATOM     83  F   UNL     1      11.193 -18.300   3.919  1.00  0.00    -0.203 F 
ATOM     84  C   UNL     1      10.200 -18.096   1.790  1.00  0.00     0.198 A 
ATOM     85  C   UNL     1      10.570 -16.112   0.487  1.00  0.00     0.198 A 
ATOM     86  F   UNL     1      11.922 -14.382   1.344  1.00  0.00    -0.203 F 
ATOM     87  F   UNL     1       9.647 -19.308   1.928  1.00  0.00    -0.200 F 
ATOM     88  C   UNL     1       9.988 -17.363   0.631  1.00  0.00     0.200 A 
ATOM     89  F   UNL     1      10.365 -15.403  -0.631  1.00  0.00    -0.200 F 
ATOM     90  F   UNL     1       9.224 -17.865  -0.349  1.00  0.00    -0.200 F 
ENDBRANCH  56  80
BRANCH  68  91
ATOM     91  C   UNL     1      18.284 -16.879   4.429  1.00  0.00     0.064 A 
ATOM     92  C   UNL     1      19.046 -16.372   3.368  1.00  0.00     0.173 A 
ATOM     93  C   UNL     1      18.624 -18.131   4.956  1.00  0.00     0.173 A 
ATOM     94  F   UNL     1      18.744 -15.183   2.827  1.00  0.00    -0.203 F 
ATOM     95  C   UNL     1      20.114 -17.099   2.850  1.00  0.00     0.198 A 
ATOM     96  C   UNL     1      19.694 -18.854   4.437  1.00  0.00     0.198 A 
ATOM     97  F   UNL     1      17.913 -18.654   5.966  1.00  0.00    -0.203 F 
ATOM     98  F   UNL     1      20.825 -16.606   1.826  1.00  0.00    -0.200 F 
ATOM     99  C   UNL     1      20.438 -18.337   3.386  1.00  0.00     0.200 A 
ATOM    100  F   UNL     1      20.002 -20.053   4.949  1.00  0.00    -0.200 F 
ATOM    101  F   UNL     1      21.463 -19.038   2.882  1.00  0.00    -0.200 F 
ENDBRANCH  68  91
ENDBRANCH  42  43
ENDBRANCH  34  37
ENDBRANCH  32  33
ENDBRANCH  31  32
ENDBRANCH   1  31
TORSDOF 17
