REMARK SMILES CC(C)(C)c1cc(NC(=O)[C@H]2[C@@H](C(=O)NCCCCNC(=O)c3ccc(-c4c5nc(c(-c6c(F)c(F)c(F)c(F)c6F)c6ccc([nH]6)c(-c6c(F)c(F)c(F)c(F)c6F)c6nc(c(-c7c(F)c(F)c(F)c(F)c7F)c7ccc4[nH]7)C=C6)C=C5)cc3)[C@H]3C=C[C@@H]2C3)no1
REMARK SMILES IDX 17 1 16 2 15 3 13 4 14 5 12 7 11 8 89 9 86 10 88 11 90 12
REMARK SMILES IDX 87 13 9 14 8 15 10 17 7 18 5 19 6 20 92 21 91 22 2 23 1 24
REMARK SMILES IDX 3 25 4 26 18 27 19 28 20 29 21 30 22 32 23 33 24 34 85 35
REMARK SMILES IDX 25 36 84 37 26 38 27 39 28 40 78 41 29 42 83 43 77 44 79 45
REMARK SMILES IDX 30 46 82 47 76 48 75 49 31 51 63 52 43 53 62 54 44 55 47 56
REMARK SMILES IDX 61 57 80 58 45 59 46 60 60 62 81 63 48 64 32 65 33 66 41 67
REMARK SMILES IDX 34 68 35 69 39 70 42 71 36 72 37 73 40 74 38 75 64 76 65 77
REMARK SMILES IDX 73 78 66 79 67 80 71 81 74 82 68 83 69 84 72 85 70 86 49 87
REMARK SMILES IDX 50 88 58 89 51 90 52 91 56 92 59 93 53 94 54 95 57 96 55 97
REMARK H PARENT 15 6 8 16 20 31 79 50 47 61
REMARK Flexibility Score: inf
ROOT
ATOM      1  C   UNL     1      -0.358  10.621  -4.154  1.00  0.00     0.023 C 
ENDROOT
BRANCH   1   2
ATOM      2  C   UNL     1       0.320   9.254  -4.116  1.00  0.00     0.116 C 
BRANCH   2   3
ATOM      3  N   UNL     1      -0.330   8.237  -4.903  1.00  0.00    -0.356 N 
ATOM      4  C   UNL     1       0.128   7.088  -5.451  1.00  0.00     0.224 C 
ATOM      5  O   UNL     1      -0.708   6.487  -6.137  1.00  0.00    -0.275 OA
ATOM      6  H   UNL     1      -1.284   8.410  -5.074  1.00  0.00     0.163 HD
BRANCH   4   7
ATOM      7  C   UNL     1       1.540   6.505  -5.323  1.00  0.00     0.098 C 
ATOM      8  C   UNL     1       1.701   5.157  -4.512  1.00  0.00     0.099 C 
ATOM      9  C   UNL     1       2.989   5.421  -3.697  1.00  0.00     0.025 C 
ATOM     10  C   UNL     1       2.793   7.317  -4.904  1.00  0.00     0.025 C 
ATOM     11  C   UNL     1       2.876   6.580  -2.736  1.00  0.00    -0.027 C 
ATOM     12  C   UNL     1       3.818   6.173  -4.764  1.00  0.00     0.017 C 
ATOM     13  C   UNL     1       2.789   7.703  -3.450  1.00  0.00    -0.027 C 
BRANCH   8  14
ATOM     14  C   UNL     1       0.402   4.534  -3.986  1.00  0.00     0.230 C 
ATOM     15  N   UNL     1      -0.095   4.712  -2.742  1.00  0.00    -0.308 N 
ATOM     16  H   UNL     1      -1.072   4.817  -2.687  1.00  0.00     0.171 HD
ATOM     17  O   UNL     1      -0.343   3.952  -4.787  1.00  0.00    -0.274 OA
BRANCH  15  18
ATOM     18  C   UNL     1       0.571   4.766  -1.548  1.00  0.00     0.176 A 
ATOM     19  C   UNL     1       1.116   5.428   0.476  1.00  0.00     0.144 A 
ATOM     20  C   UNL     1       0.051   5.390  -0.395  1.00  0.00     0.096 A 
ATOM     21  O   UNL     1       2.119   4.661  -0.034  1.00  0.00    -0.359 OA
ATOM     22  N   UNL     1       1.764   4.223  -1.297  1.00  0.00    -0.062 NA
BRANCH  19  23
ATOM     23  C   UNL     1       1.397   6.215   1.725  1.00  0.00     0.023 C 
ATOM     24  C   UNL     1       2.688   5.748   2.419  1.00  0.00     0.019 C 
ATOM     25  C   UNL     1       0.224   6.080   2.708  1.00  0.00     0.019 C 
ATOM     26  C   UNL     1       1.562   7.698   1.331  1.00  0.00     0.019 C 
ENDBRANCH  19  23
ENDBRANCH  15  18
ENDBRANCH   8  14
ENDBRANCH   4   7
ENDBRANCH   2   3
ENDBRANCH   1   2
BRANCH   1  27
ATOM     27  C   UNL     1      -1.794  10.686  -3.644  1.00  0.00     0.023 C 
BRANCH  27  28
ATOM     28  C   UNL     1      -2.031  10.099  -2.258  1.00  0.00     0.116 C 
BRANCH  28  29
ATOM     29  N   UNL     1      -1.320  10.804  -1.201  1.00  0.00    -0.352 N 
ATOM     30  C   UNL     1      -1.789  11.601  -0.181  1.00  0.00     0.251 C 
ATOM     31  H   UNL     1      -0.342  10.693  -1.219  1.00  0.00     0.163 HD
ATOM     32  O   UNL     1      -1.000  12.205   0.535  1.00  0.00    -0.269 OA
BRANCH  30  33
ATOM     33  C   UNL     1      -3.245  11.761   0.036  1.00  0.00     0.039 A 
ATOM     34  C   UNL     1      -3.760  13.041   0.265  1.00  0.00     0.014 A 
ATOM     35  C   UNL     1      -4.104  10.662   0.010  1.00  0.00     0.014 A 
ATOM     36  C   UNL     1      -5.143  13.226   0.364  1.00  0.00     0.010 A 
ATOM     37  C   UNL     1      -5.481  10.858   0.011  1.00  0.00     0.010 A 
ATOM     38  C   UNL     1      -6.018  12.143   0.183  1.00  0.00    -0.014 A 
BRANCH  38  39
ATOM     39  C   UNL     1      -7.494  12.328   0.159  1.00  0.00     0.031 A 
ATOM     40  C   UNL     1      -8.361  11.635   1.174  1.00  0.00     0.074 A 
ATOM     41  C   UNL     1      -8.062  13.051  -0.827  1.00  0.00     0.049 A 
ATOM     42  N   UNL     1      -9.667  11.590   1.259  1.00  0.00    -0.248 NA
ATOM     43  C   UNL     1      -7.667  10.860   2.216  1.00  0.00     0.031 C 
ATOM     44  C   UNL     1      -7.339  13.729  -1.905  1.00  0.00     0.029 A 
ATOM     45  N   UNL     1      -9.382  13.323  -1.093  1.00  0.00    -0.354 N 
ATOM     46  C   UNL     1      -9.948  10.771   2.345  1.00  0.00     0.074 A 
ATOM     47  C   UNL     1      -8.681  10.293   2.853  1.00  0.00     0.031 C 
ATOM     48  C   UNL     1      -8.220  14.358  -2.698  1.00  0.00     0.029 A 
ATOM     49  C   UNL     1      -9.572  14.094  -2.214  1.00  0.00     0.049 A 
ATOM     50  H   UNL     1     -10.122  12.996  -0.532  1.00  0.00     0.167 HD
ATOM     51  C   UNL     1     -11.152  10.467   2.886  1.00  0.00     0.037 A 
ATOM     52  C   UNL     1     -10.707  14.531  -2.793  1.00  0.00     0.037 A 
ATOM     53  C   UNL     1     -12.409  10.967   2.398  1.00  0.00     0.049 A 
ATOM     54  C   UNL     1     -12.032  14.175  -2.173  1.00  0.00     0.074 A 
ATOM     55  C   UNL     1     -13.677  10.769   2.916  1.00  0.00     0.029 A 
ATOM     56  N   UNL     1     -12.558  11.766   1.273  1.00  0.00    -0.354 N 
ATOM     57  N   UNL     1     -12.280  13.459  -1.104  1.00  0.00    -0.248 NA
ATOM     58  C   UNL     1     -13.235  14.693  -2.840  1.00  0.00     0.031 C 
ATOM     59  C   UNL     1     -14.598  11.407   2.079  1.00  0.00     0.029 A 
ATOM     60  C   UNL     1     -13.899  12.050   1.069  1.00  0.00     0.049 A 
ATOM     61  H   UNL     1     -11.820  12.084   0.704  1.00  0.00     0.167 HD
ATOM     62  C   UNL     1     -13.660  13.467  -0.951  1.00  0.00     0.074 A 
ATOM     63  C   UNL     1     -14.195  14.271  -2.030  1.00  0.00     0.031 C 
ATOM     64  C   UNL     1     -14.416  12.861  -0.003  1.00  0.00     0.037 A 
BRANCH  51  65
ATOM     65  C   UNL     1     -11.165   9.553   4.078  1.00  0.00     0.064 A 
ATOM     66  C   UNL     1     -10.665   9.960   5.324  1.00  0.00     0.173 A 
ATOM     67  C   UNL     1     -11.717   8.266   3.983  1.00  0.00     0.173 A 
ATOM     68  F   UNL     1     -10.115  11.175   5.467  1.00  0.00    -0.203 F 
ATOM     69  C   UNL     1     -10.686   9.102   6.421  1.00  0.00     0.198 A 
ATOM     70  C   UNL     1     -11.767   7.423   5.091  1.00  0.00     0.198 A 
ATOM     71  F   UNL     1     -12.216   7.827   2.818  1.00  0.00    -0.203 F 
ATOM     72  F   UNL     1     -10.152   9.495   7.586  1.00  0.00    -0.200 F 
ATOM     73  C   UNL     1     -11.244   7.838   6.306  1.00  0.00     0.200 A 
ATOM     74  F   UNL     1     -12.319   6.207   4.981  1.00  0.00    -0.200 F 
ATOM     75  F   UNL     1     -11.270   7.017   7.364  1.00  0.00    -0.200 F 
ENDBRANCH  51  65
BRANCH  52  76
ATOM     76  C   UNL     1     -10.643  15.376  -4.014  1.00  0.00     0.064 A 
ATOM     77  C   UNL     1     -11.011  16.729  -3.972  1.00  0.00     0.173 A 
ATOM     78  C   UNL     1     -10.225  14.853  -5.247  1.00  0.00     0.173 A 
ATOM     79  F   UNL     1     -11.438  17.270  -2.821  1.00  0.00    -0.203 F 
ATOM     80  C   UNL     1     -10.985  17.519  -5.119  1.00  0.00     0.198 A 
ATOM     81  C   UNL     1     -10.171  15.653  -6.387  1.00  0.00     0.198 A 
ATOM     82  F   UNL     1      -9.857  13.567  -5.341  1.00  0.00    -0.203 F 
ATOM     83  F   UNL     1     -11.389  18.796  -5.059  1.00  0.00    -0.200 F 
ATOM     84  C   UNL     1     -10.560  16.982  -6.324  1.00  0.00     0.200 A 
ATOM     85  F   UNL     1      -9.745  15.134  -7.547  1.00  0.00    -0.200 F 
ATOM     86  F   UNL     1     -10.532  17.744  -7.427  1.00  0.00    -0.200 F 
ENDBRANCH  52  76
BRANCH  64  87
ATOM     87  C   UNL     1     -15.901  13.077  -0.062  1.00  0.00     0.064 A 
ATOM     88  C   UNL     1     -16.694  12.490  -1.059  1.00  0.00     0.173 A 
ATOM     89  C   UNL     1     -16.544  13.850   0.918  1.00  0.00     0.173 A 
ATOM     90  F   UNL     1     -16.126  11.755  -2.027  1.00  0.00    -0.203 F 
ATOM     91  C   UNL     1     -18.072  12.688  -1.087  1.00  0.00     0.198 A 
ATOM     92  C   UNL     1     -17.925  14.020   0.905  1.00  0.00     0.198 A 
ATOM     93  F   UNL     1     -15.832  14.428   1.897  1.00  0.00    -0.203 F 
ATOM     94  F   UNL     1     -18.803  12.157  -2.076  1.00  0.00    -0.200 F 
ATOM     95  C   UNL     1     -18.687  13.446  -0.101  1.00  0.00     0.200 A 
ATOM     96  F   UNL     1     -18.519  14.739   1.867  1.00  0.00    -0.200 F 
ATOM     97  F   UNL     1     -20.014  13.628  -0.125  1.00  0.00    -0.200 F 
ENDBRANCH  64  87
ENDBRANCH  38  39
ENDBRANCH  30  33
ENDBRANCH  28  29
ENDBRANCH  27  28
ENDBRANCH   1  27
TORSDOF 14
