REMARK SMILES CCC1C[NH+]([C@@H](Cc2c[nH]c3ccccc23)C(=O)NCCCCNC(=O)c2ccc(-c3c4nc(c(-c5c(F)c(F)c(F)c(F)c5F)c5ccc([nH]5)c(-c5c(F)c(F)c(F)c(F)c5F)c5nc(c(-c6c(F)c(F)c(F)c(F)c6F)c6ccc3[nH]6)C=C5)C=C4)cc2)C1
REMARK SMILES IDX 21 1 20 2 19 3 17 4 18 5 6 7 5 8 3 9 4 10 90 11 2 13 1 14
REMARK SMILES IDX 7 15 8 16 9 17 16 18 10 19 11 20 15 21 12 23 14 24 13 25
REMARK SMILES IDX 22 26 23 27 24 28 25 29 26 31 27 32 28 33 89 34 29 35 88 36
REMARK SMILES IDX 30 37 31 38 32 39 82 40 33 41 87 42 81 43 83 44 34 45 86 46
REMARK SMILES IDX 80 47 79 48 35 50 67 51 47 52 66 53 48 54 51 55 65 56 84 57
REMARK SMILES IDX 49 58 50 59 64 61 85 62 52 63 36 64 37 65 45 66 38 67 39 68
REMARK SMILES IDX 43 69 46 70 40 71 41 72 44 73 42 74 68 75 69 76 77 77 70 78
REMARK SMILES IDX 71 79 75 80 78 81 72 82 73 83 76 84 74 85 53 86 54 87 62 88
REMARK SMILES IDX 55 89 56 90 60 91 63 92 57 93 58 94 61 95 59 96
REMARK H PARENT 19 6 5 12 10 22 24 30 83 49 51 60
REMARK Flexibility Score: inf
ROOT
ATOM      1  C   UNL     1       1.778   3.489  -1.234  1.00  0.00     0.023 C 
ENDROOT
BRANCH   1   2
ATOM      2  C   UNL     1       2.598   3.433   0.053  1.00  0.00     0.116 C 
BRANCH   2   3
ATOM      3  N   UNL     1       2.434   4.598   0.892  1.00  0.00    -0.351 N 
ATOM      4  C   UNL     1       2.115   4.703   2.215  1.00  0.00     0.278 C 
ATOM      5  O   UNL     1       2.145   5.855   2.672  1.00  0.00    -0.268 OA
ATOM      6  H   UNL     1       2.576   5.457   0.434  1.00  0.00     0.163 HD
BRANCH   4   7
ATOM      7  C   UNL     1       1.747   3.503   3.135  1.00  0.00     0.278 C 
BRANCH   7   8
ATOM      8  N   UNL     1       0.297   3.102   3.048  1.00  0.00    -0.324 N 
ATOM      9  C   UNL     1       0.186   1.315   1.925  1.00  0.00     0.099 C 
ATOM     10  C   UNL     1      -0.237   2.781   1.704  1.00  0.00     0.272 C 
ATOM     11  C   UNL     1       0.031   1.688   3.421  1.00  0.00     0.272 C 
ATOM     12  H   UNL     1      -0.073   3.894   3.574  1.00  0.00     0.348 HD
BRANCH   9  13
ATOM     13  C   UNL     1      -0.632   0.185   1.329  1.00  0.00     0.012 C 
ATOM     14  C   UNL     1      -0.218  -0.036  -0.122  1.00  0.00     0.004 C 
ENDBRANCH   9  13
ENDBRANCH   7   8
BRANCH   7  15
ATOM     15  C   UNL     1       2.950   2.627   3.629  1.00  0.00     0.113 C 
BRANCH  15  16
ATOM     16  C   UNL     1       3.666   1.695   2.694  1.00  0.00    -0.016 A 
ATOM     17  C   UNL     1       4.730   2.029   1.874  1.00  0.00     0.087 A 
ATOM     18  C   UNL     1       3.473   0.279   2.527  1.00  0.00     0.003 A 
ATOM     19  N   UNL     1       5.025   0.952   1.082  1.00  0.00    -0.361 N 
ATOM     20  C   UNL     1       4.239  -0.118   1.431  1.00  0.00     0.046 A 
ATOM     21  C   UNL     1       2.674  -0.697   3.161  1.00  0.00     0.010 A 
ATOM     22  H   UNL     1       5.702   0.945   0.368  1.00  0.00     0.166 HD
ATOM     23  C   UNL     1       4.162  -1.400   0.872  1.00  0.00     0.026 A 
ATOM     24  C   UNL     1       2.594  -1.987   2.626  1.00  0.00     0.001 A 
ATOM     25  C   UNL     1       3.310  -2.324   1.482  1.00  0.00     0.002 A 
ENDBRANCH  15  16
ENDBRANCH   7  15
ENDBRANCH   4   7
ENDBRANCH   2   3
ENDBRANCH   1   2
BRANCH   1  26
ATOM     26  C   UNL     1       2.514   4.071  -2.435  1.00  0.00     0.023 C 
BRANCH  26  27
ATOM     27  C   UNL     1       3.837   3.402  -2.788  1.00  0.00     0.116 C 
BRANCH  27  28
ATOM     28  N   UNL     1       3.761   1.958  -2.976  1.00  0.00    -0.352 N 
ATOM     29  C   UNL     1       4.480   1.196  -3.873  1.00  0.00     0.251 C 
ATOM     30  H   UNL     1       3.127   1.474  -2.399  1.00  0.00     0.163 HD
ATOM     31  O   UNL     1       4.327  -0.012  -3.963  1.00  0.00    -0.269 OA
BRANCH  29  32
ATOM     32  C   UNL     1       5.427   1.903  -4.757  1.00  0.00     0.039 A 
ATOM     33  C   UNL     1       5.188   1.919  -6.133  1.00  0.00     0.014 A 
ATOM     34  C   UNL     1       6.439   2.681  -4.191  1.00  0.00     0.014 A 
ATOM     35  C   UNL     1       5.912   2.799  -6.940  1.00  0.00     0.010 A 
ATOM     36  C   UNL     1       7.106   3.604  -4.985  1.00  0.00     0.010 A 
ATOM     37  C   UNL     1       6.836   3.684  -6.362  1.00  0.00    -0.014 A 
BRANCH  37  38
ATOM     38  C   UNL     1       7.543   4.717  -7.160  1.00  0.00     0.031 A 
ATOM     39  C   UNL     1       9.039   4.671  -7.258  1.00  0.00     0.074 A 
ATOM     40  C   UNL     1       6.860   5.752  -7.688  1.00  0.00     0.049 A 
ATOM     41  N   UNL     1       9.870   5.570  -7.718  1.00  0.00    -0.248 NA
ATOM     42  C   UNL     1       9.690   3.463  -6.727  1.00  0.00     0.031 C 
ATOM     43  C   UNL     1       5.409   5.934  -7.628  1.00  0.00     0.029 A 
ATOM     44  N   UNL     1       7.305   6.864  -8.361  1.00  0.00    -0.354 N 
ATOM     45  C   UNL     1      11.139   5.057  -7.489  1.00  0.00     0.074 A 
ATOM     46  C   UNL     1      10.971   3.784  -6.822  1.00  0.00     0.031 C 
ATOM     47  C   UNL     1       5.083   7.080  -8.250  1.00  0.00     0.029 A 
ATOM     48  C   UNL     1       6.303   7.734  -8.713  1.00  0.00     0.049 A 
ATOM     49  H   UNL     1       8.254   7.022  -8.570  1.00  0.00     0.167 HD
ATOM     50  C   UNL     1      12.337   5.594  -7.821  1.00  0.00     0.037 A 
ATOM     51  C   UNL     1       6.365   8.931  -9.328  1.00  0.00     0.037 A 
ATOM     52  C   UNL     1      12.498   6.832  -8.533  1.00  0.00     0.049 A 
ATOM     53  C   UNL     1       7.707   9.486  -9.723  1.00  0.00     0.074 A 
ATOM     54  C   UNL     1      13.667   7.435  -8.964  1.00  0.00     0.029 A 
ATOM     55  N   UNL     1      11.453   7.650  -8.933  1.00  0.00    -0.354 N 
ATOM     56  N   UNL     1       8.900   8.979  -9.531  1.00  0.00    -0.248 NA
ATOM     57  C   UNL     1       7.712  10.781 -10.421  1.00  0.00     0.031 C 
ATOM     58  C   UNL     1      13.329   8.629  -9.609  1.00  0.00     0.029 A 
ATOM     59  C   UNL     1      11.949   8.753  -9.608  1.00  0.00     0.049 A 
ATOM     60  H   UNL     1      10.499   7.474  -8.762  1.00  0.00     0.167 HD
ATOM     61  C   UNL     1       9.792   9.870 -10.112  1.00  0.00     0.074 A 
ATOM     62  C   UNL     1       9.004  10.951 -10.665  1.00  0.00     0.031 C 
ATOM     63  C   UNL     1      11.143   9.799 -10.180  1.00  0.00     0.037 A 
BRANCH  50  64
ATOM     64  C   UNL     1      13.565   4.836  -7.416  1.00  0.00     0.064 A 
ATOM     65  C   UNL     1      13.926   3.635  -8.044  1.00  0.00     0.173 A 
ATOM     66  C   UNL     1      14.397   5.322  -6.397  1.00  0.00     0.173 A 
ATOM     67  F   UNL     1      13.152   3.120  -9.011  1.00  0.00    -0.203 F 
ATOM     68  C   UNL     1      15.058   2.931  -7.644  1.00  0.00     0.198 A 
ATOM     69  C   UNL     1      15.544   4.631  -6.019  1.00  0.00     0.198 A 
ATOM     70  F   UNL     1      14.097   6.468  -5.767  1.00  0.00    -0.203 F 
ATOM     71  F   UNL     1      15.353   1.757  -8.220  1.00  0.00    -0.200 F 
ATOM     72  C   UNL     1      15.869   3.432  -6.636  1.00  0.00     0.200 A 
ATOM     73  F   UNL     1      16.332   5.120  -5.051  1.00  0.00    -0.200 F 
ATOM     74  F   UNL     1      16.959   2.753  -6.252  1.00  0.00    -0.200 F 
ENDBRANCH  50  64
BRANCH  51  75
ATOM     75  C   UNL     1       5.118   9.677  -9.635  1.00  0.00     0.064 A 
ATOM     76  C   UNL     1       4.658   9.783 -10.955  1.00  0.00     0.173 A 
ATOM     77  C   UNL     1       4.368  10.301  -8.628  1.00  0.00     0.173 A 
ATOM     78  F   UNL     1       5.355   9.221 -11.953  1.00  0.00    -0.203 F 
ATOM     79  C   UNL     1       3.504  10.502 -11.259  1.00  0.00     0.198 A 
ATOM     80  C   UNL     1       3.201  11.000  -8.931  1.00  0.00     0.198 A 
ATOM     81  F   UNL     1       4.765  10.224  -7.350  1.00  0.00    -0.203 F 
ATOM     82  F   UNL     1       3.109  10.622 -12.534  1.00  0.00    -0.200 F 
ATOM     83  C   UNL     1       2.774  11.106 -10.247  1.00  0.00     0.200 A 
ATOM     84  F   UNL     1       2.492  11.574  -7.950  1.00  0.00    -0.200 F 
ATOM     85  F   UNL     1       1.663  11.796 -10.540  1.00  0.00    -0.200 F 
ENDBRANCH  51  75
BRANCH  63  86
ATOM     86  C   UNL     1      11.856  10.884 -10.928  1.00  0.00     0.064 A 
ATOM     87  C   UNL     1      12.048  12.156 -10.372  1.00  0.00     0.173 A 
ATOM     88  C   UNL     1      12.411  10.622 -12.189  1.00  0.00     0.173 A 
ATOM     89  F   UNL     1      11.522  12.456  -9.175  1.00  0.00    -0.203 F 
ATOM     90  C   UNL     1      12.765  13.132 -11.058  1.00  0.00     0.198 A 
ATOM     91  C   UNL     1      13.145  11.593 -12.862  1.00  0.00     0.198 A 
ATOM     92  F   UNL     1      12.257   9.417 -12.758  1.00  0.00    -0.203 F 
ATOM     93  F   UNL     1      12.915  14.351 -10.522  1.00  0.00    -0.200 F 
ATOM     94  C   UNL     1      13.320  12.848 -12.298  1.00  0.00     0.200 A 
ATOM     95  F   UNL     1      13.689  11.313 -14.055  1.00  0.00    -0.200 F 
ATOM     96  F   UNL     1      14.020  13.785 -12.950  1.00  0.00    -0.200 F 
ENDBRANCH  63  86
ENDBRANCH  37  38
ENDBRANCH  29  32
ENDBRANCH  27  28
ENDBRANCH  26  27
ENDBRANCH   1  26
TORSDOF 15
