REMARK SMILES CC(C)(C)c1cc(Nc2ccccc2C(=O)NCCCCNC(=O)c2ccc(-c3c4nc(c(-c5c(F)c(F)c(F)c(F)c5F)c5ccc([nH]5)c(-c5c(F)c(F)c(F)c(F)c5F)c5nc(c(-c6c(F)c(F)c(F)c(F)c6F)c6ccc3[nH]6)C=C5)C=C4)cc2)cc2c1OCC2(C)C
REMARK SMILES IDX 19 1 18 2 17 3 15 4 16 5 14 7 9 8 10 9 11 10 13 11 12 12
REMARK SMILES IDX 8 13 7 15 5 16 6 17 90 18 89 19 91 20 88 21 93 22 92 23
REMARK SMILES IDX 94 24 95 25 2 26 1 27 3 28 4 29 20 30 21 31 22 32 23 33
REMARK SMILES IDX 24 35 25 36 26 37 87 38 27 39 86 40 28 41 29 42 30 43 80 44
REMARK SMILES IDX 31 45 85 46 79 47 81 48 32 49 84 50 78 51 77 52 33 54 65 55
REMARK SMILES IDX 45 56 64 57 46 58 49 59 63 60 82 61 47 62 48 63 62 65 83 66
REMARK SMILES IDX 50 67 34 68 35 69 43 70 36 71 37 72 41 73 44 74 38 75 39 76
REMARK SMILES IDX 42 77 40 78 66 79 67 80 75 81 68 82 69 83 73 84 76 85 70 86
REMARK SMILES IDX 71 87 74 88 72 89 51 90 52 91 60 92 53 93 54 94 58 95 61 96
REMARK SMILES IDX 55 97 56 98 59 99 57 100
REMARK H PARENT 17 6 8 14 22 34 81 53 49 64
REMARK Flexibility Score: inf
ROOT
ATOM      1  C   UNL     1       1.169  -1.821   5.256  1.00  0.00     0.023 C 
ENDROOT
BRANCH   1   2
ATOM      2  C   UNL     1       2.382  -2.672   4.942  1.00  0.00     0.116 C 
BRANCH   2   3
ATOM      3  N   UNL     1       3.226  -3.085   6.020  1.00  0.00    -0.352 N 
ATOM      4  C   UNL     1       4.154  -4.100   6.012  1.00  0.00     0.253 C 
ATOM      5  O   UNL     1       4.840  -4.218   7.032  1.00  0.00    -0.269 OA
ATOM      6  H   UNL     1       3.132  -2.586   6.864  1.00  0.00     0.163 HD
BRANCH   4   7
ATOM      7  C   UNL     1       4.335  -5.112   4.909  1.00  0.00     0.063 A 
ATOM      8  C   UNL     1       4.310  -4.953   3.502  1.00  0.00     0.051 A 
ATOM      9  C   UNL     1       4.657  -6.066   2.694  1.00  0.00     0.027 A 
ATOM     10  C   UNL     1       4.903  -7.329   3.227  1.00  0.00     0.002 A 
ATOM     11  C   UNL     1       4.596  -6.410   5.423  1.00  0.00     0.016 A 
ATOM     12  C   UNL     1       4.851  -7.507   4.597  1.00  0.00     0.001 A 
BRANCH   8  13
ATOM     13  N   UNL     1       3.914  -3.787   2.797  1.00  0.00    -0.355 N 
ATOM     14  H   UNL     1       4.513  -3.008   2.845  1.00  0.00     0.167 HD
BRANCH  13  15
ATOM     15  C   UNL     1       2.724  -3.647   2.026  1.00  0.00     0.039 A 
ATOM     16  C   UNL     1       0.931  -2.171   1.088  1.00  0.00     0.002 A 
ATOM     17  C   UNL     1       2.240  -2.371   1.628  1.00  0.00     0.034 A 
ATOM     18  C   UNL     1       0.196  -3.331   0.858  1.00  0.00     0.127 A 
ATOM     19  C   UNL     1       0.660  -4.582   1.215  1.00  0.00     0.006 A 
ATOM     20  O   UNL     1      -1.039  -3.380   0.272  1.00  0.00    -0.492 OA
ATOM     21  C   UNL     1       1.891  -4.748   1.818  1.00  0.00     0.034 A 
ATOM     22  C   UNL     1      -0.323  -5.643   0.865  1.00  0.00     0.028 C 
ATOM     23  C   UNL     1      -1.407  -4.775   0.202  1.00  0.00     0.240 C 
ATOM     24  C   UNL     1       0.296  -6.636  -0.122  1.00  0.00     0.020 C 
ATOM     25  C   UNL     1      -0.856  -6.366   2.105  1.00  0.00     0.020 C 
BRANCH  16  26
ATOM     26  C   UNL     1       0.360  -0.768   0.782  1.00  0.00    -0.009 C 
ATOM     27  C   UNL     1       0.819  -0.335  -0.620  1.00  0.00     0.016 C 
ATOM     28  C   UNL     1       0.860   0.279   1.787  1.00  0.00     0.016 C 
ATOM     29  C   UNL     1      -1.185  -0.668   0.852  1.00  0.00     0.016 C 
ENDBRANCH  16  26
ENDBRANCH  13  15
ENDBRANCH   8  13
ENDBRANCH   4   7
ENDBRANCH   2   3
ENDBRANCH   1   2
BRANCH   1  30
ATOM     30  C   UNL     1       1.401  -0.436   5.856  1.00  0.00     0.023 C 
BRANCH  30  31
ATOM     31  C   UNL     1       2.741   0.249   5.598  1.00  0.00     0.116 C 
BRANCH  31  32
ATOM     32  N   UNL     1       2.949   0.787   4.256  1.00  0.00    -0.352 N 
ATOM     33  C   UNL     1       2.759   2.052   3.740  1.00  0.00     0.251 C 
ATOM     34  H   UNL     1       3.285   0.130   3.604  1.00  0.00     0.163 HD
ATOM     35  O   UNL     1       3.064   2.317   2.579  1.00  0.00    -0.269 OA
BRANCH  33  36
ATOM     36  C   UNL     1       2.163   3.103   4.572  1.00  0.00     0.039 A 
ATOM     37  C   UNL     1       2.701   3.338   5.827  1.00  0.00     0.014 A 
ATOM     38  C   UNL     1       1.085   3.868   4.106  1.00  0.00     0.014 A 
ATOM     39  C   UNL     1       2.028   4.158   6.707  1.00  0.00     0.010 A 
ATOM     40  C   UNL     1       0.501   4.822   4.948  1.00  0.00     0.010 A 
ATOM     41  C   UNL     1       0.946   4.944   6.270  1.00  0.00    -0.014 A 
BRANCH  41  42
ATOM     42  C   UNL     1       0.407   5.923   7.246  1.00  0.00     0.031 A 
ATOM     43  C   UNL     1      -0.979   5.799   7.798  1.00  0.00     0.074 A 
ATOM     44  C   UNL     1       1.281   6.814   7.760  1.00  0.00     0.049 A 
ATOM     45  N   UNL     1      -1.496   6.392   8.844  1.00  0.00    -0.248 NA
ATOM     46  C   UNL     1      -1.912   4.907   7.094  1.00  0.00     0.031 C 
ATOM     47  C   UNL     1       2.649   7.011   7.269  1.00  0.00     0.029 A 
ATOM     48  N   UNL     1       1.202   7.635   8.854  1.00  0.00    -0.354 N 
ATOM     49  C   UNL     1      -2.808   5.948   8.923  1.00  0.00     0.074 A 
ATOM     50  C   UNL     1      -3.025   5.066   7.798  1.00  0.00     0.031 C 
ATOM     51  C   UNL     1       3.320   7.780   8.135  1.00  0.00     0.029 A 
ATOM     52  C   UNL     1       2.408   8.208   9.187  1.00  0.00     0.049 A 
ATOM     53  H   UNL     1       0.368   7.798   9.351  1.00  0.00     0.167 HD
ATOM     54  C   UNL     1      -3.734   6.246   9.864  1.00  0.00     0.037 A 
ATOM     55  C   UNL     1       2.748   8.984  10.233  1.00  0.00     0.037 A 
ATOM     56  C   UNL     1      -3.488   7.117  10.984  1.00  0.00     0.049 A 
ATOM     57  C   UNL     1       1.692   9.315  11.246  1.00  0.00     0.074 A 
ATOM     58  C   UNL     1      -4.354   7.476  12.002  1.00  0.00     0.029 A 
ATOM     59  N   UNL     1      -2.287   7.768  11.231  1.00  0.00    -0.354 N 
ATOM     60  N   UNL     1       0.464   8.863  11.330  1.00  0.00    -0.248 NA
ATOM     61  C   UNL     1       2.054  10.276  12.294  1.00  0.00     0.031 C 
ATOM     62  C   UNL     1      -3.695   8.385  12.833  1.00  0.00     0.029 A 
ATOM     63  C   UNL     1      -2.400   8.550  12.369  1.00  0.00     0.049 A 
ATOM     64  H   UNL     1      -1.475   7.686  10.680  1.00  0.00     0.167 HD
ATOM     65  C   UNL     1      -0.094   9.480  12.438  1.00  0.00     0.074 A 
ATOM     66  C   UNL     1       0.939  10.319  13.012  1.00  0.00     0.031 C 
ATOM     67  C   UNL     1      -1.353   9.371  12.926  1.00  0.00     0.037 A 
BRANCH  54  68
ATOM     68  C   UNL     1      -5.100   5.637   9.732  1.00  0.00     0.064 A 
ATOM     69  C   UNL     1      -5.323   4.273   9.971  1.00  0.00     0.173 A 
ATOM     70  C   UNL     1      -6.213   6.442   9.445  1.00  0.00     0.173 A 
ATOM     71  F   UNL     1      -4.293   3.457  10.242  1.00  0.00    -0.203 F 
ATOM     72  C   UNL     1      -6.608   3.736   9.916  1.00  0.00     0.198 A 
ATOM     73  C   UNL     1      -7.499   5.908   9.418  1.00  0.00     0.198 A 
ATOM     74  F   UNL     1      -6.057   7.755   9.216  1.00  0.00    -0.203 F 
ATOM     75  F   UNL     1      -6.793   2.425  10.119  1.00  0.00    -0.200 F 
ATOM     76  C   UNL     1      -7.695   4.555   9.650  1.00  0.00     0.200 A 
ATOM     77  F   UNL     1      -8.550   6.704   9.177  1.00  0.00    -0.200 F 
ATOM     78  F   UNL     1      -8.932   4.040   9.616  1.00  0.00    -0.200 F 
ENDBRANCH  54  68
BRANCH  55  79
ATOM     79  C   UNL     1       4.143   9.482  10.359  1.00  0.00     0.064 A 
ATOM     80  C   UNL     1       4.974   9.065  11.408  1.00  0.00     0.173 A 
ATOM     81  C   UNL     1       4.693  10.349   9.401  1.00  0.00     0.173 A 
ATOM     82  F   UNL     1       4.495   8.248  12.358  1.00  0.00    -0.203 F 
ATOM     83  C   UNL     1       6.297   9.496  11.493  1.00  0.00     0.198 A 
ATOM     84  C   UNL     1       6.025  10.751   9.467  1.00  0.00     0.198 A 
ATOM     85  F   UNL     1       3.944  10.775   8.373  1.00  0.00    -0.203 F 
ATOM     86  F   UNL     1       7.062   9.105  12.522  1.00  0.00    -0.200 F 
ATOM     87  C   UNL     1       6.825  10.328  10.517  1.00  0.00     0.200 A 
ATOM     88  F   UNL     1       6.534  11.534   8.507  1.00  0.00    -0.200 F 
ATOM     89  F   UNL     1       8.103  10.724  10.588  1.00  0.00    -0.200 F 
ENDBRANCH  55  79
BRANCH  67  90
ATOM     90  C   UNL     1      -1.696  10.171  14.145  1.00  0.00     0.064 A 
ATOM     91  C   UNL     1      -1.911  11.554  14.069  1.00  0.00     0.173 A 
ATOM     92  C   UNL     1      -1.930   9.531  15.371  1.00  0.00     0.173 A 
ATOM     93  F   UNL     1      -1.686  12.210  12.920  1.00  0.00    -0.203 F 
ATOM     94  C   UNL     1      -2.353  12.269  15.178  1.00  0.00     0.198 A 
ATOM     95  C   UNL     1      -2.399  10.244  16.470  1.00  0.00     0.198 A 
ATOM     96  F   UNL     1      -1.744   8.208  15.490  1.00  0.00    -0.203 F 
ATOM     97  F   UNL     1      -2.538  13.593  15.088  1.00  0.00    -0.200 F 
ATOM     98  C   UNL     1      -2.611  11.611  16.372  1.00  0.00     0.200 A 
ATOM     99  F   UNL     1      -2.665   9.605  17.617  1.00  0.00    -0.200 F 
ATOM    100  F   UNL     1      -3.069  12.296  17.429  1.00  0.00    -0.200 F 
ENDBRANCH  67  90
ENDBRANCH  41  42
ENDBRANCH  33  36
ENDBRANCH  31  32
ENDBRANCH  30  31
ENDBRANCH   1  30
TORSDOF 14
