REMARK SMILES O=C(Cc1ccn(-c2ccccc2F)c1)NCCCCNC(=O)c1ccc(-c2c3nc(c(-c4c(F)c(F)c(F)c(F)c4F)c4ccc([nH]4)c(-c4c(F)c(F)c(F)c(F)c4F)c4nc(c(-c5c(F)c(F)c(F)c(F)c5F)c5ccc2[nH]5)C=C4)C=C3)cc1
REMARK SMILES IDX 18 1 17 2 16 3 1 4 2 5 3 7 4 8 5 9 15 10 6 11 7 12 8 13 9 14
REMARK SMILES IDX 13 15 10 16 12 17 14 18 11 19 19 20 20 21 21 22 22 23 23 25
REMARK SMILES IDX 24 26 25 27 86 28 26 29 85 30 27 31 28 32 29 33 79 34 30 35
REMARK SMILES IDX 84 36 78 37 80 38 31 39 83 40 77 41 76 42 32 44 64 45 44 46
REMARK SMILES IDX 63 47 45 48 48 49 62 50 81 51 46 52 47 53 61 55 82 56 49 57
REMARK SMILES IDX 33 58 34 59 42 60 35 61 36 62 40 63 43 64 37 65 38 66 41 67
REMARK SMILES IDX 39 68 65 69 66 70 74 71 67 72 68 73 72 74 75 75 69 76 70 77
REMARK SMILES IDX 73 78 71 79 50 80 51 81 59 82 52 83 53 84 57 85 60 86 54 87
REMARK SMILES IDX 55 88 58 89 56 90
REMARK H PARENT 16 6 21 24 80 43 48 54
REMARK Flexibility Score: inf
ROOT
ATOM      1  C   UNL     1       2.357   2.254   2.863  1.00  0.00     0.023 C 
ENDROOT
BRANCH   1   2
ATOM      2  C   UNL     1       2.021   2.131   1.377  1.00  0.00     0.116 C 
BRANCH   2   3
ATOM      3  N   UNL     1       2.687   1.004   0.755  1.00  0.00    -0.356 N 
ATOM      4  O   UNL     1       0.776  -0.018  -0.011  1.00  0.00    -0.275 OA
ATOM      5  C   UNL     1       2.001   0.023   0.062  1.00  0.00     0.224 C 
ATOM      6  H   UNL     1       3.666   0.934   0.829  1.00  0.00     0.163 HD
BRANCH   5   7
ATOM      7  C   UNL     1       2.889  -1.043  -0.559  1.00  0.00     0.137 C 
BRANCH   7   8
ATOM      8  C   UNL     1       3.749  -0.569  -1.697  1.00  0.00    -0.021 A 
ATOM      9  C   UNL     1       4.088   0.758  -2.079  1.00  0.00     0.024 A 
ATOM     10  C   UNL     1       4.399  -1.397  -2.599  1.00  0.00     0.095 A 
ATOM     11  C   UNL     1       5.000   0.684  -3.107  1.00  0.00     0.091 A 
ATOM     12  N   UNL     1       5.168  -0.638  -3.457  1.00  0.00    -0.321 N 
BRANCH  12  13
ATOM     13  C   UNL     1       6.001  -1.119  -4.492  1.00  0.00     0.081 A 
ATOM     14  C   UNL     1       7.223  -0.483  -4.754  1.00  0.00     0.030 A 
ATOM     15  C   UNL     1       5.611  -2.213  -5.265  1.00  0.00     0.147 A 
ATOM     16  C   UNL     1       8.048  -0.961  -5.775  1.00  0.00     0.002 A 
ATOM     17  C   UNL     1       6.415  -2.660  -6.311  1.00  0.00     0.041 A 
ATOM     18  F   UNL     1       4.426  -2.812  -5.080  1.00  0.00    -0.205 F 
ATOM     19  C   UNL     1       7.639  -2.039  -6.562  1.00  0.00     0.003 A 
ENDBRANCH  12  13
ENDBRANCH   7   8
ENDBRANCH   5   7
ENDBRANCH   2   3
ENDBRANCH   1   2
BRANCH   1  20
ATOM     20  C   UNL     1       3.843   2.470   3.187  1.00  0.00     0.023 C 
BRANCH  20  21
ATOM     21  C   UNL     1       4.424   3.765   2.630  1.00  0.00     0.116 C 
BRANCH  21  22
ATOM     22  N   UNL     1       3.838   4.940   3.256  1.00  0.00    -0.352 N 
ATOM     23  C   UNL     1       4.197   6.260   3.108  1.00  0.00     0.251 C 
ATOM     24  H   UNL     1       3.086   4.768   3.867  1.00  0.00     0.163 HD
ATOM     25  O   UNL     1       3.870   7.087   3.946  1.00  0.00    -0.269 OA
BRANCH  23  26
ATOM     26  C   UNL     1       4.984   6.682   1.932  1.00  0.00     0.039 A 
ATOM     27  C   UNL     1       5.970   7.664   2.091  1.00  0.00     0.014 A 
ATOM     28  C   UNL     1       4.693   6.163   0.666  1.00  0.00     0.014 A 
ATOM     29  C   UNL     1       6.702   8.082   0.987  1.00  0.00     0.010 A 
ATOM     30  C   UNL     1       5.458   6.529  -0.423  1.00  0.00     0.010 A 
ATOM     31  C   UNL     1       6.453   7.496  -0.261  1.00  0.00    -0.014 A 
BRANCH  31  32
ATOM     32  C   UNL     1       7.288   7.858  -1.418  1.00  0.00     0.031 A 
ATOM     33  C   UNL     1       8.674   7.181  -1.343  1.00  0.00     0.074 A 
ATOM     34  C   UNL     1       6.690   8.695  -2.322  1.00  0.00     0.049 A 
ATOM     35  N   UNL     1       9.833   7.594  -1.754  1.00  0.00    -0.248 NA
ATOM     36  C   UNL     1       8.801   5.873  -0.639  1.00  0.00     0.031 C 
ATOM     37  C   UNL     1       5.303   9.209  -2.207  1.00  0.00     0.029 A 
ATOM     38  N   UNL     1       7.086   9.282  -3.505  1.00  0.00    -0.354 N 
ATOM     39  C   UNL     1      10.777   6.566  -1.515  1.00  0.00     0.074 A 
ATOM     40  C   UNL     1      10.103   5.583  -0.722  1.00  0.00     0.031 C 
ATOM     41  C   UNL     1       5.016  10.073  -3.202  1.00  0.00     0.029 A 
ATOM     42  C   UNL     1       6.170  10.218  -4.062  1.00  0.00     0.049 A 
ATOM     43  H   UNL     1       7.945   9.069  -3.935  1.00  0.00     0.167 HD
ATOM     44  C   UNL     1      12.011   6.530  -2.109  1.00  0.00     0.037 A 
ATOM     45  C   UNL     1       6.368  11.101  -5.092  1.00  0.00     0.037 A 
ATOM     46  C   UNL     1      12.147   7.639  -2.992  1.00  0.00     0.049 A 
ATOM     47  C   UNL     1       7.720  10.794  -5.588  1.00  0.00     0.074 A 
ATOM     48  C   UNL     1      12.319   8.979  -2.770  1.00  0.00     0.029 A 
ATOM     49  N   UNL     1      11.693   7.451  -4.276  1.00  0.00    -0.354 N 
ATOM     50  N   UNL     1       8.057   9.718  -6.238  1.00  0.00    -0.248 NA
ATOM     51  C   UNL     1       8.815  11.682  -5.178  1.00  0.00     0.031 C 
ATOM     52  C   UNL     1      11.455   9.565  -3.720  1.00  0.00     0.029 A 
ATOM     53  C   UNL     1      11.027   8.595  -4.635  1.00  0.00     0.049 A 
ATOM     54  H   UNL     1      11.822   6.649  -4.831  1.00  0.00     0.167 HD
ATOM     55  C   UNL     1       9.414   9.663  -6.024  1.00  0.00     0.074 A 
ATOM     56  C   UNL     1       9.843  10.995  -5.660  1.00  0.00     0.031 C 
ATOM     57  C   UNL     1       9.994   8.499  -5.638  1.00  0.00     0.037 A 
BRANCH  44  58
ATOM     58  C   UNL     1      13.078   5.474  -2.216  1.00  0.00     0.064 A 
ATOM     59  C   UNL     1      12.800   4.111  -2.364  1.00  0.00     0.173 A 
ATOM     60  C   UNL     1      14.395   5.884  -2.556  1.00  0.00     0.173 A 
ATOM     61  F   UNL     1      11.580   3.624  -2.102  1.00  0.00    -0.203 F 
ATOM     62  C   UNL     1      13.749   3.230  -2.897  1.00  0.00     0.198 A 
ATOM     63  C   UNL     1      15.320   5.013  -3.130  1.00  0.00     0.198 A 
ATOM     64  F   UNL     1      14.771   7.166  -2.415  1.00  0.00    -0.203 F 
ATOM     65  F   UNL     1      13.425   1.942  -3.080  1.00  0.00    -0.200 F 
ATOM     66  C   UNL     1      14.989   3.687  -3.316  1.00  0.00     0.200 A 
ATOM     67  F   UNL     1      16.500   5.479  -3.565  1.00  0.00    -0.200 F 
ATOM     68  F   UNL     1      15.845   2.859  -3.932  1.00  0.00    -0.200 F 
ENDBRANCH  44  58
BRANCH  45  69
ATOM     69  C   UNL     1       5.690  12.346  -5.636  1.00  0.00     0.064 A 
ATOM     70  C   UNL     1       6.424  13.242  -6.466  1.00  0.00     0.173 A 
ATOM     71  C   UNL     1       4.402  12.798  -5.322  1.00  0.00     0.173 A 
ATOM     72  F   UNL     1       7.585  12.883  -7.032  1.00  0.00    -0.203 F 
ATOM     73  C   UNL     1       6.016  14.546  -6.749  1.00  0.00     0.198 A 
ATOM     74  C   UNL     1       3.961  14.094  -5.658  1.00  0.00     0.198 A 
ATOM     75  F   UNL     1       3.522  12.004  -4.705  1.00  0.00    -0.203 F 
ATOM     76  F   UNL     1       6.838  15.370  -7.414  1.00  0.00    -0.200 F 
ATOM     77  C   UNL     1       4.788  14.984  -6.321  1.00  0.00     0.200 A 
ATOM     78  F   UNL     1       2.725  14.485  -5.316  1.00  0.00    -0.200 F 
ATOM     79  F   UNL     1       4.398  16.242  -6.562  1.00  0.00    -0.200 F 
ENDBRANCH  45  69
BRANCH  57  80
ATOM     80  C   UNL     1       9.252   7.241  -6.040  1.00  0.00     0.064 A 
ATOM     81  C   UNL     1       8.599   6.382  -5.141  1.00  0.00     0.173 A 
ATOM     82  C   UNL     1       9.136   6.907  -7.396  1.00  0.00     0.173 A 
ATOM     83  F   UNL     1       8.633   6.619  -3.835  1.00  0.00    -0.203 F 
ATOM     84  C   UNL     1       7.893   5.250  -5.554  1.00  0.00     0.198 A 
ATOM     85  C   UNL     1       8.424   5.778  -7.817  1.00  0.00     0.198 A 
ATOM     86  F   UNL     1       9.736   7.668  -8.323  1.00  0.00    -0.203 F 
ATOM     87  F   UNL     1       7.312   4.449  -4.646  1.00  0.00    -0.200 F 
ATOM     88  C   UNL     1       7.808   4.947  -6.897  1.00  0.00     0.200 A 
ATOM     89  F   UNL     1       8.356   5.484  -9.123  1.00  0.00    -0.200 F 
ATOM     90  F   UNL     1       7.154   3.848  -7.300  1.00  0.00    -0.200 F 
ENDBRANCH  57  80
ENDBRANCH  31  32
ENDBRANCH  23  26
ENDBRANCH  21  22
ENDBRANCH  20  21
ENDBRANCH   1  20
TORSDOF 13
