REMARK SMILES O=C(NCCCCNC(=O)[C@H](Cc1ccccn1)[C@H]1CCS(=O)(=O)C1)c1ccc(-c2c3nc(c(-c4c(F)c(F)c(F)c(F)c4F)c4ccc([nH]4)c(-c4c(F)c(F)c(F)c(F)c4F)c4nc(c(-c5c(F)c(F)c(F)c(F)c5F)c5ccc2[nH]5)C=C4)C=C3)cc1
REMARK SMILES IDX 5 1 4 2 3 3 1 4 2 5 26 7 27 8 88 9 28 10 87 11 29 12 30 13
REMARK SMILES IDX 31 14 81 15 32 16 86 17 80 18 82 19 33 20 85 21 79 22 78 23
REMARK SMILES IDX 34 25 66 26 46 27 65 28 47 29 50 30 64 31 83 32 48 33 49 34
REMARK SMILES IDX 63 36 84 37 51 38 35 39 36 40 44 41 37 42 38 43 42 44 45 45
REMARK SMILES IDX 39 46 40 47 43 48 41 49 67 50 68 51 76 52 69 53 70 54 74 55
REMARK SMILES IDX 77 56 71 57 72 58 75 59 73 60 52 61 53 62 61 63 54 64 55 65
REMARK SMILES IDX 59 66 62 67 56 68 57 69 60 70 58 71 6 72 7 73 8 74 9 75
REMARK SMILES IDX 10 77 11 78 12 79 13 80 14 81 18 82 15 83 17 84 16 85 19 86
REMARK SMILES IDX 20 87 25 88 21 89 22 90 23 91 24 92
REMARK H PARENT 3 6 82 24 50 35 8 76
REMARK Flexibility Score: inf
ROOT
ATOM      1  C   UNL     1       3.416  -6.556   9.949  1.00  0.00     0.023 C 
ENDROOT
BRANCH   1   2
ATOM      2  C   UNL     1       4.620  -6.298  10.848  1.00  0.00     0.116 C 
BRANCH   2   3
ATOM      3  N   UNL     1       4.555  -5.002  11.502  1.00  0.00    -0.352 N 
ATOM      4  O   UNL     1       4.358  -3.557  13.220  1.00  0.00    -0.269 OA
ATOM      5  C   UNL     1       4.602  -4.697  12.839  1.00  0.00     0.251 C 
ATOM      6  H   UNL     1       4.465  -4.229  10.898  1.00  0.00     0.163 HD
BRANCH   5   7
ATOM      7  C   UNL     1       4.923  -5.749  13.826  1.00  0.00     0.039 A 
ATOM      8  C   UNL     1       5.992  -6.627  13.622  1.00  0.00     0.014 A 
ATOM      9  C   UNL     1       4.151  -5.838  14.987  1.00  0.00     0.014 A 
ATOM     10  C   UNL     1       6.217  -7.667  14.521  1.00  0.00     0.010 A 
ATOM     11  C   UNL     1       4.423  -6.836  15.922  1.00  0.00     0.010 A 
ATOM     12  C   UNL     1       5.442  -7.773  15.685  1.00  0.00    -0.014 A 
BRANCH  12  13
ATOM     13  C   UNL     1       5.724  -8.833  16.684  1.00  0.00     0.031 A 
ATOM     14  C   UNL     1       4.708  -9.897  16.977  1.00  0.00     0.074 A 
ATOM     15  C   UNL     1       6.885  -8.801  17.363  1.00  0.00     0.049 A 
ATOM     16  N   UNL     1       4.728 -10.832  17.893  1.00  0.00    -0.248 NA
ATOM     17  C   UNL     1       3.502  -9.903  16.137  1.00  0.00     0.031 C 
ATOM     18  C   UNL     1       7.947  -7.815  17.165  1.00  0.00     0.029 A 
ATOM     19  N   UNL     1       7.356  -9.602  18.372  1.00  0.00    -0.354 N 
ATOM     20  C   UNL     1       3.530 -11.521  17.758  1.00  0.00     0.074 A 
ATOM     21  C   UNL     1       2.795 -10.879  16.689  1.00  0.00     0.031 C 
ATOM     22  C   UNL     1       8.944  -8.066  18.025  1.00  0.00     0.029 A 
ATOM     23  C   UNL     1       8.563  -9.188  18.877  1.00  0.00     0.049 A 
ATOM     24  H   UNL     1       6.876 -10.396  18.702  1.00  0.00     0.167 HD
ATOM     25  C   UNL     1       3.090 -12.592  18.463  1.00  0.00     0.037 A 
ATOM     26  C   UNL     1       9.267  -9.630  19.935  1.00  0.00     0.037 A 
ATOM     27  C   UNL     1       3.833 -13.219  19.527  1.00  0.00     0.049 A 
ATOM     28  C   UNL     1       8.739 -10.786  20.736  1.00  0.00     0.074 A 
ATOM     29  C   UNL     1       3.497 -14.334  20.273  1.00  0.00     0.029 A 
ATOM     30  N   UNL     1       5.056 -12.770  20.009  1.00  0.00    -0.354 N 
ATOM     31  N   UNL     1       7.626 -11.459  20.576  1.00  0.00    -0.248 NA
ATOM     32  C   UNL     1       9.563 -11.245  21.862  1.00  0.00     0.031 C 
ATOM     33  C   UNL     1       4.480 -14.519  21.251  1.00  0.00     0.029 A 
ATOM     34  C   UNL     1       5.470 -13.566  21.066  1.00  0.00     0.049 A 
ATOM     35  H   UNL     1       5.556 -12.001  19.652  1.00  0.00     0.167 HD
ATOM     36  C   UNL     1       7.628 -12.440  21.558  1.00  0.00     0.074 A 
ATOM     37  C   UNL     1       8.854 -12.273  22.311  1.00  0.00     0.031 C 
ATOM     38  C   UNL     1       6.699 -13.397  21.802  1.00  0.00     0.037 A 
BRANCH  25  39
ATOM     39  C   UNL     1       1.722 -13.124  18.134  1.00  0.00     0.064 A 
ATOM     40  C   UNL     1       1.439 -13.744  16.907  1.00  0.00     0.173 A 
ATOM     41  C   UNL     1       0.678 -13.017  19.067  1.00  0.00     0.173 A 
ATOM     42  F   UNL     1       2.396 -13.868  15.976  1.00  0.00    -0.203 F 
ATOM     43  C   UNL     1       0.153 -14.190  16.608  1.00  0.00     0.198 A 
ATOM     44  C   UNL     1      -0.597 -13.497  18.779  1.00  0.00     0.198 A 
ATOM     45  F   UNL     1       0.893 -12.445  20.261  1.00  0.00    -0.203 F 
ATOM     46  F   UNL     1      -0.109 -14.714  15.402  1.00  0.00    -0.200 F 
ATOM     47  C   UNL     1      -0.862 -14.070  17.545  1.00  0.00     0.200 A 
ATOM     48  F   UNL     1      -1.571 -13.396  19.693  1.00  0.00    -0.200 F 
ATOM     49  F   UNL     1      -2.099 -14.496  17.254  1.00  0.00    -0.200 F 
ENDBRANCH  25  39
BRANCH  26  50
ATOM     50  C   UNL     1      10.540  -8.952  20.288  1.00  0.00     0.064 A 
ATOM     51  C   UNL     1      11.774  -9.579  20.079  1.00  0.00     0.173 A 
ATOM     52  C   UNL     1      10.547  -7.639  20.784  1.00  0.00     0.173 A 
ATOM     53  F   UNL     1      11.817 -10.838  19.621  1.00  0.00    -0.203 F 
ATOM     54  C   UNL     1      12.970  -8.918  20.354  1.00  0.00     0.198 A 
ATOM     55  C   UNL     1      11.743  -6.969  21.030  1.00  0.00     0.198 A 
ATOM     56  F   UNL     1       9.390  -6.993  20.991  1.00  0.00    -0.203 F 
ATOM     57  F   UNL     1      14.138  -9.547  20.168  1.00  0.00    -0.200 F 
ATOM     58  C   UNL     1      12.953  -7.611  20.819  1.00  0.00     0.200 A 
ATOM     59  F   UNL     1      11.722  -5.700  21.458  1.00  0.00    -0.200 F 
ATOM     60  F   UNL     1      14.104  -6.969  21.061  1.00  0.00    -0.200 F 
ENDBRANCH  26  50
BRANCH  38  61
ATOM     61  C   UNL     1       6.986 -14.384  22.897  1.00  0.00     0.064 A 
ATOM     62  C   UNL     1       6.911 -14.033  24.252  1.00  0.00     0.173 A 
ATOM     63  C   UNL     1       7.256 -15.725  22.579  1.00  0.00     0.173 A 
ATOM     64  F   UNL     1       6.673 -12.762  24.608  1.00  0.00    -0.203 F 
ATOM     65  C   UNL     1       7.103 -14.987  25.249  1.00  0.00     0.198 A 
ATOM     66  C   UNL     1       7.417 -16.681  23.577  1.00  0.00     0.198 A 
ATOM     67  F   UNL     1       7.335 -16.112  21.297  1.00  0.00    -0.203 F 
ATOM     68  F   UNL     1       7.056 -14.624  26.538  1.00  0.00    -0.200 F 
ATOM     69  C   UNL     1       7.342 -16.311  24.911  1.00  0.00     0.200 A 
ATOM     70  F   UNL     1       7.632 -17.962  23.247  1.00  0.00    -0.200 F 
ATOM     71  F   UNL     1       7.502 -17.231  25.872  1.00  0.00    -0.200 F 
ENDBRANCH  38  61
ENDBRANCH  12  13
ENDBRANCH   5   7
ENDBRANCH   2   3
ENDBRANCH   1   2
BRANCH   1  72
ATOM     72  C   UNL     1       3.236  -5.555   8.802  1.00  0.00     0.023 C 
BRANCH  72  73
ATOM     73  C   UNL     1       4.461  -5.403   7.898  1.00  0.00     0.116 C 
BRANCH  73  74
ATOM     74  N   UNL     1       4.772  -6.657   7.235  1.00  0.00    -0.356 N 
ATOM     75  C   UNL     1       4.561  -7.051   5.953  1.00  0.00     0.223 C 
ATOM     76  H   UNL     1       5.206  -7.330   7.808  1.00  0.00     0.163 HD
ATOM     77  O   UNL     1       4.707  -8.246   5.688  1.00  0.00    -0.275 OA
BRANCH  75  78
ATOM     78  C   UNL     1       4.244  -6.029   4.865  1.00  0.00     0.088 C 
BRANCH  78  79
ATOM     79  C   UNL     1       2.990  -6.535   4.094  1.00  0.00     0.070 C 
BRANCH  79  80
ATOM     80  C   UNL     1       3.124  -6.886   2.642  1.00  0.00     0.041 A 
ATOM     81  C   UNL     1       3.711  -8.075   2.233  1.00  0.00     0.024 A 
ATOM     82  N   UNL     1       2.708  -5.942   1.762  1.00  0.00    -0.261 NA
ATOM     83  C   UNL     1       4.003  -8.245   0.883  1.00  0.00     0.003 A 
ATOM     84  C   UNL     1       2.975  -6.145   0.453  1.00  0.00     0.111 A 
ATOM     85  C   UNL     1       3.643  -7.256  -0.025  1.00  0.00     0.020 A 
ENDBRANCH  79  80
ENDBRANCH  78  79
BRANCH  78  86
ATOM     86  C   UNL     1       5.585  -5.639   4.161  1.00  0.00     0.018 C 
ATOM     87  C   UNL     1       6.461  -6.823   3.700  1.00  0.00     0.021 C 
ATOM     88  C   UNL     1       5.461  -4.623   3.027  1.00  0.00     0.141 C 
ATOM     89  C   UNL     1       7.383  -6.424   2.559  1.00  0.00     0.137 C 
ATOM     90  S   UNL     1       6.888  -4.823   1.986  1.00  0.00     0.150 S 
ATOM     91  O   UNL     1       7.894  -3.867   2.409  1.00  0.00    -0.229 OA
ATOM     92  O   UNL     1       6.468  -4.930   0.605  1.00  0.00    -0.229 OA
ENDBRANCH  78  86
ENDBRANCH  75  78
ENDBRANCH  73  74
ENDBRANCH  72  73
ENDBRANCH   1  72
TORSDOF 14
