REMARK SMILES Cc1cc(C(=O)NCCCCNC(=O)c2ccc(-c3c4nc(c(-c5c(F)c(F)c(F)c(F)c5F)c5ccc([nH]5)c(-c5c(F)c(F)c(F)c(F)c5F)c5nc(c(-c6c(F)c(F)c(F)c(F)c6F)c6ccc3[nH]6)C=C5)C=C4)cc2)ccc1NS(=O)(=O)c1c(F)cccc1F
REMARK SMILES IDX 9 1 8 2 7 3 5 4 6 5 4 7 1 8 2 9 3 10 80 11 79 12 78 13 81 14
REMARK SMILES IDX 82 16 83 17 84 18 85 19 86 20 91 21 87 22 88 23 90 24 92 25
REMARK SMILES IDX 89 26 10 27 11 28 12 29 13 30 14 32 15 33 16 34 77 35 17 36
REMARK SMILES IDX 76 37 18 38 19 39 20 40 70 41 21 42 75 43 69 44 71 45 22 46
REMARK SMILES IDX 74 47 68 48 67 49 23 51 55 52 35 53 54 54 36 55 39 56 53 57
REMARK SMILES IDX 72 58 37 59 38 60 52 62 73 63 40 64 24 65 25 66 33 67 26 68
REMARK SMILES IDX 27 69 31 70 34 71 28 72 29 73 32 74 30 75 56 76 57 77 65 78
REMARK SMILES IDX 58 79 59 80 63 81 66 82 60 83 61 84 64 85 62 86 41 87 42 88
REMARK SMILES IDX 50 89 43 90 44 91 48 92 51 93 45 94 46 95 49 96 47 97
REMARK H PARENT 7 6 81 15 12 31 71 50 39 61
REMARK Flexibility Score: inf
ROOT
ATOM      1  C   UNL     1      -4.599  -1.103  -1.387  1.00  0.00     0.023 C 
ENDROOT
BRANCH   1   2
ATOM      2  C   UNL     1      -4.101  -1.431   0.027  1.00  0.00     0.116 C 
BRANCH   2   3
ATOM      3  N   UNL     1      -3.073  -2.462   0.082  1.00  0.00    -0.352 N 
ATOM      4  C   UNL     1      -1.713  -2.437   0.298  1.00  0.00     0.251 C 
ATOM      5  O   UNL     1      -1.104  -3.506   0.248  1.00  0.00    -0.269 OA
ATOM      6  H   UNL     1      -3.425  -3.369  -0.068  1.00  0.00     0.163 HD
BRANCH   4   7
ATOM      7  C   UNL     1      -0.941  -1.183   0.501  1.00  0.00     0.040 A 
ATOM      8  C   UNL     1       2.506   0.064  -0.501  1.00  0.00     0.046 C 
ATOM      9  C   UNL     1       1.068   0.090  -0.059  1.00  0.00    -0.026 A 
ATOM     10  C   UNL     1       0.352  -1.119  -0.038  1.00  0.00     0.019 A 
ATOM     11  C   UNL     1       0.424   1.255   0.381  1.00  0.00     0.052 A 
ATOM     12  C   UNL     1      -0.716   1.128   1.175  1.00  0.00     0.028 A 
ATOM     13  C   UNL     1      -1.397  -0.094   1.236  1.00  0.00     0.016 A 
BRANCH  11  14
ATOM     14  N   UNL     1       0.884   2.503  -0.135  1.00  0.00    -0.279 N 
ATOM     15  H   UNL     1       1.692   2.471  -0.697  1.00  0.00     0.180 HD
BRANCH  14  16
ATOM     16  S   UNL     1       0.209   4.013   0.106  1.00  0.00     0.267 S 
ATOM     17  O   UNL     1       0.375   4.301   1.521  1.00  0.00    -0.201 OA
ATOM     18  O   UNL     1       0.789   4.862  -0.906  1.00  0.00    -0.201 OA
BRANCH  16  19
ATOM     19  C   UNL     1      -1.512   3.946  -0.220  1.00  0.00     0.158 A 
ATOM     20  C   UNL     1      -2.329   4.848   0.453  1.00  0.00     0.146 A 
ATOM     21  C   UNL     1      -2.098   2.968  -1.009  1.00  0.00     0.146 A 
ATOM     22  F   UNL     1      -1.810   5.867   1.151  1.00  0.00    -0.205 F 
ATOM     23  C   UNL     1      -3.717   4.723   0.418  1.00  0.00     0.041 A 
ATOM     24  C   UNL     1      -3.487   2.817  -1.033  1.00  0.00     0.041 A 
ATOM     25  F   UNL     1      -1.365   2.121  -1.743  1.00  0.00    -0.205 F 
ATOM     26  C   UNL     1      -4.301   3.683  -0.302  1.00  0.00     0.006 A 
ENDBRANCH  16  19
ENDBRANCH  14  16
ENDBRANCH  11  14
ENDBRANCH   4   7
ENDBRANCH   2   3
ENDBRANCH   1   2
BRANCH   1  27
ATOM     27  C   UNL     1      -5.418  -2.196  -2.082  1.00  0.00     0.023 C 
BRANCH  27  28
ATOM     28  C   UNL     1      -6.780  -2.478  -1.451  1.00  0.00     0.116 C 
BRANCH  28  29
ATOM     29  N   UNL     1      -7.876  -1.627  -1.904  1.00  0.00    -0.352 N 
ATOM     30  C   UNL     1      -9.179  -1.533  -1.435  1.00  0.00     0.251 C 
ATOM     31  H   UNL     1      -7.658  -1.030  -2.656  1.00  0.00     0.163 HD
ATOM     32  O   UNL     1      -9.988  -0.824  -2.027  1.00  0.00    -0.269 OA
BRANCH  30  33
ATOM     33  C   UNL     1      -9.560  -2.154  -0.139  1.00  0.00     0.039 A 
ATOM     34  C   UNL     1     -10.335  -1.394   0.749  1.00  0.00     0.014 A 
ATOM     35  C   UNL     1      -8.968  -3.332   0.297  1.00  0.00     0.014 A 
ATOM     36  C   UNL     1     -10.249  -1.644   2.116  1.00  0.00     0.010 A 
ATOM     37  C   UNL     1      -8.781  -3.510   1.652  1.00  0.00     0.010 A 
ATOM     38  C   UNL     1      -9.348  -2.608   2.558  1.00  0.00    -0.014 A 
BRANCH  38  39
ATOM     39  C   UNL     1      -8.784  -2.625   3.903  1.00  0.00     0.031 A 
ATOM     40  C   UNL     1      -9.060  -3.739   4.830  1.00  0.00     0.074 A 
ATOM     41  C   UNL     1      -7.848  -1.698   4.209  1.00  0.00     0.049 A 
ATOM     42  N   UNL     1      -8.835  -3.706   6.100  1.00  0.00    -0.248 NA
ATOM     43  C   UNL     1      -9.673  -4.985   4.393  1.00  0.00     0.031 C 
ATOM     44  C   UNL     1      -6.882  -1.733   5.304  1.00  0.00     0.029 A 
ATOM     45  N   UNL     1      -7.699  -0.412   3.657  1.00  0.00    -0.354 N 
ATOM     46  C   UNL     1      -8.979  -4.987   6.590  1.00  0.00     0.074 A 
ATOM     47  C   UNL     1      -9.597  -5.715   5.508  1.00  0.00     0.031 C 
ATOM     48  C   UNL     1      -6.453  -0.484   5.545  1.00  0.00     0.029 A 
ATOM     49  C   UNL     1      -7.253   0.406   4.722  1.00  0.00     0.049 A 
ATOM     50  H   UNL     1      -7.870  -0.139   2.727  1.00  0.00     0.167 HD
ATOM     51  C   UNL     1      -8.418  -5.293   7.799  1.00  0.00     0.037 A 
ATOM     52  C   UNL     1      -8.027   1.421   5.206  1.00  0.00     0.037 A 
ATOM     53  C   UNL     1      -7.915  -4.080   8.454  1.00  0.00     0.049 A 
ATOM     54  C   UNL     1      -8.389   1.275   6.666  1.00  0.00     0.074 A 
ATOM     55  C   UNL     1      -6.646  -3.541   8.594  1.00  0.00     0.029 A 
ATOM     56  N   UNL     1      -8.809  -3.078   8.823  1.00  0.00    -0.354 N 
ATOM     57  N   UNL     1      -8.325   0.148   7.318  1.00  0.00    -0.248 NA
ATOM     58  C   UNL     1      -8.884   2.371   7.494  1.00  0.00     0.031 C 
ATOM     59  C   UNL     1      -6.785  -2.185   8.983  1.00  0.00     0.029 A 
ATOM     60  C   UNL     1      -8.135  -1.905   9.104  1.00  0.00     0.049 A 
ATOM     61  H   UNL     1      -9.786  -3.190   8.876  1.00  0.00     0.167 HD
ATOM     62  C   UNL     1      -8.773   0.334   8.599  1.00  0.00     0.074 A 
ATOM     63  C   UNL     1      -9.094   1.747   8.666  1.00  0.00     0.031 C 
ATOM     64  C   UNL     1      -8.855  -0.700   9.489  1.00  0.00     0.037 A 
BRANCH  51  65
ATOM     65  C   UNL     1      -8.043  -6.697   8.261  1.00  0.00     0.064 A 
ATOM     66  C   UNL     1      -7.048  -6.885   9.250  1.00  0.00     0.173 A 
ATOM     67  C   UNL     1      -8.540  -7.899   7.721  1.00  0.00     0.173 A 
ATOM     68  F   UNL     1      -6.559  -5.857   9.956  1.00  0.00    -0.203 F 
ATOM     69  C   UNL     1      -6.513  -8.141   9.563  1.00  0.00     0.198 A 
ATOM     70  C   UNL     1      -7.982  -9.152   8.004  1.00  0.00     0.198 A 
ATOM     71  F   UNL     1      -9.626  -7.931   6.948  1.00  0.00    -0.203 F 
ATOM     72  F   UNL     1      -5.553  -8.242  10.493  1.00  0.00    -0.200 F 
ATOM     73  C   UNL     1      -6.955  -9.271   8.913  1.00  0.00     0.200 A 
ATOM     74  F   UNL     1      -8.458 -10.242   7.386  1.00  0.00    -0.200 F 
ATOM     75  F   UNL     1      -6.421 -10.470   9.182  1.00  0.00    -0.200 F 
ENDBRANCH  51  65
BRANCH  52  76
ATOM     76  C   UNL     1      -8.895   2.040   4.169  1.00  0.00     0.064 A 
ATOM     77  C   UNL     1      -8.275   2.698   3.089  1.00  0.00     0.173 A 
ATOM     78  C   UNL     1     -10.236   1.670   4.019  1.00  0.00     0.173 A 
ATOM     79  F   UNL     1      -6.986   3.065   3.176  1.00  0.00    -0.203 F 
ATOM     80  C   UNL     1      -8.932   2.873   1.873  1.00  0.00     0.198 A 
ATOM     81  C   UNL     1     -10.896   1.859   2.802  1.00  0.00     0.198 A 
ATOM     82  F   UNL     1     -10.874   1.016   5.000  1.00  0.00    -0.203 F 
ATOM     83  F   UNL     1      -8.273   3.396   0.829  1.00  0.00    -0.200 F 
ATOM     84  C   UNL     1     -10.234   2.428   1.722  1.00  0.00     0.200 A 
ATOM     85  F   UNL     1     -12.143   1.395   2.641  1.00  0.00    -0.200 F 
ATOM     86  F   UNL     1     -10.835   2.504   0.527  1.00  0.00    -0.200 F 
ENDBRANCH  52  76
BRANCH  64  87
ATOM     87  C   UNL     1      -9.541  -0.658  10.831  1.00  0.00     0.064 A 
ATOM     88  C   UNL     1     -10.651   0.153  11.119  1.00  0.00     0.173 A 
ATOM     89  C   UNL     1      -9.180  -1.579  11.845  1.00  0.00     0.173 A 
ATOM     90  F   UNL     1     -11.162   0.985  10.201  1.00  0.00    -0.203 F 
ATOM     91  C   UNL     1     -11.314   0.090  12.348  1.00  0.00     0.198 A 
ATOM     92  C   UNL     1      -9.880  -1.680  13.046  1.00  0.00     0.198 A 
ATOM     93  F   UNL     1      -8.153  -2.426  11.686  1.00  0.00    -0.203 F 
ATOM     94  F   UNL     1     -12.345   0.912  12.588  1.00  0.00    -0.200 F 
ATOM     95  C   UNL     1     -10.938  -0.835  13.305  1.00  0.00     0.200 A 
ATOM     96  F   UNL     1      -9.535  -2.616  13.941  1.00  0.00    -0.200 F 
ATOM     97  F   UNL     1     -11.608  -0.925  14.461  1.00  0.00    -0.200 F 
ENDBRANCH  64  87
ENDBRANCH  38  39
ENDBRANCH  30  33
ENDBRANCH  28  29
ENDBRANCH  27  28
ENDBRANCH   1  27
TORSDOF 14
