REMARK SMILES COc1cccc(CC2(CO)CCN(c3nc(C)ccc3C(=O)NCCCCNC(=O)c3ccc(-c4c5nc(c(-c6c(F)c(F)c(F)c(F)c6F)c6ccc([nH]6)c(-c6c(F)c(F)c(F)c(F)c6F)c6nc(c(-c7c(F)c(F)c(F)c(F)c7F)c7ccc4[nH]7)C=C6)C=C5)cc3)CC2)c1
REMARK SMILES IDX 25 1 24 2 22 3 23 4 21 6 15 7 16 8 17 9 20 10 18 11 19 12
REMARK SMILES IDX 14 13 9 14 12 15 96 16 13 17 95 18 8 19 7 20 3 21 4 22 97 23
REMARK SMILES IDX 5 24 6 25 2 26 1 27 10 28 11 29 26 31 27 32 28 33 29 34
REMARK SMILES IDX 30 35 31 37 32 38 33 39 94 40 34 41 93 42 35 43 36 44 37 45
REMARK SMILES IDX 87 46 38 47 92 48 86 49 88 50 39 51 91 52 85 53 84 54 40 56
REMARK SMILES IDX 72 57 52 58 71 59 53 60 56 61 70 62 89 63 54 64 55 65 69 67
REMARK SMILES IDX 90 68 57 69 41 70 42 71 50 72 43 73 44 74 48 75 51 76 45 77
REMARK SMILES IDX 46 78 49 79 47 80 73 81 74 82 82 83 75 84 76 85 80 86 83 87
REMARK SMILES IDX 77 88 78 89 81 90 79 91 58 92 59 93 67 94 60 95 61 96 65 97
REMARK SMILES IDX 68 98 62 99 63 100 66 101 64 102
REMARK H PARENT 24 5 11 30 29 36 88 55 56 66
REMARK Flexibility Score: inf
ROOT
ATOM      1  C   UNL     1      -2.420  -7.955   0.914  1.00  0.00     0.116 C 
ENDROOT
BRANCH   1   2
ATOM      2  N   UNL     1      -1.321  -7.066   0.605  1.00  0.00    -0.352 N 
ATOM      3  C   UNL     1      -0.397  -6.879  -0.395  1.00  0.00     0.255 C 
ATOM      4  O   UNL     1       0.298  -5.894  -0.157  1.00  0.00    -0.269 OA
ATOM      5  H   UNL     1      -1.199  -6.401   1.320  1.00  0.00     0.163 HD
BRANCH   3   6
ATOM      6  C   UNL     1      -0.243  -7.682  -1.663  1.00  0.00     0.082 A 
ATOM      7  C   UNL     1       0.795  -7.516  -2.612  1.00  0.00     0.141 A 
ATOM      8  N   UNL     1       0.711  -8.169  -3.820  1.00  0.00    -0.235 NA
ATOM      9  C   UNL     1      -0.362  -8.884  -4.188  1.00  0.00     0.040 A 
ATOM     10  C   UNL     1      -1.290  -8.544  -2.046  1.00  0.00     0.019 A 
ATOM     11  C   UNL     1      -0.457  -9.262  -5.632  1.00  0.00     0.067 C 
ATOM     12  C   UNL     1      -1.380  -9.120  -3.310  1.00  0.00     0.024 A 
BRANCH   7  13
ATOM     13  N   UNL     1       1.926  -6.711  -2.588  1.00  0.00    -0.356 N 
ATOM     14  C   UNL     1       4.239  -4.875  -2.951  1.00  0.00     0.001 C 
ATOM     15  C   UNL     1       3.436  -5.473  -4.122  1.00  0.00     0.031 C 
ATOM     16  C   UNL     1       4.027  -5.764  -1.696  1.00  0.00     0.031 C 
ATOM     17  C   UNL     1       2.008  -5.883  -3.795  1.00  0.00     0.119 C 
ATOM     18  C   UNL     1       2.571  -6.143  -1.409  1.00  0.00     0.119 C 
BRANCH  14  19
ATOM     19  C   UNL     1       3.957  -3.342  -2.726  1.00  0.00     0.045 C 
BRANCH  19  20
ATOM     20  C   UNL     1       2.569  -2.826  -2.419  1.00  0.00    -0.044 A 
ATOM     21  C   UNL     1       0.949  -1.916  -0.865  1.00  0.00     0.119 A 
ATOM     22  C   UNL     1      -0.056  -1.986  -1.825  1.00  0.00     0.046 A 
ATOM     23  C   UNL     1       2.239  -2.376  -1.134  1.00  0.00     0.050 A 
ATOM     24  C   UNL     1       0.275  -2.371  -3.117  1.00  0.00     0.004 A 
ATOM     25  C   UNL     1       1.594  -2.720  -3.423  1.00  0.00     0.004 A 
BRANCH  21  26
ATOM     26  O   UNL     1       0.655  -1.372   0.357  1.00  0.00    -0.497 OA
ATOM     27  C   UNL     1       0.972   0.024   0.319  1.00  0.00     0.278 C 
ENDBRANCH  21  26
ENDBRANCH  19  20
ENDBRANCH  14  19
BRANCH  14  28
ATOM     28  C   UNL     1       5.755  -4.979  -3.308  1.00  0.00     0.163 C 
BRANCH  28  29
ATOM     29  O   UNL     1       6.068  -4.308  -4.524  1.00  0.00    -0.396 OA
ATOM     30  H   UNL     1       5.575  -4.715  -5.253  1.00  0.00     0.210 HD
ENDBRANCH  28  29
ENDBRANCH  14  28
ENDBRANCH   7  13
ENDBRANCH   3   6
ENDBRANCH   1   2
BRANCH   1  31
ATOM     31  C   UNL     1      -1.951  -9.199   1.658  1.00  0.00     0.023 C 
BRANCH  31  32
ATOM     32  C   UNL     1      -1.799  -8.987   3.170  1.00  0.00     0.023 C 
BRANCH  32  33
ATOM     33  C   UNL     1      -3.032  -8.426   3.877  1.00  0.00     0.116 C 
BRANCH  33  34
ATOM     34  N   UNL     1      -4.261  -9.135   3.550  1.00  0.00    -0.352 N 
ATOM     35  C   UNL     1      -5.369  -9.333   4.333  1.00  0.00     0.251 C 
ATOM     36  H   UNL     1      -4.302  -9.525   2.647  1.00  0.00     0.163 HD
ATOM     37  O   UNL     1      -6.289 -10.047   3.945  1.00  0.00    -0.269 OA
BRANCH  35  38
ATOM     38  C   UNL     1      -5.427  -8.709   5.668  1.00  0.00     0.039 A 
ATOM     39  C   UNL     1      -5.755  -9.505   6.766  1.00  0.00     0.014 A 
ATOM     40  C   UNL     1      -5.126  -7.355   5.833  1.00  0.00     0.014 A 
ATOM     41  C   UNL     1      -5.726  -8.951   8.046  1.00  0.00     0.010 A 
ATOM     42  C   UNL     1      -5.023  -6.825   7.114  1.00  0.00     0.010 A 
ATOM     43  C   UNL     1      -5.328  -7.616   8.232  1.00  0.00    -0.014 A 
BRANCH  43  44
ATOM     44  C   UNL     1      -5.238  -7.034   9.592  1.00  0.00     0.031 A 
ATOM     45  C   UNL     1      -6.146  -5.904   9.989  1.00  0.00     0.074 A 
ATOM     46  C   UNL     1      -4.308  -7.493  10.451  1.00  0.00     0.049 A 
ATOM     47  N   UNL     1      -6.203  -5.247  11.119  1.00  0.00    -0.248 NA
ATOM     48  C   UNL     1      -7.099  -5.433   8.972  1.00  0.00     0.031 C 
ATOM     49  C   UNL     1      -3.336  -8.549  10.159  1.00  0.00     0.029 A 
ATOM     50  N   UNL     1      -4.024  -7.130  11.743  1.00  0.00    -0.354 N 
ATOM     51  C   UNL     1      -7.189  -4.284  10.945  1.00  0.00     0.074 A 
ATOM     52  C   UNL     1      -7.658  -4.398   9.582  1.00  0.00     0.031 C 
ATOM     53  C   UNL     1      -2.586  -8.770  11.250  1.00  0.00     0.029 A 
ATOM     54  C   UNL     1      -2.998  -7.849  12.305  1.00  0.00     0.049 A 
ATOM     55  H   UNL     1      -4.511  -6.421  12.222  1.00  0.00     0.167 HD
ATOM     56  C   UNL     1      -7.679  -3.405  11.851  1.00  0.00     0.037 A 
ATOM     57  C   UNL     1      -2.451  -7.770  13.533  1.00  0.00     0.037 A 
ATOM     58  C   UNL     1      -7.220  -3.310  13.211  1.00  0.00     0.049 A 
ATOM     59  C   UNL     1      -3.006  -6.774  14.515  1.00  0.00     0.074 A 
ATOM     60  C   UNL     1      -7.686  -2.491  14.225  1.00  0.00     0.029 A 
ATOM     61  N   UNL     1      -6.183  -4.059  13.748  1.00  0.00    -0.354 N 
ATOM     62  N   UNL     1      -3.992  -5.922  14.366  1.00  0.00    -0.248 NA
ATOM     63  C   UNL     1      -2.377  -6.734  15.842  1.00  0.00     0.031 C 
ATOM     64  C   UNL     1      -6.897  -2.708  15.359  1.00  0.00     0.029 A 
ATOM     65  C   UNL     1      -5.978  -3.704  15.071  1.00  0.00     0.049 A 
ATOM     66  H   UNL     1      -5.668  -4.742  13.260  1.00  0.00     0.167 HD
ATOM     67  C   UNL     1      -4.121  -5.269  15.584  1.00  0.00     0.074 A 
ATOM     68  C   UNL     1      -3.124  -5.836  16.468  1.00  0.00     0.031 C 
ATOM     69  C   UNL     1      -4.985  -4.286  15.938  1.00  0.00     0.037 A 
BRANCH  56  70
ATOM     70  C   UNL     1      -8.774  -2.481  11.399  1.00  0.00     0.064 A 
ATOM     71  C   UNL     1     -10.059  -2.957  11.096  1.00  0.00     0.173 A 
ATOM     72  C   UNL     1      -8.546  -1.101  11.298  1.00  0.00     0.173 A 
ATOM     73  F   UNL     1     -10.328  -4.269  11.164  1.00  0.00    -0.203 F 
ATOM     74  C   UNL     1     -11.065  -2.089  10.678  1.00  0.00     0.198 A 
ATOM     75  C   UNL     1      -9.564  -0.232  10.912  1.00  0.00     0.198 A 
ATOM     76  F   UNL     1      -7.338  -0.591  11.580  1.00  0.00    -0.203 F 
ATOM     77  F   UNL     1     -12.269  -2.574  10.342  1.00  0.00    -0.200 F 
ATOM     78  C   UNL     1     -10.819  -0.728  10.594  1.00  0.00     0.200 A 
ATOM     79  F   UNL     1      -9.329   1.086  10.845  1.00  0.00    -0.200 F 
ATOM     80  F   UNL     1     -11.791   0.107  10.200  1.00  0.00    -0.200 F 
ENDBRANCH  56  70
BRANCH  57  81
ATOM     81  C   UNL     1      -1.337  -8.678  13.913  1.00  0.00     0.064 A 
ATOM     82  C   UNL     1      -1.521  -9.678  14.879  1.00  0.00     0.173 A 
ATOM     83  C   UNL     1      -0.066  -8.559  13.333  1.00  0.00     0.173 A 
ATOM     84  F   UNL     1      -2.713  -9.820  15.477  1.00  0.00    -0.203 F 
ATOM     85  C   UNL     1      -0.470 -10.506  15.268  1.00  0.00     0.198 A 
ATOM     86  C   UNL     1       0.976  -9.409  13.700  1.00  0.00     0.198 A 
ATOM     87  F   UNL     1       0.162  -7.623  12.400  1.00  0.00    -0.203 F 
ATOM     88  F   UNL     1      -0.661 -11.418  16.231  1.00  0.00    -0.200 F 
ATOM     89  C   UNL     1       0.776 -10.374  14.675  1.00  0.00     0.200 A 
ATOM     90  F   UNL     1       2.174  -9.288  13.114  1.00  0.00    -0.200 F 
ATOM     91  F   UNL     1       1.786 -11.172  15.048  1.00  0.00    -0.200 F 
ENDBRANCH  57  81
BRANCH  69  92
ATOM     92  C   UNL     1      -4.917  -3.788  17.354  1.00  0.00     0.064 A 
ATOM     93  C   UNL     1      -3.840  -3.016  17.813  1.00  0.00     0.173 A 
ATOM     94  C   UNL     1      -5.963  -4.055  18.250  1.00  0.00     0.173 A 
ATOM     95  F   UNL     1      -2.808  -2.745  17.000  1.00  0.00    -0.203 F 
ATOM     96  C   UNL     1      -3.799  -2.554  19.126  1.00  0.00     0.198 A 
ATOM     97  C   UNL     1      -5.936  -3.563  19.551  1.00  0.00     0.198 A 
ATOM     98  F   UNL     1      -7.021  -4.782  17.859  1.00  0.00    -0.203 F 
ATOM     99  F   UNL     1      -2.735  -1.863  19.558  1.00  0.00    -0.200 F 
ATOM    100  C   UNL     1      -4.850  -2.821  19.991  1.00  0.00     0.200 A 
ATOM    101  F   UNL     1      -6.959  -3.808  20.381  1.00  0.00    -0.200 F 
ATOM    102  F   UNL     1      -4.813  -2.369  21.252  1.00  0.00    -0.200 F 
ENDBRANCH  69  92
ENDBRANCH  43  44
ENDBRANCH  35  38
ENDBRANCH  33  34
ENDBRANCH  32  33
ENDBRANCH  31  32
ENDBRANCH   1  31
TORSDOF 17
