REMARK SMILES C#CC[N@@H+](CC(=O)NCCCCNC(=O)c1ccc(-c2c3nc(c(-c4c(F)c(F)c(F)c(F)c4F)c4ccc([nH]4)c(-c4c(F)c(F)c(F)c(F)c4F)c4nc(c(-c5c(F)c(F)c(F)c(F)c5F)c5ccc2[nH]5)C=C4)C=C3)cc1)CC(=O)Nc1c(Cl)cccc1Cl
REMARK SMILES IDX 9 1 8 2 6 3 7 4 5 6 4 7 3 9 2 10 1 11 79 12 80 13 81 14
REMARK SMILES IDX 82 15 83 17 84 18 89 19 85 20 86 21 88 22 90 23 87 24 10 25
REMARK SMILES IDX 11 26 12 27 13 28 14 29 15 31 16 32 17 33 78 34 18 35 77 36
REMARK SMILES IDX 19 37 20 38 21 39 71 40 22 41 76 42 70 43 72 44 23 45 75 46
REMARK SMILES IDX 69 47 68 48 24 50 56 51 36 52 55 53 37 54 40 55 54 56 73 57
REMARK SMILES IDX 38 58 39 59 53 61 74 62 41 63 25 64 26 65 34 66 27 67 28 68
REMARK SMILES IDX 32 69 35 70 29 71 30 72 33 73 31 74 57 75 58 76 66 77 59 78
REMARK SMILES IDX 60 79 64 80 67 81 61 82 62 83 65 84 63 85 42 86 43 87 51 88
REMARK SMILES IDX 44 89 45 90 49 91 52 92 46 93 47 94 50 95 48 96
REMARK H PARENT 8 5 4 8 82 16 13 30 72 49 40 60
REMARK Flexibility Score: inf
ROOT
ATOM      1  C   UNL     1      -3.210   1.089  -2.725  1.00  0.00     0.116 C 
ENDROOT
BRANCH   1   2
ATOM      2  N   UNL     1      -4.137   0.102  -2.222  1.00  0.00    -0.351 N 
ATOM      3  C   UNL     1      -4.566  -0.200  -0.966  1.00  0.00     0.275 C 
ATOM      4  O   UNL     1      -5.326  -1.169  -0.922  1.00  0.00    -0.269 OA
ATOM      5  H   UNL     1      -4.537  -0.462  -2.923  1.00  0.00     0.163 HD
BRANCH   3   6
ATOM      6  C   UNL     1      -4.098   0.593   0.306  1.00  0.00     0.364 C 
BRANCH   6   7
ATOM      7  N   UNL     1      -2.861   0.077   0.982  1.00  0.00    -0.309 N 
ATOM      8  H   UNL     1      -2.502   0.671   1.729  1.00  0.00     0.349 HD
BRANCH   7   9
ATOM      9  C   UNL     1      -1.883   0.022  -0.077  1.00  0.00     0.354 C 
BRANCH   9  10
ATOM     10  C   UNL     1      -0.363   0.022  -0.077  1.00  0.00    -0.047 C 
ATOM     11  C   UNL     1       0.941   0.022  -0.077  1.00  0.00     0.010 C 
ENDBRANCH   9  10
ENDBRANCH   7   9
BRANCH   7  12
ATOM     12  C   UNL     1      -3.129  -1.181   1.735  1.00  0.00     0.365 C 
BRANCH  12  13
ATOM     13  C   UNL     1      -3.712  -2.375   0.964  1.00  0.00     0.279 C 
ATOM     14  O   UNL     1      -3.001  -2.964   0.135  1.00  0.00    -0.268 OA
ATOM     15  N   UNL     1      -4.940  -2.932   1.222  1.00  0.00    -0.319 N 
ATOM     16  H   UNL     1      -5.065  -3.771   0.721  1.00  0.00     0.170 HD
BRANCH  15  17
ATOM     17  C   UNL     1      -6.083  -2.628   2.016  1.00  0.00     0.079 A 
ATOM     18  C   UNL     1      -6.869  -3.715   2.448  1.00  0.00     0.066 A 
ATOM     19  C   UNL     1      -6.563  -1.362   2.388  1.00  0.00     0.066 A 
ATOM     20  Cl  UNL     1      -6.593  -5.318   1.850  1.00  0.00    -0.082 Cl
ATOM     21  C   UNL     1      -7.905  -3.546   3.378  1.00  0.00     0.023 A 
ATOM     22  C   UNL     1      -7.439  -1.202   3.473  1.00  0.00     0.023 A 
ATOM     23  Cl  UNL     1      -7.092  -0.245   1.130  1.00  0.00    -0.082 Cl
ATOM     24  C   UNL     1      -8.138  -2.299   3.948  1.00  0.00     0.003 A 
ENDBRANCH  15  17
ENDBRANCH  12  13
ENDBRANCH   7  12
ENDBRANCH   6   7
ENDBRANCH   3   6
ENDBRANCH   1   2
BRANCH   1  25
ATOM     25  C   UNL     1      -1.865   0.466  -3.144  1.00  0.00     0.023 C 
BRANCH  25  26
ATOM     26  C   UNL     1      -1.942  -0.543  -4.273  1.00  0.00     0.023 C 
BRANCH  26  27
ATOM     27  C   UNL     1      -2.587   0.040  -5.499  1.00  0.00     0.116 C 
BRANCH  27  28
ATOM     28  N   UNL     1      -2.039   1.352  -5.845  1.00  0.00    -0.352 N 
ATOM     29  C   UNL     1      -1.932   1.892  -7.095  1.00  0.00     0.251 C 
ATOM     30  H   UNL     1      -1.712   1.904  -5.097  1.00  0.00     0.163 HD
ATOM     31  O   UNL     1      -1.391   2.968  -7.308  1.00  0.00    -0.269 OA
BRANCH  29  32
ATOM     32  C   UNL     1      -2.486   1.075  -8.172  1.00  0.00     0.039 A 
ATOM     33  C   UNL     1      -1.608   0.467  -9.068  1.00  0.00     0.014 A 
ATOM     34  C   UNL     1      -3.830   0.703  -8.070  1.00  0.00     0.014 A 
ATOM     35  C   UNL     1      -2.085  -0.562  -9.869  1.00  0.00     0.010 A 
ATOM     36  C   UNL     1      -4.264  -0.396  -8.780  1.00  0.00     0.010 A 
ATOM     37  C   UNL     1      -3.405  -1.010  -9.709  1.00  0.00    -0.014 A 
BRANCH  37  38
ATOM     38  C   UNL     1      -3.987  -2.042 -10.585  1.00  0.00     0.031 A 
ATOM     39  C   UNL     1      -5.137  -1.633 -11.458  1.00  0.00     0.074 A 
ATOM     40  C   UNL     1      -3.563  -3.316 -10.526  1.00  0.00     0.049 A 
ATOM     41  N   UNL     1      -5.967  -2.373 -12.140  1.00  0.00    -0.248 NA
ATOM     42  C   UNL     1      -5.432  -0.188 -11.514  1.00  0.00     0.031 C 
ATOM     43  C   UNL     1      -2.474  -3.817  -9.685  1.00  0.00     0.029 A 
ATOM     44  N   UNL     1      -4.017  -4.429 -11.183  1.00  0.00    -0.354 N 
ATOM     45  C   UNL     1      -6.906  -1.490 -12.655  1.00  0.00     0.074 A 
ATOM     46  C   UNL     1      -6.588  -0.174 -12.154  1.00  0.00     0.031 C 
ATOM     47  C   UNL     1      -2.330  -5.136  -9.896  1.00  0.00     0.029 A 
ATOM     48  C   UNL     1      -3.342  -5.577 -10.851  1.00  0.00     0.049 A 
ATOM     49  H   UNL     1      -4.757  -4.407 -11.832  1.00  0.00     0.167 HD
ATOM     50  C   UNL     1      -7.925  -1.754 -13.502  1.00  0.00     0.037 A 
ATOM     51  C   UNL     1      -3.539  -6.839 -11.274  1.00  0.00     0.037 A 
ATOM     52  C   UNL     1      -8.174  -3.058 -14.047  1.00  0.00     0.049 A 
ATOM     53  C   UNL     1      -4.654  -7.102 -12.253  1.00  0.00     0.074 A 
ATOM     54  C   UNL     1      -9.139  -3.445 -14.956  1.00  0.00     0.029 A 
ATOM     55  N   UNL     1      -7.424  -4.186 -13.743  1.00  0.00    -0.354 N 
ATOM     56  N   UNL     1      -5.524  -6.261 -12.762  1.00  0.00    -0.248 NA
ATOM     57  C   UNL     1      -4.815  -8.485 -12.720  1.00  0.00     0.031 C 
ATOM     58  C   UNL     1      -8.983  -4.815 -15.190  1.00  0.00     0.029 A 
ATOM     59  C   UNL     1      -7.899  -5.271 -14.454  1.00  0.00     0.049 A 
ATOM     60  H   UNL     1      -6.666  -4.209 -13.114  1.00  0.00     0.167 HD
ATOM     61  C   UNL     1      -6.306  -7.002 -13.636  1.00  0.00     0.074 A 
ATOM     62  C   UNL     1      -5.808  -8.361 -13.589  1.00  0.00     0.031 C 
ATOM     63  C   UNL     1      -7.343  -6.598 -14.410  1.00  0.00     0.037 A 
BRANCH  50  64
ATOM     64  C   UNL     1      -8.811  -0.611 -13.893  1.00  0.00     0.064 A 
ATOM     65  C   UNL     1      -8.343   0.442 -14.696  1.00  0.00     0.173 A 
ATOM     66  C   UNL     1     -10.141  -0.559 -13.454  1.00  0.00     0.173 A 
ATOM     67  F   UNL     1      -7.070   0.452 -15.122  1.00  0.00    -0.203 F 
ATOM     68  C   UNL     1      -9.162   1.521 -15.012  1.00  0.00     0.198 A 
ATOM     69  C   UNL     1     -10.969   0.506 -13.802  1.00  0.00     0.198 A 
ATOM     70  F   UNL     1     -10.638  -1.537 -12.682  1.00  0.00    -0.203 F 
ATOM     71  F   UNL     1      -8.672   2.546 -15.723  1.00  0.00    -0.200 F 
ATOM     72  C   UNL     1     -10.476   1.549 -14.571  1.00  0.00     0.200 A 
ATOM     73  F   UNL     1     -12.241   0.528 -13.382  1.00  0.00    -0.200 F 
ATOM     74  F   UNL     1     -11.265   2.588 -14.878  1.00  0.00    -0.200 F 
ENDBRANCH  50  64
BRANCH  51  75
ATOM     75  C   UNL     1      -2.647  -7.933 -10.814  1.00  0.00     0.064 A 
ATOM     76  C   UNL     1      -1.737  -8.531 -11.698  1.00  0.00     0.173 A 
ATOM     77  C   UNL     1      -2.681  -8.408  -9.496  1.00  0.00     0.173 A 
ATOM     78  F   UNL     1      -1.677  -8.121 -12.974  1.00  0.00    -0.203 F 
ATOM     79  C   UNL     1      -0.914  -9.578 -11.288  1.00  0.00     0.198 A 
ATOM     80  C   UNL     1      -1.840  -9.439  -9.080  1.00  0.00     0.198 A 
ATOM     81  F   UNL     1      -3.527  -7.866  -8.608  1.00  0.00    -0.203 F 
ATOM     82  F   UNL     1      -0.087 -10.160 -12.167  1.00  0.00    -0.200 F 
ATOM     83  C   UNL     1      -0.964 -10.029  -9.979  1.00  0.00     0.200 A 
ATOM     84  F   UNL     1      -1.881  -9.865  -7.810  1.00  0.00    -0.200 F 
ATOM     85  F   UNL     1      -0.173 -11.037  -9.585  1.00  0.00    -0.200 F 
ENDBRANCH  51  75
BRANCH  63  86
ATOM     86  C   UNL     1      -7.961  -7.615 -15.319  1.00  0.00     0.064 A 
ATOM     87  C   UNL     1      -8.828  -8.603 -14.834  1.00  0.00     0.173 A 
ATOM     88  C   UNL     1      -7.752  -7.535 -16.703  1.00  0.00     0.173 A 
ATOM     89  F   UNL     1      -9.047  -8.721 -13.516  1.00  0.00    -0.203 F 
ATOM     90  C   UNL     1      -9.459  -9.484 -15.706  1.00  0.00     0.198 A 
ATOM     91  C   UNL     1      -8.403  -8.401 -17.574  1.00  0.00     0.198 A 
ATOM     92  F   UNL     1      -6.937  -6.598 -17.211  1.00  0.00    -0.203 F 
ATOM     93  F   UNL     1     -10.265 -10.439 -15.223  1.00  0.00    -0.200 F 
ATOM     94  C   UNL     1      -9.255  -9.376 -17.075  1.00  0.00     0.200 A 
ATOM     95  F   UNL     1      -8.217  -8.285 -18.896  1.00  0.00    -0.200 F 
ATOM     96  F   UNL     1      -9.879 -10.213 -17.914  1.00  0.00    -0.200 F 
ENDBRANCH  63  86
ENDBRANCH  37  38
ENDBRANCH  29  32
ENDBRANCH  27  28
ENDBRANCH  26  27
ENDBRANCH  25  26
ENDBRANCH   1  25
TORSDOF 17
