REMARK SMILES Cc1ccc(C)c(-c2cc(C(=O)NCCCCNC(=O)c3ccc(-c4c5nc(c(-c6c(F)c(F)c(F)c(F)c6F)c6ccc([nH]6)c(-c6c(F)c(F)c(F)c(F)c6F)c6nc(c(-c7c(F)c(F)c(F)c(F)c7F)c7ccc4[nH]7)C=C6)C=C5)cc3)c3cc(C)ccc3n2)c1
REMARK SMILES IDX 16 1 15 2 14 3 13 4 11 5 12 6 10 8 8 9 9 10 91 11 90 12
REMARK SMILES IDX 84 13 89 14 85 15 88 16 86 17 87 18 7 19 1 20 2 21 3 22
REMARK SMILES IDX 92 23 4 24 5 25 6 26 17 27 18 28 19 29 20 31 21 32 22 33
REMARK SMILES IDX 83 34 23 35 82 36 24 37 25 38 26 39 76 40 27 41 81 42 75 43
REMARK SMILES IDX 77 44 28 45 80 46 74 47 73 48 29 50 61 51 41 52 60 53 42 54
REMARK SMILES IDX 45 55 59 56 78 57 43 58 44 59 58 61 79 62 46 63 30 64 31 65
REMARK SMILES IDX 39 66 32 67 33 68 37 69 40 70 34 71 35 72 38 73 36 74 62 75
REMARK SMILES IDX 63 76 71 77 64 78 65 79 69 80 72 81 66 82 67 83 70 84 68 85
REMARK SMILES IDX 47 86 48 87 56 88 49 89 50 90 54 91 57 92 51 93 52 94 55 95
REMARK SMILES IDX 53 96
REMARK H PARENT 13 7 18 30 77 49 45 60
REMARK Flexibility Score: inf
ROOT
ATOM      1  C   UNL     1      -2.130  10.263  -1.231  1.00  0.00     0.023 C 
ENDROOT
BRANCH   1   2
ATOM      2  C   UNL     1      -1.926   9.046  -0.320  1.00  0.00     0.023 C 
BRANCH   2   3
ATOM      3  C   UNL     1      -2.546   7.690  -0.645  1.00  0.00     0.116 C 
BRANCH   3   4
ATOM      4  N   UNL     1      -2.111   6.955  -1.823  1.00  0.00    -0.352 N 
ATOM      5  C   UNL     1      -2.076   5.583  -2.067  1.00  0.00     0.252 C 
ATOM      6  O   UNL     1      -1.770   5.211  -3.201  1.00  0.00    -0.269 OA
ATOM      7  H   UNL     1      -1.790   7.516  -2.566  1.00  0.00     0.163 HD
BRANCH   5   8
ATOM      8  C   UNL     1      -2.290   4.532  -1.014  1.00  0.00     0.051 A 
ATOM      9  C   UNL     1      -1.451   2.516  -0.001  1.00  0.00     0.072 A 
ATOM     10  C   UNL     1      -1.415   3.432  -1.044  1.00  0.00     0.043 A 
ATOM     11  N   UNL     1      -2.207   2.728   1.101  1.00  0.00    -0.248 NA
ATOM     12  C   UNL     1      -3.072   3.751   1.113  1.00  0.00     0.072 A 
ATOM     13  C   UNL     1      -3.255   4.602   0.011  1.00  0.00     0.013 A 
ATOM     14  C   UNL     1      -3.803   3.994   2.267  1.00  0.00     0.029 A 
ATOM     15  C   UNL     1      -4.358   5.481   0.023  1.00  0.00     0.014 A 
ATOM     16  C   UNL     1      -4.729   5.037   2.345  1.00  0.00     0.005 A 
ATOM     17  C   UNL     1      -5.033   5.777   1.207  1.00  0.00    -0.050 A 
ATOM     18  C   UNL     1      -5.926   6.981   1.273  1.00  0.00     0.044 C 
BRANCH   9  19
ATOM     19  C   UNL     1      -0.718   1.235  -0.019  1.00  0.00     0.003 A 
ATOM     20  C   UNL     1       2.926   0.025   0.010  1.00  0.00     0.044 C 
ATOM     21  C   UNL     1       1.426   0.026  -0.008  1.00  0.00    -0.050 A 
ATOM     22  C   UNL     1       0.741  -1.190  -0.011  1.00  0.00     0.004 A 
ATOM     23  C   UNL     1       0.693   1.226  -0.009  1.00  0.00     0.014 A 
ATOM     24  C   UNL     1      -0.651  -1.209  -0.020  1.00  0.00     0.004 A 
ATOM     25  C   UNL     1      -1.391  -0.012  -0.033  1.00  0.00    -0.042 A 
ATOM     26  C   UNL     1      -2.893  -0.143  -0.037  1.00  0.00     0.045 C 
ENDBRANCH   9  19
ENDBRANCH   5   8
ENDBRANCH   3   4
ENDBRANCH   2   3
ENDBRANCH   1   2
BRANCH   1  27
ATOM     27  C   UNL     1      -3.514  10.592  -1.789  1.00  0.00     0.116 C 
BRANCH  27  28
ATOM     28  N   UNL     1      -4.590  10.744  -0.800  1.00  0.00    -0.352 N 
ATOM     29  C   UNL     1      -5.974  10.686  -0.974  1.00  0.00     0.251 C 
ATOM     30  H   UNL     1      -4.290  10.911   0.122  1.00  0.00     0.163 HD
ATOM     31  O   UNL     1      -6.718  11.259  -0.195  1.00  0.00    -0.269 OA
BRANCH  29  32
ATOM     32  C   UNL     1      -6.545   9.909  -2.099  1.00  0.00     0.039 A 
ATOM     33  C   UNL     1      -7.805  10.153  -2.658  1.00  0.00     0.014 A 
ATOM     34  C   UNL     1      -5.772   8.881  -2.606  1.00  0.00     0.014 A 
ATOM     35  C   UNL     1      -8.219   9.372  -3.744  1.00  0.00     0.010 A 
ATOM     36  C   UNL     1      -6.034   8.344  -3.826  1.00  0.00     0.010 A 
ATOM     37  C   UNL     1      -7.311   8.467  -4.321  1.00  0.00    -0.014 A 
BRANCH  37  38
ATOM     38  C   UNL     1      -7.602   7.665  -5.495  1.00  0.00     0.031 A 
ATOM     39  C   UNL     1      -7.901   8.465  -6.696  1.00  0.00     0.074 A 
ATOM     40  C   UNL     1      -7.342   6.341  -5.585  1.00  0.00     0.049 A 
ATOM     41  N   UNL     1      -9.052   8.635  -7.248  1.00  0.00    -0.248 NA
ATOM     42  C   UNL     1      -6.831   9.305  -7.254  1.00  0.00     0.031 C 
ATOM     43  C   UNL     1      -6.655   5.472  -4.619  1.00  0.00     0.029 A 
ATOM     44  N   UNL     1      -7.554   5.503  -6.637  1.00  0.00    -0.354 N 
ATOM     45  C   UNL     1      -8.816   9.431  -8.361  1.00  0.00     0.074 A 
ATOM     46  C   UNL     1      -7.505   9.995  -8.177  1.00  0.00     0.031 C 
ATOM     47  C   UNL     1      -6.335   4.298  -5.209  1.00  0.00     0.029 A 
ATOM     48  C   UNL     1      -6.931   4.264  -6.532  1.00  0.00     0.049 A 
ATOM     49  H   UNL     1      -8.105   5.755  -7.413  1.00  0.00     0.167 HD
ATOM     50  C   UNL     1      -9.611   9.321  -9.461  1.00  0.00     0.037 A 
ATOM     51  C   UNL     1      -6.895   3.295  -7.481  1.00  0.00     0.037 A 
ATOM     52  C   UNL     1     -10.812   8.576  -9.146  1.00  0.00     0.049 A 
ATOM     53  C   UNL     1      -7.991   3.583  -8.439  1.00  0.00     0.074 A 
ATOM     54  C   UNL     1     -11.837   8.725  -8.232  1.00  0.00     0.029 A 
ATOM     55  N   UNL     1     -10.870   7.267  -9.559  1.00  0.00    -0.354 N 
ATOM     56  N   UNL     1      -9.259   3.473  -8.158  1.00  0.00    -0.248 NA
ATOM     57  C   UNL     1      -7.679   4.402  -9.600  1.00  0.00     0.031 C 
ATOM     58  C   UNL     1     -12.148   7.401  -7.799  1.00  0.00     0.029 A 
ATOM     59  C   UNL     1     -11.352   6.512  -8.522  1.00  0.00     0.049 A 
ATOM     60  H   UNL     1     -10.611   6.929 -10.447  1.00  0.00     0.167 HD
ATOM     61  C   UNL     1      -9.852   4.547  -8.802  1.00  0.00     0.074 A 
ATOM     62  C   UNL     1      -8.858   5.006  -9.768  1.00  0.00     0.031 C 
ATOM     63  C   UNL     1     -10.968   5.139  -8.284  1.00  0.00     0.037 A 
BRANCH  50  64
ATOM     64  C   UNL     1      -9.145   9.515 -10.887  1.00  0.00     0.064 A 
ATOM     65  C   UNL     1     -10.100   9.423 -11.921  1.00  0.00     0.173 A 
ATOM     66  C   UNL     1      -7.798   9.495 -11.311  1.00  0.00     0.173 A 
ATOM     67  F   UNL     1     -11.412   9.431 -11.643  1.00  0.00    -0.203 F 
ATOM     68  C   UNL     1      -9.734   9.218 -13.254  1.00  0.00     0.198 A 
ATOM     69  C   UNL     1      -7.436   9.349 -12.650  1.00  0.00     0.198 A 
ATOM     70  F   UNL     1      -6.770   9.503 -10.457  1.00  0.00    -0.203 F 
ATOM     71  F   UNL     1     -10.681   8.991 -14.174  1.00  0.00    -0.200 F 
ATOM     72  C   UNL     1      -8.402   9.172 -13.616  1.00  0.00     0.200 A 
ATOM     73  F   UNL     1      -6.138   9.295 -12.977  1.00  0.00    -0.200 F 
ATOM     74  F   UNL     1      -8.047   8.910 -14.879  1.00  0.00    -0.200 F 
ENDBRANCH  50  64
BRANCH  51  75
ATOM     75  C   UNL     1      -5.866   2.265  -7.765  1.00  0.00     0.064 A 
ATOM     76  C   UNL     1      -6.152   1.175  -8.606  1.00  0.00     0.173 A 
ATOM     77  C   UNL     1      -4.508   2.483  -7.468  1.00  0.00     0.173 A 
ATOM     78  F   UNL     1      -7.417   0.914  -8.969  1.00  0.00    -0.203 F 
ATOM     79  C   UNL     1      -5.139   0.383  -9.156  1.00  0.00     0.198 A 
ATOM     80  C   UNL     1      -3.497   1.685  -8.011  1.00  0.00     0.198 A 
ATOM     81  F   UNL     1      -4.128   3.537  -6.732  1.00  0.00    -0.203 F 
ATOM     82  F   UNL     1      -5.450  -0.597 -10.018  1.00  0.00    -0.200 F 
ATOM     83  C   UNL     1      -3.812   0.648  -8.869  1.00  0.00     0.200 A 
ATOM     84  F   UNL     1      -2.213   1.973  -7.756  1.00  0.00    -0.200 F 
ATOM     85  F   UNL     1      -2.837  -0.064  -9.453  1.00  0.00    -0.200 F 
ENDBRANCH  51  75
BRANCH  63  86
ATOM     86  C   UNL     1     -11.732   4.393  -7.224  1.00  0.00     0.064 A 
ATOM     87  C   UNL     1     -11.211   4.019  -5.973  1.00  0.00     0.173 A 
ATOM     88  C   UNL     1     -13.097   4.158  -7.447  1.00  0.00     0.173 A 
ATOM     89  F   UNL     1      -9.943   4.294  -5.639  1.00  0.00    -0.203 F 
ATOM     90  C   UNL     1     -12.011   3.398  -5.013  1.00  0.00     0.198 A 
ATOM     91  C   UNL     1     -13.902   3.578  -6.472  1.00  0.00     0.198 A 
ATOM     92  F   UNL     1     -13.663   4.537  -8.604  1.00  0.00    -0.203 F 
ATOM     93  F   UNL     1     -11.485   3.033  -3.834  1.00  0.00    -0.200 F 
ATOM     94  C   UNL     1     -13.357   3.187  -5.261  1.00  0.00     0.200 A 
ATOM     95  F   UNL     1     -15.213   3.422  -6.699  1.00  0.00    -0.200 F 
ATOM     96  F   UNL     1     -14.135   2.629  -4.323  1.00  0.00    -0.200 F 
ENDBRANCH  63  86
ENDBRANCH  37  38
ENDBRANCH  29  32
ENDBRANCH  27  28
ENDBRANCH   1  27
TORSDOF 12
