REMARK SMILES Cc1nsc(N[C@@H](C)C2CCCC2)c1C(=O)NCCCCNC(=O)c1ccc(-c2c3nc(c(-c4c(F)c(F)c(F)c(F)c4F)c4ccc([nH]4)c(-c4c(F)c(F)c(F)c(F)c4F)c4nc(c(-c5c(F)c(F)c(F)c(F)c5F)c5ccc2[nH]5)C=C4)C=C3)cc1
REMARK SMILES IDX 19 1 18 2 17 3 15 4 16 5 14 7 1 8 2 9 3 10 4 11 5 12 6 13
REMARK SMILES IDX 7 15 8 16 9 17 10 18 13 19 11 20 12 21 20 22 21 23 22 24
REMARK SMILES IDX 23 25 24 27 25 28 26 29 87 30 27 31 86 32 28 33 29 34 30 35
REMARK SMILES IDX 80 36 31 37 85 38 79 39 81 40 32 41 84 42 78 43 77 44 33 46
REMARK SMILES IDX 65 47 45 48 64 49 46 50 49 51 63 52 82 53 47 54 48 55 62 57
REMARK SMILES IDX 83 58 50 59 34 60 35 61 43 62 36 63 37 64 41 65 44 66 38 67
REMARK SMILES IDX 39 68 42 69 40 70 66 71 67 72 75 73 68 74 69 75 73 76 76 77
REMARK SMILES IDX 70 78 71 79 74 80 72 81 51 82 52 83 60 84 53 85 54 86 58 87
REMARK SMILES IDX 61 88 55 89 56 90 59 91 57 92
REMARK H PARENT 17 6 6 14 22 26 81 45 49 56
REMARK Flexibility Score: inf
ROOT
ATOM      1  C   UNL     1       2.967   0.721   1.518  1.00  0.00     0.023 C 
ENDROOT
BRANCH   1   2
ATOM      2  C   UNL     1       1.604   1.416   1.450  1.00  0.00     0.116 C 
BRANCH   2   3
ATOM      3  N   UNL     1       1.594   2.526   0.533  1.00  0.00    -0.352 N 
ATOM      4  C   UNL     1       1.163   2.769  -0.742  1.00  0.00     0.256 C 
ATOM      5  O   UNL     1       1.301   3.968  -1.034  1.00  0.00    -0.269 OA
ATOM      6  H   UNL     1       2.009   3.325   0.931  1.00  0.00     0.163 HD
BRANCH   4   7
ATOM      7  C   UNL     1       0.592   1.812  -1.721  1.00  0.00     0.097 A 
ATOM      8  C   UNL     1       0.572  -0.688  -0.710  1.00  0.00     0.069 C 
ATOM      9  C   UNL     1       0.332   0.369  -1.726  1.00  0.00     0.066 A 
ATOM     10  N   UNL     1      -0.222  -0.131  -2.832  1.00  0.00    -0.195 NA
ATOM     11  S   UNL     1      -0.434   1.044  -3.933  1.00  0.00    -0.018 S 
ATOM     12  C   UNL     1       0.192   2.322  -2.981  1.00  0.00     0.122 A 
BRANCH  12  13
ATOM     13  N   UNL     1       0.281   3.616  -3.408  1.00  0.00    -0.372 N 
ATOM     14  H   UNL     1       0.698   4.260  -2.791  1.00  0.00     0.161 HD
BRANCH  13  15
ATOM     15  C   UNL     1      -0.184   4.138  -4.689  1.00  0.00     0.080 C 
ATOM     16  C   UNL     1      -1.355   5.079  -4.406  1.00  0.00     0.031 C 
BRANCH  15  17
ATOM     17  C   UNL     1       1.021   4.771  -5.431  1.00  0.00     0.011 C 
ATOM     18  C   UNL     1       1.308   4.066  -6.762  1.00  0.00     0.006 C 
ATOM     19  C   UNL     1       0.896   6.232  -5.868  1.00  0.00     0.006 C 
ATOM     20  C   UNL     1       2.268   5.005  -7.479  1.00  0.00     0.000 C 
ATOM     21  C   UNL     1       1.928   6.407  -6.981  1.00  0.00     0.000 C 
ENDBRANCH  15  17
ENDBRANCH  13  15
ENDBRANCH  12  13
ENDBRANCH   4   7
ENDBRANCH   2   3
ENDBRANCH   1   2
BRANCH   1  22
ATOM     22  C   UNL     1       3.961   1.306   2.537  1.00  0.00     0.023 C 
BRANCH  22  23
ATOM     23  C   UNL     1       3.538   1.208   4.001  1.00  0.00     0.116 C 
BRANCH  23  24
ATOM     24  N   UNL     1       3.321  -0.168   4.466  1.00  0.00    -0.352 N 
ATOM     25  C   UNL     1       2.676  -0.586   5.619  1.00  0.00     0.251 C 
ATOM     26  H   UNL     1       3.677  -0.881   3.888  1.00  0.00     0.163 HD
ATOM     27  O   UNL     1       2.901  -1.687   6.120  1.00  0.00    -0.269 OA
BRANCH  25  28
ATOM     28  C   UNL     1       1.672   0.305   6.215  1.00  0.00     0.039 A 
ATOM     29  C   UNL     1       1.543   0.516   7.591  1.00  0.00     0.014 A 
ATOM     30  C   UNL     1       0.877   0.994   5.310  1.00  0.00     0.014 A 
ATOM     31  C   UNL     1       0.646   1.488   8.033  1.00  0.00     0.010 A 
ATOM     32  C   UNL     1       0.202   2.101   5.725  1.00  0.00     0.010 A 
ATOM     33  C   UNL     1      -0.013   2.280   7.083  1.00  0.00    -0.014 A 
BRANCH  33  34
ATOM     34  C   UNL     1      -0.897   3.376   7.440  1.00  0.00     0.031 A 
ATOM     35  C   UNL     1      -0.257   4.460   8.224  1.00  0.00     0.074 A 
ATOM     36  C   UNL     1      -2.104   3.518   6.846  1.00  0.00     0.049 A 
ATOM     37  N   UNL     1      -0.529   4.812   9.435  1.00  0.00    -0.248 NA
ATOM     38  C   UNL     1       0.916   5.144   7.655  1.00  0.00     0.031 C 
ATOM     39  C   UNL     1      -2.711   2.690   5.794  1.00  0.00     0.029 A 
ATOM     40  N   UNL     1      -2.996   4.534   6.966  1.00  0.00    -0.354 N 
ATOM     41  C   UNL     1       0.293   5.900   9.711  1.00  0.00     0.074 A 
ATOM     42  C   UNL     1       1.289   5.924   8.672  1.00  0.00     0.031 C 
ATOM     43  C   UNL     1      -3.725   3.366   5.211  1.00  0.00     0.029 A 
ATOM     44  C   UNL     1      -3.945   4.593   5.949  1.00  0.00     0.049 A 
ATOM     45  H   UNL     1      -2.974   5.177   7.712  1.00  0.00     0.167 HD
ATOM     46  C   UNL     1      -0.077   6.837  10.628  1.00  0.00     0.037 A 
ATOM     47  C   UNL     1      -4.794   5.626   5.716  1.00  0.00     0.037 A 
ATOM     48  C   UNL     1      -1.162   6.354  11.450  1.00  0.00     0.049 A 
ATOM     49  C   UNL     1      -4.875   6.406   6.984  1.00  0.00     0.074 A 
ATOM     50  C   UNL     1      -1.329   5.247  12.262  1.00  0.00     0.029 A 
ATOM     51  N   UNL     1      -2.433   6.802  11.174  1.00  0.00    -0.354 N 
ATOM     52  N   UNL     1      -5.407   5.938   8.083  1.00  0.00    -0.248 NA
ATOM     53  C   UNL     1      -3.913   7.484   7.168  1.00  0.00     0.031 C 
ATOM     54  C   UNL     1      -2.651   4.788  11.983  1.00  0.00     0.029 A 
ATOM     55  C   UNL     1      -3.244   5.696  11.106  1.00  0.00     0.049 A 
ATOM     56  H   UNL     1      -2.708   7.739  11.050  1.00  0.00     0.167 HD
ATOM     57  C   UNL     1      -4.543   6.339   9.092  1.00  0.00     0.074 A 
ATOM     58  C   UNL     1      -3.675   7.343   8.476  1.00  0.00     0.031 C 
ATOM     59  C   UNL     1      -4.394   5.606  10.236  1.00  0.00     0.037 A 
BRANCH  46  60
ATOM     60  C   UNL     1       0.273   8.302  10.548  1.00  0.00     0.064 A 
ATOM     61  C   UNL     1      -0.038   9.139  11.638  1.00  0.00     0.173 A 
ATOM     62  C   UNL     1       0.625   8.967   9.354  1.00  0.00     0.173 A 
ATOM     63  F   UNL     1      -0.404   8.615  12.818  1.00  0.00    -0.203 F 
ATOM     64  C   UNL     1      -0.074  10.530  11.516  1.00  0.00     0.198 A 
ATOM     65  C   UNL     1       0.645  10.357   9.251  1.00  0.00     0.198 A 
ATOM     66  F   UNL     1       0.849   8.313   8.209  1.00  0.00    -0.203 F 
ATOM     67  F   UNL     1      -0.503  11.277  12.541  1.00  0.00    -0.200 F 
ATOM     68  C   UNL     1       0.263  11.138  10.320  1.00  0.00     0.200 A 
ATOM     69  F   UNL     1       0.957  10.925   8.078  1.00  0.00    -0.200 F 
ATOM     70  F   UNL     1       0.171  12.466  10.181  1.00  0.00    -0.200 F 
ENDBRANCH  46  60
BRANCH  47  71
ATOM     71  C   UNL     1      -5.231   6.165   4.401  1.00  0.00     0.064 A 
ATOM     72  C   UNL     1      -6.264   7.114   4.314  1.00  0.00     0.173 A 
ATOM     73  C   UNL     1      -4.472   5.970   3.228  1.00  0.00     0.173 A 
ATOM     74  F   UNL     1      -7.011   7.397   5.391  1.00  0.00    -0.203 F 
ATOM     75  C   UNL     1      -6.501   7.842   3.141  1.00  0.00     0.198 A 
ATOM     76  C   UNL     1      -4.714   6.689   2.057  1.00  0.00     0.198 A 
ATOM     77  F   UNL     1      -3.415   5.146   3.218  1.00  0.00    -0.203 F 
ATOM     78  F   UNL     1      -7.453   8.785   3.119  1.00  0.00    -0.200 F 
ATOM     79  C   UNL     1      -5.718   7.637   2.017  1.00  0.00     0.200 A 
ATOM     80  F   UNL     1      -3.925   6.504   0.989  1.00  0.00    -0.200 F 
ATOM     81  F   UNL     1      -5.902   8.377   0.915  1.00  0.00    -0.200 F 
ENDBRANCH  47  71
BRANCH  59  82
ATOM     82  C   UNL     1      -5.349   4.472  10.498  1.00  0.00     0.064 A 
ATOM     83  C   UNL     1      -5.503   3.353   9.661  1.00  0.00     0.173 A 
ATOM     84  C   UNL     1      -6.006   4.435  11.736  1.00  0.00     0.173 A 
ATOM     85  F   UNL     1      -4.827   3.251   8.511  1.00  0.00    -0.203 F 
ATOM     86  C   UNL     1      -6.309   2.274  10.026  1.00  0.00     0.198 A 
ATOM     87  C   UNL     1      -6.778   3.341  12.117  1.00  0.00     0.198 A 
ATOM     88  F   UNL     1      -5.853   5.445  12.607  1.00  0.00    -0.203 F 
ATOM     89  F   UNL     1      -6.442   1.225   9.201  1.00  0.00    -0.200 F 
ATOM     90  C   UNL     1      -6.939   2.266  11.258  1.00  0.00     0.200 A 
ATOM     91  F   UNL     1      -7.341   3.315  13.332  1.00  0.00    -0.200 F 
ATOM     92  F   UNL     1      -7.678   1.212  11.630  1.00  0.00    -0.200 F 
ENDBRANCH  59  82
ENDBRANCH  33  34
ENDBRANCH  25  28
ENDBRANCH  23  24
ENDBRANCH  22  23
ENDBRANCH   1  22
TORSDOF 14
