REMARK SMILES Cn1ncc(C(=O)NCCCCNC(=O)c2ccc(-c3c4nc(c(-c5c(F)c(F)c(F)c(F)c5F)c5ccc([nH]5)c(-c5c(F)c(F)c(F)c(F)c5F)c5nc(c(-c6c(F)c(F)c(F)c(F)c6F)c6ccc3[nH]6)C=C5)C=C4)cc2)c1C(=O)NCC1CC[NH+](Cc2ccccc2)CC1
REMARK SMILES IDX 9 1 8 2 6 3 7 4 5 6 1 7 2 8 3 9 79 10 4 11 80 12 81 13 82 14
REMARK SMILES IDX 83 16 84 17 85 18 96 19 86 20 95 21 87 22 88 24 89 25 90 26
REMARK SMILES IDX 94 27 91 28 93 29 92 30 10 31 11 32 12 33 13 34 14 35 15 37
REMARK SMILES IDX 16 38 17 39 78 40 18 41 77 42 19 43 20 44 21 45 71 46 22 47
REMARK SMILES IDX 76 48 70 49 72 50 23 51 75 52 69 53 68 54 24 56 56 57 36 58
REMARK SMILES IDX 55 59 37 60 40 61 54 62 73 63 38 64 39 65 53 67 74 68 41 69
REMARK SMILES IDX 25 70 26 71 34 72 27 73 28 74 32 75 35 76 29 77 30 78 33 79
REMARK SMILES IDX 31 80 57 81 58 82 66 83 59 84 60 85 64 86 67 87 61 88 62 89
REMARK SMILES IDX 65 90 63 91 42 92 43 93 51 94 44 95 45 96 49 97 52 98 46 99
REMARK SMILES IDX 47 100 50 101 48 102
REMARK H PARENT 8 5 82 15 87 23 13 36 72 55 40 66
REMARK Flexibility Score: inf
ROOT
ATOM      1  C   UNL     1       0.948  -4.210   0.401  1.00  0.00     0.116 C 
ENDROOT
BRANCH   1   2
ATOM      2  N   UNL     1       2.086  -3.374   0.683  1.00  0.00    -0.352 N 
ATOM      3  C   UNL     1       2.233  -2.016   0.809  1.00  0.00     0.255 C 
ATOM      4  O   UNL     1       3.377  -1.649   1.099  1.00  0.00    -0.269 OA
ATOM      5  H   UNL     1       2.924  -3.876   0.812  1.00  0.00     0.163 HD
BRANCH   3   6
ATOM      6  C   UNL     1       1.203  -1.019   0.532  1.00  0.00     0.090 A 
ATOM      7  C   UNL     1      -1.793   1.006   0.355  1.00  0.00     0.174 C 
ATOM      8  N   UNL     1      -0.517   0.341   0.295  1.00  0.00    -0.262 N 
ATOM      9  N   UNL     1       0.527   1.089  -0.086  1.00  0.00    -0.180 NA
ATOM     10  C   UNL     1      -0.192  -0.949   0.663  1.00  0.00     0.138 A 
ATOM     11  C   UNL     1       1.565   0.281   0.084  1.00  0.00     0.149 A 
BRANCH  10  12
ATOM     12  C   UNL     1      -1.110  -1.923   1.205  1.00  0.00     0.270 C 
ATOM     13  O   UNL     1      -0.927  -2.485   2.283  1.00  0.00    -0.268 OA
ATOM     14  N   UNL     1      -2.030  -2.476   0.337  1.00  0.00    -0.350 N 
ATOM     15  H   UNL     1      -1.734  -3.251  -0.193  1.00  0.00     0.163 HD
BRANCH  14  16
ATOM     16  C   UNL     1      -3.395  -2.022   0.132  1.00  0.00     0.120 C 
BRANCH  16  17
ATOM     17  C   UNL     1      -3.952  -2.175  -1.304  1.00  0.00     0.019 C 
ATOM     18  C   UNL     1      -3.586  -3.495  -2.004  1.00  0.00     0.067 C 
ATOM     19  C   UNL     1      -3.638  -1.006  -2.248  1.00  0.00     0.067 C 
ATOM     20  C   UNL     1      -2.205  -3.476  -2.686  1.00  0.00     0.262 C 
ATOM     21  C   UNL     1      -2.221  -1.050  -2.820  1.00  0.00     0.262 C 
ATOM     22  N   UNL     1      -2.035  -2.302  -3.541  1.00  0.00    -0.331 N 
ATOM     23  H   UNL     1      -2.809  -2.386  -4.199  1.00  0.00     0.348 HD
BRANCH  22  24
ATOM     24  C   UNL     1      -0.875  -2.298  -4.449  1.00  0.00     0.299 C 
BRANCH  24  25
ATOM     25  C   UNL     1       0.495  -1.908  -3.925  1.00  0.00     0.006 A 
ATOM     26  C   UNL     1       1.250  -0.863  -4.468  1.00  0.00     0.009 A 
ATOM     27  C   UNL     1       1.115  -2.700  -2.969  1.00  0.00     0.009 A 
ATOM     28  C   UNL     1       2.580  -0.647  -4.067  1.00  0.00     0.001 A 
ATOM     29  C   UNL     1       2.445  -2.517  -2.584  1.00  0.00     0.001 A 
ATOM     30  C   UNL     1       3.182  -1.482  -3.131  1.00  0.00     0.000 A 
ENDBRANCH  24  25
ENDBRANCH  22  24
ENDBRANCH  16  17
ENDBRANCH  14  16
ENDBRANCH  10  12
ENDBRANCH   3   6
ENDBRANCH   1   2
BRANCH   1  31
ATOM     31  C   UNL     1       1.147  -5.286  -0.666  1.00  0.00     0.023 C 
BRANCH  31  32
ATOM     32  C   UNL     1       2.355  -6.180  -0.538  1.00  0.00     0.023 C 
BRANCH  32  33
ATOM     33  C   UNL     1       2.349  -6.952   0.756  1.00  0.00     0.116 C 
BRANCH  33  34
ATOM     34  N   UNL     1       1.101  -7.702   0.916  1.00  0.00    -0.352 N 
ATOM     35  C   UNL     1       0.828  -9.017   0.613  1.00  0.00     0.251 C 
ATOM     36  H   UNL     1       0.349  -7.193   1.296  1.00  0.00     0.163 HD
ATOM     37  O   UNL     1      -0.321  -9.404   0.462  1.00  0.00    -0.269 OA
BRANCH  35  38
ATOM     38  C   UNL     1       1.965  -9.942   0.475  1.00  0.00     0.039 A 
ATOM     39  C   UNL     1       1.982 -10.922  -0.516  1.00  0.00     0.014 A 
ATOM     40  C   UNL     1       3.056  -9.771   1.323  1.00  0.00     0.014 A 
ATOM     41  C   UNL     1       3.141 -11.678  -0.697  1.00  0.00     0.010 A 
ATOM     42  C   UNL     1       4.255 -10.369   1.010  1.00  0.00     0.010 A 
ATOM     43  C   UNL     1       4.299 -11.373   0.039  1.00  0.00    -0.014 A 
BRANCH  43  44
ATOM     44  C   UNL     1       5.564 -12.127  -0.104  1.00  0.00     0.031 A 
ATOM     45  C   UNL     1       6.167 -12.771   1.119  1.00  0.00     0.074 A 
ATOM     46  C   UNL     1       6.210 -12.138  -1.284  1.00  0.00     0.049 A 
ATOM     47  N   UNL     1       7.330 -13.350   1.265  1.00  0.00    -0.248 NA
ATOM     48  C   UNL     1       5.386 -12.690   2.368  1.00  0.00     0.031 C 
ATOM     49  C   UNL     1       5.759 -11.473  -2.508  1.00  0.00     0.029 A 
ATOM     50  N   UNL     1       7.395 -12.724  -1.641  1.00  0.00    -0.354 N 
ATOM     51  C   UNL     1       7.424 -13.658   2.616  1.00  0.00     0.074 A 
ATOM     52  C   UNL     1       6.260 -13.109   3.266  1.00  0.00     0.031 C 
ATOM     53  C   UNL     1       6.633 -11.728  -3.494  1.00  0.00     0.029 A 
ATOM     54  C   UNL     1       7.726 -12.533  -2.960  1.00  0.00     0.049 A 
ATOM     55  H   UNL     1       7.957 -13.233  -1.013  1.00  0.00     0.167 HD
ATOM     56  C   UNL     1       8.373 -14.383   3.252  1.00  0.00     0.037 A 
ATOM     57  C   UNL     1       8.796 -12.966  -3.652  1.00  0.00     0.037 A 
ATOM     58  C   UNL     1       9.494 -14.973   2.577  1.00  0.00     0.049 A 
ATOM     59  C   UNL     1       9.823 -13.801  -2.935  1.00  0.00     0.074 A 
ATOM     60  C   UNL     1      10.479 -15.794   3.090  1.00  0.00     0.029 A 
ATOM     61  N   UNL     1       9.769 -14.805   1.226  1.00  0.00    -0.354 N 
ATOM     62  N   UNL     1       9.864 -14.162  -1.674  1.00  0.00    -0.248 NA
ATOM     63  C   UNL     1      10.945 -14.299  -3.739  1.00  0.00     0.031 C 
ATOM     64  C   UNL     1      11.380 -16.082   2.060  1.00  0.00     0.029 A 
ATOM     65  C   UNL     1      10.922 -15.491   0.891  1.00  0.00     0.049 A 
ATOM     66  H   UNL     1       9.224 -14.275   0.600  1.00  0.00     0.167 HD
ATOM     67  C   UNL     1      10.998 -14.950  -1.538  1.00  0.00     0.074 A 
ATOM     68  C   UNL     1      11.606 -15.029  -2.851  1.00  0.00     0.031 C 
ATOM     69  C   UNL     1      11.495 -15.554  -0.430  1.00  0.00     0.037 A 
BRANCH  56  70
ATOM     70  C   UNL     1       8.215 -14.586   4.733  1.00  0.00     0.064 A 
ATOM     71  C   UNL     1       7.146 -15.323   5.271  1.00  0.00     0.173 A 
ATOM     72  C   UNL     1       9.137 -14.029   5.631  1.00  0.00     0.173 A 
ATOM     73  F   UNL     1       6.223 -15.864   4.460  1.00  0.00    -0.203 F 
ATOM     74  C   UNL     1       6.981 -15.453   6.647  1.00  0.00     0.198 A 
ATOM     75  C   UNL     1       8.992 -14.196   7.006  1.00  0.00     0.198 A 
ATOM     76  F   UNL     1      10.179 -13.316   5.176  1.00  0.00    -0.203 F 
ATOM     77  F   UNL     1       5.909 -16.095   7.134  1.00  0.00    -0.200 F 
ATOM     78  C   UNL     1       7.907 -14.896   7.513  1.00  0.00     0.200 A 
ATOM     79  F   UNL     1       9.896 -13.668   7.843  1.00  0.00    -0.200 F 
ATOM     80  F   UNL     1       7.749 -15.023   8.838  1.00  0.00    -0.200 F 
ENDBRANCH  56  70
BRANCH  57  81
ATOM     81  C   UNL     1       8.917 -12.659  -5.101  1.00  0.00     0.064 A 
ATOM     82  C   UNL     1       8.784 -13.669  -6.064  1.00  0.00     0.173 A 
ATOM     83  C   UNL     1       9.145 -11.352  -5.557  1.00  0.00     0.173 A 
ATOM     84  F   UNL     1       8.577 -14.937  -5.678  1.00  0.00    -0.203 F 
ATOM     85  C   UNL     1       8.897 -13.390  -7.424  1.00  0.00     0.198 A 
ATOM     86  C   UNL     1       9.227 -11.068  -6.919  1.00  0.00     0.198 A 
ATOM     87  F   UNL     1       9.265 -10.345  -4.679  1.00  0.00    -0.203 F 
ATOM     88  F   UNL     1       8.809 -14.383  -8.319  1.00  0.00    -0.200 F 
ATOM     89  C   UNL     1       9.112 -12.088  -7.851  1.00  0.00     0.200 A 
ATOM     90  F   UNL     1       9.415  -9.806  -7.329  1.00  0.00    -0.200 F 
ATOM     91  F   UNL     1       9.212 -11.818  -9.160  1.00  0.00    -0.200 F 
ENDBRANCH  57  81
BRANCH  69  92
ATOM     92  C   UNL     1      12.736 -16.380  -0.599  1.00  0.00     0.064 A 
ATOM     93  C   UNL     1      13.985 -15.791  -0.845  1.00  0.00     0.173 A 
ATOM     94  C   UNL     1      12.679 -17.775  -0.461  1.00  0.00     0.173 A 
ATOM     95  F   UNL     1      14.087 -14.462  -0.997  1.00  0.00    -0.203 F 
ATOM     96  C   UNL     1      15.128 -16.574  -0.974  1.00  0.00     0.198 A 
ATOM     97  C   UNL     1      13.830 -18.550  -0.554  1.00  0.00     0.198 A 
ATOM     98  F   UNL     1      11.510 -18.384  -0.214  1.00  0.00    -0.203 F 
ATOM     99  F   UNL     1      16.303 -15.996  -1.260  1.00  0.00    -0.200 F 
ATOM    100  C   UNL     1      15.052 -17.950  -0.819  1.00  0.00     0.200 A 
ATOM    101  F   UNL     1      13.758 -19.877  -0.385  1.00  0.00    -0.200 F 
ATOM    102  F   UNL     1      16.156 -18.700  -0.932  1.00  0.00    -0.200 F 
ENDBRANCH  69  92
ENDBRANCH  43  44
ENDBRANCH  35  38
ENDBRANCH  33  34
ENDBRANCH  32  33
ENDBRANCH  31  32
ENDBRANCH   1  31
TORSDOF 16
