REMARK SMILES CC1(CNS(=O)(=O)Cc2ccc(C(=O)NCCCCNC(=O)c3ccc(-c4c5nc(c(-c6c(F)c(F)c(F)c(F)c6F)c6ccc([nH]6)c(-c6c(F)c(F)c(F)c(F)c6F)c6nc(c(-c7c(F)c(F)c(F)c(F)c7F)c7ccc4[nH]7)C=C6)C=C5)cc3)cc2)COC1
REMARK SMILES IDX 16 1 15 2 13 3 14 4 12 6 9 7 10 8 87 9 11 10 86 11 8 12 5 13
REMARK SMILES IDX 6 14 7 15 4 16 3 18 2 19 1 20 88 21 90 22 89 23 17 24 18 25
REMARK SMILES IDX 19 26 20 27 21 28 22 30 23 31 24 32 85 33 25 34 84 35 26 36
REMARK SMILES IDX 27 37 28 38 78 39 29 40 83 41 77 42 79 43 30 44 82 45 76 46
REMARK SMILES IDX 75 47 31 49 63 50 43 51 62 52 44 53 47 54 61 55 80 56 45 57
REMARK SMILES IDX 46 58 60 60 81 61 48 62 32 63 33 64 41 65 34 66 35 67 39 68
REMARK SMILES IDX 42 69 36 70 37 71 40 72 38 73 64 74 65 75 73 76 66 77 67 78
REMARK SMILES IDX 71 79 74 80 68 81 69 82 72 83 70 84 49 85 50 86 58 87 51 88
REMARK SMILES IDX 52 89 56 90 59 91 53 92 54 93 57 94 55 95
REMARK H PARENT 15 5 4 17 20 29 79 48 47 59
REMARK Flexibility Score: inf
ROOT
ATOM      1  C   UNL     1      -2.074   6.757  -3.742  1.00  0.00     0.116 C 
ENDROOT
BRANCH   1   2
ATOM      2  N   UNL     1      -1.084   5.823  -4.242  1.00  0.00    -0.352 N 
ATOM      3  C   UNL     1      -0.691   4.587  -3.793  1.00  0.00     0.251 C 
ATOM      4  O   UNL     1       0.179   3.994  -4.430  1.00  0.00    -0.269 OA
ATOM      5  H   UNL     1      -0.609   6.130  -5.048  1.00  0.00     0.163 HD
BRANCH   3   6
ATOM      6  C   UNL     1      -1.320   3.917  -2.621  1.00  0.00     0.039 A 
ATOM      7  C   UNL     1      -2.611   2.502  -0.546  1.00  0.00    -0.032 A 
ATOM      8  C   UNL     1      -1.996   1.814  -1.599  1.00  0.00     0.005 A 
ATOM      9  C   UNL     1      -2.534   3.898  -0.521  1.00  0.00     0.005 A 
ATOM     10  C   UNL     1      -1.359   2.516  -2.628  1.00  0.00     0.014 A 
ATOM     11  C   UNL     1      -1.858   4.591  -1.525  1.00  0.00     0.014 A 
BRANCH   7  12
ATOM     12  C   UNL     1      -3.360   1.768   0.533  1.00  0.00     0.189 C 
BRANCH  12  13
ATOM     13  S   UNL     1      -2.476   1.829   2.101  1.00  0.00     0.215 S 
ATOM     14  O   UNL     1      -3.104   0.898   3.017  1.00  0.00    -0.212 OA
ATOM     15  O   UNL     1      -2.256   3.203   2.495  1.00  0.00    -0.212 OA
BRANCH  13  16
ATOM     16  N   UNL     1      -0.954   1.205   1.734  1.00  0.00    -0.214 NA
ATOM     17  H   UNL     1      -0.626   1.675   0.891  1.00  0.00     0.141 HD
BRANCH  16  18
ATOM     18  C   UNL     1      -0.858  -0.247   1.498  1.00  0.00     0.110 C 
BRANCH  18  19
ATOM     19  C   UNL     1       0.554  -0.674   1.097  1.00  0.00     0.028 C 
ATOM     20  C   UNL     1       1.111   0.050  -0.121  1.00  0.00     0.018 C 
ATOM     21  C   UNL     1       0.676  -2.208   1.011  1.00  0.00     0.170 C 
ATOM     22  C   UNL     1       1.514  -0.835   2.292  1.00  0.00     0.170 C 
ATOM     23  O   UNL     1       1.247  -2.262   2.343  1.00  0.00    -0.380 OA
ENDBRANCH  18  19
ENDBRANCH  16  18
ENDBRANCH  13  16
ENDBRANCH  12  13
ENDBRANCH   7  12
ENDBRANCH   3   6
ENDBRANCH   1   2
BRANCH   1  24
ATOM     24  C   UNL     1      -1.402   7.835  -2.887  1.00  0.00     0.023 C 
BRANCH  24  25
ATOM     25  C   UNL     1      -0.715   8.927  -3.705  1.00  0.00     0.023 C 
BRANCH  25  26
ATOM     26  C   UNL     1      -1.658   9.744  -4.576  1.00  0.00     0.116 C 
BRANCH  26  27
ATOM     27  N   UNL     1      -2.691  10.435  -3.817  1.00  0.00    -0.352 N 
ATOM     28  C   UNL     1      -3.240  11.669  -4.079  1.00  0.00     0.251 C 
ATOM     29  H   UNL     1      -3.037   9.965  -3.024  1.00  0.00     0.163 HD
ATOM     30  O   UNL     1      -4.027  12.195  -3.304  1.00  0.00    -0.269 OA
BRANCH  28  31
ATOM     31  C   UNL     1      -2.816  12.364  -5.308  1.00  0.00     0.039 A 
ATOM     32  C   UNL     1      -2.251  13.636  -5.208  1.00  0.00     0.014 A 
ATOM     33  C   UNL     1      -2.873  11.697  -6.534  1.00  0.00     0.014 A 
ATOM     34  C   UNL     1      -1.669  14.214  -6.337  1.00  0.00     0.010 A 
ATOM     35  C   UNL     1      -2.220  12.237  -7.633  1.00  0.00     0.010 A 
ATOM     36  C   UNL     1      -1.608  13.499  -7.545  1.00  0.00    -0.014 A 
BRANCH  36  37
ATOM     37  C   UNL     1      -0.915  14.041  -8.739  1.00  0.00     0.031 A 
ATOM     38  C   UNL     1      -1.696  14.294  -9.996  1.00  0.00     0.074 A 
ATOM     39  C   UNL     1       0.421  14.213  -8.723  1.00  0.00     0.049 A 
ATOM     40  N   UNL     1      -1.268  14.631 -11.186  1.00  0.00    -0.248 NA
ATOM     41  C   UNL     1      -3.154  14.111  -9.912  1.00  0.00     0.031 C 
ATOM     42  C   UNL     1       1.294  13.966  -7.574  1.00  0.00     0.029 A 
ATOM     43  N   UNL     1       1.283  14.617  -9.713  1.00  0.00    -0.354 N 
ATOM     44  C   UNL     1      -2.398  14.680 -11.991  1.00  0.00     0.074 A 
ATOM     45  C   UNL     1      -3.522  14.282 -11.172  1.00  0.00     0.031 C 
ATOM     46  C   UNL     1       2.563  14.239  -7.919  1.00  0.00     0.029 A 
ATOM     47  C   UNL     1       2.601  14.630  -9.325  1.00  0.00     0.049 A 
ATOM     48  H   UNL     1       0.984  14.874 -10.615  1.00  0.00     0.167 HD
ATOM     49  C   UNL     1      -2.492  15.048 -13.290  1.00  0.00     0.037 A 
ATOM     50  C   UNL     1       3.715  14.906 -10.031  1.00  0.00     0.037 A 
ATOM     51  C   UNL     1      -1.372  15.463 -14.092  1.00  0.00     0.049 A 
ATOM     52  C   UNL     1       3.587  15.281 -11.485  1.00  0.00     0.074 A 
ATOM     53  C   UNL     1      -1.368  15.908 -15.402  1.00  0.00     0.029 A 
ATOM     54  N   UNL     1      -0.053  15.479 -13.659  1.00  0.00    -0.354 N 
ATOM     55  N   UNL     1       2.507  15.386 -12.221  1.00  0.00    -0.248 NA
ATOM     56  C   UNL     1       4.833  15.576 -12.206  1.00  0.00     0.031 C 
ATOM     57  C   UNL     1      -0.042  16.134 -15.781  1.00  0.00     0.029 A 
ATOM     58  C   UNL     1       0.775  15.898 -14.687  1.00  0.00     0.049 A 
ATOM     59  H   UNL     1       0.248  15.229 -12.756  1.00  0.00     0.167 HD
ATOM     60  C   UNL     1       2.938  15.795 -13.476  1.00  0.00     0.074 A 
ATOM     61  C   UNL     1       4.377  15.926 -13.401  1.00  0.00     0.031 C 
ATOM     62  C   UNL     1       2.206  16.043 -14.590  1.00  0.00     0.037 A 
BRANCH  49  63
ATOM     63  C   UNL     1      -3.851  15.013 -13.927  1.00  0.00     0.064 A 
ATOM     64  C   UNL     1      -4.868  15.903 -13.547  1.00  0.00     0.173 A 
ATOM     65  C   UNL     1      -4.132  14.098 -14.953  1.00  0.00     0.173 A 
ATOM     66  F   UNL     1      -4.657  16.791 -12.563  1.00  0.00    -0.203 F 
ATOM     67  C   UNL     1      -6.124  15.856 -14.147  1.00  0.00     0.198 A 
ATOM     68  C   UNL     1      -5.378  14.078 -15.575  1.00  0.00     0.198 A 
ATOM     69  F   UNL     1      -3.196  13.227 -15.358  1.00  0.00    -0.203 F 
ATOM     70  F   UNL     1      -7.096  16.678 -13.727  1.00  0.00    -0.200 F 
ATOM     71  C   UNL     1      -6.375  14.950 -15.166  1.00  0.00     0.200 A 
ATOM     72  F   UNL     1      -5.613  13.212 -16.570  1.00  0.00    -0.200 F 
ATOM     73  F   UNL     1      -7.581  14.911 -15.748  1.00  0.00    -0.200 F 
ENDBRANCH  49  63
BRANCH  50  74
ATOM     74  C   UNL     1       5.049  14.849  -9.375  1.00  0.00     0.064 A 
ATOM     75  C   UNL     1       5.805  16.013  -9.179  1.00  0.00     0.173 A 
ATOM     76  C   UNL     1       5.603  13.634  -8.945  1.00  0.00     0.173 A 
ATOM     77  F   UNL     1       5.329  17.198  -9.590  1.00  0.00    -0.203 F 
ATOM     78  C   UNL     1       7.073  15.962  -8.603  1.00  0.00     0.198 A 
ATOM     79  C   UNL     1       6.857  13.588  -8.339  1.00  0.00     0.198 A 
ATOM     80  F   UNL     1       4.920  12.491  -9.104  1.00  0.00    -0.203 F 
ATOM     81  F   UNL     1       7.796  17.083  -8.478  1.00  0.00    -0.200 F 
ATOM     82  C   UNL     1       7.596  14.750  -8.178  1.00  0.00     0.200 A 
ATOM     83  F   UNL     1       7.351  12.416  -7.916  1.00  0.00    -0.200 F 
ATOM     84  F   UNL     1       8.814  14.700  -7.623  1.00  0.00    -0.200 F 
ENDBRANCH  50  74
BRANCH  62  85
ATOM     85  C   UNL     1       2.933  16.534 -15.808  1.00  0.00     0.064 A 
ATOM     86  C   UNL     1       3.766  15.696 -16.563  1.00  0.00     0.173 A 
ATOM     87  C   UNL     1       2.736  17.848 -16.264  1.00  0.00     0.173 A 
ATOM     88  F   UNL     1       3.999  14.437 -16.163  1.00  0.00    -0.203 F 
ATOM     89  C   UNL     1       4.386  16.159 -17.721  1.00  0.00     0.198 A 
ATOM     90  C   UNL     1       3.330  18.296 -17.439  1.00  0.00     0.198 A 
ATOM     91  F   UNL     1       1.943  18.688 -15.582  1.00  0.00    -0.203 F 
ATOM     92  F   UNL     1       5.210  15.353 -18.405  1.00  0.00    -0.200 F 
ATOM     93  C   UNL     1       4.159  17.454 -18.164  1.00  0.00     0.200 A 
ATOM     94  F   UNL     1       3.094  19.541 -17.875  1.00  0.00    -0.200 F 
ATOM     95  F   UNL     1       4.743  17.891 -19.288  1.00  0.00    -0.200 F 
ENDBRANCH  62  85
ENDBRANCH  36  37
ENDBRANCH  28  31
ENDBRANCH  26  27
ENDBRANCH  25  26
ENDBRANCH  24  25
ENDBRANCH   1  24
TORSDOF 16
