REMARK SMILES CN(C)S(=O)(=O)c1ccc(-n2c(CCC(=O)NCCCCNC(=O)c3ccc(-c4c5nc(c(-c6c(F)c(F)c(F)c(F)c6F)c6ccc([nH]6)c(-c6c(F)c(F)c(F)c(F)c6F)c6nc(c(-c7c(F)c(F)c(F)c(F)c7F)c7ccc4[nH]7)C=C6)C=C5)cc3)ccc2-c2ccc(F)cc2)cc1
REMARK SMILES IDX 18 1 17 2 15 3 16 4 14 6 13 7 12 8 11 9 90 10 88 11 89 12
REMARK SMILES IDX 10 13 7 14 8 15 99 16 9 17 98 18 4 19 5 20 6 21 2 22 1 23
REMARK SMILES IDX 3 24 91 25 92 26 97 27 93 28 96 29 94 30 95 31 19 32 20 33
REMARK SMILES IDX 21 34 22 35 23 36 24 38 25 39 26 40 87 41 27 42 86 43 28 44
REMARK SMILES IDX 29 45 30 46 80 47 31 48 85 49 79 50 81 51 32 52 84 53 78 54
REMARK SMILES IDX 77 55 33 57 65 58 45 59 64 60 46 61 49 62 63 63 82 64 47 65
REMARK SMILES IDX 48 66 62 68 83 69 50 70 34 71 35 72 43 73 36 74 37 75 41 76
REMARK SMILES IDX 44 77 38 78 39 79 42 80 40 81 66 82 67 83 75 84 68 85 69 86
REMARK SMILES IDX 73 87 76 88 70 89 71 90 74 91 72 92 51 93 52 94 60 95 53 96
REMARK SMILES IDX 54 97 58 98 61 99 55 100 56 101 59 102 57 103
REMARK H PARENT 17 5 22 37 81 56 49 67
REMARK Flexibility Score: inf
ROOT
ATOM      1  C   UNL     1      -3.888   6.630   1.204  1.00  0.00     0.116 C 
ENDROOT
BRANCH   1   2
ATOM      2  N   UNL     1      -3.726   5.727   2.327  1.00  0.00    -0.356 N 
ATOM      3  C   UNL     1      -3.211   5.997   3.565  1.00  0.00     0.220 C 
ATOM      4  O   UNL     1      -2.996   5.047   4.319  1.00  0.00    -0.275 OA
ATOM      5  H   UNL     1      -4.025   4.801   2.180  1.00  0.00     0.163 HD
BRANCH   3   6
ATOM      6  C   UNL     1      -2.913   7.429   3.995  1.00  0.00     0.106 C 
BRANCH   6   7
ATOM      7  C   UNL     1      -1.428   7.788   4.233  1.00  0.00     0.064 C 
BRANCH   7   8
ATOM      8  C   UNL     1      -0.737   8.448   3.049  1.00  0.00     0.024 A 
ATOM      9  N   UNL     1       0.248   7.927   2.157  1.00  0.00    -0.314 N 
ATOM     10  C   UNL     1       0.547   8.978   1.239  1.00  0.00     0.053 A 
ATOM     11  C   UNL     1      -0.990   9.764   2.695  1.00  0.00     0.024 A 
ATOM     12  C   UNL     1      -0.197  10.091   1.596  1.00  0.00     0.029 A 
BRANCH   9  13
ATOM     13  C   UNL     1       0.735   6.551   2.071  1.00  0.00     0.046 A 
ATOM     14  C   UNL     1       1.395   3.817   1.634  1.00  0.00     0.082 A 
ATOM     15  C   UNL     1       2.163   4.829   1.056  1.00  0.00     0.024 A 
ATOM     16  C   UNL     1       0.361   4.158   2.488  1.00  0.00     0.024 A 
ATOM     17  C   UNL     1       1.840   6.185   1.288  1.00  0.00     0.028 A 
ATOM     18  C   UNL     1       0.047   5.502   2.691  1.00  0.00     0.028 A 
BRANCH  14  19
ATOM     19  S   UNL     1       1.822   2.102   1.451  1.00  0.00     0.242 S 
ATOM     20  O   UNL     1       1.353   1.405   2.645  1.00  0.00    -0.207 OA
ATOM     21  O   UNL     1       3.199   2.030   1.052  1.00  0.00    -0.207 OA
BRANCH  19  22
ATOM     22  N   UNL     1       0.860   1.536   0.140  1.00  0.00    -0.204 NA
ATOM     23  C   UNL     1       1.201   0.124  -0.195  1.00  0.00     0.124 C 
ATOM     24  C   UNL     1      -0.607   1.679   0.295  1.00  0.00     0.124 C 
ENDBRANCH  19  22
ENDBRANCH  14  19
ENDBRANCH   9  13
BRANCH  10  25
ATOM     25  C   UNL     1       1.267   8.906  -0.048  1.00  0.00    -0.001 A 
ATOM     26  C   UNL     1       2.371   9.713  -0.337  1.00  0.00     0.013 A 
ATOM     27  C   UNL     1       0.743   8.124  -1.081  1.00  0.00     0.013 A 
ATOM     28  C   UNL     1       2.938   9.702  -1.621  1.00  0.00     0.040 A 
ATOM     29  C   UNL     1       1.287   8.113  -2.362  1.00  0.00     0.040 A 
ATOM     30  C   UNL     1       2.389   8.903  -2.621  1.00  0.00     0.123 A 
ATOM     31  F   UNL     1       2.923   8.904  -3.849  1.00  0.00    -0.207 F 
ENDBRANCH  10  25
ENDBRANCH   7   8
ENDBRANCH   6   7
ENDBRANCH   3   6
ENDBRANCH   1   2
BRANCH   1  32
ATOM     32  C   UNL     1      -2.536   6.910   0.580  1.00  0.00     0.023 C 
BRANCH  32  33
ATOM     33  C   UNL     1      -2.079   5.905  -0.472  1.00  0.00     0.023 C 
BRANCH  33  34
ATOM     34  C   UNL     1      -2.511   6.295  -1.875  1.00  0.00     0.116 C 
BRANCH  34  35
ATOM     35  N   UNL     1      -2.281   7.697  -2.247  1.00  0.00    -0.352 N 
ATOM     36  C   UNL     1      -2.372   8.276  -3.492  1.00  0.00     0.251 C 
ATOM     37  H   UNL     1      -2.029   8.300  -1.511  1.00  0.00     0.163 HD
ATOM     38  O   UNL     1      -2.002   9.423  -3.702  1.00  0.00    -0.269 OA
BRANCH  36  39
ATOM     39  C   UNL     1      -2.890   7.443  -4.579  1.00  0.00     0.039 A 
ATOM     40  C   UNL     1      -2.150   7.293  -5.753  1.00  0.00     0.014 A 
ATOM     41  C   UNL     1      -4.035   6.689  -4.324  1.00  0.00     0.014 A 
ATOM     42  C   UNL     1      -2.506   6.282  -6.633  1.00  0.00     0.010 A 
ATOM     43  C   UNL     1      -4.294   5.597  -5.110  1.00  0.00     0.010 A 
ATOM     44  C   UNL     1      -3.543   5.409  -6.277  1.00  0.00    -0.014 A 
BRANCH  44  45
ATOM     45  C   UNL     1      -3.873   4.245  -7.112  1.00  0.00     0.031 A 
ATOM     46  C   UNL     1      -2.814   3.149  -7.065  1.00  0.00     0.074 A 
ATOM     47  C   UNL     1      -5.098   4.315  -7.711  1.00  0.00     0.049 A 
ATOM     48  N   UNL     1      -2.567   2.219  -7.931  1.00  0.00    -0.248 NA
ATOM     49  C   UNL     1      -1.845   3.105  -5.937  1.00  0.00     0.031 C 
ATOM     50  C   UNL     1      -5.977   5.501  -7.621  1.00  0.00     0.029 A 
ATOM     51  N   UNL     1      -5.870   3.459  -8.467  1.00  0.00    -0.354 N 
ATOM     52  C   UNL     1      -1.566   1.386  -7.392  1.00  0.00     0.074 A 
ATOM     53  C   UNL     1      -1.065   2.060  -6.231  1.00  0.00     0.031 C 
ATOM     54  C   UNL     1      -7.119   5.309  -8.295  1.00  0.00     0.029 A 
ATOM     55  C   UNL     1      -7.106   4.002  -8.907  1.00  0.00     0.049 A 
ATOM     56  H   UNL     1      -5.586   2.542  -8.686  1.00  0.00     0.167 HD
ATOM     57  C   UNL     1      -1.342   0.119  -7.855  1.00  0.00     0.037 A 
ATOM     58  C   UNL     1      -8.044   3.471  -9.748  1.00  0.00     0.037 A 
ATOM     59  C   UNL     1      -2.271  -0.178  -8.897  1.00  0.00     0.049 A 
ATOM     60  C   UNL     1      -7.615   2.087 -10.004  1.00  0.00     0.074 A 
ATOM     61  C   UNL     1      -2.397   0.284 -10.180  1.00  0.00     0.029 A 
ATOM     62  N   UNL     1      -3.450  -0.776  -8.515  1.00  0.00    -0.354 N 
ATOM     63  N   UNL     1      -7.681   1.123  -9.134  1.00  0.00    -0.248 NA
ATOM     64  C   UNL     1      -6.939   1.775 -11.268  1.00  0.00     0.031 C 
ATOM     65  C   UNL     1      -3.792   0.364 -10.364  1.00  0.00     0.029 A 
ATOM     66  C   UNL     1      -4.450  -0.248  -9.290  1.00  0.00     0.049 A 
ATOM     67  H   UNL     1      -3.556  -1.458  -7.814  1.00  0.00     0.167 HD
ATOM     68  C   UNL     1      -6.759   0.225  -9.622  1.00  0.00     0.074 A 
ATOM     69  C   UNL     1      -6.597   0.512 -11.029  1.00  0.00     0.031 C 
ATOM     70  C   UNL     1      -5.805  -0.258  -8.783  1.00  0.00     0.037 A 
BRANCH  57  71
ATOM     71  C   UNL     1      -0.552  -1.041  -7.316  1.00  0.00     0.064 A 
ATOM     72  C   UNL     1      -0.250  -2.106  -8.205  1.00  0.00     0.173 A 
ATOM     73  C   UNL     1      -0.403  -1.316  -5.952  1.00  0.00     0.173 A 
ATOM     74  F   UNL     1      -0.318  -1.930  -9.535  1.00  0.00    -0.203 F 
ATOM     75  C   UNL     1       0.031  -3.393  -7.752  1.00  0.00     0.198 A 
ATOM     76  C   UNL     1      -0.068  -2.598  -5.502  1.00  0.00     0.198 A 
ATOM     77  F   UNL     1      -0.681  -0.393  -5.023  1.00  0.00    -0.203 F 
ATOM     78  F   UNL     1       0.156  -4.399  -8.630  1.00  0.00    -0.200 F 
ATOM     79  C   UNL     1       0.104  -3.642  -6.397  1.00  0.00     0.200 A 
ATOM     80  F   UNL     1       0.007  -2.836  -4.185  1.00  0.00    -0.200 F 
ATOM     81  F   UNL     1       0.299  -4.890  -5.951  1.00  0.00    -0.200 F 
ENDBRANCH  57  71
BRANCH  58  82
ATOM     82  C   UNL     1      -9.236   4.005 -10.508  1.00  0.00     0.064 A 
ATOM     83  C   UNL     1      -9.876   5.234 -10.296  1.00  0.00     0.173 A 
ATOM     84  C   UNL     1      -9.748   3.276 -11.615  1.00  0.00     0.173 A 
ATOM     85  F   UNL     1      -9.663   5.955  -9.193  1.00  0.00    -0.203 F 
ATOM     86  C   UNL     1     -10.811   5.761 -11.202  1.00  0.00     0.198 A 
ATOM     87  C   UNL     1     -10.656   3.806 -12.532  1.00  0.00     0.198 A 
ATOM     88  F   UNL     1      -9.381   2.010 -11.854  1.00  0.00    -0.203 F 
ATOM     89  F   UNL     1     -11.358   6.962 -10.965  1.00  0.00    -0.200 F 
ATOM     90  C   UNL     1     -11.168   5.066 -12.341  1.00  0.00     0.200 A 
ATOM     91  F   UNL     1     -11.005   3.088 -13.608  1.00  0.00    -0.200 F 
ATOM     92  F   UNL     1     -12.015   5.595 -13.233  1.00  0.00    -0.200 F 
ENDBRANCH  58  82
BRANCH  70  93
ATOM     93  C   UNL     1      -6.237  -0.299  -7.327  1.00  0.00     0.064 A 
ATOM     94  C   UNL     1      -7.399  -1.004  -6.963  1.00  0.00     0.173 A 
ATOM     95  C   UNL     1      -5.627   0.442  -6.303  1.00  0.00     0.173 A 
ATOM     96  F   UNL     1      -8.027  -1.772  -7.867  1.00  0.00    -0.203 F 
ATOM     97  C   UNL     1      -7.939  -0.925  -5.676  1.00  0.00     0.198 A 
ATOM     98  C   UNL     1      -6.158   0.516  -5.013  1.00  0.00     0.198 A 
ATOM     99  F   UNL     1      -4.498   1.110  -6.528  1.00  0.00    -0.203 F 
ATOM    100  F   UNL     1      -9.062  -1.594  -5.380  1.00  0.00    -0.200 F 
ATOM    101  C   UNL     1      -7.323  -0.158  -4.703  1.00  0.00     0.200 A 
ATOM    102  F   UNL     1      -5.535   1.244  -4.072  1.00  0.00    -0.200 F 
ATOM    103  F   UNL     1      -7.838  -0.081  -3.468  1.00  0.00    -0.200 F 
ENDBRANCH  70  93
ENDBRANCH  44  45
ENDBRANCH  36  39
ENDBRANCH  34  35
ENDBRANCH  33  34
ENDBRANCH  32  33
ENDBRANCH   1  32
TORSDOF 17
