REMARK SMILES C[C@H]([NH2+][C@@H](C)[C@]12C[C@H]3C[C@H](C[C@H](C3)C1)C2)[C@@H](C)C(=O)NCCCCNC(=O)c1ccc(-c2c3nc(c(-c4c(F)c(F)c(F)c(F)c4F)c4ccc([nH]4)c(-c4c(F)c(F)c(F)c(F)c4F)c4nc(c(-c5c(F)c(F)c(F)c(F)c5F)c5ccc2[nH]5)C=C4)C=C3)cc1
REMARK SMILES IDX 21 1 20 2 18 3 19 4 16 6 17 7 2 8 1 9 3 10 4 13 5 14 6 15
REMARK SMILES IDX 7 16 14 17 15 18 8 19 12 20 10 21 9 22 13 23 11 24 22 25
REMARK SMILES IDX 23 26 24 27 25 28 26 29 27 31 28 32 29 33 90 34 30 35 89 36
REMARK SMILES IDX 31 37 32 38 33 39 83 40 34 41 88 42 82 43 84 44 35 45 87 46
REMARK SMILES IDX 81 47 80 48 36 50 68 51 48 52 67 53 49 54 52 55 66 56 85 57
REMARK SMILES IDX 50 58 51 59 65 61 86 62 53 63 37 64 38 65 46 66 39 67 40 68
REMARK SMILES IDX 44 69 47 70 41 71 42 72 45 73 43 74 69 75 70 76 78 77 71 78
REMARK SMILES IDX 72 79 76 80 79 81 73 82 74 83 77 84 75 85 54 86 55 87 63 88
REMARK SMILES IDX 56 89 57 90 61 91 64 92 58 93 59 94 62 95 60 96
REMARK H PARENT 20 5 3 11 3 12 25 30 84 49 52 60
REMARK Flexibility Score: inf
ROOT
ATOM      1  C   UNL     1      -0.169   3.860  -1.239  1.00  0.00     0.116 C 
ENDROOT
BRANCH   1   2
ATOM      2  N   UNL     1      -1.279   3.238  -1.935  1.00  0.00    -0.356 N 
ATOM      3  C   UNL     1      -1.867   2.020  -1.770  1.00  0.00     0.228 C 
ATOM      4  O   UNL     1      -2.891   1.799  -2.424  1.00  0.00    -0.275 OA
ATOM      5  H   UNL     1      -1.675   3.789  -2.648  1.00  0.00     0.163 HD
BRANCH   3   6
ATOM      6  C   UNL     1      -1.278   0.937  -0.860  1.00  0.00     0.133 C 
ATOM      7  C   UNL     1      -1.381   1.319   0.615  1.00  0.00     0.024 C 
BRANCH   6   8
ATOM      8  C   UNL     1       0.102   0.484  -1.417  1.00  0.00     0.191 C 
ATOM      9  C   UNL     1      -0.164  -0.234  -2.764  1.00  0.00     0.076 C 
BRANCH   8  10
ATOM     10  N   UNL     1       0.841  -0.381  -0.487  1.00  0.00    -0.341 N 
ATOM     11  H   UNL     1       0.819  -1.328  -0.867  1.00  0.00     0.346 HD
ATOM     12  H   UNL     1       0.372  -0.262   0.411  1.00  0.00     0.346 HD
BRANCH  10  13
ATOM     13  C   UNL     1       2.260  -0.041  -0.223  1.00  0.00     0.185 C 
ATOM     14  C   UNL     1       2.508  -0.550   1.210  1.00  0.00     0.076 C 
BRANCH  13  15
ATOM     15  C   UNL     1       3.345  -0.571  -1.253  1.00  0.00     0.023 C 
ATOM     16  C   UNL     1       3.309  -2.117  -1.402  1.00  0.00     0.016 C 
ATOM     17  C   UNL     1       4.799  -0.189  -0.818  1.00  0.00     0.016 C 
ATOM     18  C   UNL     1       3.149   0.078  -2.650  1.00  0.00     0.016 C 
ATOM     19  C   UNL     1       4.341  -2.603  -2.437  1.00  0.00    -0.010 C 
ATOM     20  C   UNL     1       5.846  -0.674  -1.847  1.00  0.00    -0.010 C 
ATOM     21  C   UNL     1       4.166  -0.424  -3.681  1.00  0.00    -0.010 C 
ATOM     22  C   UNL     1       4.043  -1.952  -3.795  1.00  0.00     0.007 C 
ATOM     23  C   UNL     1       5.754  -2.202  -1.983  1.00  0.00     0.007 C 
ATOM     24  C   UNL     1       5.570  -0.037  -3.215  1.00  0.00     0.007 C 
ENDBRANCH  13  15
ENDBRANCH  10  13
ENDBRANCH   8  10
ENDBRANCH   6   8
ENDBRANCH   3   6
ENDBRANCH   1   2
BRANCH   1  25
ATOM     25  C   UNL     1       1.019   4.184  -2.142  1.00  0.00     0.023 C 
BRANCH  25  26
ATOM     26  C   UNL     1       0.748   5.165  -3.278  1.00  0.00     0.023 C 
BRANCH  26  27
ATOM     27  C   UNL     1       0.030   6.451  -2.889  1.00  0.00     0.116 C 
BRANCH  27  28
ATOM     28  N   UNL     1       0.702   7.202  -1.837  1.00  0.00    -0.352 N 
ATOM     29  C   UNL     1       0.971   8.548  -1.771  1.00  0.00     0.251 C 
ATOM     30  H   UNL     1       1.005   6.671  -1.066  1.00  0.00     0.163 HD
ATOM     31  O   UNL     1       1.617   9.010  -0.835  1.00  0.00    -0.269 OA
BRANCH  29  32
ATOM     32  C   UNL     1       0.522   9.432  -2.865  1.00  0.00     0.039 A 
ATOM     33  C   UNL     1       1.458  10.268  -3.479  1.00  0.00     0.014 A 
ATOM     34  C   UNL     1      -0.795   9.380  -3.328  1.00  0.00     0.014 A 
ATOM     35  C   UNL     1       1.099  10.975  -4.628  1.00  0.00     0.010 A 
ATOM     36  C   UNL     1      -1.130  10.029  -4.512  1.00  0.00     0.010 A 
ATOM     37  C   UNL     1      -0.179  10.813  -5.185  1.00  0.00    -0.014 A 
BRANCH  37  38
ATOM     38  C   UNL     1      -0.536  11.411  -6.495  1.00  0.00     0.031 A 
ATOM     39  C   UNL     1      -1.618  12.447  -6.582  1.00  0.00     0.074 A 
ATOM     40  C   UNL     1       0.050  10.947  -7.616  1.00  0.00     0.049 A 
ATOM     41  N   UNL     1      -2.157  12.994  -7.642  1.00  0.00    -0.248 NA
ATOM     42  C   UNL     1      -2.186  12.911  -5.308  1.00  0.00     0.031 C 
ATOM     43  C   UNL     1       1.089   9.918  -7.664  1.00  0.00     0.029 A 
ATOM     44  N   UNL     1      -0.160  11.268  -8.934  1.00  0.00    -0.354 N 
ATOM     45  C   UNL     1      -3.133  13.856  -7.164  1.00  0.00     0.074 A 
ATOM     46  C   UNL     1      -3.148  13.723  -5.723  1.00  0.00     0.031 C 
ATOM     47  C   UNL     1       1.440   9.705  -8.942  1.00  0.00     0.029 A 
ATOM     48  C   UNL     1       0.617  10.546  -9.807  1.00  0.00     0.049 A 
ATOM     49  H   UNL     1      -0.806  11.951  -9.227  1.00  0.00     0.167 HD
ATOM     50  C   UNL     1      -3.931  14.698  -7.864  1.00  0.00     0.037 A 
ATOM     51  C   UNL     1       0.650  10.548 -11.153  1.00  0.00     0.037 A 
ATOM     52  C   UNL     1      -3.903  14.836  -9.296  1.00  0.00     0.049 A 
ATOM     53  C   UNL     1      -0.282  11.455 -11.909  1.00  0.00     0.074 A 
ATOM     54  C   UNL     1      -4.629  15.704 -10.094  1.00  0.00     0.029 A 
ATOM     55  N   UNL     1      -3.110  14.079 -10.147  1.00  0.00    -0.354 N 
ATOM     56  N   UNL     1      -1.159  12.310 -11.445  1.00  0.00    -0.248 NA
ATOM     57  C   UNL     1      -0.224  11.390 -13.376  1.00  0.00     0.031 C 
ATOM     58  C   UNL     1      -4.310  15.439 -11.430  1.00  0.00     0.029 A 
ATOM     59  C   UNL     1      -3.352  14.438 -11.463  1.00  0.00     0.049 A 
ATOM     60  H   UNL     1      -2.471  13.389  -9.857  1.00  0.00     0.167 HD
ATOM     61  C   UNL     1      -1.740  12.902 -12.558  1.00  0.00     0.074 A 
ATOM     62  C   UNL     1      -1.107  12.316 -13.721  1.00  0.00     0.031 C 
ATOM     63  C   UNL     1      -2.712  13.846 -12.610  1.00  0.00     0.037 A 
BRANCH  50  64
ATOM     64  C   UNL     1      -4.902  15.534  -7.084  1.00  0.00     0.064 A 
ATOM     65  C   UNL     1      -4.470  16.584  -6.259  1.00  0.00     0.173 A 
ATOM     66  C   UNL     1      -6.282  15.299  -7.177  1.00  0.00     0.173 A 
ATOM     67  F   UNL     1      -3.160  16.843  -6.127  1.00  0.00    -0.203 F 
ATOM     68  C   UNL     1      -5.381  17.345  -5.531  1.00  0.00     0.198 A 
ATOM     69  C   UNL     1      -7.192  16.081  -6.470  1.00  0.00     0.198 A 
ATOM     70  F   UNL     1      -6.749  14.311  -7.955  1.00  0.00    -0.203 F 
ATOM     71  F   UNL     1      -4.940  18.308  -4.709  1.00  0.00    -0.200 F 
ATOM     72  C   UNL     1      -6.740  17.097  -5.641  1.00  0.00     0.200 A 
ATOM     73  F   UNL     1      -8.506  15.848  -6.587  1.00  0.00    -0.200 F 
ATOM     74  F   UNL     1      -7.616  17.832  -4.941  1.00  0.00    -0.200 F 
ENDBRANCH  50  64
BRANCH  51  75
ATOM     75  C   UNL     1       1.610   9.672 -11.873  1.00  0.00     0.064 A 
ATOM     76  C   UNL     1       2.706  10.220 -12.553  1.00  0.00     0.173 A 
ATOM     77  C   UNL     1       1.460   8.278 -11.893  1.00  0.00     0.173 A 
ATOM     78  F   UNL     1       2.879  11.550 -12.580  1.00  0.00    -0.203 F 
ATOM     79  C   UNL     1       3.608   9.409 -13.237  1.00  0.00     0.198 A 
ATOM     80  C   UNL     1       2.377   7.465 -12.556  1.00  0.00     0.198 A 
ATOM     81  F   UNL     1       0.429   7.704 -11.255  1.00  0.00    -0.203 F 
ATOM     82  F   UNL     1       4.626   9.962 -13.910  1.00  0.00    -0.200 F 
ATOM     83  C   UNL     1       3.447   8.031 -13.232  1.00  0.00     0.200 A 
ATOM     84  F   UNL     1       2.225   6.134 -12.538  1.00  0.00    -0.200 F 
ATOM     85  F   UNL     1       4.319   7.250 -13.884  1.00  0.00    -0.200 F 
ENDBRANCH  51  75
BRANCH  63  86
ATOM     86  C   UNL     1      -3.136  14.323 -13.968  1.00  0.00     0.064 A 
ATOM     87  C   UNL     1      -3.922  13.526 -14.812  1.00  0.00     0.173 A 
ATOM     88  C   UNL     1      -2.796  15.612 -14.407  1.00  0.00     0.173 A 
ATOM     89  F   UNL     1      -4.257  12.280 -14.445  1.00  0.00    -0.203 F 
ATOM     90  C   UNL     1      -4.341  13.997 -16.053  1.00  0.00     0.198 A 
ATOM     91  C   UNL     1      -3.240  16.089 -15.636  1.00  0.00     0.198 A 
ATOM     92  F   UNL     1      -2.049  16.414 -13.634  1.00  0.00    -0.203 F 
ATOM     93  F   UNL     1      -5.060  13.205 -16.860  1.00  0.00    -0.200 F 
ATOM     94  C   UNL     1      -4.007  15.280 -16.460  1.00  0.00     0.200 A 
ATOM     95  F   UNL     1      -2.926  17.334 -16.023  1.00  0.00    -0.200 F 
ATOM     96  F   UNL     1      -4.422  15.736 -17.650  1.00  0.00    -0.200 F 
ENDBRANCH  63  86
ENDBRANCH  37  38
ENDBRANCH  29  32
ENDBRANCH  27  28
ENDBRANCH  26  27
ENDBRANCH  25  26
ENDBRANCH   1  25
TORSDOF 15
