REMARK SMILES O=C(NCCCCNC(=O)c1cn(-c2ccccc2)c2c1N=C(O)C[C@@H]2c1cccs1)c1ccc(-c2c3nc(c(-c4c(F)c(F)c(F)c(F)c4F)c4ccc([nH]4)c(-c4c(F)c(F)c(F)c(F)c4F)c4nc(c(-c5c(F)c(F)c(F)c(F)c5F)c5ccc2[nH]5)C=C4)C=C3)cc1
REMARK SMILES IDX 5 1 4 2 3 3 1 4 2 5 32 7 33 8 94 9 34 10 93 11 35 12 36 13
REMARK SMILES IDX 37 14 87 15 38 16 92 17 86 18 88 19 39 20 91 21 85 22 84 23
REMARK SMILES IDX 40 25 72 26 52 27 71 28 53 29 56 30 70 31 89 32 54 33 55 34
REMARK SMILES IDX 69 36 90 37 57 38 41 39 42 40 50 41 43 42 44 43 48 44 51 45
REMARK SMILES IDX 45 46 46 47 49 48 47 49 73 50 74 51 82 52 75 53 76 54 80 55
REMARK SMILES IDX 83 56 77 57 78 58 81 59 79 60 58 61 59 62 67 63 60 64 61 65
REMARK SMILES IDX 65 66 68 67 62 68 63 69 66 70 64 71 6 72 7 73 8 74 9 75
REMARK SMILES IDX 10 77 11 78 12 79 21 80 13 81 20 82 22 83 26 84 23 85 25 86
REMARK SMILES IDX 14 87 15 88 19 89 16 90 18 91 17 92 27 93 28 94 31 95 29 96
REMARK SMILES IDX 30 97 24 98
REMARK H PARENT 3 6 88 24 56 35 8 76 24 99
REMARK Flexibility Score: inf
ROOT
ATOM      1  C   UNL     1       4.950   0.763  -2.132  1.00  0.00     0.023 C 
ENDROOT
BRANCH   1   2
ATOM      2  C   UNL     1       4.670   0.996  -0.645  1.00  0.00     0.116 C 
BRANCH   2   3
ATOM      3  N   UNL     1       3.275   1.222  -0.324  1.00  0.00    -0.352 N 
ATOM      4  O   UNL     1       1.169   0.965   0.302  1.00  0.00    -0.269 OA
ATOM      5  C   UNL     1       2.197   0.411  -0.098  1.00  0.00     0.251 C 
ATOM      6  H   UNL     1       3.052   2.178  -0.251  1.00  0.00     0.163 HD
BRANCH   5   7
ATOM      7  C   UNL     1       2.161  -1.060  -0.343  1.00  0.00     0.039 A 
ATOM      8  C   UNL     1       3.243  -1.844  -0.742  1.00  0.00     0.014 A 
ATOM      9  C   UNL     1       0.908  -1.687  -0.194  1.00  0.00     0.014 A 
ATOM     10  C   UNL     1       3.070  -3.185  -1.073  1.00  0.00     0.010 A 
ATOM     11  C   UNL     1       0.734  -3.037  -0.491  1.00  0.00     0.010 A 
ATOM     12  C   UNL     1       1.813  -3.778  -0.967  1.00  0.00    -0.014 A 
BRANCH  12  13
ATOM     13  C   UNL     1       1.709  -5.200  -1.288  1.00  0.00     0.031 A 
ATOM     14  C   UNL     1       2.454  -6.144  -0.400  1.00  0.00     0.074 A 
ATOM     15  C   UNL     1       0.887  -5.686  -2.238  1.00  0.00     0.049 A 
ATOM     16  N   UNL     1       3.289  -7.081  -0.727  1.00  0.00    -0.248 NA
ATOM     17  C   UNL     1       2.252  -6.005   1.051  1.00  0.00     0.031 C 
ATOM     18  C   UNL     1      -0.142  -4.968  -2.992  1.00  0.00     0.029 A 
ATOM     19  N   UNL     1       0.734  -6.980  -2.648  1.00  0.00    -0.354 N 
ATOM     20  C   UNL     1       3.613  -7.745   0.458  1.00  0.00     0.074 A 
ATOM     21  C   UNL     1       3.010  -6.993   1.527  1.00  0.00     0.031 C 
ATOM     22  C   UNL     1      -0.947  -5.865  -3.603  1.00  0.00     0.029 A 
ATOM     23  C   UNL     1      -0.415  -7.201  -3.386  1.00  0.00     0.049 A 
ATOM     24  H   UNL     1       1.383  -7.690  -2.438  1.00  0.00     0.167 HD
ATOM     25  C   UNL     1       4.222  -8.964   0.469  1.00  0.00     0.037 A 
ATOM     26  C   UNL     1      -0.939  -8.401  -3.730  1.00  0.00     0.037 A 
ATOM     27  C   UNL     1       4.926  -9.225  -0.756  1.00  0.00     0.049 A 
ATOM     28  C   UNL     1       0.125  -9.426  -3.615  1.00  0.00     0.074 A 
ATOM     29  C   UNL     1       5.965  -8.614  -1.432  1.00  0.00     0.029 A 
ATOM     30  N   UNL     1       4.412 -10.138  -1.640  1.00  0.00    -0.354 N 
ATOM     31  N   UNL     1       1.149  -9.525  -4.415  1.00  0.00    -0.248 NA
ATOM     32  C   UNL     1       0.238 -10.157  -2.362  1.00  0.00     0.031 C 
ATOM     33  C   UNL     1       5.693  -8.834  -2.814  1.00  0.00     0.029 A 
ATOM     34  C   UNL     1       4.511  -9.572  -2.883  1.00  0.00     0.049 A 
ATOM     35  H   UNL     1       4.045 -11.025  -1.424  1.00  0.00     0.167 HD
ATOM     36  C   UNL     1       2.181  -9.979  -3.611  1.00  0.00     0.074 A 
ATOM     37  C   UNL     1       1.536 -10.464  -2.397  1.00  0.00     0.031 C 
ATOM     38  C   UNL     1       3.480  -9.664  -3.886  1.00  0.00     0.037 A 
BRANCH  25  39
ATOM     39  C   UNL     1       3.937 -10.054   1.478  1.00  0.00     0.064 A 
ATOM     40  C   UNL     1       4.719 -11.229   1.472  1.00  0.00     0.173 A 
ATOM     41  C   UNL     1       2.747 -10.123   2.233  1.00  0.00     0.173 A 
ATOM     42  F   UNL     1       5.865 -11.285   0.778  1.00  0.00    -0.203 F 
ATOM     43  C   UNL     1       4.295 -12.405   2.097  1.00  0.00     0.198 A 
ATOM     44  C   UNL     1       2.353 -11.284   2.900  1.00  0.00     0.198 A 
ATOM     45  F   UNL     1       1.867  -9.115   2.266  1.00  0.00    -0.203 F 
ATOM     46  F   UNL     1       5.007 -13.530   1.949  1.00  0.00    -0.200 F 
ATOM     47  C   UNL     1       3.108 -12.434   2.803  1.00  0.00     0.200 A 
ATOM     48  F   UNL     1       1.192 -11.297   3.570  1.00  0.00    -0.200 F 
ATOM     49  F   UNL     1       2.666 -13.576   3.346  1.00  0.00    -0.200 F 
ENDBRANCH  25  39
BRANCH  26  50
ATOM     50  C   UNL     1      -2.366  -8.755  -3.894  1.00  0.00     0.064 A 
ATOM     51  C   UNL     1      -2.757  -9.894  -4.613  1.00  0.00     0.173 A 
ATOM     52  C   UNL     1      -3.365  -8.118  -3.131  1.00  0.00     0.173 A 
ATOM     53  F   UNL     1      -1.855 -10.589  -5.320  1.00  0.00    -0.203 F 
ATOM     54  C   UNL     1      -4.070 -10.373  -4.564  1.00  0.00     0.198 A 
ATOM     55  C   UNL     1      -4.676  -8.589  -3.094  1.00  0.00     0.198 A 
ATOM     56  F   UNL     1      -3.067  -7.081  -2.335  1.00  0.00    -0.203 F 
ATOM     57  F   UNL     1      -4.395 -11.497  -5.217  1.00  0.00    -0.200 F 
ATOM     58  C   UNL     1      -5.026  -9.723  -3.800  1.00  0.00     0.200 A 
ATOM     59  F   UNL     1      -5.582  -7.971  -2.322  1.00  0.00    -0.200 F 
ATOM     60  F   UNL     1      -6.271 -10.211  -3.713  1.00  0.00    -0.200 F 
ENDBRANCH  26  50
BRANCH  38  61
ATOM     61  C   UNL     1       3.791  -9.082  -5.232  1.00  0.00     0.064 A 
ATOM     62  C   UNL     1       3.297  -7.843  -5.673  1.00  0.00     0.173 A 
ATOM     63  C   UNL     1       4.737  -9.728  -6.040  1.00  0.00     0.173 A 
ATOM     64  F   UNL     1       2.476  -7.116  -4.904  1.00  0.00    -0.203 F 
ATOM     65  C   UNL     1       3.694  -7.303  -6.894  1.00  0.00     0.198 A 
ATOM     66  C   UNL     1       5.159  -9.168  -7.242  1.00  0.00     0.198 A 
ATOM     67  F   UNL     1       5.290 -10.883  -5.637  1.00  0.00    -0.203 F 
ATOM     68  F   UNL     1       3.199  -6.124  -7.299  1.00  0.00    -0.200 F 
ATOM     69  C   UNL     1       4.629  -7.962  -7.674  1.00  0.00     0.200 A 
ATOM     70  F   UNL     1       6.102  -9.783  -7.969  1.00  0.00    -0.200 F 
ATOM     71  F   UNL     1       5.043  -7.422  -8.828  1.00  0.00    -0.200 F 
ENDBRANCH  38  61
ENDBRANCH  12  13
ENDBRANCH   5   7
ENDBRANCH   2   3
ENDBRANCH   1   2
BRANCH   1  72
ATOM     72  C   UNL     1       4.457   1.864  -3.068  1.00  0.00     0.023 C 
BRANCH  72  73
ATOM     73  C   UNL     1       4.946   3.264  -2.731  1.00  0.00     0.116 C 
BRANCH  73  74
ATOM     74  N   UNL     1       6.388   3.396  -2.836  1.00  0.00    -0.352 N 
ATOM     75  C   UNL     1       7.106   4.401  -3.448  1.00  0.00     0.255 C 
ATOM     76  H   UNL     1       6.918   2.678  -2.419  1.00  0.00     0.163 HD
ATOM     77  O   UNL     1       8.319   4.303  -3.536  1.00  0.00    -0.269 OA
BRANCH  75  78
ATOM     78  C   UNL     1       6.365   5.501  -4.040  1.00  0.00     0.084 A 
ATOM     79  C   UNL     1       6.469   5.886  -5.366  1.00  0.00     0.107 A 
ATOM     80  C   UNL     1       5.385   6.345  -3.482  1.00  0.00     0.101 A 
ATOM     81  N   UNL     1       5.555   6.889  -5.630  1.00  0.00    -0.317 N 
ATOM     82  C   UNL     1       4.829   7.116  -4.472  1.00  0.00     0.058 A 
ATOM     83  N   UNL     1       4.897   6.257  -2.180  1.00  0.00    -0.215 NA
ATOM     84  C   UNL     1       3.535   7.845  -4.327  1.00  0.00     0.088 C 
ATOM     85  C   UNL     1       3.878   7.006  -1.932  1.00  0.00     0.187 C 
ATOM     86  C   UNL     1       3.221   8.027  -2.829  1.00  0.00     0.112 C 
BRANCH  81  87
ATOM     87  C   UNL     1       5.367   7.478  -6.904  1.00  0.00     0.045 A 
ATOM     88  C   UNL     1       5.189   8.859  -7.024  1.00  0.00     0.026 A 
ATOM     89  C   UNL     1       5.390   6.667  -8.047  1.00  0.00     0.026 A 
ATOM     90  C   UNL     1       5.030   9.425  -8.290  1.00  0.00     0.002 A 
ATOM     91  C   UNL     1       5.199   7.237  -9.305  1.00  0.00     0.002 A 
ATOM     92  C   UNL     1       5.025   8.615  -9.427  1.00  0.00     0.000 A 
ENDBRANCH  81  87
BRANCH  84  93
ATOM     93  C   UNL     1       2.345   7.200  -5.039  1.00  0.00     0.014 A 
ATOM     94  C   UNL     1       1.134   7.810  -5.327  1.00  0.00     0.016 A 
ATOM     95  S   UNL     1       2.338   5.568  -5.582  1.00  0.00    -0.148 S 
ATOM     96  C   UNL     1       0.232   6.956  -6.024  1.00  0.00     0.012 A 
ATOM     97  C   UNL     1       0.780   5.717  -6.260  1.00  0.00     0.065 A 
ENDBRANCH  84  93
BRANCH  85  98
ATOM     98  O   UNL     1       3.343   6.940  -0.694  1.00  0.00    -0.496 OA
ATOM     99  H   UNL     1       3.686   6.334  -0.067  1.00  0.00     0.294 HD
ENDBRANCH  85  98
ENDBRANCH  75  78
ENDBRANCH  73  74
ENDBRANCH  72  73
ENDBRANCH   1  72
TORSDOF 14
