REMARK SMILES O=C(CCCN1C(=O)/C(=C/c2ccccc2Cl)SC1=S)Nc1cccc(C(=O)NCCCCNC(=O)c2ccc(-c3c4nc(c(-c5c(F)c(F)c(F)c(F)c5F)c5ccc([nH]5)c(-c5c(F)c(F)c(F)c(F)c5F)c5nc(c(-c6c(F)c(F)c(F)c(F)c6F)c6ccc3[nH]6)C=C5)C=C4)cc2)c1
REMARK SMILES IDX 27 1 28 2 29 3 26 5 22 6 23 7 100 8 24 9 25 10 21 11 1 12
REMARK SMILES IDX 2 13 3 15 4 16 5 17 6 18 7 19 19 20 8 21 9 22 18 23 20 24
REMARK SMILES IDX 10 25 11 26 12 27 16 28 13 29 15 30 17 31 14 32 30 33 31 34
REMARK SMILES IDX 32 35 33 36 34 37 35 38 36 40 37 41 38 42 99 43 39 44 98 45
REMARK SMILES IDX 40 46 41 47 42 48 92 49 43 50 97 51 91 52 93 53 44 54 96 55
REMARK SMILES IDX 90 56 89 57 45 59 77 60 57 61 76 62 58 63 61 64 75 65 94 66
REMARK SMILES IDX 59 67 60 68 74 70 95 71 62 72 46 73 47 74 55 75 48 76 49 77
REMARK SMILES IDX 53 78 56 79 50 80 51 81 54 82 52 83 78 84 79 85 87 86 80 87
REMARK SMILES IDX 81 88 85 89 88 90 82 91 83 92 86 93 84 94 63 95 64 96 72 97
REMARK SMILES IDX 65 98 66 99 70 100 73 101 67 102 68 103 71 104 69 105
REMARK H PARENT 29 4 21 14 34 39 93 58 61 69
REMARK Flexibility Score: inf
ROOT
ATOM      1  C   UNL     1      -0.523  -0.846   4.346  1.00  0.00     0.251 C 
ATOM      2  O   UNL     1      -1.225  -0.689   5.342  1.00  0.00    -0.269 OA
ATOM      3  N   UNL     1      -0.635  -2.002   3.602  1.00  0.00    -0.352 N 
ATOM      4  H   UNL     1      -1.317  -2.640   3.911  1.00  0.00     0.163 HD
ENDROOT
BRANCH   1   5
ATOM      5  C   UNL     1       0.494   0.175   3.994  1.00  0.00     0.041 A 
ATOM      6  C   UNL     1       1.859   1.266   2.315  1.00  0.00     0.041 A 
ATOM      7  C   UNL     1       2.671   1.774   3.339  1.00  0.00     0.026 A 
ATOM      8  C   UNL     1       0.722   0.543   2.664  1.00  0.00     0.040 A 
ATOM      9  C   UNL     1       2.371   1.519   4.683  1.00  0.00     0.003 A 
ATOM     10  C   UNL     1       1.290   0.704   5.012  1.00  0.00     0.014 A 
BRANCH   6  11
ATOM     11  N   UNL     1       2.321   1.391   0.981  1.00  0.00    -0.326 N 
ATOM     12  O   UNL     1       0.670   0.296  -0.212  1.00  0.00    -0.275 OA
ATOM     13  C   UNL     1       1.818   0.733  -0.122  1.00  0.00     0.224 C 
ATOM     14  H   UNL     1       3.073   2.007   0.826  1.00  0.00     0.169 HD
BRANCH  13  15
ATOM     15  C   UNL     1       2.797   0.427  -1.263  1.00  0.00     0.102 C 
BRANCH  15  16
ATOM     16  C   UNL     1       4.149   1.124  -1.407  1.00  0.00     0.032 C 
BRANCH  16  17
ATOM     17  C   UNL     1       5.240   1.019  -0.320  1.00  0.00     0.128 C 
BRANCH  17  18
ATOM     18  N   UNL     1       6.022  -0.216  -0.200  1.00  0.00    -0.293 N 
ATOM     19  C   UNL     1       7.408  -0.113  -0.316  1.00  0.00     0.266 C 
ATOM     20  C   UNL     1       5.580  -1.416   0.322  1.00  0.00     0.148 C 
ATOM     21  O   UNL     1       8.043   0.913  -0.523  1.00  0.00    -0.268 OA
ATOM     22  C   UNL     1       8.059  -1.416  -0.027  1.00  0.00     0.081 C 
ATOM     23  S   UNL     1       6.864  -2.610   0.266  1.00  0.00    -0.054 SA
ATOM     24  S   UNL     1       4.126  -1.794   1.036  1.00  0.00    -0.052 S 
ATOM     25  C   UNL     1       9.389  -1.577   0.031  1.00  0.00     0.031 C 
BRANCH  25  26
ATOM     26  C   UNL     1      10.018  -2.886   0.259  1.00  0.00    -0.006 A 
ATOM     27  C   UNL     1      10.440  -3.225   1.553  1.00  0.00     0.010 A 
ATOM     28  C   UNL     1      10.123  -3.844  -0.767  1.00  0.00     0.048 A 
ATOM     29  C   UNL     1      10.929  -4.506   1.821  1.00  0.00     0.001 A 
ATOM     30  C   UNL     1      10.605  -5.124  -0.491  1.00  0.00     0.021 A 
ATOM     31  Cl  UNL     1       9.649  -3.492  -2.395  1.00  0.00    -0.084 Cl
ATOM     32  C   UNL     1      11.002  -5.457   0.803  1.00  0.00     0.002 A 
ENDBRANCH  25  26
ENDBRANCH  17  18
ENDBRANCH  16  17
ENDBRANCH  15  16
ENDBRANCH  13  15
ENDBRANCH   6  11
ENDBRANCH   1   5
BRANCH   3  33
ATOM     33  C   UNL     1       0.116  -2.410   2.422  1.00  0.00     0.116 C 
BRANCH  33  34
ATOM     34  C   UNL     1       0.539  -3.873   2.418  1.00  0.00     0.023 C 
BRANCH  34  35
ATOM     35  C   UNL     1      -0.591  -4.893   2.437  1.00  0.00     0.023 C 
BRANCH  35  36
ATOM     36  C   UNL     1      -1.671  -4.702   1.381  1.00  0.00     0.116 C 
BRANCH  36  37
ATOM     37  N   UNL     1      -1.174  -4.765   0.013  1.00  0.00    -0.352 N 
ATOM     38  C   UNL     1      -1.601  -5.541  -1.038  1.00  0.00     0.251 C 
ATOM     39  H   UNL     1      -0.421  -4.163  -0.188  1.00  0.00     0.163 HD
ATOM     40  O   UNL     1      -0.996  -5.530  -2.107  1.00  0.00    -0.269 OA
BRANCH  38  41
ATOM     41  C   UNL     1      -2.772  -6.430  -0.870  1.00  0.00     0.039 A 
ATOM     42  C   UNL     1      -2.683  -7.755  -1.307  1.00  0.00     0.014 A 
ATOM     43  C   UNL     1      -3.940  -5.973  -0.257  1.00  0.00     0.014 A 
ATOM     44  C   UNL     1      -3.730  -8.642  -1.047  1.00  0.00     0.010 A 
ATOM     45  C   UNL     1      -4.943  -6.877   0.080  1.00  0.00     0.010 A 
ATOM     46  C   UNL     1      -4.848  -8.222  -0.309  1.00  0.00    -0.014 A 
BRANCH  46  47
ATOM     47  C   UNL     1      -5.933  -9.167   0.064  1.00  0.00     0.031 A 
ATOM     48  C   UNL     1      -7.330  -8.945  -0.446  1.00  0.00     0.074 A 
ATOM     49  C   UNL     1      -5.679 -10.183   0.913  1.00  0.00     0.049 A 
ATOM     50  N   UNL     1      -8.431  -9.596  -0.162  1.00  0.00    -0.248 NA
ATOM     51  C   UNL     1      -7.522  -7.823  -1.379  1.00  0.00     0.031 C 
ATOM     52  C   UNL     1      -4.377 -10.482   1.512  1.00  0.00     0.029 A 
ATOM     53  N   UNL     1      -6.509 -11.148   1.429  1.00  0.00    -0.354 N 
ATOM     54  C   UNL     1      -9.440  -8.955  -0.869  1.00  0.00     0.074 A 
ATOM     55  C   UNL     1      -8.836  -7.830  -1.546  1.00  0.00     0.031 C 
ATOM     56  C   UNL     1      -4.490 -11.569   2.293  1.00  0.00     0.029 A 
ATOM     57  C   UNL     1      -5.878 -12.021   2.283  1.00  0.00     0.049 A 
ATOM     58  H   UNL     1      -7.466 -11.208   1.209  1.00  0.00     0.167 HD
ATOM     59  C   UNL     1     -10.748  -9.292  -0.968  1.00  0.00     0.037 A 
ATOM     60  C   UNL     1      -6.367 -13.062   2.982  1.00  0.00     0.037 A 
ATOM     61  C   UNL     1     -11.345 -10.426  -0.315  1.00  0.00     0.049 A 
ATOM     62  C   UNL     1      -7.829 -13.403   2.866  1.00  0.00     0.074 A 
ATOM     63  C   UNL     1     -12.654 -10.871  -0.380  1.00  0.00     0.029 A 
ATOM     64  N   UNL     1     -10.667 -11.300   0.523  1.00  0.00    -0.354 N 
ATOM     65  N   UNL     1      -8.762 -12.823   2.151  1.00  0.00    -0.248 NA
ATOM     66  C   UNL     1      -8.305 -14.552   3.651  1.00  0.00     0.031 C 
ATOM     67  C   UNL     1     -12.777 -11.994   0.445  1.00  0.00     0.029 A 
ATOM     68  C   UNL     1     -11.534 -12.276   0.987  1.00  0.00     0.049 A 
ATOM     69  H   UNL     1      -9.712 -11.236   0.753  1.00  0.00     0.167 HD
ATOM     70  C   UNL     1      -9.921 -13.556   2.369  1.00  0.00     0.074 A 
ATOM     71  C   UNL     1      -9.573 -14.630   3.273  1.00  0.00     0.031 C 
ATOM     72  C   UNL     1     -11.164 -13.355   1.866  1.00  0.00     0.037 A 
BRANCH  59  73
ATOM     73  C   UNL     1     -11.622  -8.429  -1.832  1.00  0.00     0.064 A 
ATOM     74  C   UNL     1     -11.491  -8.425  -3.229  1.00  0.00     0.173 A 
ATOM     75  C   UNL     1     -12.626  -7.631  -1.265  1.00  0.00     0.173 A 
ATOM     76  F   UNL     1     -10.539  -9.162  -3.821  1.00  0.00    -0.203 F 
ATOM     77  C   UNL     1     -12.316  -7.634  -4.024  1.00  0.00     0.198 A 
ATOM     78  C   UNL     1     -13.469  -6.864  -2.065  1.00  0.00     0.198 A 
ATOM     79  F   UNL     1     -12.798  -7.603   0.065  1.00  0.00    -0.203 F 
ATOM     80  F   UNL     1     -12.141  -7.611  -5.353  1.00  0.00    -0.200 F 
ATOM     81  C   UNL     1     -13.309  -6.861  -3.443  1.00  0.00     0.200 A 
ATOM     82  F   UNL     1     -14.438  -6.128  -1.503  1.00  0.00    -0.200 F 
ATOM     83  F   UNL     1     -14.109  -6.108  -4.210  1.00  0.00    -0.200 F 
ENDBRANCH  59  73
BRANCH  60  84
ATOM     84  C   UNL     1      -5.468 -13.882   3.838  1.00  0.00     0.064 A 
ATOM     85  C   UNL     1      -5.177 -15.213   3.504  1.00  0.00     0.173 A 
ATOM     86  C   UNL     1      -4.913 -13.371   5.020  1.00  0.00     0.173 A 
ATOM     87  F   UNL     1      -5.704 -15.755   2.396  1.00  0.00    -0.203 F 
ATOM     88  C   UNL     1      -4.391 -16.010   4.334  1.00  0.00     0.198 A 
ATOM     89  C   UNL     1      -4.101 -14.160   5.834  1.00  0.00     0.198 A 
ATOM     90  F   UNL     1      -5.157 -12.104   5.385  1.00  0.00    -0.203 F 
ATOM     91  F   UNL     1      -4.179 -17.295   4.019  1.00  0.00    -0.200 F 
ATOM     92  C   UNL     1      -3.851 -15.482   5.496  1.00  0.00     0.200 A 
ATOM     93  F   UNL     1      -3.571 -13.643   6.950  1.00  0.00    -0.200 F 
ATOM     94  F   UNL     1      -3.100 -16.250   6.297  1.00  0.00    -0.200 F 
ENDBRANCH  60  84
BRANCH  72  95
ATOM     95  C   UNL     1     -12.225 -14.350   2.233  1.00  0.00     0.064 A 
ATOM     96  C   UNL     1     -12.775 -14.402   3.522  1.00  0.00     0.173 A 
ATOM     97  C   UNL     1     -12.727 -15.236   1.267  1.00  0.00     0.173 A 
ATOM     98  F   UNL     1     -12.319 -13.587   4.484  1.00  0.00    -0.203 F 
ATOM     99  C   UNL     1     -13.770 -15.324   3.837  1.00  0.00     0.198 A 
ATOM    100  C   UNL     1     -13.743 -16.135   1.578  1.00  0.00     0.198 A 
ATOM    101  F   UNL     1     -12.239 -15.222   0.017  1.00  0.00    -0.203 F 
ATOM    102  F   UNL     1     -14.247 -15.389   5.088  1.00  0.00    -0.200 F 
ATOM    103  C   UNL     1     -14.258 -16.183   2.864  1.00  0.00     0.200 A 
ATOM    104  F   UNL     1     -14.223 -16.955   0.633  1.00  0.00    -0.200 F 
ATOM    105  F   UNL     1     -15.221 -17.064   3.168  1.00  0.00    -0.200 F 
ENDBRANCH  72  95
ENDBRANCH  46  47
ENDBRANCH  38  41
ENDBRANCH  36  37
ENDBRANCH  35  36
ENDBRANCH  34  35
ENDBRANCH  33  34
ENDBRANCH   3  33
TORSDOF 17
