REMARK SMILES CC[C@@](C)(NC(=O)[C@@H](C)NC(=O)c1ccco1)C(=O)NCCCCNC(=O)c1ccc(-c2c3nc(c(-c4c(F)c(F)c(F)c(F)c4F)c4ccc([nH]4)c(-c4c(F)c(F)c(F)c(F)c4F)c4nc(c(-c5c(F)c(F)c(F)c(F)c5F)c5ccc2[nH]5)C=C4)C=C3)cc1
REMARK SMILES IDX 21 1 20 2 18 3 19 4 3 6 4 7 2 8 1 9 5 10 6 11 7 13 8 14 9 15
REMARK SMILES IDX 10 16 11 17 12 19 13 20 14 21 17 22 15 23 16 24 22 25 23 26
REMARK SMILES IDX 24 27 25 28 26 29 27 31 28 32 29 33 90 34 30 35 89 36 31 37
REMARK SMILES IDX 32 38 33 39 83 40 34 41 88 42 82 43 84 44 35 45 87 46 81 47
REMARK SMILES IDX 80 48 36 50 68 51 48 52 67 53 49 54 52 55 66 56 85 57 50 58
REMARK SMILES IDX 51 59 65 61 86 62 53 63 37 64 38 65 46 66 39 67 40 68 44 69
REMARK SMILES IDX 47 70 41 71 42 72 45 73 43 74 69 75 70 76 78 77 71 78 72 79
REMARK SMILES IDX 76 80 79 81 73 82 74 83 77 84 75 85 54 86 55 87 63 88 56 89
REMARK SMILES IDX 57 90 61 91 64 92 58 93 59 94 62 95 60 96
REMARK H PARENT 20 5 5 12 10 18 25 30 84 49 52 60
REMARK Flexibility Score: inf
ROOT
ATOM      1  C   UNL     1       1.755  -2.311  -4.820  1.00  0.00     0.116 C 
ENDROOT
BRANCH   1   2
ATOM      2  N   UNL     1       2.558  -1.853  -3.692  1.00  0.00    -0.354 N 
ATOM      3  C   UNL     1       2.288  -1.023  -2.639  1.00  0.00     0.245 C 
ATOM      4  O   UNL     1       3.198  -0.854  -1.821  1.00  0.00    -0.272 OA
ATOM      5  H   UNL     1       3.475  -2.212  -3.688  1.00  0.00     0.163 HD
BRANCH   3   6
ATOM      6  C   UNL     1       0.956  -0.251  -2.510  1.00  0.00     0.116 C 
ATOM      7  C   UNL     1      -0.204  -1.260  -2.315  1.00  0.00     0.045 C 
BRANCH   6   8
ATOM      8  C   UNL     1       0.869   0.740  -1.315  1.00  0.00     0.035 C 
ATOM      9  C   UNL     1       1.006   0.168   0.093  1.00  0.00     0.007 C 
ENDBRANCH   6   8
BRANCH   6  10
ATOM     10  N   UNL     1       0.780   0.520  -3.764  1.00  0.00    -0.340 N 
ATOM     11  C   UNL     1       1.490   1.494  -4.397  1.00  0.00     0.243 C 
ATOM     12  H   UNL     1      -0.039   0.271  -4.251  1.00  0.00     0.164 HD
ATOM     13  O   UNL     1       0.813   2.155  -5.202  1.00  0.00    -0.273 OA
BRANCH  11  14
ATOM     14  C   UNL     1       2.976   1.941  -4.155  1.00  0.00     0.168 C 
ATOM     15  C   UNL     1       3.089   3.059  -3.127  1.00  0.00     0.041 C 
BRANCH  14  16
ATOM     16  N   UNL     1       4.035   0.969  -3.899  1.00  0.00    -0.338 N 
ATOM     17  C   UNL     1       5.153   0.664  -4.646  1.00  0.00     0.287 C 
ATOM     18  H   UNL     1       3.936   0.453  -3.066  1.00  0.00     0.164 HD
ATOM     19  O   UNL     1       5.834  -0.294  -4.276  1.00  0.00    -0.266 OA
BRANCH  17  20
ATOM     20  C   UNL     1       5.460   1.424  -5.840  1.00  0.00     0.191 A 
ATOM     21  C   UNL     1       5.687   2.769  -6.071  1.00  0.00     0.056 A 
ATOM     22  O   UNL     1       5.625   0.736  -7.016  1.00  0.00    -0.459 OA
ATOM     23  C   UNL     1       5.978   2.906  -7.452  1.00  0.00     0.043 A 
ATOM     24  C   UNL     1       5.917   1.641  -7.983  1.00  0.00     0.196 A 
ENDBRANCH  17  20
ENDBRANCH  14  16
ENDBRANCH  11  14
ENDBRANCH   6  10
ENDBRANCH   3   6
ENDBRANCH   1   2
BRANCH   1  25
ATOM     25  C   UNL     1       2.118  -1.715  -6.181  1.00  0.00     0.023 C 
BRANCH  25  26
ATOM     26  C   UNL     1       3.578  -1.815  -6.595  1.00  0.00     0.023 C 
BRANCH  26  27
ATOM     27  C   UNL     1       4.214  -3.191  -6.527  1.00  0.00     0.116 C 
BRANCH  27  28
ATOM     28  N   UNL     1       3.916  -3.993  -7.698  1.00  0.00    -0.352 N 
ATOM     29  C   UNL     1       4.736  -4.393  -8.725  1.00  0.00     0.251 C 
ATOM     30  H   UNL     1       2.983  -4.299  -7.767  1.00  0.00     0.163 HD
ATOM     31  O   UNL     1       4.233  -4.897  -9.728  1.00  0.00    -0.269 OA
BRANCH  29  32
ATOM     32  C   UNL     1       6.211  -4.224  -8.661  1.00  0.00     0.039 A 
ATOM     33  C   UNL     1       6.902  -3.937  -9.844  1.00  0.00     0.014 A 
ATOM     34  C   UNL     1       6.935  -4.417  -7.481  1.00  0.00     0.014 A 
ATOM     35  C   UNL     1       8.296  -3.819  -9.837  1.00  0.00     0.010 A 
ATOM     36  C   UNL     1       8.313  -4.201  -7.454  1.00  0.00     0.010 A 
ATOM     37  C   UNL     1       9.015  -3.936  -8.638  1.00  0.00    -0.014 A 
BRANCH  37  38
ATOM     38  C   UNL     1      10.502  -3.859  -8.617  1.00  0.00     0.031 A 
ATOM     39  C   UNL     1      11.311  -5.058  -8.190  1.00  0.00     0.074 A 
ATOM     40  C   UNL     1      11.129  -2.714  -8.945  1.00  0.00     0.049 A 
ATOM     41  N   UNL     1      12.610  -5.182  -8.059  1.00  0.00    -0.248 NA
ATOM     42  C   UNL     1      10.560  -6.273  -7.837  1.00  0.00     0.031 C 
ATOM     43  C   UNL     1      10.468  -1.468  -9.332  1.00  0.00     0.029 A 
ATOM     44  N   UNL     1      12.468  -2.411  -9.001  1.00  0.00    -0.354 N 
ATOM     45  C   UNL     1      12.822  -6.470  -7.584  1.00  0.00     0.074 A 
ATOM     46  C   UNL     1      11.521  -7.074  -7.402  1.00  0.00     0.031 C 
ATOM     47  C   UNL     1      11.401  -0.545  -9.615  1.00  0.00     0.029 A 
ATOM     48  C   UNL     1      12.725  -1.120  -9.395  1.00  0.00     0.049 A 
ATOM     49  H   UNL     1      13.176  -3.058  -8.779  1.00  0.00     0.167 HD
ATOM     50  C   UNL     1      13.995  -7.104  -7.345  1.00  0.00     0.037 A 
ATOM     51  C   UNL     1      13.896  -0.475  -9.557  1.00  0.00     0.037 A 
ATOM     52  C   UNL     1      15.291  -6.524  -7.572  1.00  0.00     0.049 A 
ATOM     53  C   UNL     1      15.186  -1.206  -9.300  1.00  0.00     0.074 A 
ATOM     54  C   UNL     1      16.537  -7.112  -7.433  1.00  0.00     0.029 A 
ATOM     55  N   UNL     1      15.508  -5.219  -7.989  1.00  0.00    -0.354 N 
ATOM     56  N   UNL     1      15.374  -2.446  -8.918  1.00  0.00    -0.248 NA
ATOM     57  C   UNL     1      16.429  -0.448  -9.504  1.00  0.00     0.031 C 
ATOM     58  C   UNL     1      17.509  -6.151  -7.728  1.00  0.00     0.029 A 
ATOM     59  C   UNL     1      16.869  -4.978  -8.094  1.00  0.00     0.049 A 
ATOM     60  H   UNL     1      14.801  -4.562  -8.183  1.00  0.00     0.167 HD
ATOM     61  C   UNL     1      16.750  -2.624  -8.861  1.00  0.00     0.074 A 
ATOM     62  C   UNL     1      17.351  -1.369  -9.263  1.00  0.00     0.031 C 
ATOM     63  C   UNL     1      17.452  -3.728  -8.507  1.00  0.00     0.037 A 
BRANCH  50  64
ATOM     64  C   UNL     1      13.931  -8.508  -6.816  1.00  0.00     0.064 A 
ATOM     65  C   UNL     1      13.500  -9.578  -7.614  1.00  0.00     0.173 A 
ATOM     66  C   UNL     1      14.341  -8.793  -5.504  1.00  0.00     0.173 A 
ATOM     67  F   UNL     1      13.088  -9.359  -8.872  1.00  0.00    -0.203 F 
ATOM     68  C   UNL     1      13.452 -10.875  -7.110  1.00  0.00     0.198 A 
ATOM     69  C   UNL     1      14.320 -10.096  -5.013  1.00  0.00     0.198 A 
ATOM     70  F   UNL     1      14.770  -7.808  -4.700  1.00  0.00    -0.203 F 
ATOM     71  F   UNL     1      12.990 -11.873  -7.876  1.00  0.00    -0.200 F 
ATOM     72  C   UNL     1      13.869 -11.134  -5.813  1.00  0.00     0.200 A 
ATOM     73  F   UNL     1      14.736 -10.347  -3.764  1.00  0.00    -0.200 F 
ATOM     74  F   UNL     1      13.829 -12.384  -5.332  1.00  0.00    -0.200 F 
ENDBRANCH  50  64
BRANCH  51  75
ATOM     75  C   UNL     1      13.906   0.938 -10.020  1.00  0.00     0.064 A 
ATOM     76  C   UNL     1      14.359   1.268 -11.305  1.00  0.00     0.173 A 
ATOM     77  C   UNL     1      13.471   1.982  -9.192  1.00  0.00     0.173 A 
ATOM     78  F   UNL     1      14.808   0.306 -12.125  1.00  0.00    -0.203 F 
ATOM     79  C   UNL     1      14.393   2.592 -11.738  1.00  0.00     0.198 A 
ATOM     80  C   UNL     1      13.480   3.303  -9.636  1.00  0.00     0.198 A 
ATOM     81  F   UNL     1      13.027   1.719  -7.955  1.00  0.00    -0.203 F 
ATOM     82  F   UNL     1      14.873   2.884 -12.955  1.00  0.00    -0.200 F 
ATOM     83  C   UNL     1      13.948   3.608 -10.906  1.00  0.00     0.200 A 
ATOM     84  F   UNL     1      13.038   4.281  -8.834  1.00  0.00    -0.200 F 
ATOM     85  F   UNL     1      13.977   4.880 -11.324  1.00  0.00    -0.200 F 
ENDBRANCH  51  75
BRANCH  63  86
ATOM     86  C   UNL     1      18.949  -3.643  -8.571  1.00  0.00     0.064 A 
ATOM     87  C   UNL     1      19.685  -2.908  -7.630  1.00  0.00     0.173 A 
ATOM     88  C   UNL     1      19.657  -4.343  -9.560  1.00  0.00     0.173 A 
ATOM     89  F   UNL     1      19.053  -2.211  -6.675  1.00  0.00    -0.203 F 
ATOM     90  C   UNL     1      21.075  -2.858  -7.692  1.00  0.00     0.198 A 
ATOM     91  C   UNL     1      21.048  -4.313  -9.601  1.00  0.00     0.198 A 
ATOM     92  F   UNL     1      19.000  -5.067 -10.479  1.00  0.00    -0.203 F 
ATOM     93  F   UNL     1      21.756  -2.114  -6.810  1.00  0.00    -0.200 F 
ATOM     94  C   UNL     1      21.755  -3.566  -8.672  1.00  0.00     0.200 A 
ATOM     95  F   UNL     1      21.704  -5.008 -10.541  1.00  0.00    -0.200 F 
ATOM     96  F   UNL     1      23.093  -3.521  -8.725  1.00  0.00    -0.200 F 
ENDBRANCH  63  86
ENDBRANCH  37  38
ENDBRANCH  29  32
ENDBRANCH  27  28
ENDBRANCH  26  27
ENDBRANCH  25  26
ENDBRANCH   1  25
TORSDOF 16
