REMARK SMILES C=CCN(CC(=O)NCCCCNC(=O)c1ccc(-c2c3nc(c(-c4c(F)c(F)c(F)c(F)c4F)c4ccc([nH]4)c(-c4c(F)c(F)c(F)c(F)c4F)c4nc(c(-c5c(F)c(F)c(F)c(F)c5F)c5ccc2[nH]5)C=C4)C=C3)cc1)c1nc2ccccc2s1
REMARK SMILES IDX 10 1 9 2 8 3 6 4 7 5 5 7 4 8 3 9 2 10 1 11 79 12 80 13 87 14
REMARK SMILES IDX 81 15 86 16 82 17 85 18 83 19 84 20 11 21 12 22 13 23 14 24
REMARK SMILES IDX 15 26 16 27 17 28 78 29 18 30 77 31 19 32 20 33 21 34 71 35
REMARK SMILES IDX 22 36 76 37 70 38 72 39 23 40 75 41 69 42 68 43 24 45 56 46
REMARK SMILES IDX 36 47 55 48 37 49 40 50 54 51 73 52 38 53 39 54 53 56 74 57
REMARK SMILES IDX 41 58 25 59 26 60 34 61 27 62 28 63 32 64 35 65 29 66 30 67
REMARK SMILES IDX 33 68 31 69 57 70 58 71 66 72 59 73 60 74 64 75 67 76 61 77
REMARK SMILES IDX 62 78 65 79 63 80 42 81 43 82 51 83 44 84 45 85 49 86 52 87
REMARK SMILES IDX 46 88 47 89 50 90 48 91
REMARK H PARENT 8 6 13 25 72 44 40 55
REMARK Flexibility Score: inf
ROOT
ATOM      1  C   UNL     1      -4.175  -0.601  -0.315  1.00  0.00     0.023 C 
ENDROOT
BRANCH   1   2
ATOM      2  C   UNL     1      -4.411   0.097   1.022  1.00  0.00     0.116 C 
BRANCH   2   3
ATOM      3  N   UNL     1      -4.694  -0.832   2.089  1.00  0.00    -0.355 N 
ATOM      4  C   UNL     1      -3.881  -1.251   3.106  1.00  0.00     0.239 C 
ATOM      5  O   UNL     1      -4.403  -1.926   4.000  1.00  0.00    -0.273 OA
ATOM      6  H   UNL     1      -5.599  -1.218   2.085  1.00  0.00     0.163 HD
BRANCH   4   7
ATOM      7  C   UNL     1      -2.415  -0.786   3.195  1.00  0.00     0.219 C 
BRANCH   7   8
ATOM      8  N   UNL     1      -1.541  -1.205   2.080  1.00  0.00    -0.335 N 
BRANCH   8   9
ATOM      9  C   UNL     1      -0.994  -0.183   1.203  1.00  0.00     0.146 C 
BRANCH   9  10
ATOM     10  C   UNL     1       0.494  -0.058   1.305  1.00  0.00    -0.014 C 
ATOM     11  C   UNL     1       1.298   0.002   0.233  1.00  0.00     0.006 C 
ENDBRANCH   9  10
ENDBRANCH   8   9
BRANCH   8  12
ATOM     12  C   UNL     1      -1.400  -2.548   1.857  1.00  0.00     0.187 A 
ATOM     13  N   UNL     1      -2.282  -3.426   2.278  1.00  0.00    -0.220 NA
ATOM     14  S   UNL     1      -0.056  -3.273   1.042  1.00  0.00    -0.097 S 
ATOM     15  C   UNL     1      -1.899  -4.720   1.992  1.00  0.00     0.084 A 
ATOM     16  C   UNL     1      -0.665  -4.844   1.362  1.00  0.00     0.056 A 
ATOM     17  C   UNL     1      -2.631  -5.886   2.293  1.00  0.00     0.030 A 
ATOM     18  C   UNL     1      -0.104  -6.098   1.068  1.00  0.00     0.021 A 
ATOM     19  C   UNL     1      -2.094  -7.140   1.989  1.00  0.00     0.002 A 
ATOM     20  C   UNL     1      -0.839  -7.242   1.397  1.00  0.00     0.002 A 
ENDBRANCH   8  12
ENDBRANCH   7   8
ENDBRANCH   4   7
ENDBRANCH   2   3
ENDBRANCH   1   2
BRANCH   1  21
ATOM     21  C   UNL     1      -5.411  -1.272  -0.917  1.00  0.00     0.023 C 
BRANCH  21  22
ATOM     22  C   UNL     1      -6.623  -0.367  -1.105  1.00  0.00     0.116 C 
BRANCH  22  23
ATOM     23  N   UNL     1      -6.359   0.787  -1.950  1.00  0.00    -0.352 N 
ATOM     24  C   UNL     1      -7.160   1.357  -2.912  1.00  0.00     0.251 C 
ATOM     25  H   UNL     1      -5.485   1.221  -1.813  1.00  0.00     0.163 HD
ATOM     26  O   UNL     1      -6.736   2.269  -3.608  1.00  0.00    -0.269 OA
BRANCH  24  27
ATOM     27  C   UNL     1      -8.526   0.832  -3.130  1.00  0.00     0.039 A 
ATOM     28  C   UNL     1      -8.944   0.570  -4.437  1.00  0.00     0.014 A 
ATOM     29  C   UNL     1      -9.380   0.579  -2.053  1.00  0.00     0.014 A 
ATOM     30  C   UNL     1     -10.193  -0.016  -4.659  1.00  0.00     0.010 A 
ATOM     31  C   UNL     1     -10.592  -0.070  -2.271  1.00  0.00     0.010 A 
ATOM     32  C   UNL     1     -11.009  -0.376  -3.575  1.00  0.00    -0.014 A 
BRANCH  32  33
ATOM     33  C   UNL     1     -12.300  -1.080  -3.782  1.00  0.00     0.031 A 
ATOM     34  C   UNL     1     -13.592  -0.417  -3.396  1.00  0.00     0.074 A 
ATOM     35  C   UNL     1     -12.305  -2.340  -4.256  1.00  0.00     0.049 A 
ATOM     36  N   UNL     1     -14.812  -0.891  -3.434  1.00  0.00    -0.248 NA
ATOM     37  C   UNL     1     -13.497   0.954  -2.873  1.00  0.00     0.031 C 
ATOM     38  C   UNL     1     -11.116  -3.108  -4.630  1.00  0.00     0.029 A 
ATOM     39  N   UNL     1     -13.345  -3.202  -4.497  1.00  0.00    -0.354 N 
ATOM     40  C   UNL     1     -15.624   0.116  -2.932  1.00  0.00     0.074 A 
ATOM     41  C   UNL     1     -14.755   1.204  -2.540  1.00  0.00     0.031 C 
ATOM     42  C   UNL     1     -11.495  -4.314  -5.080  1.00  0.00     0.029 A 
ATOM     43  C   UNL     1     -12.948  -4.421  -4.990  1.00  0.00     0.049 A 
ATOM     44  H   UNL     1     -14.287  -2.969  -4.332  1.00  0.00     0.167 HD
ATOM     45  C   UNL     1     -16.975   0.142  -2.830  1.00  0.00     0.037 A 
ATOM     46  C   UNL     1     -13.675  -5.503  -5.327  1.00  0.00     0.037 A 
ATOM     47  C   UNL     1     -17.839  -0.936  -3.234  1.00  0.00     0.049 A 
ATOM     48  C   UNL     1     -15.171  -5.460  -5.176  1.00  0.00     0.074 A 
ATOM     49  C   UNL     1     -19.222  -0.989  -3.215  1.00  0.00     0.029 A 
ATOM     50  N   UNL     1     -17.399  -2.156  -3.728  1.00  0.00    -0.354 N 
ATOM     51  N   UNL     1     -15.934  -4.480  -4.758  1.00  0.00    -0.248 NA
ATOM     52  C   UNL     1     -15.907  -6.677  -5.547  1.00  0.00     0.031 C 
ATOM     53  C   UNL     1     -19.617  -2.257  -3.655  1.00  0.00     0.029 A 
ATOM     54  C   UNL     1     -18.484  -2.977  -3.997  1.00  0.00     0.049 A 
ATOM     55  H   UNL     1     -16.456  -2.402  -3.867  1.00  0.00     0.167 HD
ATOM     56  C   UNL     1     -17.239  -4.947  -4.847  1.00  0.00     0.074 A 
ATOM     57  C   UNL     1     -17.164  -6.296  -5.368  1.00  0.00     0.031 C 
ATOM     58  C   UNL     1     -18.394  -4.314  -4.526  1.00  0.00     0.037 A 
BRANCH  45  59
ATOM     59  C   UNL     1     -17.598   1.384  -2.259  1.00  0.00     0.064 A 
ATOM     60  C   UNL     1     -17.581   2.602  -2.956  1.00  0.00     0.173 A 
ATOM     61  C   UNL     1     -18.231   1.355  -1.007  1.00  0.00     0.173 A 
ATOM     62  F   UNL     1     -16.977   2.687  -4.151  1.00  0.00    -0.203 F 
ATOM     63  C   UNL     1     -18.139   3.752  -2.405  1.00  0.00     0.198 A 
ATOM     64  C   UNL     1     -18.818   2.500  -0.474  1.00  0.00     0.198 A 
ATOM     65  F   UNL     1     -18.283   0.216  -0.301  1.00  0.00    -0.203 F 
ATOM     66  F   UNL     1     -18.057   4.916  -3.064  1.00  0.00    -0.200 F 
ATOM     67  C   UNL     1     -18.762   3.699  -1.168  1.00  0.00     0.200 A 
ATOM     68  F   UNL     1     -19.432   2.444   0.716  1.00  0.00    -0.200 F 
ATOM     69  F   UNL     1     -19.301   4.807  -0.639  1.00  0.00    -0.200 F 
ENDBRANCH  45  59
BRANCH  46  70
ATOM     70  C   UNL     1     -13.002  -6.708  -5.878  1.00  0.00     0.064 A 
ATOM     71  C   UNL     1     -13.164  -7.062  -7.225  1.00  0.00     0.173 A 
ATOM     72  C   UNL     1     -12.190  -7.527  -5.080  1.00  0.00     0.173 A 
ATOM     73  F   UNL     1     -13.948  -6.322  -8.022  1.00  0.00    -0.203 F 
ATOM     74  C   UNL     1     -12.555  -8.200  -7.748  1.00  0.00     0.198 A 
ATOM     75  C   UNL     1     -11.559  -8.650  -5.612  1.00  0.00     0.198 A 
ATOM     76  F   UNL     1     -12.001  -7.229  -3.787  1.00  0.00    -0.203 F 
ATOM     77  F   UNL     1     -12.761  -8.540  -9.028  1.00  0.00    -0.200 F 
ATOM     78  C   UNL     1     -11.748  -8.990  -6.943  1.00  0.00     0.200 A 
ATOM     79  F   UNL     1     -10.771  -9.403  -4.834  1.00  0.00    -0.200 F 
ATOM     80  F   UNL     1     -11.159 -10.082  -7.448  1.00  0.00    -0.200 F 
ENDBRANCH  46  70
BRANCH  58  81
ATOM     81  C   UNL     1     -19.675  -5.057  -4.770  1.00  0.00     0.064 A 
ATOM     82  C   UNL     1     -20.064  -6.141  -3.970  1.00  0.00     0.173 A 
ATOM     83  C   UNL     1     -20.543  -4.654  -5.797  1.00  0.00     0.173 A 
ATOM     84  F   UNL     1     -19.262  -6.576  -2.986  1.00  0.00    -0.203 F 
ATOM     85  C   UNL     1     -21.262  -6.811  -4.205  1.00  0.00     0.198 A 
ATOM     86  C   UNL     1     -21.754  -5.307  -6.010  1.00  0.00     0.198 A 
ATOM     87  F   UNL     1     -20.221  -3.619  -6.588  1.00  0.00    -0.203 F 
ATOM     88  F   UNL     1     -21.590  -7.874  -3.458  1.00  0.00    -0.200 F 
ATOM     89  C   UNL     1     -22.109  -6.388  -5.219  1.00  0.00     0.200 A 
ATOM     90  F   UNL     1     -22.577  -4.889  -6.981  1.00  0.00    -0.200 F 
ATOM     91  F   UNL     1     -23.265  -7.030  -5.438  1.00  0.00    -0.200 F 
ENDBRANCH  58  81
ENDBRANCH  32  33
ENDBRANCH  24  27
ENDBRANCH  22  23
ENDBRANCH  21  22
ENDBRANCH   1  21
TORSDOF 15
