REMARK SMILES C[C@H]1[C@H](C(=O)NCCCCNC(=O)c2ccc(-c3c4nc(c(-c5c(F)c(F)c(F)c(F)c5F)c5ccc([nH]5)c(-c5c(F)c(F)c(F)c(F)c5F)c5nc(c(-c6c(F)c(F)c(F)c(F)c6F)c6ccc3[nH]6)C=C5)C=C4)cc2)CC[N@@H+]1Cc1nnnn1-c1ccccc1
REMARK SMILES IDX 8 1 7 2 6 3 4 4 5 5 3 7 1 8 2 9 79 10 77 11 78 12 80 14
REMARK SMILES IDX 81 15 82 16 85 17 83 18 84 19 86 20 87 21 91 22 88 23 90 24
REMARK SMILES IDX 89 25 9 26 10 27 11 28 12 29 13 31 14 32 15 33 76 34 16 35
REMARK SMILES IDX 75 36 17 37 18 38 19 39 69 40 20 41 74 42 68 43 70 44 21 45
REMARK SMILES IDX 73 46 67 47 66 48 22 50 54 51 34 52 53 53 35 54 38 55 52 56
REMARK SMILES IDX 71 57 36 58 37 59 51 61 72 62 39 63 23 64 24 65 32 66 25 67
REMARK SMILES IDX 26 68 30 69 33 70 27 71 28 72 31 73 29 74 55 75 56 76 64 77
REMARK SMILES IDX 57 78 58 79 62 80 65 81 59 82 60 83 63 84 61 85 40 86 41 87
REMARK SMILES IDX 49 88 42 89 43 90 47 91 50 92 44 93 45 94 48 95 46 96
REMARK H PARENT 6 6 79 13 11 30 70 49 38 60
REMARK Flexibility Score: inf
ROOT
ATOM      1  C   UNL     1       0.694   0.756   4.132  1.00  0.00     0.023 C 
ENDROOT
BRANCH   1   2
ATOM      2  C   UNL     1      -0.251   1.551   3.225  1.00  0.00     0.116 C 
BRANCH   2   3
ATOM      3  N   UNL     1       0.445   2.495   2.383  1.00  0.00    -0.356 N 
ATOM      4  C   UNL     1       0.724   2.444   1.056  1.00  0.00     0.229 C 
ATOM      5  O   UNL     1       1.226   3.458   0.559  1.00  0.00    -0.275 OA
ATOM      6  H   UNL     1       0.767   3.304   2.844  1.00  0.00     0.163 HD
BRANCH   4   7
ATOM      7  C   UNL     1       0.410   1.249   0.161  1.00  0.00     0.142 C 
ATOM      8  C   UNL     1       2.134  -0.568  -0.051  1.00  0.00     0.076 C 
ATOM      9  C   UNL     1       0.823  -0.160   0.635  1.00  0.00     0.194 C 
ATOM     10  N   UNL     1      -0.241  -1.074   0.171  1.00  0.00    -0.326 N 
ATOM     11  C   UNL     1      -1.047   1.098  -0.254  1.00  0.00     0.081 C 
ATOM     12  C   UNL     1      -1.067  -0.331  -0.771  1.00  0.00     0.263 C 
ATOM     13  H   UNL     1       0.195  -1.857  -0.318  1.00  0.00     0.348 HD
BRANCH  10  14
ATOM     14  C   UNL     1      -0.906  -1.949   1.155  1.00  0.00     0.343 C 
BRANCH  14  15
ATOM     15  C   UNL     1      -1.924  -1.376   2.096  1.00  0.00     0.210 A 
ATOM     16  N   UNL     1      -1.761  -1.159   3.391  1.00  0.00    -0.107 NA
ATOM     17  N   UNL     1      -3.192  -0.922   1.770  1.00  0.00    -0.192 N 
ATOM     18  N   UNL     1      -2.820  -0.385   3.791  1.00  0.00    -0.023 NA
ATOM     19  N   UNL     1      -3.632  -0.137   2.778  1.00  0.00    -0.040 NA
BRANCH  17  20
ATOM     20  C   UNL     1      -3.988  -1.169   0.642  1.00  0.00     0.069 A 
ATOM     21  C   UNL     1      -4.671  -0.106   0.039  1.00  0.00     0.028 A 
ATOM     22  C   UNL     1      -4.059  -2.462   0.113  1.00  0.00     0.028 A 
ATOM     23  C   UNL     1      -5.359  -0.331  -1.153  1.00  0.00     0.002 A 
ATOM     24  C   UNL     1      -4.790  -2.683  -1.052  1.00  0.00     0.002 A 
ATOM     25  C   UNL     1      -5.418  -1.616  -1.694  1.00  0.00     0.000 A 
ENDBRANCH  17  20
ENDBRANCH  14  15
ENDBRANCH  10  14
ENDBRANCH   4   7
ENDBRANCH   2   3
ENDBRANCH   1   2
BRANCH   1  26
ATOM     26  C   UNL     1       0.659   1.158   5.606  1.00  0.00     0.023 C 
BRANCH  26  27
ATOM     27  C   UNL     1      -0.698   1.067   6.298  1.00  0.00     0.116 C 
BRANCH  27  28
ATOM     28  N   UNL     1      -1.268  -0.269   6.371  1.00  0.00    -0.352 N 
ATOM     29  C   UNL     1      -2.090  -0.789   7.354  1.00  0.00     0.251 C 
ATOM     30  H   UNL     1      -1.041  -0.877   5.630  1.00  0.00     0.163 HD
ATOM     31  O   UNL     1      -2.479  -1.944   7.320  1.00  0.00    -0.269 OA
BRANCH  29  32
ATOM     32  C   UNL     1      -2.453   0.079   8.499  1.00  0.00     0.039 A 
ATOM     33  C   UNL     1      -2.182  -0.367   9.794  1.00  0.00     0.014 A 
ATOM     34  C   UNL     1      -2.968   1.360   8.285  1.00  0.00     0.014 A 
ATOM     35  C   UNL     1      -2.315   0.517  10.867  1.00  0.00     0.010 A 
ATOM     36  C   UNL     1      -3.030   2.261   9.344  1.00  0.00     0.010 A 
ATOM     37  C   UNL     1      -2.677   1.856  10.640  1.00  0.00    -0.014 A 
BRANCH  37  38
ATOM     38  C   UNL     1      -2.626   2.861  11.733  1.00  0.00     0.031 A 
ATOM     39  C   UNL     1      -3.874   3.555  12.193  1.00  0.00     0.074 A 
ATOM     40  C   UNL     1      -1.431   3.211  12.251  1.00  0.00     0.049 A 
ATOM     41  N   UNL     1      -4.013   4.503  13.086  1.00  0.00    -0.248 NA
ATOM     42  C   UNL     1      -5.131   3.151  11.545  1.00  0.00     0.031 C 
ATOM     43  C   UNL     1      -0.137   2.660  11.842  1.00  0.00     0.029 A 
ATOM     44  N   UNL     1      -1.107   4.124  13.225  1.00  0.00    -0.354 N 
ATOM     45  C   UNL     1      -5.365   4.816  13.098  1.00  0.00     0.074 A 
ATOM     46  C   UNL     1      -5.998   3.993  12.089  1.00  0.00     0.031 C 
ATOM     47  C   UNL     1       0.835   3.227  12.573  1.00  0.00     0.029 A 
ATOM     48  C   UNL     1       0.240   4.205  13.479  1.00  0.00     0.049 A 
ATOM     49  H   UNL     1      -1.778   4.669  13.696  1.00  0.00     0.167 HD
ATOM     50  C   UNL     1      -6.022   5.693  13.894  1.00  0.00     0.037 A 
ATOM     51  C   UNL     1       0.921   4.982  14.343  1.00  0.00     0.037 A 
ATOM     52  C   UNL     1      -5.395   6.493  14.913  1.00  0.00     0.049 A 
ATOM     53  C   UNL     1       0.165   5.939  15.224  1.00  0.00     0.074 A 
ATOM     54  C   UNL     1      -5.986   7.360  15.815  1.00  0.00     0.029 A 
ATOM     55  N   UNL     1      -4.030   6.526  15.162  1.00  0.00    -0.354 N 
ATOM     56  N   UNL     1      -1.124   6.167  15.282  1.00  0.00    -0.248 NA
ATOM     57  C   UNL     1       0.960   6.742  16.163  1.00  0.00     0.031 C 
ATOM     58  C   UNL     1      -4.976   7.947  16.585  1.00  0.00     0.029 A 
ATOM     59  C   UNL     1      -3.759   7.413  16.192  1.00  0.00     0.049 A 
ATOM     60  H   UNL     1      -3.355   5.997  14.679  1.00  0.00     0.167 HD
ATOM     61  C   UNL     1      -1.299   7.117  16.278  1.00  0.00     0.074 A 
ATOM     62  C   UNL     1       0.016   7.413  16.809  1.00  0.00     0.031 C 
ATOM     63  C   UNL     1      -2.446   7.692  16.714  1.00  0.00     0.037 A 
BRANCH  50  64
ATOM     64  C   UNL     1      -7.503   5.826  13.699  1.00  0.00     0.064 A 
ATOM     65  C   UNL     1      -8.387   4.803  14.076  1.00  0.00     0.173 A 
ATOM     66  C   UNL     1      -8.050   7.000  13.161  1.00  0.00     0.173 A 
ATOM     67  F   UNL     1      -7.912   3.656  14.586  1.00  0.00    -0.203 F 
ATOM     68  C   UNL     1      -9.760   4.939  13.895  1.00  0.00     0.198 A 
ATOM     69  C   UNL     1      -9.427   7.144  13.008  1.00  0.00     0.198 A 
ATOM     70  F   UNL     1      -7.251   8.011  12.790  1.00  0.00    -0.203 F 
ATOM     71  F   UNL     1     -10.580   3.930  14.220  1.00  0.00    -0.200 F 
ATOM     72  C   UNL     1     -10.280   6.111  13.367  1.00  0.00     0.200 A 
ATOM     73  F   UNL     1      -9.929   8.282  12.508  1.00  0.00    -0.200 F 
ATOM     74  F   UNL     1     -11.602   6.243  13.199  1.00  0.00    -0.200 F 
ENDBRANCH  50  64
BRANCH  51  75
ATOM     75  C   UNL     1       2.398   4.864  14.443  1.00  0.00     0.064 A 
ATOM     76  C   UNL     1       2.997   4.290  15.572  1.00  0.00     0.173 A 
ATOM     77  C   UNL     1       3.240   5.323  13.419  1.00  0.00     0.173 A 
ATOM     78  F   UNL     1       2.234   3.856  16.586  1.00  0.00    -0.203 F 
ATOM     79  C   UNL     1       4.383   4.197  15.684  1.00  0.00     0.198 A 
ATOM     80  C   UNL     1       4.625   5.207  13.521  1.00  0.00     0.198 A 
ATOM     81  F   UNL     1       2.715   5.877  12.316  1.00  0.00    -0.203 F 
ATOM     82  F   UNL     1       4.930   3.683  16.794  1.00  0.00    -0.200 F 
ATOM     83  C   UNL     1       5.195   4.651  14.656  1.00  0.00     0.200 A 
ATOM     84  F   UNL     1       5.406   5.635  12.520  1.00  0.00    -0.200 F 
ATOM     85  F   UNL     1       6.528   4.559  14.762  1.00  0.00    -0.200 F 
ENDBRANCH  51  75
BRANCH  63  86
ATOM     86  C   UNL     1      -2.336   8.678  17.839  1.00  0.00     0.064 A 
ATOM     87  C   UNL     1      -1.803   9.960  17.643  1.00  0.00     0.173 A 
ATOM     88  C   UNL     1      -2.804   8.348  19.120  1.00  0.00     0.173 A 
ATOM     89  F   UNL     1      -1.327  10.316  16.440  1.00  0.00    -0.203 F 
ATOM     90  C   UNL     1      -1.724  10.870  18.694  1.00  0.00     0.198 A 
ATOM     91  C   UNL     1      -2.748   9.269  20.162  1.00  0.00     0.198 A 
ATOM     92  F   UNL     1      -3.326   7.135  19.358  1.00  0.00    -0.203 F 
ATOM     93  F   UNL     1      -1.173  12.075  18.495  1.00  0.00    -0.200 F 
ATOM     94  C   UNL     1      -2.203  10.526  19.950  1.00  0.00     0.200 A 
ATOM     95  F   UNL     1      -3.221   8.939  21.372  1.00  0.00    -0.200 F 
ATOM     96  F   UNL     1      -2.133  11.405  20.959  1.00  0.00    -0.200 F 
ENDBRANCH  63  86
ENDBRANCH  37  38
ENDBRANCH  29  32
ENDBRANCH  27  28
ENDBRANCH  26  27
ENDBRANCH   1  26
TORSDOF 14
