REMARK SMILES [NH3+][C@H]1C=C[C@@H](C(=O)NC2(CC(=O)NCCCCNC(=O)c3ccc(-c4c5nc(c(-c6c(F)c(F)c(F)c(F)c6F)c6ccc([nH]6)c(-c6c(F)c(F)c(F)c(F)c6F)c6nc(c(-c7c(F)c(F)c(F)c(F)c7F)c7ccc4[nH]7)C=C6)C=C5)cc3)CCCCC2)C1
REMARK SMILES IDX 14 1 13 2 11 3 12 4 10 6 9 7 84 8 88 9 85 10 87 11 86 12
REMARK SMILES IDX 8 13 6 14 7 15 5 17 2 18 3 19 89 20 4 21 1 22 15 26 16 27
REMARK SMILES IDX 17 28 18 29 19 30 20 32 21 33 22 34 83 35 23 36 82 37 24 38
REMARK SMILES IDX 25 39 26 40 76 41 27 42 81 43 75 44 77 45 28 46 80 47 74 48
REMARK SMILES IDX 73 49 29 51 61 52 41 53 60 54 42 55 45 56 59 57 78 58 43 59
REMARK SMILES IDX 44 60 58 62 79 63 46 64 30 65 31 66 39 67 32 68 33 69 37 70
REMARK SMILES IDX 40 71 34 72 35 73 38 74 36 75 62 76 63 77 71 78 64 79 65 80
REMARK SMILES IDX 69 81 72 82 66 83 67 84 70 85 68 86 47 87 48 88 56 89 49 90
REMARK SMILES IDX 50 91 54 92 57 93 51 94 52 95 55 96 53 97
REMARK H PARENT 13 5 8 16 1 23 1 24 1 25 18 31 77 50 45 61
REMARK Flexibility Score: inf
ROOT
ATOM      1  C   UNL     1       5.652  -3.770   2.936  1.00  0.00     0.116 C 
ENDROOT
BRANCH   1   2
ATOM      2  N   UNL     1       5.650  -4.644   1.785  1.00  0.00    -0.356 N 
ATOM      3  C   UNL     1       5.236  -4.417   0.513  1.00  0.00     0.222 C 
ATOM      4  O   UNL     1       5.144  -5.390  -0.239  1.00  0.00    -0.275 OA
ATOM      5  H   UNL     1       6.005  -5.548   1.950  1.00  0.00     0.163 HD
BRANCH   3   6
ATOM      6  C   UNL     1       4.891  -3.025   0.008  1.00  0.00     0.128 C 
BRANCH   6   7
ATOM      7  C   UNL     1       3.364  -2.664  -0.074  1.00  0.00     0.049 C 
ATOM      8  C   UNL     1       3.227  -1.458  -1.025  1.00  0.00     0.029 C 
ATOM      9  C   UNL     1       2.823  -2.236   1.307  1.00  0.00     0.029 C 
ATOM     10  C   UNL     1       3.861  -0.168  -0.500  1.00  0.00     0.002 C 
ATOM     11  C   UNL     1       3.421  -0.941   1.862  1.00  0.00     0.002 C 
ATOM     12  C   UNL     1       3.304   0.208   0.870  1.00  0.00     0.000 C 
BRANCH   7  13
ATOM     13  N   UNL     1       2.614  -3.866  -0.554  1.00  0.00    -0.350 N 
ATOM     14  C   UNL     1       1.397  -4.231  -1.014  1.00  0.00     0.227 C 
ATOM     15  O   UNL     1       1.183  -5.454  -0.967  1.00  0.00    -0.274 OA
ATOM     16  H   UNL     1       3.203  -4.654  -0.526  1.00  0.00     0.164 HD
BRANCH  14  17
ATOM     17  C   UNL     1       0.296  -3.347  -1.605  1.00  0.00     0.107 C 
ATOM     18  C   UNL     1      -0.739  -1.131  -1.478  1.00  0.00     0.205 C 
ATOM     19  C   UNL     1       0.109  -1.285  -2.697  1.00  0.00     0.033 C 
ATOM     20  C   UNL     1      -0.435  -2.397  -0.660  1.00  0.00     0.087 C 
ATOM     21  C   UNL     1       0.690  -2.490  -2.764  1.00  0.00    -0.012 C 
BRANCH  18  22
ATOM     22  N   UNL     1      -0.415   0.091  -0.760  1.00  0.00    -0.352 N 
ATOM     23  H   UNL     1      -0.635   0.897  -1.344  1.00  0.00     0.345 HD
ATOM     24  H   UNL     1       0.579   0.098  -0.531  1.00  0.00     0.345 HD
ATOM     25  H   UNL     1      -0.963   0.135   0.100  1.00  0.00     0.345 HD
ENDBRANCH  18  22
ENDBRANCH  14  17
ENDBRANCH   7  13
ENDBRANCH   6   7
ENDBRANCH   3   6
ENDBRANCH   1   2
BRANCH   1  26
ATOM     26  C   UNL     1       4.402  -4.010   3.788  1.00  0.00     0.023 C 
BRANCH  26  27
ATOM     27  C   UNL     1       4.640  -4.795   5.068  1.00  0.00     0.023 C 
BRANCH  27  28
ATOM     28  C   UNL     1       5.546  -4.098   6.066  1.00  0.00     0.116 C 
BRANCH  28  29
ATOM     29  N   UNL     1       5.063  -2.799   6.513  1.00  0.00    -0.352 N 
ATOM     30  C   UNL     1       5.268  -2.205   7.740  1.00  0.00     0.251 C 
ATOM     31  H   UNL     1       4.527  -2.287   5.865  1.00  0.00     0.163 HD
ATOM     32  O   UNL     1       4.755  -1.130   8.017  1.00  0.00    -0.269 OA
BRANCH  30  33
ATOM     33  C   UNL     1       6.074  -2.936   8.739  1.00  0.00     0.039 A 
ATOM     34  C   UNL     1       5.519  -3.190   9.993  1.00  0.00     0.014 A 
ATOM     35  C   UNL     1       7.309  -3.482   8.380  1.00  0.00     0.014 A 
ATOM     36  C   UNL     1       6.168  -4.071  10.858  1.00  0.00     0.010 A 
ATOM     37  C   UNL     1       7.895  -4.439   9.197  1.00  0.00     0.010 A 
ATOM     38  C   UNL     1       7.332  -4.742  10.445  1.00  0.00    -0.014 A 
BRANCH  38  39
ATOM     39  C   UNL     1       7.965  -5.768  11.309  1.00  0.00     0.031 A 
ATOM     40  C   UNL     1       9.364  -5.567  11.820  1.00  0.00     0.074 A 
ATOM     41  C   UNL     1       7.297  -6.905  11.589  1.00  0.00     0.049 A 
ATOM     42  N   UNL     1      10.081  -6.341  12.594  1.00  0.00    -0.248 NA
ATOM     43  C   UNL     1      10.067  -4.354  11.371  1.00  0.00     0.031 C 
ATOM     44  C   UNL     1       5.972  -7.259  11.075  1.00  0.00     0.029 A 
ATOM     45  N   UNL     1       7.641  -7.972  12.379  1.00  0.00    -0.354 N 
ATOM     46  C   UNL     1      11.315  -5.716  12.712  1.00  0.00     0.074 A 
ATOM     47  C   UNL     1      11.277  -4.539  11.874  1.00  0.00     0.031 C 
ATOM     48  C   UNL     1       5.596  -8.436  11.600  1.00  0.00     0.029 A 
ATOM     49  C   UNL     1       6.659  -8.929  12.469  1.00  0.00     0.049 A 
ATOM     50  H   UNL     1       8.509  -8.046  12.838  1.00  0.00     0.167 HD
ATOM     51  C   UNL     1      12.372  -6.070  13.481  1.00  0.00     0.037 A 
ATOM     52  C   UNL     1       6.617 -10.065  13.191  1.00  0.00     0.037 A 
ATOM     53  C   UNL     1      12.391  -7.221  14.342  1.00  0.00     0.049 A 
ATOM     54  C   UNL     1       7.781 -10.406  14.081  1.00  0.00     0.074 A 
ATOM     55  C   UNL     1      13.383  -7.633  15.214  1.00  0.00     0.029 A 
ATOM     56  N   UNL     1      11.361  -8.145  14.441  1.00  0.00    -0.354 N 
ATOM     57  N   UNL     1       8.907  -9.758  14.257  1.00  0.00    -0.248 NA
ATOM     58  C   UNL     1       7.658 -11.629  14.886  1.00  0.00     0.031 C 
ATOM     59  C   UNL     1      12.966  -8.825  15.817  1.00  0.00     0.029 A 
ATOM     60  C   UNL     1      11.697  -9.133  15.352  1.00  0.00     0.049 A 
ATOM     61  H   UNL     1      10.515  -8.104  13.938  1.00  0.00     0.167 HD
ATOM     62  C   UNL     1       9.617 -10.479  15.206  1.00  0.00     0.074 A 
ATOM     63  C   UNL     1       8.782 -11.600  15.587  1.00  0.00     0.031 C 
ATOM     64  C   UNL     1      10.851 -10.240  15.715  1.00  0.00     0.037 A 
BRANCH  51  65
ATOM     65  C   UNL     1      13.582  -5.184  13.435  1.00  0.00     0.064 A 
ATOM     66  C   UNL     1      13.565  -3.890  13.981  1.00  0.00     0.173 A 
ATOM     67  C   UNL     1      14.776  -5.634  12.853  1.00  0.00     0.173 A 
ATOM     68  F   UNL     1      12.443  -3.405  14.533  1.00  0.00    -0.203 F 
ATOM     69  C   UNL     1      14.687  -3.069  13.915  1.00  0.00     0.198 A 
ATOM     70  C   UNL     1      15.906  -4.821  12.817  1.00  0.00     0.198 A 
ATOM     71  F   UNL     1      14.848  -6.862  12.318  1.00  0.00    -0.203 F 
ATOM     72  F   UNL     1      14.628  -1.818  14.391  1.00  0.00    -0.200 F 
ATOM     73  C   UNL     1      15.858  -3.537  13.340  1.00  0.00     0.200 A 
ATOM     74  F   UNL     1      17.041  -5.277  12.269  1.00  0.00    -0.200 F 
ATOM     75  F   UNL     1      16.939  -2.746  13.279  1.00  0.00    -0.200 F 
ENDBRANCH  51  65
BRANCH  52  76
ATOM     76  C   UNL     1       5.407 -10.927  13.153  1.00  0.00     0.064 A 
ATOM     77  C   UNL     1       4.552 -11.011  14.261  1.00  0.00     0.173 A 
ATOM     78  C   UNL     1       5.083 -11.685  12.019  1.00  0.00     0.173 A 
ATOM     79  F   UNL     1       4.830 -10.318  15.375  1.00  0.00    -0.203 F 
ATOM     80  C   UNL     1       3.431 -11.839  14.245  1.00  0.00     0.198 A 
ATOM     81  C   UNL     1       3.948 -12.493  11.995  1.00  0.00     0.198 A 
ATOM     82  F   UNL     1       5.865 -11.634  10.931  1.00  0.00    -0.203 F 
ATOM     83  F   UNL     1       2.657 -11.935  15.335  1.00  0.00    -0.200 F 
ATOM     84  C   UNL     1       3.128 -12.576  13.111  1.00  0.00     0.200 A 
ATOM     85  F   UNL     1       3.650 -13.194  10.893  1.00  0.00    -0.200 F 
ATOM     86  F   UNL     1       2.049 -13.371  13.095  1.00  0.00    -0.200 F 
ENDBRANCH  52  76
BRANCH  64  87
ATOM     87  C   UNL     1      11.356 -11.200  16.751  1.00  0.00     0.064 A 
ATOM     88  C   UNL     1      11.740 -12.507  16.415  1.00  0.00     0.173 A 
ATOM     89  C   UNL     1      11.468 -10.804  18.092  1.00  0.00     0.173 A 
ATOM     90  F   UNL     1      11.637 -12.936  15.148  1.00  0.00    -0.203 F 
ATOM     91  C   UNL     1      12.183 -13.394  17.391  1.00  0.00     0.198 A 
ATOM     92  C   UNL     1      11.940 -11.685  19.060  1.00  0.00     0.198 A 
ATOM     93  F   UNL     1      11.121  -9.563  18.462  1.00  0.00    -0.203 F 
ATOM     94  F   UNL     1      12.489 -14.656  17.058  1.00  0.00    -0.200 F 
ATOM     95  C   UNL     1      12.287 -12.982  18.711  1.00  0.00     0.200 A 
ATOM     96  F   UNL     1      12.052 -11.282  20.333  1.00  0.00    -0.200 F 
ATOM     97  F   UNL     1      12.712 -13.838  19.650  1.00  0.00    -0.200 F 
ENDBRANCH  64  87
ENDBRANCH  38  39
ENDBRANCH  30  33
ENDBRANCH  28  29
ENDBRANCH  27  28
ENDBRANCH  26  27
ENDBRANCH   1  26
TORSDOF 15
