REMARK SMILES Cc1ccc(NC(=O)CNC(=O)C(C)(C)C)c(C(=O)NCCCCNC(=O)c2ccc(-c3c4nc(c(-c5c(F)c(F)c(F)c(F)c5F)c5ccc([nH]5)c(-c5c(F)c(F)c(F)c(F)c5F)c5nc(c(-c6c(F)c(F)c(F)c(F)c6F)c6ccc3[nH]6)C=C5)C=C4)cc2)c1
REMARK SMILES IDX 21 1 20 2 18 3 19 4 17 6 1 7 2 8 3 9 91 10 4 11 5 12 6 13
REMARK SMILES IDX 7 14 8 16 9 17 10 18 11 19 12 21 13 22 14 23 15 24 16 25
REMARK SMILES IDX 22 26 23 27 24 28 25 29 26 30 27 32 28 33 29 34 90 35 30 36
REMARK SMILES IDX 89 37 31 38 32 39 33 40 83 41 34 42 88 43 82 44 84 45 35 46
REMARK SMILES IDX 87 47 81 48 80 49 36 51 68 52 48 53 67 54 49 55 52 56 66 57
REMARK SMILES IDX 85 58 50 59 51 60 65 62 86 63 53 64 37 65 38 66 46 67 39 68
REMARK SMILES IDX 40 69 44 70 47 71 41 72 42 73 45 74 43 75 69 76 70 77 78 78
REMARK SMILES IDX 71 79 72 80 76 81 79 82 73 83 74 84 77 85 75 86 54 87 55 88
REMARK SMILES IDX 63 89 56 90 57 91 61 92 64 93 58 94 59 95 62 96 60 97
REMARK H PARENT 20 5 6 15 10 20 25 31 84 50 52 61
REMARK Flexibility Score: inf
ROOT
ATOM      1  C   UNL     1       0.424   4.197   0.015  1.00  0.00     0.116 C 
ENDROOT
BRANCH   1   2
ATOM      2  N   UNL     1      -0.933   3.772   0.359  1.00  0.00    -0.352 N 
ATOM      3  C   UNL     1      -1.556   2.540   0.413  1.00  0.00     0.253 C 
ATOM      4  O   UNL     1      -2.740   2.500   0.748  1.00  0.00    -0.269 OA
ATOM      5  H   UNL     1      -1.525   4.520   0.603  1.00  0.00     0.163 HD
BRANCH   3   6
ATOM      6  C   UNL     1      -0.879   1.294  -0.038  1.00  0.00     0.063 A 
ATOM      7  C   UNL     1       2.678  -0.010  -0.266  1.00  0.00     0.044 C 
ATOM      8  C   UNL     1       1.215   0.163  -0.529  1.00  0.00    -0.050 A 
ATOM      9  C   UNL     1       0.540  -0.627  -1.455  1.00  0.00     0.005 A 
ATOM     10  C   UNL     1       0.486   1.109   0.191  1.00  0.00     0.019 A 
ATOM     11  C   UNL     1      -0.854  -0.576  -1.528  1.00  0.00     0.027 A 
ATOM     12  C   UNL     1      -1.583   0.280  -0.712  1.00  0.00     0.054 A 
BRANCH  12  13
ATOM     13  N   UNL     1      -2.978   0.152  -0.574  1.00  0.00    -0.324 N 
ATOM     14  C   UNL     1      -3.809  -0.933  -0.477  1.00  0.00     0.243 C 
ATOM     15  H   UNL     1      -3.451   1.015  -0.539  1.00  0.00     0.170 HD
ATOM     16  O   UNL     1      -5.023  -0.685  -0.393  1.00  0.00    -0.273 OA
BRANCH  14  17
ATOM     17  C   UNL     1      -3.353  -2.386  -0.159  1.00  0.00     0.216 C 
BRANCH  17  18
ATOM     18  N   UNL     1      -2.284  -3.022  -0.899  1.00  0.00    -0.347 N 
ATOM     19  C   UNL     1      -1.053  -3.496  -0.589  1.00  0.00     0.225 C 
ATOM     20  H   UNL     1      -2.502  -3.138  -1.852  1.00  0.00     0.164 HD
ATOM     21  O   UNL     1      -0.412  -3.916  -1.563  1.00  0.00    -0.275 OA
BRANCH  19  22
ATOM     22  C   UNL     1      -0.476  -3.618   0.838  1.00  0.00     0.041 C 
ATOM     23  C   UNL     1      -0.600  -2.386   1.740  1.00  0.00     0.021 C 
ATOM     24  C   UNL     1      -1.130  -4.829   1.514  1.00  0.00     0.021 C 
ATOM     25  C   UNL     1       1.044  -3.899   0.701  1.00  0.00     0.021 C 
ENDBRANCH  19  22
ENDBRANCH  17  18
ENDBRANCH  14  17
ENDBRANCH  12  13
ENDBRANCH   3   6
ENDBRANCH   1   2
BRANCH   1  26
ATOM     26  C   UNL     1       0.700   4.391  -1.480  1.00  0.00     0.023 C 
BRANCH  26  27
ATOM     27  C   UNL     1       0.122   5.665  -2.102  1.00  0.00     0.023 C 
BRANCH  27  28
ATOM     28  C   UNL     1       0.567   6.971  -1.450  1.00  0.00     0.116 C 
BRANCH  28  29
ATOM     29  N   UNL     1       1.899   7.445  -1.797  1.00  0.00    -0.352 N 
ATOM     30  C   UNL     1       2.656   8.462  -1.225  1.00  0.00     0.251 C 
ATOM     31  H   UNL     1       2.329   6.976  -2.548  1.00  0.00     0.163 HD
ATOM     32  O   UNL     1       3.699   8.810  -1.756  1.00  0.00    -0.269 OA
BRANCH  30  33
ATOM     33  C   UNL     1       2.288   9.021   0.107  1.00  0.00     0.039 A 
ATOM     34  C   UNL     1       3.321   9.251   1.028  1.00  0.00     0.014 A 
ATOM     35  C   UNL     1       0.966   9.104   0.526  1.00  0.00     0.014 A 
ATOM     36  C   UNL     1       3.035   9.265   2.392  1.00  0.00     0.010 A 
ATOM     37  C   UNL     1       0.688   8.997   1.874  1.00  0.00     0.010 A 
ATOM     38  C   UNL     1       1.734   8.991   2.801  1.00  0.00    -0.014 A 
BRANCH  38  39
ATOM     39  C   UNL     1       1.389   8.526   4.139  1.00  0.00     0.031 A 
ATOM     40  C   UNL     1       0.604   9.380   5.054  1.00  0.00     0.074 A 
ATOM     41  C   UNL     1       1.675   7.245   4.469  1.00  0.00     0.049 A 
ATOM     42  N   UNL     1       0.459   9.136   6.312  1.00  0.00    -0.248 NA
ATOM     43  C   UNL     1      -0.028  10.632   4.642  1.00  0.00     0.031 C 
ATOM     44  C   UNL     1       1.124   6.463   5.575  1.00  0.00     0.029 A 
ATOM     45  N   UNL     1       2.704   6.434   3.954  1.00  0.00    -0.354 N 
ATOM     46  C   UNL     1      -0.490   9.999   6.801  1.00  0.00     0.074 A 
ATOM     47  C   UNL     1      -0.660  10.986   5.767  1.00  0.00     0.031 C 
ATOM     48  C   UNL     1       1.964   5.454   5.856  1.00  0.00     0.029 A 
ATOM     49  C   UNL     1       3.152   5.655   5.047  1.00  0.00     0.049 A 
ATOM     50  H   UNL     1       3.041   6.413   3.029  1.00  0.00     0.167 HD
ATOM     51  C   UNL     1      -1.104   9.688   7.976  1.00  0.00     0.037 A 
ATOM     52  C   UNL     1       4.413   5.791   5.550  1.00  0.00     0.037 A 
ATOM     53  C   UNL     1      -0.364   8.640   8.680  1.00  0.00     0.049 A 
ATOM     54  C   UNL     1       4.458   6.202   7.003  1.00  0.00     0.074 A 
ATOM     55  C   UNL     1      -0.588   7.294   8.904  1.00  0.00     0.029 A 
ATOM     56  N   UNL     1       0.955   8.890   9.052  1.00  0.00    -0.354 N 
ATOM     57  N   UNL     1       3.454   6.742   7.638  1.00  0.00    -0.248 NA
ATOM     58  C   UNL     1       5.646   6.072   7.843  1.00  0.00     0.031 C 
ATOM     59  C   UNL     1       0.644   6.715   9.316  1.00  0.00     0.029 A 
ATOM     60  C   UNL     1       1.598   7.717   9.392  1.00  0.00     0.049 A 
ATOM     61  H   UNL     1       1.372   9.781   9.071  1.00  0.00     0.167 HD
ATOM     62  C   UNL     1       3.841   7.069   8.911  1.00  0.00     0.074 A 
ATOM     63  C   UNL     1       5.212   6.601   9.000  1.00  0.00     0.031 C 
ATOM     64  C   UNL     1       3.006   7.722   9.772  1.00  0.00     0.037 A 
BRANCH  51  65
ATOM     65  C   UNL     1      -2.463  10.189   8.429  1.00  0.00     0.064 A 
ATOM     66  C   UNL     1      -2.984   9.789   9.682  1.00  0.00     0.173 A 
ATOM     67  C   UNL     1      -3.362  10.941   7.641  1.00  0.00     0.173 A 
ATOM     68  F   UNL     1      -2.252   9.060  10.537  1.00  0.00    -0.203 F 
ATOM     69  C   UNL     1      -4.286  10.100  10.094  1.00  0.00     0.198 A 
ATOM     70  C   UNL     1      -4.643  11.295   8.076  1.00  0.00     0.198 A 
ATOM     71  F   UNL     1      -3.077  11.316   6.391  1.00  0.00    -0.203 F 
ATOM     72  F   UNL     1      -4.742   9.639  11.267  1.00  0.00    -0.200 F 
ATOM     73  C   UNL     1      -5.112  10.863   9.295  1.00  0.00     0.200 A 
ATOM     74  F   UNL     1      -5.430  12.035   7.279  1.00  0.00    -0.200 F 
ATOM     75  F   UNL     1      -6.358  11.163   9.686  1.00  0.00    -0.200 F 
ENDBRANCH  51  65
BRANCH  52  76
ATOM     76  C   UNL     1       5.415   6.176   4.521  1.00  0.00     0.064 A 
ATOM     77  C   UNL     1       5.681   5.265   3.481  1.00  0.00     0.173 A 
ATOM     78  C   UNL     1       5.793   7.509   4.327  1.00  0.00     0.173 A 
ATOM     79  F   UNL     1       5.334   3.975   3.615  1.00  0.00    -0.203 F 
ATOM     80  C   UNL     1       6.190   5.692   2.256  1.00  0.00     0.198 A 
ATOM     81  C   UNL     1       6.315   7.931   3.102  1.00  0.00     0.198 A 
ATOM     82  F   UNL     1       5.545   8.428   5.271  1.00  0.00    -0.203 F 
ATOM     83  F   UNL     1       6.322   4.819   1.247  1.00  0.00    -0.200 F 
ATOM     84  C   UNL     1       6.479   7.031   2.058  1.00  0.00     0.200 A 
ATOM     85  F   UNL     1       6.564   9.233   2.897  1.00  0.00    -0.200 F 
ATOM     86  F   UNL     1       6.873   7.462   0.852  1.00  0.00    -0.200 F 
ENDBRANCH  52  76
BRANCH  64  87
ATOM     87  C   UNL     1       3.415   8.370  11.077  1.00  0.00     0.064 A 
ATOM     88  C   UNL     1       4.706   8.859  11.344  1.00  0.00     0.173 A 
ATOM     89  C   UNL     1       2.445   8.654  12.069  1.00  0.00     0.173 A 
ATOM     90  F   UNL     1       5.686   8.777  10.435  1.00  0.00    -0.203 F 
ATOM     91  C   UNL     1       5.020   9.513  12.539  1.00  0.00     0.198 A 
ATOM     92  C   UNL     1       2.748   9.362  13.232  1.00  0.00     0.198 A 
ATOM     93  F   UNL     1       1.166   8.279  11.925  1.00  0.00    -0.203 F 
ATOM     94  F   UNL     1       6.279   9.917  12.762  1.00  0.00    -0.200 F 
ATOM     95  C   UNL     1       4.040   9.774  13.477  1.00  0.00     0.200 A 
ATOM     96  F   UNL     1       1.773   9.659  14.104  1.00  0.00    -0.200 F 
ATOM     97  F   UNL     1       4.336  10.443  14.599  1.00  0.00    -0.200 F 
ENDBRANCH  64  87
ENDBRANCH  38  39
ENDBRANCH  30  33
ENDBRANCH  28  29
ENDBRANCH  27  28
ENDBRANCH  26  27
ENDBRANCH   1  26
TORSDOF 15
