REMARK SMILES O=C(NCCCCNC(=O)C1(Cc2ccccc2Cl)CCN(c2ncnc3[nH]ccc23)CC1)c1ccc(-c2c3nc(c(-c4c(F)c(F)c(F)c(F)c4F)c4ccc([nH]4)c(-c4c(F)c(F)c(F)c(F)c4F)c4nc(c(-c5c(F)c(F)c(F)c(F)c5F)c5ccc2[nH]5)C=C4)C=C3)cc1
REMARK SMILES IDX 5 1 4 2 3 3 1 4 2 5 34 7 35 8 96 9 36 10 95 11 37 12 38 13
REMARK SMILES IDX 39 14 89 15 40 16 94 17 88 18 90 19 41 20 93 21 87 22 86 23
REMARK SMILES IDX 42 25 74 26 54 27 73 28 55 29 58 30 72 31 91 32 56 33 57 34
REMARK SMILES IDX 71 36 92 37 59 38 43 39 44 40 52 41 45 42 46 43 50 44 53 45
REMARK SMILES IDX 47 46 48 47 51 48 49 49 75 50 76 51 84 52 77 53 78 54 82 55
REMARK SMILES IDX 85 56 79 57 80 58 83 59 81 60 60 61 61 62 69 63 62 64 63 65
REMARK SMILES IDX 67 66 70 67 64 68 65 69 68 70 66 71 6 72 7 73 8 74 9 75
REMARK SMILES IDX 10 77 11 78 20 79 33 80 21 81 32 82 22 83 12 84 13 85 14 86
REMARK SMILES IDX 18 87 15 88 17 89 19 90 16 91 23 92 24 93 31 94 25 95 27 96
REMARK SMILES IDX 30 97 26 98 28 99 29 100
REMARK H PARENT 3 6 90 24 58 35 8 76 28 101
REMARK Flexibility Score: inf
ROOT
ATOM      1  C   UNL     1       5.004   2.001  -0.974  1.00  0.00     0.023 C 
ENDROOT
BRANCH   1   2
ATOM      2  C   UNL     1       4.511   0.864  -0.109  1.00  0.00     0.116 C 
BRANCH   2   3
ATOM      3  N   UNL     1       3.060   0.835   0.039  1.00  0.00    -0.352 N 
ATOM      4  O   UNL     1       1.021  -0.150   0.101  1.00  0.00    -0.269 OA
ATOM      5  C   UNL     1       2.233  -0.268   0.062  1.00  0.00     0.251 C 
ATOM      6  H   UNL     1       2.618   1.710   0.133  1.00  0.00     0.163 HD
BRANCH   5   7
ATOM      7  C   UNL     1       2.862  -1.603  -0.008  1.00  0.00     0.039 A 
ATOM      8  C   UNL     1       3.969  -1.887   0.793  1.00  0.00     0.014 A 
ATOM      9  C   UNL     1       2.404  -2.528  -0.948  1.00  0.00     0.014 A 
ATOM     10  C   UNL     1       4.729  -3.012   0.526  1.00  0.00     0.010 A 
ATOM     11  C   UNL     1       3.103  -3.723  -1.128  1.00  0.00     0.010 A 
ATOM     12  C   UNL     1       4.289  -3.957  -0.415  1.00  0.00    -0.014 A 
BRANCH  12  13
ATOM     13  C   UNL     1       5.049  -5.220  -0.555  1.00  0.00     0.031 A 
ATOM     14  C   UNL     1       5.727  -5.591  -1.841  1.00  0.00     0.074 A 
ATOM     15  C   UNL     1       5.147  -6.014   0.529  1.00  0.00     0.049 A 
ATOM     16  N   UNL     1       6.423  -6.664  -2.122  1.00  0.00    -0.248 NA
ATOM     17  C   UNL     1       5.607  -4.646  -2.962  1.00  0.00     0.031 C 
ATOM     18  C   UNL     1       4.519  -5.744   1.826  1.00  0.00     0.029 A 
ATOM     19  N   UNL     1       5.824  -7.187   0.728  1.00  0.00    -0.354 N 
ATOM     20  C   UNL     1       6.796  -6.540  -3.453  1.00  0.00     0.074 A 
ATOM     21  C   UNL     1       6.243  -5.291  -3.932  1.00  0.00     0.031 C 
ATOM     22  C   UNL     1       4.887  -6.688   2.700  1.00  0.00     0.029 A 
ATOM     23  C   UNL     1       5.705  -7.673   2.007  1.00  0.00     0.049 A 
ATOM     24  H   UNL     1       6.344  -7.638   0.025  1.00  0.00     0.167 HD
ATOM     25  C   UNL     1       7.535  -7.397  -4.199  1.00  0.00     0.037 A 
ATOM     26  C   UNL     1       6.178  -8.805   2.556  1.00  0.00     0.037 A 
ATOM     27  C   UNL     1       8.100  -8.625  -3.697  1.00  0.00     0.049 A 
ATOM     28  C   UNL     1       6.984  -9.734   1.700  1.00  0.00     0.074 A 
ATOM     29  C   UNL     1       8.889  -9.547  -4.362  1.00  0.00     0.029 A 
ATOM     30  N   UNL     1       7.936  -9.099  -2.403  1.00  0.00    -0.354 N 
ATOM     31  N   UNL     1       7.338  -9.600   0.445  1.00  0.00    -0.248 NA
ATOM     32  C   UNL     1       7.446 -10.975   2.331  1.00  0.00     0.031 C 
ATOM     33  C   UNL     1       9.168 -10.600  -3.483  1.00  0.00     0.029 A 
ATOM     34  C   UNL     1       8.592 -10.311  -2.256  1.00  0.00     0.049 A 
ATOM     35  H   UNL     1       7.428  -8.643  -1.694  1.00  0.00     0.167 HD
ATOM     36  C   UNL     1       8.073 -10.734   0.137  1.00  0.00     0.074 A 
ATOM     37  C   UNL     1       8.135 -11.532   1.345  1.00  0.00     0.031 C 
ATOM     38  C   UNL     1       8.639 -11.086  -1.043  1.00  0.00     0.037 A 
BRANCH  25  39
ATOM     39  C   UNL     1       7.763  -7.057  -5.643  1.00  0.00     0.064 A 
ATOM     40  C   UNL     1       8.643  -6.038  -6.033  1.00  0.00     0.173 A 
ATOM     41  C   UNL     1       7.143  -7.810  -6.653  1.00  0.00     0.173 A 
ATOM     42  F   UNL     1       9.252  -5.281  -5.108  1.00  0.00    -0.203 F 
ATOM     43  C   UNL     1       8.884  -5.776  -7.381  1.00  0.00     0.198 A 
ATOM     44  C   UNL     1       7.405  -7.562  -7.998  1.00  0.00     0.198 A 
ATOM     45  F   UNL     1       6.297  -8.801  -6.334  1.00  0.00    -0.203 F 
ATOM     46  F   UNL     1       9.706  -4.777  -7.731  1.00  0.00    -0.200 F 
ATOM     47  C   UNL     1       8.272  -6.543  -8.361  1.00  0.00     0.200 A 
ATOM     48  F   UNL     1       6.822  -8.313  -8.943  1.00  0.00    -0.200 F 
ATOM     49  F   UNL     1       8.516  -6.298  -9.656  1.00  0.00    -0.200 F 
ENDBRANCH  25  39
BRANCH  26  50
ATOM     50  C   UNL     1       5.877  -9.115   3.976  1.00  0.00     0.064 A 
ATOM     51  C   UNL     1       6.886  -9.105   4.947  1.00  0.00     0.173 A 
ATOM     52  C   UNL     1       4.568  -9.397   4.395  1.00  0.00     0.173 A 
ATOM     53  F   UNL     1       8.155  -8.854   4.591  1.00  0.00    -0.203 F 
ATOM     54  C   UNL     1       6.600  -9.380   6.282  1.00  0.00     0.198 A 
ATOM     55  C   UNL     1       4.278  -9.639   5.735  1.00  0.00     0.198 A 
ATOM     56  F   UNL     1       3.564  -9.407   3.506  1.00  0.00    -0.203 F 
ATOM     57  F   UNL     1       7.589  -9.400   7.185  1.00  0.00    -0.200 F 
ATOM     58  C   UNL     1       5.295  -9.638   6.676  1.00  0.00     0.200 A 
ATOM     59  F   UNL     1       3.013  -9.866   6.114  1.00  0.00    -0.200 F 
ATOM     60  F   UNL     1       5.020  -9.889   7.963  1.00  0.00    -0.200 F 
ENDBRANCH  26  50
BRANCH  38  61
ATOM     61  C   UNL     1       9.392 -12.382  -1.067  1.00  0.00     0.064 A 
ATOM     62  C   UNL     1       8.726 -13.616  -1.041  1.00  0.00     0.173 A 
ATOM     63  C   UNL     1      10.793 -12.387  -1.133  1.00  0.00     0.173 A 
ATOM     64  F   UNL     1       7.388 -13.659  -0.957  1.00  0.00    -0.203 F 
ATOM     65  C   UNL     1       9.439 -14.811  -1.052  1.00  0.00     0.198 A 
ATOM     66  C   UNL     1      11.500 -13.584  -1.173  1.00  0.00     0.198 A 
ATOM     67  F   UNL     1      11.473 -11.232  -1.163  1.00  0.00    -0.203 F 
ATOM     68  F   UNL     1       8.786 -15.979  -0.975  1.00  0.00    -0.200 F 
ATOM     69  C   UNL     1      10.824 -14.794  -1.125  1.00  0.00     0.200 A 
ATOM     70  F   UNL     1      12.838 -13.567  -1.252  1.00  0.00    -0.200 F 
ATOM     71  F   UNL     1      11.508 -15.946  -1.137  1.00  0.00    -0.200 F 
ENDBRANCH  38  61
ENDBRANCH  12  13
ENDBRANCH   5   7
ENDBRANCH   2   3
ENDBRANCH   1   2
BRANCH   1  72
ATOM     72  C   UNL     1       4.776   3.360  -0.339  1.00  0.00     0.023 C 
BRANCH  72  73
ATOM     73  C   UNL     1       5.768   3.747   0.763  1.00  0.00     0.116 C 
BRANCH  73  74
ATOM     74  N   UNL     1       6.973   4.386   0.245  1.00  0.00    -0.356 N 
ATOM     75  C   UNL     1       7.345   5.686   0.035  1.00  0.00     0.226 C 
ATOM     76  H   UNL     1       7.671   3.740  -0.009  1.00  0.00     0.163 HD
ATOM     77  O   UNL     1       8.492   5.852  -0.393  1.00  0.00    -0.274 OA
BRANCH  75  78
ATOM     78  C   UNL     1       6.423   6.902   0.301  1.00  0.00     0.057 C 
ATOM     79  C   UNL     1       4.990   6.649  -0.180  1.00  0.00     0.039 C 
ATOM     80  C   UNL     1       6.936   8.152  -0.554  1.00  0.00     0.039 C 
ATOM     81  C   UNL     1       5.064   6.355  -1.677  1.00  0.00     0.119 C 
ATOM     82  C   UNL     1       6.625   8.159  -2.079  1.00  0.00     0.119 C 
ATOM     83  N   UNL     1       5.287   7.624  -2.309  1.00  0.00    -0.356 N 
BRANCH  78  84
ATOM     84  C   UNL     1       6.526   7.360   1.791  1.00  0.00     0.054 C 
BRANCH  84  85
ATOM     85  C   UNL     1       6.098   6.480   2.950  1.00  0.00    -0.028 A 
ATOM     86  C   UNL     1       4.824   6.687   3.518  1.00  0.00     0.005 A 
ATOM     87  C   UNL     1       6.948   5.550   3.578  1.00  0.00     0.044 A 
ATOM     88  C   UNL     1       4.417   5.991   4.662  1.00  0.00     0.000 A 
ATOM     89  C   UNL     1       6.521   4.827   4.700  1.00  0.00     0.021 A 
ATOM     90  Cl  UNL     1       8.575   5.281   3.065  1.00  0.00    -0.084 Cl
ATOM     91  C   UNL     1       5.261   5.054   5.248  1.00  0.00     0.002 A 
ENDBRANCH  84  85
ENDBRANCH  78  84
BRANCH  83  92
ATOM     92  C   UNL     1       4.452   8.003  -3.340  1.00  0.00     0.141 A 
ATOM     93  N   UNL     1       4.932   8.782  -4.343  1.00  0.00    -0.219 NA
ATOM     94  C   UNL     1       3.083   7.612  -3.433  1.00  0.00     0.061 A 
ATOM     95  C   UNL     1       4.130   9.074  -5.389  1.00  0.00     0.226 A 
ATOM     96  C   UNL     1       2.397   7.961  -4.585  1.00  0.00     0.142 A 
ATOM     97  C   UNL     1       2.130   6.912  -2.619  1.00  0.00     0.033 A 
ATOM     98  N   UNL     1       2.861   8.688  -5.609  1.00  0.00    -0.218 NA
ATOM     99  N   UNL     1       1.138   7.425  -4.524  1.00  0.00    -0.346 N 
ATOM    100  C   UNL     1       0.964   6.767  -3.337  1.00  0.00     0.085 A 
ATOM    101  H   UNL     1       0.457   7.500  -5.232  1.00  0.00     0.167 HD
ENDBRANCH  83  92
ENDBRANCH  75  78
ENDBRANCH  73  74
ENDBRANCH  72  73
ENDBRANCH   1  72
TORSDOF 14
