REMARK SMILES O=C(CN1C(=O)/C(=C2/Sc3ccccc3N2CCCS(=O)(=O)[O-])SC1=S)NCCCCNC(=O)c1ccc(-c2c3nc(c(-c4c(F)c(F)c(F)c(F)c4F)c4ccc([nH]4)c(-c4c(F)c(F)c(F)c(F)c4F)c4nc(c(-c5c(F)c(F)c(F)c(F)c5F)c5ccc2[nH]5)C=C4)C=C3)cc1
REMARK SMILES IDX 28 1 27 2 1 3 2 4 3 6 4 7 5 8 25 9 6 10 7 11 24 12 26 13
REMARK SMILES IDX 8 14 9 15 16 16 10 17 15 18 11 19 14 20 12 21 13 22 17 23
REMARK SMILES IDX 18 24 19 25 20 26 21 27 22 28 23 29 29 30 30 31 31 32 32 33
REMARK SMILES IDX 33 34 34 36 35 37 36 38 97 39 37 40 96 41 38 42 39 43 40 44
REMARK SMILES IDX 90 45 41 46 95 47 89 48 91 49 42 50 94 51 88 52 87 53 43 55
REMARK SMILES IDX 75 56 55 57 74 58 56 59 59 60 73 61 92 62 57 63 58 64 72 66
REMARK SMILES IDX 93 67 60 68 44 69 45 70 53 71 46 72 47 73 51 74 54 75 48 76
REMARK SMILES IDX 49 77 52 78 50 79 76 80 77 81 85 82 78 83 79 84 83 85 86 86
REMARK SMILES IDX 80 87 81 88 84 89 82 90 61 91 62 92 70 93 63 94 64 95 68 96
REMARK SMILES IDX 71 97 65 98 66 99 69 100 67 101
REMARK H PARENT 27 5 32 35 91 54 59 65
REMARK Flexibility Score: inf
ROOT
ATOM      1  C   UNL     1       2.114  -1.948   1.772  1.00  0.00     0.116 C 
ENDROOT
BRANCH   1   2
ATOM      2  N   UNL     1       2.984  -0.883   1.296  1.00  0.00    -0.355 N 
ATOM      3  O   UNL     1       1.771  -0.590  -0.601  1.00  0.00    -0.273 OA
ATOM      4  C   UNL     1       2.692  -0.223   0.131  1.00  0.00     0.240 C 
ATOM      5  H   UNL     1       3.785  -0.636   1.813  1.00  0.00     0.163 HD
BRANCH   4   6
ATOM      6  C   UNL     1       3.687   0.819  -0.378  1.00  0.00     0.227 C 
BRANCH   6   7
ATOM      7  N   UNL     1       4.556   1.651   0.466  1.00  0.00    -0.283 N 
ATOM      8  C   UNL     1       4.160   2.924   0.846  1.00  0.00     0.269 C 
ATOM      9  C   UNL     1       5.862   1.353   0.756  1.00  0.00     0.148 C 
ATOM     10  O   UNL     1       3.042   3.216   1.245  1.00  0.00    -0.268 OA
ATOM     11  C   UNL     1       5.329   3.853   0.840  1.00  0.00     0.111 C 
ATOM     12  S   UNL     1       6.691   2.819   1.251  1.00  0.00    -0.052 SA
ATOM     13  S   UNL     1       6.611  -0.132   0.667  1.00  0.00    -0.052 S 
ATOM     14  C   UNL     1       5.398   5.166   0.477  1.00  0.00     0.100 C 
ATOM     15  S   UNL     1       7.071   5.916   0.537  1.00  0.00    -0.068 SA
ATOM     16  N   UNL     1       4.437   6.119   0.019  1.00  0.00    -0.334 N 
ATOM     17  C   UNL     1       6.396   7.477   0.046  1.00  0.00     0.037 A 
ATOM     18  C   UNL     1       5.014   7.409  -0.204  1.00  0.00     0.056 A 
ATOM     19  C   UNL     1       7.125   8.659  -0.051  1.00  0.00     0.017 A 
ATOM     20  C   UNL     1       4.374   8.588  -0.599  1.00  0.00     0.027 A 
ATOM     21  C   UNL     1       6.463   9.828  -0.412  1.00  0.00     0.001 A 
ATOM     22  C   UNL     1       5.095   9.791  -0.689  1.00  0.00     0.002 A 
BRANCH  16  23
ATOM     23  C   UNL     1       2.971   6.046   0.028  1.00  0.00     0.124 C 
BRANCH  23  24
ATOM     24  C   UNL     1       2.359   5.543  -1.290  1.00  0.00     0.037 C 
BRANCH  24  25
ATOM     25  C   UNL     1       1.873   4.104  -1.298  1.00  0.00     0.124 C 
BRANCH  25  26
ATOM     26  S   UNL     1       0.433   3.708  -0.301  1.00  0.00     0.095 S 
ATOM     27  O   UNL     1      -0.712   4.406  -0.838  1.00  0.00    -0.243 OA
ATOM     28  O   UNL     1       0.433   2.286  -0.051  1.00  0.00    -0.243 OA
ATOM     29  O   UNL     1       0.824   4.401   1.100  1.00  0.00    -0.748 OA
ENDBRANCH  25  26
ENDBRANCH  24  25
ENDBRANCH  23  24
ENDBRANCH  16  23
ENDBRANCH   6   7
ENDBRANCH   4   6
ENDBRANCH   1   2
BRANCH   1  30
ATOM     30  C   UNL     1       2.374  -3.304   1.106  1.00  0.00     0.023 C 
BRANCH  30  31
ATOM     31  C   UNL     1       3.819  -3.793   1.169  1.00  0.00     0.023 C 
BRANCH  31  32
ATOM     32  C   UNL     1       4.466  -3.736   2.543  1.00  0.00     0.116 C 
BRANCH  32  33
ATOM     33  N   UNL     1       3.867  -4.639   3.515  1.00  0.00    -0.352 N 
ATOM     34  C   UNL     1       4.497  -5.482   4.405  1.00  0.00     0.251 C 
ATOM     35  H   UNL     1       2.883  -4.650   3.539  1.00  0.00     0.163 HD
ATOM     36  O   UNL     1       3.849  -6.255   5.101  1.00  0.00    -0.269 OA
BRANCH  34  37
ATOM     37  C   UNL     1       5.976  -5.487   4.471  1.00  0.00     0.039 A 
ATOM     38  C   UNL     1       6.687  -4.287   4.511  1.00  0.00     0.014 A 
ATOM     39  C   UNL     1       6.655  -6.706   4.404  1.00  0.00     0.014 A 
ATOM     40  C   UNL     1       8.056  -4.295   4.273  1.00  0.00     0.010 A 
ATOM     41  C   UNL     1       8.046  -6.715   4.270  1.00  0.00     0.010 A 
ATOM     42  C   UNL     1       8.752  -5.508   4.136  1.00  0.00    -0.014 A 
BRANCH  42  43
ATOM     43  C   UNL     1      10.207  -5.488   3.831  1.00  0.00     0.031 A 
ATOM     44  C   UNL     1      10.734  -6.056   2.540  1.00  0.00     0.074 A 
ATOM     45  C   UNL     1      11.054  -4.897   4.695  1.00  0.00     0.049 A 
ATOM     46  N   UNL     1      11.968  -6.106   2.100  1.00  0.00    -0.248 NA
ATOM     47  C   UNL     1       9.751  -6.653   1.623  1.00  0.00     0.031 C 
ATOM     48  C   UNL     1      10.664  -4.291   5.968  1.00  0.00     0.029 A 
ATOM     49  N   UNL     1      12.407  -4.685   4.625  1.00  0.00    -0.354 N 
ATOM     50  C   UNL     1      11.910  -6.747   0.869  1.00  0.00     0.074 A 
ATOM     51  C   UNL     1      10.526  -7.110   0.650  1.00  0.00     0.031 C 
ATOM     52  C   UNL     1      11.739  -3.723   6.531  1.00  0.00     0.029 A 
ATOM     53  C   UNL     1      12.907  -3.987   5.696  1.00  0.00     0.049 A 
ATOM     54  H   UNL     1      12.966  -5.002   3.879  1.00  0.00     0.167 HD
ATOM     55  C   UNL     1      12.914  -6.992  -0.007  1.00  0.00     0.037 A 
ATOM     56  C   UNL     1      14.166  -3.609   5.984  1.00  0.00     0.037 A 
ATOM     57  C   UNL     1      14.289  -6.619   0.208  1.00  0.00     0.049 A 
ATOM     58  C   UNL     1      15.274  -3.957   5.033  1.00  0.00     0.074 A 
ATOM     59  C   UNL     1      15.376  -6.810  -0.627  1.00  0.00     0.029 A 
ATOM     60  N   UNL     1      14.768  -5.979   1.344  1.00  0.00    -0.354 N 
ATOM     61  N   UNL     1      15.206  -4.555   3.869  1.00  0.00    -0.248 NA
ATOM     62  C   UNL     1      16.636  -3.585   5.440  1.00  0.00     0.031 C 
ATOM     63  C   UNL     1      16.520  -6.339   0.026  1.00  0.00     0.029 A 
ATOM     64  C   UNL     1      16.139  -5.798   1.244  1.00  0.00     0.049 A 
ATOM     65  H   UNL     1      14.215  -5.696   2.108  1.00  0.00     0.167 HD
ATOM     66  C   UNL     1      16.509  -4.622   3.397  1.00  0.00     0.074 A 
ATOM     67  C   UNL     1      17.346  -3.983   4.392  1.00  0.00     0.031 C 
ATOM     68  C   UNL     1      16.966  -5.167   2.243  1.00  0.00     0.037 A 
BRANCH  55  69
ATOM     69  C   UNL     1      12.568  -7.714  -1.281  1.00  0.00     0.064 A 
ATOM     70  C   UNL     1      11.797  -7.109  -2.286  1.00  0.00     0.173 A 
ATOM     71  C   UNL     1      13.044  -9.013  -1.517  1.00  0.00     0.173 A 
ATOM     72  F   UNL     1      11.309  -5.872  -2.110  1.00  0.00    -0.203 F 
ATOM     73  C   UNL     1      11.491  -7.788  -3.463  1.00  0.00     0.198 A 
ATOM     74  C   UNL     1      12.764  -9.677  -2.710  1.00  0.00     0.198 A 
ATOM     75  F   UNL     1      13.794  -9.637  -0.597  1.00  0.00    -0.203 F 
ATOM     76  F   UNL     1      10.709  -7.208  -4.385  1.00  0.00    -0.200 F 
ATOM     77  C   UNL     1      11.980  -9.068  -3.677  1.00  0.00     0.200 A 
ATOM     78  F   UNL     1      13.253 -10.906  -2.922  1.00  0.00    -0.200 F 
ATOM     79  F   UNL     1      11.691  -9.716  -4.814  1.00  0.00    -0.200 F 
ENDBRANCH  55  69
BRANCH  56  80
ATOM     80  C   UNL     1      14.421  -2.840   7.229  1.00  0.00     0.064 A 
ATOM     81  C   UNL     1      14.766  -1.484   7.174  1.00  0.00     0.173 A 
ATOM     82  C   UNL     1      14.257  -3.424   8.495  1.00  0.00     0.173 A 
ATOM     83  F   UNL     1      14.952  -0.887   5.988  1.00  0.00    -0.203 F 
ATOM     84  C   UNL     1      14.926  -0.737   8.339  1.00  0.00     0.198 A 
ATOM     85  C   UNL     1      14.389  -2.669   9.657  1.00  0.00     0.198 A 
ATOM     86  F   UNL     1      13.922  -4.718   8.599  1.00  0.00    -0.203 F 
ATOM     87  F   UNL     1      15.271   0.556   8.261  1.00  0.00    -0.200 F 
ATOM     88  C   UNL     1      14.725  -1.326   9.579  1.00  0.00     0.200 A 
ATOM     89  F   UNL     1      14.171  -3.237  10.851  1.00  0.00    -0.200 F 
ATOM     90  F   UNL     1      14.850  -0.599  10.697  1.00  0.00    -0.200 F 
ENDBRANCH  56  80
BRANCH  68  91
ATOM     91  C   UNL     1      18.443  -5.095   1.979  1.00  0.00     0.064 A 
ATOM     92  C   UNL     1      19.355  -5.880   2.700  1.00  0.00     0.173 A 
ATOM     93  C   UNL     1      18.944  -4.288   0.946  1.00  0.00     0.173 A 
ATOM     94  F   UNL     1      18.929  -6.657   3.707  1.00  0.00    -0.203 F 
ATOM     95  C   UNL     1      20.716  -5.848   2.405  1.00  0.00     0.198 A 
ATOM     96  C   UNL     1      20.301  -4.283   0.634  1.00  0.00     0.198 A 
ATOM     97  F   UNL     1      18.114  -3.523   0.221  1.00  0.00    -0.203 F 
ATOM     98  F   UNL     1      21.574  -6.578   3.132  1.00  0.00    -0.200 F 
ATOM     99  C   UNL     1      21.186  -5.059   1.366  1.00  0.00     0.200 A 
ATOM    100  F   UNL     1      20.751  -3.533  -0.382  1.00  0.00    -0.200 F 
ATOM    101  F   UNL     1      22.494  -5.044   1.072  1.00  0.00    -0.200 F 
ENDBRANCH  68  91
ENDBRANCH  42  43
ENDBRANCH  34  37
ENDBRANCH  32  33
ENDBRANCH  31  32
ENDBRANCH  30  31
ENDBRANCH   1  30
TORSDOF 16
