REMARK SMILES O=C(NCCCCNC(=O)c1nn(-c2ccc(Br)cc2F)cc1CCCO)c1ccc(-c2c3nc(c(-c4c(F)c(F)c(F)c(F)c4F)c4ccc([nH]4)c(-c4c(F)c(F)c(F)c(F)c4F)c4nc(c(-c5c(F)c(F)c(F)c(F)c5F)c5ccc2[nH]5)C=C4)C=C3)cc1
REMARK SMILES IDX 6 1 5 2 4 3 3 4 1 5 2 6 28 8 29 9 90 10 30 11 89 12 31 13
REMARK SMILES IDX 32 14 33 15 83 16 34 17 88 18 82 19 84 20 35 21 87 22 81 23
REMARK SMILES IDX 80 24 36 26 68 27 48 28 67 29 49 30 52 31 66 32 85 33 50 34
REMARK SMILES IDX 51 35 65 37 86 38 53 39 37 40 38 41 46 42 39 43 40 44 44 45
REMARK SMILES IDX 47 46 41 47 42 48 45 49 43 50 69 51 70 52 78 53 71 54 72 55
REMARK SMILES IDX 76 56 79 57 73 58 74 59 77 60 75 61 54 62 55 63 63 64 56 65
REMARK SMILES IDX 57 66 61 67 64 68 58 69 59 70 62 71 60 72 7 73 8 74 9 75
REMARK SMILES IDX 10 77 11 78 12 79 23 80 13 81 22 82 24 83 25 84 26 85 27 86
REMARK SMILES IDX 14 88 15 89 20 90 16 91 19 92 21 93 17 94 18 95
REMARK H PARENT 3 7 84 25 52 36 8 76 27 87
REMARK Flexibility Score: inf
ROOT
ATOM      1  C   UNL     1       4.300  -1.466   3.249  1.00  0.00     0.023 C 
ENDROOT
BRANCH   1   2
ATOM      2  C   UNL     1       4.844  -0.437   2.250  1.00  0.00     0.023 C 
BRANCH   2   3
ATOM      3  C   UNL     1       4.694  -0.801   0.774  1.00  0.00     0.116 C 
BRANCH   3   4
ATOM      4  N   UNL     1       3.335  -1.032   0.336  1.00  0.00    -0.352 N 
ATOM      5  O   UNL     1       1.267  -0.770  -0.405  1.00  0.00    -0.269 OA
ATOM      6  C   UNL     1       2.273  -0.222   0.050  1.00  0.00     0.251 C 
ATOM      7  H   UNL     1       3.129  -1.988   0.219  1.00  0.00     0.163 HD
BRANCH   6   8
ATOM      8  C   UNL     1       2.234   1.244   0.297  1.00  0.00     0.039 A 
ATOM      9  C   UNL     1       3.347   2.075   0.434  1.00  0.00     0.014 A 
ATOM     10  C   UNL     1       0.953   1.819   0.374  1.00  0.00     0.014 A 
ATOM     11  C   UNL     1       3.189   3.430   0.717  1.00  0.00     0.010 A 
ATOM     12  C   UNL     1       0.788   3.178   0.627  1.00  0.00     0.010 A 
ATOM     13  C   UNL     1       1.910   3.981   0.825  1.00  0.00    -0.014 A 
BRANCH  13  14
ATOM     14  C   UNL     1       1.793   5.424   1.033  1.00  0.00     0.031 A 
ATOM     15  C   UNL     1       2.252   6.304  -0.086  1.00  0.00     0.074 A 
ATOM     16  C   UNL     1       1.144   5.969   2.081  1.00  0.00     0.049 A 
ATOM     17  N   UNL     1       3.076   7.304  -0.045  1.00  0.00    -0.248 NA
ATOM     18  C   UNL     1       1.732   6.015  -1.431  1.00  0.00     0.031 C 
ATOM     19  C   UNL     1       0.348   5.281   3.099  1.00  0.00     0.029 A 
ATOM     20  N   UNL     1       0.966   7.289   2.380  1.00  0.00    -0.354 N 
ATOM     21  C   UNL     1       3.082   7.859  -1.325  1.00  0.00     0.074 A 
ATOM     22  C   UNL     1       2.297   6.982  -2.156  1.00  0.00     0.031 C 
ATOM     23  C   UNL     1      -0.396   6.192   3.766  1.00  0.00     0.029 A 
ATOM     24  C   UNL     1      -0.037   7.524   3.306  1.00  0.00     0.049 A 
ATOM     25  H   UNL     1       1.502   8.009   1.975  1.00  0.00     0.167 HD
ATOM     26  C   UNL     1       3.607   9.087  -1.594  1.00  0.00     0.037 A 
ATOM     27  C   UNL     1      -0.590   8.720   3.618  1.00  0.00     0.037 A 
ATOM     28  C   UNL     1       4.501   9.534  -0.565  1.00  0.00     0.049 A 
ATOM     29  C   UNL     1       0.334   9.790   3.176  1.00  0.00     0.074 A 
ATOM     30  C   UNL     1       5.695   9.078  -0.042  1.00  0.00     0.029 A 
ATOM     31  N   UNL     1       4.075  10.509   0.300  1.00  0.00    -0.354 N 
ATOM     32  N   UNL     1       1.479  10.059   3.735  1.00  0.00    -0.248 NA
ATOM     33  C   UNL     1       0.133  10.366   1.854  1.00  0.00     0.031 C 
ATOM     34  C   UNL     1       5.665   9.447   1.334  1.00  0.00     0.029 A 
ATOM     35  C   UNL     1       4.460  10.114   1.553  1.00  0.00     0.049 A 
ATOM     36  H   UNL     1       3.587  11.331   0.065  1.00  0.00     0.167 HD
ATOM     37  C   UNL     1       2.290  10.473   2.690  1.00  0.00     0.074 A 
ATOM     38  C   UNL     1       1.380  10.762   1.590  1.00  0.00     0.031 C 
ATOM     39  C   UNL     1       3.639  10.272   2.728  1.00  0.00     0.037 A 
BRANCH  26  40
ATOM     40  C   UNL     1       3.100  10.023  -2.662  1.00  0.00     0.064 A 
ATOM     41  C   UNL     1       3.863  11.153  -3.023  1.00  0.00     0.173 A 
ATOM     42  C   UNL     1       1.767  10.013  -3.120  1.00  0.00     0.173 A 
ATOM     43  F   UNL     1       5.136  11.277  -2.616  1.00  0.00    -0.203 F 
ATOM     44  C   UNL     1       3.309  12.222  -3.732  1.00  0.00     0.198 A 
ATOM     45  C   UNL     1       1.232  11.058  -3.873  1.00  0.00     0.198 A 
ATOM     46  F   UNL     1       0.907   9.050  -2.763  1.00  0.00    -0.203 F 
ATOM     47  F   UNL     1       4.036  13.326  -3.948  1.00  0.00    -0.200 F 
ATOM     48  C   UNL     1       1.992  12.175  -4.153  1.00  0.00     0.200 A 
ATOM     49  F   UNL     1      -0.052  11.007  -4.255  1.00  0.00    -0.200 F 
ATOM     50  F   UNL     1       1.442  13.223  -4.780  1.00  0.00    -0.200 F 
ENDBRANCH  26  40
BRANCH  27  51
ATOM     51  C   UNL     1      -1.978   9.003   4.047  1.00  0.00     0.064 A 
ATOM     52  C   UNL     1      -2.309  10.205   4.691  1.00  0.00     0.173 A 
ATOM     53  C   UNL     1      -3.054   8.211   3.603  1.00  0.00     0.173 A 
ATOM     54  F   UNL     1      -1.343  11.041   5.100  1.00  0.00    -0.203 F 
ATOM     55  C   UNL     1      -3.639  10.598   4.868  1.00  0.00     0.198 A 
ATOM     56  C   UNL     1      -4.381   8.597   3.792  1.00  0.00     0.198 A 
ATOM     57  F   UNL     1      -2.840   7.092   2.896  1.00  0.00    -0.203 F 
ATOM     58  F   UNL     1      -3.917  11.780   5.434  1.00  0.00    -0.200 F 
ATOM     59  C   UNL     1      -4.673   9.796   4.412  1.00  0.00     0.200 A 
ATOM     60  F   UNL     1      -5.370   7.828   3.315  1.00  0.00    -0.200 F 
ATOM     61  F   UNL     1      -5.946  10.197   4.533  1.00  0.00    -0.200 F 
ENDBRANCH  27  51
BRANCH  39  62
ATOM     62  C   UNL     1       4.256   9.895   4.041  1.00  0.00     0.064 A 
ATOM     63  C   UNL     1       3.955   8.707   4.729  1.00  0.00     0.173 A 
ATOM     64  C   UNL     1       5.287  10.696   4.550  1.00  0.00     0.173 A 
ATOM     65  F   UNL     1       3.060   7.837   4.244  1.00  0.00    -0.203 F 
ATOM     66  C   UNL     1       4.622   8.368   5.904  1.00  0.00     0.198 A 
ATOM     67  C   UNL     1       5.978  10.334   5.703  1.00  0.00     0.198 A 
ATOM     68  F   UNL     1       5.659  11.809   3.898  1.00  0.00    -0.203 F 
ATOM     69  F   UNL     1       4.306   7.237   6.553  1.00  0.00    -0.200 F 
ATOM     70  C   UNL     1       5.636   9.178   6.386  1.00  0.00     0.200 A 
ATOM     71  F   UNL     1       6.994  11.093   6.136  1.00  0.00    -0.200 F 
ATOM     72  F   UNL     1       6.306   8.830   7.494  1.00  0.00    -0.200 F 
ENDBRANCH  39  62
ENDBRANCH  13  14
ENDBRANCH   6   8
ENDBRANCH   3   4
ENDBRANCH   2   3
ENDBRANCH   1   2
BRANCH   1  73
ATOM     73  C   UNL     1       4.682  -2.924   2.989  1.00  0.00     0.116 C 
BRANCH  73  74
ATOM     74  N   UNL     1       6.109  -3.084   2.792  1.00  0.00    -0.351 N 
ATOM     75  C   UNL     1       6.964  -4.002   3.347  1.00  0.00     0.272 C 
ATOM     76  H   UNL     1       6.524  -2.442   2.172  1.00  0.00     0.163 HD
ATOM     77  O   UNL     1       8.160  -3.884   3.095  1.00  0.00    -0.267 OA
BRANCH  75  78
ATOM     78  C   UNL     1       6.421  -5.022   4.249  1.00  0.00     0.153 A 
ATOM     79  N   UNL     1       5.501  -5.907   3.822  1.00  0.00    -0.162 NA
ATOM     80  C   UNL     1       6.736  -5.222   5.624  1.00  0.00     0.004 A 
ATOM     81  N   UNL     1       5.075  -6.534   4.943  1.00  0.00    -0.237 N 
ATOM     82  C   UNL     1       5.806  -6.155   6.041  1.00  0.00     0.119 A 
BRANCH  80  83
ATOM     83  C   UNL     1       7.722  -4.507   6.492  1.00  0.00     0.042 C 
BRANCH  83  84
ATOM     84  C   UNL     1       9.170  -5.004   6.402  1.00  0.00     0.033 C 
BRANCH  84  85
ATOM     85  C   UNL     1      10.024  -4.407   5.289  1.00  0.00     0.156 C 
BRANCH  85  86
ATOM     86  O   UNL     1       9.762  -3.022   5.118  1.00  0.00    -0.396 OA
ATOM     87  H   UNL     1       8.832  -2.896   4.876  1.00  0.00     0.210 HD
ENDBRANCH  85  86
ENDBRANCH  84  85
ENDBRANCH  83  84
ENDBRANCH  80  83
BRANCH  81  88
ATOM     88  C   UNL     1       3.990  -7.436   4.889  1.00  0.00     0.100 A 
ATOM     89  C   UNL     1       3.786  -8.202   3.732  1.00  0.00     0.032 A 
ATOM     90  C   UNL     1       3.104  -7.555   5.961  1.00  0.00     0.149 A 
ATOM     91  C   UNL     1       2.721  -9.105   3.676  1.00  0.00     0.018 A 
ATOM     92  C   UNL     1       2.014  -8.420   5.888  1.00  0.00     0.057 A 
ATOM     93  F   UNL     1       3.225  -6.786   7.052  1.00  0.00    -0.205 F 
ATOM     94  C   UNL     1       1.835  -9.201   4.750  1.00  0.00     0.021 A 
ATOM     95  Br  UNL     1       0.372 -10.395   4.653  1.00  0.00    -0.051 Br
ENDBRANCH  81  88
ENDBRANCH  75  78
ENDBRANCH  73  74
ENDBRANCH   1  73
TORSDOF 16
