REMARK SMILES C[C@@](NC(=O)NCC(N)=O)(C(=O)NCCCCNC(=O)c1ccc(-c2c3nc(c(-c4c(F)c(F)c(F)c(F)c4F)c4ccc([nH]4)c(-c4c(F)c(F)c(F)c(F)c4F)c4nc(c(-c5c(F)c(F)c(F)c(F)c5F)c5ccc2[nH]5)C=C4)C=C3)cc1)C(F)(F)F
REMARK SMILES IDX 15 1 14 2 13 3 11 4 12 5 2 7 1 8 3 9 4 10 5 12 6 13 7 15
REMARK SMILES IDX 8 16 9 17 10 18 84 21 85 22 86 23 87 24 16 25 17 26 18 27
REMARK SMILES IDX 19 28 20 30 21 31 22 32 83 33 23 34 82 35 24 36 25 37 26 38
REMARK SMILES IDX 76 39 27 40 81 41 75 42 77 43 28 44 80 45 74 46 73 47 29 49
REMARK SMILES IDX 61 50 41 51 60 52 42 53 45 54 59 55 78 56 43 57 44 58 58 60
REMARK SMILES IDX 79 61 46 62 30 63 31 64 39 65 32 66 33 67 37 68 40 69 34 70
REMARK SMILES IDX 35 71 38 72 36 73 62 74 63 75 71 76 64 77 65 78 69 79 72 80
REMARK SMILES IDX 66 81 67 82 70 83 68 84 47 85 48 86 56 87 49 88 50 89 54 90
REMARK SMILES IDX 57 91 51 92 52 93 55 94 53 95
REMARK H PARENT 13 6 3 11 6 14 9 19 9 20 18 29 77 48 45 59
REMARK Flexibility Score: inf
ROOT
ATOM      1  C   UNL     1      -1.394   2.118  -2.232  1.00  0.00     0.023 C 
ENDROOT
BRANCH   1   2
ATOM      2  C   UNL     1      -0.934   1.895  -0.797  1.00  0.00     0.116 C 
BRANCH   2   3
ATOM      3  N   UNL     1      -1.313   0.571  -0.335  1.00  0.00    -0.354 N 
ATOM      4  C   UNL     1      -0.731  -0.240   0.600  1.00  0.00     0.255 C 
ATOM      5  O   UNL     1      -1.269  -1.338   0.760  1.00  0.00    -0.272 OA
ATOM      6  H   UNL     1      -2.118   0.197  -0.763  1.00  0.00     0.163 HD
BRANCH   4   7
ATOM      7  C   UNL     1       0.586   0.152   1.290  1.00  0.00     0.213 C 
ATOM      8  C   UNL     1       1.685  -0.113   0.229  1.00  0.00     0.056 C 
BRANCH   7   9
ATOM      9  N   UNL     1       0.650   1.597   1.675  1.00  0.00    -0.316 N 
ATOM     10  C   UNL     1       0.023   2.357   2.582  1.00  0.00     0.316 C 
ATOM     11  H   UNL     1       1.302   2.105   1.140  1.00  0.00     0.166 HD
ATOM     12  O   UNL     1       0.582   3.405   2.906  1.00  0.00    -0.249 OA
ATOM     13  N   UNL     1      -1.165   2.078   3.122  1.00  0.00    -0.329 N 
ATOM     14  H   UNL     1      -1.365   2.620   3.919  1.00  0.00     0.165 HD
BRANCH  13  15
ATOM     15  C   UNL     1      -2.221   1.150   2.783  1.00  0.00     0.217 C 
BRANCH  15  16
ATOM     16  C   UNL     1      -3.335   1.042   3.816  1.00  0.00     0.236 C 
ATOM     17  N   UNL     1      -4.429   0.343   3.381  1.00  0.00    -0.368 N 
ATOM     18  O   UNL     1      -3.272   1.494   4.953  1.00  0.00    -0.273 OA
ATOM     19  H   UNL     1      -4.454  -0.009   2.462  1.00  0.00     0.159 HD
ATOM     20  H   UNL     1      -5.190   0.192   3.987  1.00  0.00     0.159 HD
ENDBRANCH  15  16
ENDBRANCH  13  15
ENDBRANCH   7   9
BRANCH   7  21
ATOM     21  C   UNL     1       0.883  -0.805   2.469  1.00  0.00     0.420 C 
ATOM     22  F   UNL     1       0.938  -2.102   2.089  1.00  0.00    -0.168 F 
ATOM     23  F   UNL     1       2.105  -0.516   2.995  1.00  0.00    -0.168 F 
ATOM     24  F   UNL     1      -0.001  -0.710   3.483  1.00  0.00    -0.168 F 
ENDBRANCH   7  21
ENDBRANCH   4   7
ENDBRANCH   2   3
ENDBRANCH   1   2
BRANCH   1  25
ATOM     25  C   UNL     1      -2.900   2.344  -2.366  1.00  0.00     0.023 C 
BRANCH  25  26
ATOM     26  C   UNL     1      -3.403   3.610  -1.681  1.00  0.00     0.116 C 
BRANCH  26  27
ATOM     27  N   UNL     1      -2.801   4.811  -2.243  1.00  0.00    -0.352 N 
ATOM     28  C   UNL     1      -3.394   5.830  -2.942  1.00  0.00     0.251 C 
ATOM     29  H   UNL     1      -1.831   4.903  -2.101  1.00  0.00     0.163 HD
ATOM     30  O   UNL     1      -2.708   6.642  -3.561  1.00  0.00    -0.269 OA
BRANCH  28  31
ATOM     31  C   UNL     1      -4.864   5.939  -2.960  1.00  0.00     0.039 A 
ATOM     32  C   UNL     1      -5.517   6.177  -4.170  1.00  0.00     0.014 A 
ATOM     33  C   UNL     1      -5.596   5.794  -1.777  1.00  0.00     0.014 A 
ATOM     34  C   UNL     1      -6.912   6.206  -4.204  1.00  0.00     0.010 A 
ATOM     35  C   UNL     1      -6.983   5.736  -1.828  1.00  0.00     0.010 A 
ATOM     36  C   UNL     1      -7.656   5.949  -3.040  1.00  0.00    -0.014 A 
BRANCH  36  37
ATOM     37  C   UNL     1      -9.139   5.905  -3.069  1.00  0.00     0.031 A 
ATOM     38  C   UNL     1      -9.937   6.900  -2.272  1.00  0.00     0.074 A 
ATOM     39  C   UNL     1      -9.764   4.933  -3.761  1.00  0.00     0.049 A 
ATOM     40  N   UNL     1     -11.234   6.989  -2.120  1.00  0.00    -0.248 NA
ATOM     41  C   UNL     1      -9.176   7.912  -1.523  1.00  0.00     0.031 C 
ATOM     42  C   UNL     1      -9.098   3.883  -4.534  1.00  0.00     0.029 A 
ATOM     43  N   UNL     1     -11.100   4.664  -3.920  1.00  0.00    -0.354 N 
ATOM     44  C   UNL     1     -11.440   8.052  -1.251  1.00  0.00     0.074 A 
ATOM     45  C   UNL     1     -10.136   8.539  -0.861  1.00  0.00     0.031 C 
ATOM     46  C   UNL     1     -10.027   3.104  -5.109  1.00  0.00     0.029 A 
ATOM     47  C   UNL     1     -11.352   3.570  -4.712  1.00  0.00     0.049 A 
ATOM     48  H   UNL     1     -11.811   5.204  -3.506  1.00  0.00     0.167 HD
ATOM     49  C   UNL     1     -12.612   8.588  -0.835  1.00  0.00     0.037 A 
ATOM     50  C   UNL     1     -12.520   3.005  -5.071  1.00  0.00     0.037 A 
ATOM     51  C   UNL     1     -13.907   8.113  -1.247  1.00  0.00     0.049 A 
ATOM     52  C   UNL     1     -13.808   3.611  -4.581  1.00  0.00     0.074 A 
ATOM     53  C   UNL     1     -15.153   8.629  -0.936  1.00  0.00     0.029 A 
ATOM     54  N   UNL     1     -14.123   7.006  -2.055  1.00  0.00    -0.354 N 
ATOM     55  N   UNL     1     -13.992   4.664  -3.821  1.00  0.00    -0.248 NA
ATOM     56  C   UNL     1     -15.051   2.953  -5.004  1.00  0.00     0.031 C 
ATOM     57  C   UNL     1     -16.124   7.799  -1.505  1.00  0.00     0.029 A 
ATOM     58  C   UNL     1     -15.483   6.804  -2.227  1.00  0.00     0.049 A 
ATOM     59  H   UNL     1     -13.414   6.447  -2.448  1.00  0.00     0.167 HD
ATOM     60  C   UNL     1     -15.367   4.814  -3.703  1.00  0.00     0.074 A 
ATOM     61  C   UNL     1     -15.970   3.753  -4.482  1.00  0.00     0.031 C 
ATOM     62  C   UNL     1     -16.068   5.747  -3.013  1.00  0.00     0.037 A 
BRANCH  49  63
ATOM     63  C   UNL     1     -12.549   9.748   0.117  1.00  0.00     0.064 A 
ATOM     64  C   UNL     1     -12.066  11.005  -0.280  1.00  0.00     0.173 A 
ATOM     65  C   UNL     1     -13.013   9.613   1.434  1.00  0.00     0.173 A 
ATOM     66  F   UNL     1     -11.600  11.188  -1.525  1.00  0.00    -0.203 F 
ATOM     67  C   UNL     1     -12.020  12.072   0.615  1.00  0.00     0.198 A 
ATOM     68  C   UNL     1     -12.998  10.691   2.316  1.00  0.00     0.198 A 
ATOM     69  F   UNL     1     -13.491   8.435   1.865  1.00  0.00    -0.203 F 
ATOM     70  F   UNL     1     -11.505  13.247   0.227  1.00  0.00    -0.200 F 
ATOM     71  C   UNL     1     -12.494  11.916   1.908  1.00  0.00     0.200 A 
ATOM     72  F   UNL     1     -13.471  10.542   3.561  1.00  0.00    -0.200 F 
ATOM     73  F   UNL     1     -12.458  12.946   2.765  1.00  0.00    -0.200 F 
ENDBRANCH  49  63
BRANCH  50  74
ATOM     74  C   UNL     1     -12.529   1.812  -5.959  1.00  0.00     0.064 A 
ATOM     75  C   UNL     1     -13.033   1.892  -7.265  1.00  0.00     0.173 A 
ATOM     76  C   UNL     1     -12.049   0.569  -5.521  1.00  0.00     0.173 A 
ATOM     77  F   UNL     1     -13.522   3.054  -7.724  1.00  0.00    -0.203 F 
ATOM     78  C   UNL     1     -13.080   0.770  -8.089  1.00  0.00     0.198 A 
ATOM     79  C   UNL     1     -12.066  -0.545  -6.358  1.00  0.00     0.198 A 
ATOM     80  F   UNL     1     -11.550   0.439  -4.283  1.00  0.00    -0.203 F 
ATOM     81  F   UNL     1     -13.614   0.864  -9.315  1.00  0.00    -0.200 F 
ATOM     82  C   UNL     1     -12.591  -0.446  -7.638  1.00  0.00     0.200 A 
ATOM     83  F   UNL     1     -11.577  -1.714  -5.923  1.00  0.00    -0.200 F 
ATOM     84  F   UNL     1     -12.633  -1.525  -8.432  1.00  0.00    -0.200 F 
ENDBRANCH  50  74
BRANCH  62  85
ATOM     85  C   UNL     1     -17.566   5.690  -3.102  1.00  0.00     0.064 A 
ATOM     86  C   UNL     1     -18.305   4.667  -2.490  1.00  0.00     0.173 A 
ATOM     87  C   UNL     1     -18.274   6.698  -3.776  1.00  0.00     0.173 A 
ATOM     88  F   UNL     1     -17.677   3.672  -1.846  1.00  0.00    -0.203 F 
ATOM     89  C   UNL     1     -19.695   4.640  -2.575  1.00  0.00     0.198 A 
ATOM     90  C   UNL     1     -19.665   6.686  -3.828  1.00  0.00     0.198 A 
ATOM     91  F   UNL     1     -17.616   7.704  -4.371  1.00  0.00    -0.203 F 
ATOM     92  F   UNL     1     -20.377   3.623  -2.029  1.00  0.00    -0.200 F 
ATOM     93  C   UNL     1     -20.373   5.653  -3.236  1.00  0.00     0.200 A 
ATOM     94  F   UNL     1     -20.318   7.676  -4.452  1.00  0.00    -0.200 F 
ATOM     95  F   UNL     1     -21.711   5.629  -3.308  1.00  0.00    -0.200 F 
ENDBRANCH  62  85
ENDBRANCH  36  37
ENDBRANCH  28  31
ENDBRANCH  26  27
ENDBRANCH  25  26
ENDBRANCH   1  25
TORSDOF 15
