REMARK SMILES COc1cccc(C[N@@H+]2C[C@H](C(=O)NCCCCNC(=O)c3ccc(-c4c5nc(c(-c6c(F)c(F)c(F)c(F)c6F)c6ccc([nH]6)c(-c6c(F)c(F)c(F)c(F)c6F)c6nc(c(-c7c(F)c(F)c(F)c(F)c7F)c7ccc4[nH]7)C=C6)C=C5)cc3)C3(CC[NH+](C)CC3)C2)c1
REMARK SMILES IDX 16 1 15 2 14 3 12 4 13 5 11 7 9 8 10 9 92 10 85 12 86 13
REMARK SMILES IDX 91 14 87 15 90 16 88 17 89 18 8 20 7 21 3 22 4 23 93 24 5 25
REMARK SMILES IDX 6 26 2 27 1 28 17 29 18 30 19 31 20 32 21 34 22 35 23 36
REMARK SMILES IDX 84 37 24 38 83 39 25 40 26 41 27 42 77 43 28 44 82 45 76 46
REMARK SMILES IDX 78 47 29 48 81 49 75 50 74 51 30 53 62 54 42 55 61 56 43 57
REMARK SMILES IDX 46 58 60 59 79 60 44 61 45 62 59 64 80 65 47 66 31 67 32 68
REMARK SMILES IDX 40 69 33 70 34 71 38 72 41 73 35 74 36 75 39 76 37 77 63 78
REMARK SMILES IDX 64 79 72 80 65 81 66 82 70 83 73 84 67 85 68 86 71 87 69 88
REMARK SMILES IDX 48 89 49 90 57 91 50 92 51 93 55 94 58 95 52 96 53 97 56 98
REMARK SMILES IDX 54 99
REMARK H PARENT 14 6 9 11 88 19 19 33 78 52 46 63
REMARK Flexibility Score: inf
ROOT
ATOM      1  C   UNL     1      -0.871  -1.684  -5.891  1.00  0.00     0.023 C 
ENDROOT
BRANCH   1   2
ATOM      2  C   UNL     1       0.594  -2.015  -6.126  1.00  0.00     0.116 C 
BRANCH   2   3
ATOM      3  N   UNL     1       1.040  -1.938  -7.494  1.00  0.00    -0.356 N 
ATOM      4  C   UNL     1       2.305  -2.025  -7.988  1.00  0.00     0.229 C 
ATOM      5  O   UNL     1       2.405  -2.143  -9.215  1.00  0.00    -0.275 OA
ATOM      6  H   UNL     1       0.331  -1.804  -8.164  1.00  0.00     0.163 HD
BRANCH   4   7
ATOM      7  C   UNL     1       3.570  -1.879  -7.137  1.00  0.00     0.145 C 
ATOM      8  N   UNL     1       4.368  -0.501  -5.346  1.00  0.00    -0.330 N 
ATOM      9  C   UNL     1       3.640  -0.448  -6.604  1.00  0.00     0.276 C 
ATOM     10  C   UNL     1       4.283  -1.850  -4.802  1.00  0.00     0.270 C 
ATOM     11  H   UNL     1       5.352  -0.307  -5.529  1.00  0.00     0.348 HD
ATOM     12  C   UNL     1       4.010  -2.824  -5.975  1.00  0.00     0.047 C 
ATOM     13  C   UNL     1       5.292  -3.603  -6.400  1.00  0.00     0.075 C 
ATOM     14  C   UNL     1       3.088  -3.939  -5.451  1.00  0.00     0.075 C 
ATOM     15  C   UNL     1       4.976  -4.716  -7.424  1.00  0.00     0.262 C 
ATOM     16  C   UNL     1       2.724  -4.960  -6.522  1.00  0.00     0.262 C 
ATOM     17  N   UNL     1       3.902  -5.650  -7.045  1.00  0.00    -0.337 N 
ATOM     18  C   UNL     1       4.353  -6.705  -6.143  1.00  0.00     0.332 C 
ATOM     19  H   UNL     1       3.622  -6.111  -7.910  1.00  0.00     0.347 HD
BRANCH   8  20
ATOM     20  C   UNL     1       4.034   0.584  -4.403  1.00  0.00     0.299 C 
BRANCH  20  21
ATOM     21  C   UNL     1       2.605   0.627  -3.875  1.00  0.00     0.010 A 
ATOM     22  C   UNL     1       0.931  -0.065  -2.256  1.00  0.00     0.119 A 
ATOM     23  C   UNL     1      -0.073   0.553  -2.993  1.00  0.00     0.046 A 
ATOM     24  C   UNL     1       2.257  -0.043  -2.692  1.00  0.00     0.056 A 
ATOM     25  C   UNL     1       0.261   1.259  -4.145  1.00  0.00     0.004 A 
ATOM     26  C   UNL     1       1.592   1.310  -4.573  1.00  0.00     0.010 A 
BRANCH  22  27
ATOM     27  O   UNL     1       0.574  -0.762  -1.135  1.00  0.00    -0.497 OA
ATOM     28  C   UNL     1       0.947  -0.033   0.035  1.00  0.00     0.278 C 
ENDBRANCH  22  27
ENDBRANCH  20  21
ENDBRANCH   8  20
ENDBRANCH   4   7
ENDBRANCH   2   3
ENDBRANCH   1   2
BRANCH   1  29
ATOM     29  C   UNL     1      -1.855  -2.673  -6.520  1.00  0.00     0.023 C 
BRANCH  29  30
ATOM     30  C   UNL     1      -1.520  -4.159  -6.375  1.00  0.00     0.116 C 
BRANCH  30  31
ATOM     31  N   UNL     1      -1.457  -4.628  -4.995  1.00  0.00    -0.352 N 
ATOM     32  C   UNL     1      -2.269  -5.507  -4.316  1.00  0.00     0.251 C 
ATOM     33  H   UNL     1      -0.715  -4.257  -4.465  1.00  0.00     0.163 HD
ATOM     34  O   UNL     1      -2.082  -5.732  -3.124  1.00  0.00    -0.269 OA
BRANCH  32  35
ATOM     35  C   UNL     1      -3.413  -6.137  -5.007  1.00  0.00     0.039 A 
ATOM     36  C   UNL     1      -4.676  -6.067  -4.416  1.00  0.00     0.014 A 
ATOM     37  C   UNL     1      -3.255  -6.735  -6.257  1.00  0.00     0.014 A 
ATOM     38  C   UNL     1      -5.798  -6.485  -5.135  1.00  0.00     0.010 A 
ATOM     39  C   UNL     1      -4.379  -7.056  -7.010  1.00  0.00     0.010 A 
ATOM     40  C   UNL     1      -5.665  -6.918  -6.464  1.00  0.00    -0.014 A 
BRANCH  40  41
ATOM     41  C   UNL     1      -6.853  -7.199  -7.313  1.00  0.00     0.031 A 
ATOM     42  C   UNL     1      -7.054  -8.565  -7.906  1.00  0.00     0.074 A 
ATOM     43  C   UNL     1      -7.700  -6.198  -7.628  1.00  0.00     0.049 A 
ATOM     44  N   UNL     1      -7.961  -8.973  -8.758  1.00  0.00    -0.248 NA
ATOM     45  C   UNL     1      -6.086  -9.602  -7.517  1.00  0.00     0.031 C 
ATOM     46  C   UNL     1      -7.584  -4.812  -7.171  1.00  0.00     0.029 A 
ATOM     47  N   UNL     1      -8.821  -6.190  -8.421  1.00  0.00    -0.354 N 
ATOM     48  C   UNL     1      -7.657 -10.302  -9.023  1.00  0.00     0.074 A 
ATOM     49  C   UNL     1      -6.453 -10.616  -8.286  1.00  0.00     0.031 C 
ATOM     50  C   UNL     1      -8.605  -4.096  -7.669  1.00  0.00     0.029 A 
ATOM     51  C   UNL     1      -9.425  -4.959  -8.513  1.00  0.00     0.049 A 
ATOM     52  H   UNL     1      -9.161  -6.991  -8.882  1.00  0.00     0.167 HD
ATOM     53  C   UNL     1      -8.335 -11.187  -9.792  1.00  0.00     0.037 A 
ATOM     54  C   UNL     1     -10.511  -4.567  -9.204  1.00  0.00     0.037 A 
ATOM     55  C   UNL     1      -9.553 -10.885 -10.495  1.00  0.00     0.049 A 
ATOM     56  C   UNL     1     -11.257  -5.574 -10.036  1.00  0.00     0.074 A 
ATOM     57  C   UNL     1     -10.350 -11.733 -11.245  1.00  0.00     0.029 A 
ATOM     58  N   UNL     1     -10.153  -9.635 -10.531  1.00  0.00    -0.354 N 
ATOM     59  N   UNL     1     -10.997  -6.845 -10.226  1.00  0.00    -0.248 NA
ATOM     60  C   UNL     1     -12.450  -5.094 -10.747  1.00  0.00     0.031 C 
ATOM     61  C   UNL     1     -11.413 -10.988 -11.765  1.00  0.00     0.029 A 
ATOM     62  C   UNL     1     -11.303  -9.686 -11.303  1.00  0.00     0.049 A 
ATOM     63  H   UNL     1      -9.813  -8.831 -10.077  1.00  0.00     0.167 HD
ATOM     64  C   UNL     1     -12.005  -7.321 -11.053  1.00  0.00     0.074 A 
ATOM     65  C   UNL     1     -12.890  -6.207 -11.318  1.00  0.00     0.031 C 
ATOM     66  C   UNL     1     -12.180  -8.570 -11.548  1.00  0.00     0.037 A 
BRANCH  53  67
ATOM     67  C   UNL     1      -7.776 -12.576  -9.902  1.00  0.00     0.064 A 
ATOM     68  C   UNL     1      -7.799 -13.464  -8.815  1.00  0.00     0.173 A 
ATOM     69  C   UNL     1      -7.237 -13.035 -11.113  1.00  0.00     0.173 A 
ATOM     70  F   UNL     1      -8.292 -13.069  -7.632  1.00  0.00    -0.203 F 
ATOM     71  C   UNL     1      -7.275 -14.748  -8.928  1.00  0.00     0.198 A 
ATOM     72  C   UNL     1      -6.742 -14.331 -11.231  1.00  0.00     0.198 A 
ATOM     73  F   UNL     1      -7.196 -12.229 -12.184  1.00  0.00    -0.203 F 
ATOM     74  F   UNL     1      -7.262 -15.560  -7.862  1.00  0.00    -0.200 F 
ATOM     75  C   UNL     1      -6.754 -15.183 -10.137  1.00  0.00     0.200 A 
ATOM     76  F   UNL     1      -6.250 -14.755 -12.403  1.00  0.00    -0.200 F 
ATOM     77  F   UNL     1      -6.255 -16.422 -10.246  1.00  0.00    -0.200 F 
ENDBRANCH  53  67
BRANCH  54  78
ATOM     78  C   UNL     1     -10.980  -3.160  -9.117  1.00  0.00     0.064 A 
ATOM     79  C   UNL     1     -12.165  -2.840  -8.437  1.00  0.00     0.173 A 
ATOM     80  C   UNL     1     -10.264  -2.110  -9.709  1.00  0.00     0.173 A 
ATOM     81  F   UNL     1     -12.895  -3.813  -7.873  1.00  0.00    -0.203 F 
ATOM     82  C   UNL     1     -12.624  -1.527  -8.370  1.00  0.00     0.198 A 
ATOM     83  C   UNL     1     -10.711  -0.793  -9.618  1.00  0.00     0.198 A 
ATOM     84  F   UNL     1      -9.123  -2.362 -10.366  1.00  0.00    -0.203 F 
ATOM     85  F   UNL     1     -13.781  -1.256  -7.751  1.00  0.00    -0.200 F 
ATOM     86  C   UNL     1     -11.895  -0.504  -8.956  1.00  0.00     0.200 A 
ATOM     87  F   UNL     1      -9.996   0.195 -10.174  1.00  0.00    -0.200 F 
ATOM     88  F   UNL     1     -12.335   0.760  -8.888  1.00  0.00    -0.200 F 
ENDBRANCH  54  78
BRANCH  66  89
ATOM     89  C   UNL     1     -13.393  -8.810 -12.398  1.00  0.00     0.064 A 
ATOM     90  C   UNL     1     -13.485  -8.313 -13.706  1.00  0.00     0.173 A 
ATOM     91  C   UNL     1     -14.458  -9.583 -11.911  1.00  0.00     0.173 A 
ATOM     92  F   UNL     1     -12.499  -7.555 -14.210  1.00  0.00    -0.203 F 
ATOM     93  C   UNL     1     -14.608  -8.563 -14.488  1.00  0.00     0.198 A 
ATOM     94  C   UNL     1     -15.568  -9.854 -12.705  1.00  0.00     0.198 A 
ATOM     95  F   UNL     1     -14.416 -10.085 -10.667  1.00  0.00    -0.203 F 
ATOM     96  F   UNL     1     -14.694  -8.043 -15.720  1.00  0.00    -0.200 F 
ATOM     97  C   UNL     1     -15.645  -9.340 -13.991  1.00  0.00     0.200 A 
ATOM     98  F   UNL     1     -16.563 -10.614 -12.227  1.00  0.00    -0.200 F 
ATOM     99  F   UNL     1     -16.722  -9.586 -14.748  1.00  0.00    -0.200 F 
ENDBRANCH  66  89
ENDBRANCH  40  41
ENDBRANCH  32  35
ENDBRANCH  30  31
ENDBRANCH  29  30
ENDBRANCH   1  29
TORSDOF 14
