REMARK SMILES CC(C)Cc1ccc(S(=O)(=O)Nc2cnc(N3CCCC3)c(C(=O)NCCCCNC(=O)c3ccc(-c4c5nc(c(-c6c(F)c(F)c(F)c(F)c6F)c6ccc([nH]6)c(-c6c(F)c(F)c(F)c(F)c6F)c6nc(c(-c7c(F)c(F)c(F)c(F)c7F)c7ccc4[nH]7)C=C6)C=C5)cc3)c2)cc1
REMARK SMILES IDX 26 1 25 2 23 3 24 4 22 6 13 7 14 8 96 9 15 10 16 11 12 12
REMARK SMILES IDX 9 14 10 15 11 16 8 17 5 18 6 19 98 20 7 21 97 22 4 23 2 24
REMARK SMILES IDX 1 25 3 26 17 27 18 28 21 29 19 30 20 31 27 32 28 33 29 34
REMARK SMILES IDX 30 35 31 36 32 38 33 39 34 40 95 41 35 42 94 43 36 44 37 45
REMARK SMILES IDX 38 46 88 47 39 48 93 49 87 50 89 51 40 52 92 53 86 54 85 55
REMARK SMILES IDX 41 57 73 58 53 59 72 60 54 61 57 62 71 63 90 64 55 65 56 66
REMARK SMILES IDX 70 68 91 69 58 70 42 71 43 72 51 73 44 74 45 75 49 76 52 77
REMARK SMILES IDX 46 78 47 79 50 80 48 81 74 82 75 83 83 84 76 85 77 86 81 87
REMARK SMILES IDX 84 88 78 89 79 90 82 91 80 92 59 93 60 94 68 95 61 96 62 97
REMARK SMILES IDX 66 98 69 99 63 100 64 101 67 102 65 103
REMARK H PARENT 25 5 12 13 30 37 89 56 57 67
REMARK Flexibility Score: inf
ROOT
ATOM      1  C   UNL     1       0.651  -0.064   3.375  1.00  0.00     0.116 C 
ENDROOT
BRANCH   1   2
ATOM      2  N   UNL     1       0.504  -1.425   2.898  1.00  0.00    -0.352 N 
ATOM      3  C   UNL     1      -0.405  -2.442   3.050  1.00  0.00     0.255 C 
ATOM      4  O   UNL     1      -0.050  -3.476   2.483  1.00  0.00    -0.269 OA
ATOM      5  H   UNL     1       1.251  -1.688   2.313  1.00  0.00     0.163 HD
BRANCH   3   6
ATOM      6  C   UNL     1      -1.729  -2.316   3.759  1.00  0.00     0.084 A 
ATOM      7  C   UNL     1      -3.283  -0.854   4.891  1.00  0.00     0.068 A 
ATOM      8  C   UNL     1      -4.290  -1.743   4.569  1.00  0.00     0.140 A 
ATOM      9  C   UNL     1      -1.977  -1.242   4.626  1.00  0.00     0.046 A 
ATOM     10  N   UNL     1      -4.080  -2.871   3.869  1.00  0.00    -0.236 NA
ATOM     11  C   UNL     1      -2.825  -3.149   3.422  1.00  0.00     0.141 A 
BRANCH   7  12
ATOM     12  N   UNL     1      -3.643   0.456   5.316  1.00  0.00    -0.278 N 
ATOM     13  H   UNL     1      -4.374   0.552   5.968  1.00  0.00     0.180 HD
BRANCH  12  14
ATOM     14  S   UNL     1      -2.880   1.853   4.757  1.00  0.00     0.261 S 
ATOM     15  O   UNL     1      -1.558   1.885   5.355  1.00  0.00    -0.201 OA
ATOM     16  O   UNL     1      -3.828   2.920   4.983  1.00  0.00    -0.201 OA
BRANCH  14  17
ATOM     17  C   UNL     1      -2.623   1.766   2.988  1.00  0.00     0.087 A 
ATOM     18  C   UNL     1      -1.749   1.526   0.315  1.00  0.00    -0.048 A 
ATOM     19  C   UNL     1      -1.327   2.601   1.107  1.00  0.00     0.005 A 
ATOM     20  C   UNL     1      -2.675   0.623   0.855  1.00  0.00     0.005 A 
ATOM     21  C   UNL     1      -1.745   2.711   2.437  1.00  0.00     0.022 A 
ATOM     22  C   UNL     1      -3.134   0.757   2.173  1.00  0.00     0.022 A 
BRANCH  18  23
ATOM     23  C   UNL     1      -1.242   1.350  -1.103  1.00  0.00     0.038 C 
BRANCH  23  24
ATOM     24  C   UNL     1       0.292   1.203  -1.234  1.00  0.00    -0.013 C 
ATOM     25  C   UNL     1       0.806  -0.075  -0.571  1.00  0.00     0.008 C 
ATOM     26  C   UNL     1       0.703   1.197  -2.708  1.00  0.00     0.008 C 
ENDBRANCH  23  24
ENDBRANCH  18  23
ENDBRANCH  14  17
ENDBRANCH  12  14
ENDBRANCH   7  12
BRANCH  11  27
ATOM     27  N   UNL     1      -2.757  -4.223   2.583  1.00  0.00    -0.356 N 
ATOM     28  C   UNL     1      -2.034  -5.442   2.900  1.00  0.00     0.118 C 
ATOM     29  C   UNL     1      -3.808  -4.491   1.611  1.00  0.00     0.118 C 
ATOM     30  C   UNL     1      -2.029  -6.135   1.543  1.00  0.00     0.023 C 
ATOM     31  C   UNL     1      -3.440  -5.862   1.029  1.00  0.00     0.023 C 
ENDBRANCH  11  27
ENDBRANCH   3   6
ENDBRANCH   1   2
BRANCH   1  32
ATOM     32  C   UNL     1       1.668  -0.012   4.510  1.00  0.00     0.023 C 
BRANCH  32  33
ATOM     33  C   UNL     1       3.109  -0.265   4.044  1.00  0.00     0.023 C 
BRANCH  33  34
ATOM     34  C   UNL     1       3.606   0.662   2.936  1.00  0.00     0.116 C 
BRANCH  34  35
ATOM     35  N   UNL     1       3.474   2.071   3.272  1.00  0.00    -0.352 N 
ATOM     36  C   UNL     1       4.305   3.110   2.938  1.00  0.00     0.251 C 
ATOM     37  H   UNL     1       2.685   2.310   3.810  1.00  0.00     0.163 HD
ATOM     38  O   UNL     1       4.112   4.237   3.380  1.00  0.00    -0.269 OA
BRANCH  36  39
ATOM     39  C   UNL     1       5.463   2.850   2.062  1.00  0.00     0.039 A 
ATOM     40  C   UNL     1       6.732   3.234   2.501  1.00  0.00     0.014 A 
ATOM     41  C   UNL     1       5.296   2.210   0.831  1.00  0.00     0.014 A 
ATOM     42  C   UNL     1       7.850   2.918   1.730  1.00  0.00     0.010 A 
ATOM     43  C   UNL     1       6.417   1.856   0.085  1.00  0.00     0.010 A 
ATOM     44  C   UNL     1       7.702   2.200   0.533  1.00  0.00    -0.014 A 
BRANCH  44  45
ATOM     45  C   UNL     1       8.886   1.786  -0.258  1.00  0.00     0.031 A 
ATOM     46  C   UNL     1       9.147   2.401  -1.601  1.00  0.00     0.074 A 
ATOM     47  C   UNL     1       9.691   0.815   0.214  1.00  0.00     0.049 A 
ATOM     48  N   UNL     1      10.076   2.113  -2.477  1.00  0.00    -0.248 NA
ATOM     49  C   UNL     1       8.230   3.471  -2.025  1.00  0.00     0.031 C 
ATOM     50  C   UNL     1       9.519   0.118   1.490  1.00  0.00     0.029 A 
ATOM     51  N   UNL     1      10.808   0.235  -0.333  1.00  0.00    -0.354 N 
ATOM     52  C   UNL     1       9.854   2.959  -3.554  1.00  0.00     0.074 A 
ATOM     53  C   UNL     1       8.677   3.743  -3.243  1.00  0.00     0.031 C 
ATOM     54  C   UNL     1      10.500  -0.788   1.632  1.00  0.00     0.029 A 
ATOM     55  C   UNL     1      11.350  -0.758   0.446  1.00  0.00     0.049 A 
ATOM     56  H   UNL     1      11.185   0.505  -1.202  1.00  0.00     0.167 HD
ATOM     57  C   UNL     1      10.579   3.084  -4.690  1.00  0.00     0.037 A 
ATOM     58  C   UNL     1      12.408  -1.559   0.220  1.00  0.00     0.037 A 
ATOM     59  C   UNL     1      11.758   2.315  -4.991  1.00  0.00     0.049 A 
ATOM     60  C   UNL     1      13.192  -1.400  -1.054  1.00  0.00     0.074 A 
ATOM     61  C   UNL     1      12.572   2.383  -6.108  1.00  0.00     0.029 A 
ATOM     62  N   UNL     1      12.296   1.342  -4.162  1.00  0.00    -0.354 N 
ATOM     63  N   UNL     1      12.994  -0.571  -2.049  1.00  0.00    -0.248 NA
ATOM     64  C   UNL     1      14.351  -2.286  -1.233  1.00  0.00     0.031 C 
ATOM     65  C   UNL     1      13.590   1.434  -5.966  1.00  0.00     0.029 A 
ATOM     66  C   UNL     1      13.428   0.799  -4.746  1.00  0.00     0.049 A 
ATOM     67  H   UNL     1      11.927   1.076  -3.289  1.00  0.00     0.167 HD
ATOM     68  C   UNL     1      14.014  -0.815  -2.957  1.00  0.00     0.074 A 
ATOM     69  C   UNL     1      14.839  -1.862  -2.391  1.00  0.00     0.031 C 
ATOM     70  C   UNL     1      14.245  -0.229  -4.156  1.00  0.00     0.037 A 
BRANCH  57  71
ATOM     71  C   UNL     1      10.128   4.104  -5.690  1.00  0.00     0.064 A 
ATOM     72  C   UNL     1      10.313   5.475  -5.463  1.00  0.00     0.173 A 
ATOM     73  C   UNL     1       9.554   3.709  -6.907  1.00  0.00     0.173 A 
ATOM     74  F   UNL     1      10.845   5.902  -4.308  1.00  0.00    -0.203 F 
ATOM     75  C   UNL     1       9.924   6.417  -6.412  1.00  0.00     0.198 A 
ATOM     76  C   UNL     1       9.187   4.652  -7.864  1.00  0.00     0.198 A 
ATOM     77  F   UNL     1       9.359   2.409  -7.173  1.00  0.00    -0.203 F 
ATOM     78  F   UNL     1      10.080   7.724  -6.159  1.00  0.00    -0.200 F 
ATOM     79  C   UNL     1       9.370   6.004  -7.614  1.00  0.00     0.200 A 
ATOM     80  F   UNL     1       8.659   4.253  -9.029  1.00  0.00    -0.200 F 
ATOM     81  F   UNL     1       9.005   6.912  -8.531  1.00  0.00    -0.200 F 
ENDBRANCH  57  71
BRANCH  58  82
ATOM     82  C   UNL     1      12.801  -2.577   1.227  1.00  0.00     0.064 A 
ATOM     83  C   UNL     1      13.976  -2.430   1.977  1.00  0.00     0.173 A 
ATOM     84  C   UNL     1      12.027  -3.726   1.442  1.00  0.00     0.173 A 
ATOM     85  F   UNL     1      14.759  -1.357   1.790  1.00  0.00    -0.203 F 
ATOM     86  C   UNL     1      14.376  -3.407   2.886  1.00  0.00     0.198 A 
ATOM     87  C   UNL     1      12.416  -4.691   2.369  1.00  0.00     0.198 A 
ATOM     88  F   UNL     1      10.893  -3.911   0.751  1.00  0.00    -0.203 F 
ATOM     89  F   UNL     1      15.530  -3.266   3.553  1.00  0.00    -0.200 F 
ATOM     90  C   UNL     1      13.594  -4.535   3.083  1.00  0.00     0.200 A 
ATOM     91  F   UNL     1      11.653  -5.775   2.565  1.00  0.00    -0.200 F 
ATOM     92  F   UNL     1      13.982  -5.477   3.954  1.00  0.00    -0.200 F 
ENDBRANCH  58  82
BRANCH  70  93
ATOM     93  C   UNL     1      15.456  -0.678  -4.916  1.00  0.00     0.064 A 
ATOM     94  C   UNL     1      15.485  -1.911  -5.583  1.00  0.00     0.173 A 
ATOM     95  C   UNL     1      16.582   0.152  -5.011  1.00  0.00     0.173 A 
ATOM     96  F   UNL     1      14.436  -2.745  -5.507  1.00  0.00    -0.203 F 
ATOM     97  C   UNL     1      16.609  -2.307  -6.302  1.00  0.00     0.198 A 
ATOM     98  C   UNL     1      17.696  -0.237  -5.750  1.00  0.00     0.198 A 
ATOM     99  F   UNL     1      16.599   1.342  -4.393  1.00  0.00    -0.203 F 
ATOM    100  F   UNL     1      16.632  -3.506  -6.900  1.00  0.00    -0.200 F 
ATOM    101  C   UNL     1      17.710  -1.467  -6.390  1.00  0.00     0.200 A 
ATOM    102  F   UNL     1      18.755   0.578  -5.841  1.00  0.00    -0.200 F 
ATOM    103  F   UNL     1      18.790  -1.847  -7.087  1.00  0.00    -0.200 F 
ENDBRANCH  70  93
ENDBRANCH  44  45
ENDBRANCH  36  39
ENDBRANCH  34  35
ENDBRANCH  33  34
ENDBRANCH  32  33
ENDBRANCH   1  32
TORSDOF 17
