REMARK SMILES C[C@@H]1CC[C@H](C)[N@H+]1Cc1cc2c(cc1Cl)C=C(C(=O)NCCCCNC(=O)c1ccc(-c3c4nc(c(-c5c(F)c(F)c(F)c(F)c5F)c5ccc([nH]5)c(-c5c(F)c(F)c(F)c(F)c5F)c5nc(c(-c6c(F)c(F)c(F)c(F)c6F)c6ccc3[nH]6)C=C5)C=C4)cc1)[C@@H](C(F)(F)F)O2
REMARK SMILES IDX 22 1 21 2 20 3 18 4 19 5 17 7 9 8 10 9 14 10 11 11 13 12
REMARK SMILES IDX 15 13 12 14 96 15 16 16 91 17 8 18 7 19 6 20 5 21 4 22 3 23
REMARK SMILES IDX 2 24 1 26 92 27 93 28 94 29 95 30 23 31 24 32 25 33 26 34
REMARK SMILES IDX 27 36 28 37 29 38 90 39 30 40 89 41 31 42 32 43 33 44 83 45
REMARK SMILES IDX 34 46 88 47 82 48 84 49 35 50 87 51 81 52 80 53 36 55 68 56
REMARK SMILES IDX 48 57 67 58 49 59 52 60 66 61 85 62 50 63 51 64 65 66 86 67
REMARK SMILES IDX 53 68 37 69 38 70 46 71 39 72 40 73 44 74 47 75 41 76 42 77
REMARK SMILES IDX 45 78 43 79 69 80 70 81 78 82 71 83 72 84 76 85 79 86 73 87
REMARK SMILES IDX 74 88 77 89 75 90 54 91 55 92 63 93 56 94 57 95 61 96 64 97
REMARK SMILES IDX 58 98 59 99 62 100 60 101
REMARK H PARENT 20 6 7 25 25 35 84 54 52 65
REMARK Flexibility Score: inf
ROOT
ATOM      1  C   UNL     1       6.729  -2.995  -7.952  1.00  0.00     0.023 C 
ENDROOT
BRANCH   1   2
ATOM      2  C   UNL     1       6.522  -1.572  -8.463  1.00  0.00     0.116 C 
BRANCH   2   3
ATOM      3  N   UNL     1       5.238  -1.416  -9.119  1.00  0.00    -0.352 N 
ATOM      4  C   UNL     1       4.041  -0.862  -8.816  1.00  0.00     0.251 C 
ATOM      5  O   UNL     1       3.184  -0.951  -9.702  1.00  0.00    -0.270 OA
ATOM      6  H   UNL     1       5.237  -1.818 -10.018  1.00  0.00     0.163 HD
BRANCH   4   7
ATOM      7  C   UNL     1       3.706  -0.184  -7.532  1.00  0.00     0.067 C 
ATOM      8  C   UNL     1       1.331   2.180  -3.750  1.00  0.00     0.029 A 
ATOM      9  C   UNL     1       2.428   1.300  -3.836  1.00  0.00     0.058 A 
ATOM     10  C   UNL     1       0.690   2.544  -4.948  1.00  0.00     0.050 A 
ATOM     11  C   UNL     1       2.819   0.765  -5.059  1.00  0.00     0.128 A 
ATOM     12  C   UNL     1       1.043   1.943  -6.165  1.00  0.00     0.033 A 
ATOM     13  Cl  UNL     1      -0.499   3.796  -5.032  1.00  0.00    -0.084 Cl
ATOM     14  C   UNL     1       2.101   1.040  -6.221  1.00  0.00     0.019 A 
ATOM     15  O   UNL     1       3.924  -0.043  -5.070  1.00  0.00    -0.475 OA
ATOM     16  C   UNL     1       2.479   0.369  -7.459  1.00  0.00     0.025 C 
ATOM     17  C   UNL     1       4.626  -0.066  -6.349  1.00  0.00     0.314 C 
BRANCH   8  18
ATOM     18  C   UNL     1       0.919   2.679  -2.376  1.00  0.00     0.301 C 
BRANCH  18  19
ATOM     19  N   UNL     1      -0.052   1.863  -1.634  1.00  0.00    -0.327 N 
ATOM     20  C   UNL     1       1.075   0.324  -0.055  1.00  0.00     0.075 C 
ATOM     21  C   UNL     1       0.305   0.464  -1.361  1.00  0.00     0.181 C 
ATOM     22  C   UNL     1      -1.030  -0.276  -1.311  1.00  0.00     0.071 C 
ATOM     23  C   UNL     1      -1.870   0.489  -2.312  1.00  0.00     0.071 C 
ATOM     24  C   UNL     1      -1.440   1.935  -2.102  1.00  0.00     0.181 C 
ATOM     25  H   UNL     1       0.007   2.349  -0.739  1.00  0.00     0.348 HD
ATOM     26  C   UNL     1      -2.278   2.636  -1.033  1.00  0.00     0.075 C 
ENDBRANCH  18  19
ENDBRANCH   8  18
BRANCH  17  27
ATOM     27  C   UNL     1       5.573   1.151  -6.465  1.00  0.00     0.429 C 
ATOM     28  F   UNL     1       6.604   1.033  -5.592  1.00  0.00    -0.167 F 
ATOM     29  F   UNL     1       6.123   1.255  -7.699  1.00  0.00    -0.167 F 
ATOM     30  F   UNL     1       4.961   2.329  -6.213  1.00  0.00    -0.167 F 
ENDBRANCH  17  27
ENDBRANCH   4   7
ENDBRANCH   2   3
ENDBRANCH   1   2
BRANCH   1  31
ATOM     31  C   UNL     1       7.168  -3.991  -9.026  1.00  0.00     0.023 C 
BRANCH  31  32
ATOM     32  C   UNL     1       8.421  -3.601  -9.804  1.00  0.00     0.116 C 
BRANCH  32  33
ATOM     33  N   UNL     1       9.569  -3.272  -8.969  1.00  0.00    -0.352 N 
ATOM     34  C   UNL     1      10.902  -3.368  -9.305  1.00  0.00     0.251 C 
ATOM     35  H   UNL     1       9.370  -2.943  -8.063  1.00  0.00     0.163 HD
ATOM     36  O   UNL     1      11.786  -3.105  -8.504  1.00  0.00    -0.269 OA
BRANCH  34  37
ATOM     37  C   UNL     1      11.229  -3.865 -10.654  1.00  0.00     0.039 A 
ATOM     38  C   UNL     1      10.725  -3.204 -11.775  1.00  0.00     0.014 A 
ATOM     39  C   UNL     1      11.893  -5.088 -10.774  1.00  0.00     0.014 A 
ATOM     40  C   UNL     1      10.735  -3.852 -13.003  1.00  0.00     0.010 A 
ATOM     41  C   UNL     1      11.957  -5.707 -12.022  1.00  0.00     0.010 A 
ATOM     42  C   UNL     1      11.323  -5.122 -13.130  1.00  0.00    -0.014 A 
BRANCH  42  43
ATOM     43  C   UNL     1      11.204  -5.859 -14.411  1.00  0.00     0.031 A 
ATOM     44  C   UNL     1      10.349  -7.094 -14.495  1.00  0.00     0.074 A 
ATOM     45  C   UNL     1      11.803  -5.373 -15.512  1.00  0.00     0.049 A 
ATOM     46  N   UNL     1      10.156  -7.899 -15.510  1.00  0.00    -0.248 NA
ATOM     47  C   UNL     1       9.605  -7.476 -13.283  1.00  0.00     0.031 C 
ATOM     48  C   UNL     1      12.607  -4.152 -15.564  1.00  0.00     0.029 A 
ATOM     49  N   UNL     1      11.805  -5.832 -16.804  1.00  0.00    -0.354 N 
ATOM     50  C   UNL     1       9.292  -8.887 -15.056  1.00  0.00     0.074 A 
ATOM     51  C   UNL     1       9.005  -8.593 -13.669  1.00  0.00     0.031 C 
ATOM     52  C   UNL     1      12.980  -3.928 -16.833  1.00  0.00     0.029 A 
ATOM     53  C   UNL     1      12.498  -5.023 -17.669  1.00  0.00     0.049 A 
ATOM     54  H   UNL     1      11.353  -6.660 -17.084  1.00  0.00     0.167 HD
ATOM     55  C   UNL     1       8.781  -9.938 -15.739  1.00  0.00     0.037 A 
ATOM     56  C   UNL     1      12.733  -5.160 -18.987  1.00  0.00     0.037 A 
ATOM     57  C   UNL     1       9.053 -10.216 -17.125  1.00  0.00     0.049 A 
ATOM     58  C   UNL     1      12.206  -6.370 -19.702  1.00  0.00     0.074 A 
ATOM     59  C   UNL     1       8.613 -11.277 -17.897  1.00  0.00     0.029 A 
ATOM     60  N   UNL     1       9.824  -9.413 -17.951  1.00  0.00    -0.354 N 
ATOM     61  N   UNL     1      11.453  -7.339 -19.243  1.00  0.00    -0.248 NA
ATOM     62  C   UNL     1      12.584  -6.518 -21.114  1.00  0.00     0.031 C 
ATOM     63  C   UNL     1       9.135 -11.127 -19.186  1.00  0.00     0.029 A 
ATOM     64  C   UNL     1       9.874  -9.956 -19.224  1.00  0.00     0.049 A 
ATOM     65  H   UNL     1      10.270  -8.580 -17.674  1.00  0.00     0.167 HD
ATOM     66  C   UNL     1      11.261  -8.208 -20.307  1.00  0.00     0.074 A 
ATOM     67  C   UNL     1      11.960  -7.641 -21.442  1.00  0.00     0.031 C 
ATOM     68  C   UNL     1      10.576  -9.376 -20.338  1.00  0.00     0.037 A 
BRANCH  55  69
ATOM     69  C   UNL     1       7.878 -10.881 -15.001  1.00  0.00     0.064 A 
ATOM     70  C   UNL     1       6.547 -10.545 -14.717  1.00  0.00     0.173 A 
ATOM     71  C   UNL     1       8.328 -12.160 -14.639  1.00  0.00     0.173 A 
ATOM     72  F   UNL     1       6.077  -9.329 -15.029  1.00  0.00    -0.203 F 
ATOM     73  C   UNL     1       5.699 -11.456 -14.092  1.00  0.00     0.198 A 
ATOM     74  C   UNL     1       7.471 -13.074 -14.032  1.00  0.00     0.198 A 
ATOM     75  F   UNL     1       9.592 -12.528 -14.892  1.00  0.00    -0.203 F 
ATOM     76  F   UNL     1       4.436 -11.107 -13.809  1.00  0.00    -0.200 F 
ATOM     77  C   UNL     1       6.158 -12.722 -13.758  1.00  0.00     0.200 A 
ATOM     78  F   UNL     1       7.914 -14.299 -13.717  1.00  0.00    -0.200 F 
ATOM     79  F   UNL     1       5.336 -13.601 -13.169  1.00  0.00    -0.200 F 
ENDBRANCH  55  69
BRANCH  56  80
ATOM     80  C   UNL     1      13.509  -4.122 -19.707  1.00  0.00     0.064 A 
ATOM     81  C   UNL     1      12.883  -3.268 -20.623  1.00  0.00     0.173 A 
ATOM     82  C   UNL     1      14.882  -3.949 -19.480  1.00  0.00     0.173 A 
ATOM     83  F   UNL     1      11.576  -3.412 -20.887  1.00  0.00    -0.203 F 
ATOM     84  C   UNL     1      13.602  -2.279 -21.290  1.00  0.00     0.198 A 
ATOM     85  C   UNL     1      15.595  -2.944 -20.128  1.00  0.00     0.198 A 
ATOM     86  F   UNL     1      15.525  -4.743 -18.611  1.00  0.00    -0.203 F 
ATOM     87  F   UNL     1      12.986  -1.492 -22.182  1.00  0.00    -0.200 F 
ATOM     88  C   UNL     1      14.956  -2.113 -21.036  1.00  0.00     0.200 A 
ATOM     89  F   UNL     1      16.900  -2.779 -19.871  1.00  0.00    -0.200 F 
ATOM     90  F   UNL     1      15.645  -1.154 -21.669  1.00  0.00    -0.200 F 
ENDBRANCH  56  80
BRANCH  68  91
ATOM     91  C   UNL     1      10.540 -10.111 -21.642  1.00  0.00     0.064 A 
ATOM     92  C   UNL     1      11.647 -10.843 -22.094  1.00  0.00     0.173 A 
ATOM     93  C   UNL     1       9.377 -10.116 -22.425  1.00  0.00     0.173 A 
ATOM     94  F   UNL     1      12.785 -10.853 -21.383  1.00  0.00    -0.203 F 
ATOM     95  C   UNL     1      11.596 -11.543 -23.295  1.00  0.00     0.198 A 
ATOM     96  C   UNL     1       9.323 -10.834 -23.616  1.00  0.00     0.198 A 
ATOM     97  F   UNL     1       8.293  -9.433 -22.029  1.00  0.00    -0.203 F 
ATOM     98  F   UNL     1      12.675 -12.209 -23.727  1.00  0.00    -0.200 F 
ATOM     99  C   UNL     1      10.433 -11.542 -24.052  1.00  0.00     0.200 A 
ATOM    100  F   UNL     1       8.197 -10.838 -24.343  1.00  0.00    -0.200 F 
ATOM    101  F   UNL     1      10.384 -12.220 -25.207  1.00  0.00    -0.200 F 
ENDBRANCH  68  91
ENDBRANCH  42  43
ENDBRANCH  34  37
ENDBRANCH  32  33
ENDBRANCH  31  32
ENDBRANCH   1  31
TORSDOF 14
