REMARK SMILES CC[C@H](C)[C@@H](Nc1ncnc2ccccc12)C(=O)NCCCCNC(=O)c1ccc(-c2c3nc(c(-c4c(F)c(F)c(F)c(F)c4F)c4ccc([nH]4)c(-c4c(F)c(F)c(F)c(F)c4F)c4nc(c(-c5c(F)c(F)c(F)c(F)c5F)c5ccc2[nH]5)C=C4)C=C3)cc1
REMARK SMILES IDX 21 1 20 2 19 3 17 4 18 5 5 7 3 8 4 9 2 10 1 11 6 12 7 14
REMARK SMILES IDX 8 15 16 16 9 17 11 18 15 19 10 20 12 21 14 22 13 23 22 24
REMARK SMILES IDX 23 25 24 26 25 27 26 29 27 30 28 31 89 32 29 33 88 34 30 35
REMARK SMILES IDX 31 36 32 37 82 38 33 39 87 40 81 41 83 42 34 43 86 44 80 45
REMARK SMILES IDX 79 46 35 48 67 49 47 50 66 51 48 52 51 53 65 54 84 55 49 56
REMARK SMILES IDX 50 57 64 59 85 60 52 61 36 62 37 63 45 64 38 65 39 66 43 67
REMARK SMILES IDX 46 68 40 69 41 70 44 71 42 72 68 73 69 74 77 75 70 76 71 77
REMARK SMILES IDX 75 78 78 79 72 80 73 81 76 82 74 83 53 84 54 85 62 86 55 87
REMARK SMILES IDX 56 88 60 89 63 90 57 91 58 92 61 93 59 94
REMARK H PARENT 19 6 6 13 24 28 83 47 51 58
REMARK Flexibility Score: inf
ROOT
ATOM      1  C   UNL     1       4.305   2.994  -1.743  1.00  0.00     0.023 C 
ENDROOT
BRANCH   1   2
ATOM      2  C   UNL     1       3.454   3.976  -0.946  1.00  0.00     0.116 C 
BRANCH   2   3
ATOM      3  N   UNL     1       2.395   4.531  -1.766  1.00  0.00    -0.354 N 
ATOM      4  C   UNL     1       1.042   4.437  -1.629  1.00  0.00     0.242 C 
ATOM      5  O   UNL     1       0.346   4.951  -2.512  1.00  0.00    -0.273 OA
ATOM      6  H   UNL     1       2.700   5.057  -2.540  1.00  0.00     0.163 HD
BRANCH   4   7
ATOM      7  C   UNL     1       0.383   3.678  -0.446  1.00  0.00     0.173 C 
BRANCH   7   8
ATOM      8  C   UNL     1       0.631   2.138  -0.578  1.00  0.00     0.018 C 
ATOM      9  C   UNL     1      -0.136   1.335   0.484  1.00  0.00     0.010 C 
BRANCH   8  10
ATOM     10  C   UNL     1       0.268   1.622  -1.995  1.00  0.00     0.002 C 
ATOM     11  C   UNL     1       0.703   0.186  -2.253  1.00  0.00     0.004 C 
ENDBRANCH   8  10
ENDBRANCH   7   8
BRANCH   7  12
ATOM     12  N   UNL     1       0.792   4.177   0.889  1.00  0.00    -0.358 N 
ATOM     13  H   UNL     1       0.612   3.590   1.658  1.00  0.00     0.162 HD
BRANCH  12  14
ATOM     14  C   UNL     1       1.402   5.386   1.156  1.00  0.00     0.137 A 
ATOM     15  N   UNL     1       2.460   5.234   1.973  1.00  0.00    -0.219 NA
ATOM     16  C   UNL     1       1.068   6.630   0.595  1.00  0.00     0.043 A 
ATOM     17  C   UNL     1       3.250   6.299   2.143  1.00  0.00     0.224 A 
ATOM     18  C   UNL     1       2.015   7.647   0.797  1.00  0.00     0.076 A 
ATOM     19  C   UNL     1      -0.105   6.926  -0.142  1.00  0.00     0.014 A 
ATOM     20  N   UNL     1       3.105   7.488   1.553  1.00  0.00    -0.236 NA
ATOM     21  C   UNL     1       1.824   8.874   0.175  1.00  0.00     0.029 A 
ATOM     22  C   UNL     1      -0.281   8.167  -0.749  1.00  0.00     0.001 A 
ATOM     23  C   UNL     1       0.698   9.139  -0.607  1.00  0.00     0.002 A 
ENDBRANCH  12  14
ENDBRANCH   7  12
ENDBRANCH   4   7
ENDBRANCH   2   3
ENDBRANCH   1   2
BRANCH   1  24
ATOM     24  C   UNL     1       5.141   3.646  -2.845  1.00  0.00     0.023 C 
BRANCH  24  25
ATOM     25  C   UNL     1       6.084   4.744  -2.366  1.00  0.00     0.116 C 
BRANCH  25  26
ATOM     26  N   UNL     1       7.057   4.274  -1.390  1.00  0.00    -0.352 N 
ATOM     27  C   UNL     1       8.379   4.636  -1.281  1.00  0.00     0.251 C 
ATOM     28  H   UNL     1       6.730   3.622  -0.729  1.00  0.00     0.163 HD
ATOM     29  O   UNL     1       9.128   4.090  -0.480  1.00  0.00    -0.269 OA
BRANCH  27  30
ATOM     30  C   UNL     1       8.888   5.680  -2.188  1.00  0.00     0.039 A 
ATOM     31  C   UNL     1       9.944   5.378  -3.050  1.00  0.00     0.014 A 
ATOM     32  C   UNL     1       8.243   6.918  -2.246  1.00  0.00     0.014 A 
ATOM     33  C   UNL     1      10.308   6.298  -4.034  1.00  0.00     0.010 A 
ATOM     34  C   UNL     1       8.566   7.805  -3.263  1.00  0.00     0.010 A 
ATOM     35  C   UNL     1       9.594   7.499  -4.171  1.00  0.00    -0.014 A 
BRANCH  35  36
ATOM     36  C   UNL     1       9.885   8.463  -5.258  1.00  0.00     0.031 A 
ATOM     37  C   UNL     1      10.382   9.835  -4.913  1.00  0.00     0.074 A 
ATOM     38  C   UNL     1       9.577   8.152  -6.531  1.00  0.00     0.049 A 
ATOM     39  N   UNL     1      10.514  10.888  -5.679  1.00  0.00    -0.248 NA
ATOM     40  C   UNL     1      10.740  10.062  -3.505  1.00  0.00     0.031 C 
ATOM     41  C   UNL     1       9.040   6.868  -6.982  1.00  0.00     0.029 A 
ATOM     42  N   UNL     1       9.639   8.909  -7.675  1.00  0.00    -0.354 N 
ATOM     43  C   UNL     1      10.930  11.911  -4.838  1.00  0.00     0.074 A 
ATOM     44  C   UNL     1      10.996  11.362  -3.501  1.00  0.00     0.031 C 
ATOM     45  C   UNL     1       8.814   6.928  -8.304  1.00  0.00     0.029 A 
ATOM     46  C   UNL     1       9.153   8.264  -8.785  1.00  0.00     0.049 A 
ATOM     47  H   UNL     1       9.996   9.826  -7.696  1.00  0.00     0.167 HD
ATOM     48  C   UNL     1      11.238  13.190  -5.158  1.00  0.00     0.037 A 
ATOM     49  C   UNL     1       8.979   8.709 -10.044  1.00  0.00     0.037 A 
ATOM     50  C   UNL     1      11.209  13.716  -6.496  1.00  0.00     0.049 A 
ATOM     51  C   UNL     1       9.364  10.122 -10.386  1.00  0.00     0.074 A 
ATOM     52  C   UNL     1      11.586  14.971  -6.939  1.00  0.00     0.029 A 
ATOM     53  N   UNL     1      10.775  13.010  -7.610  1.00  0.00    -0.354 N 
ATOM     54  N   UNL     1       9.818  11.066  -9.598  1.00  0.00    -0.248 NA
ATOM     55  C   UNL     1       9.217  10.530 -11.790  1.00  0.00     0.031 C 
ATOM     56  C   UNL     1      11.347  15.037  -8.316  1.00  0.00     0.029 A 
ATOM     57  C   UNL     1      10.860  13.810  -8.738  1.00  0.00     0.049 A 
ATOM     58  H   UNL     1      10.455  12.079  -7.600  1.00  0.00     0.167 HD
ATOM     59  C   UNL     1      10.033  12.171 -10.410  1.00  0.00     0.074 A 
ATOM     60  C   UNL     1       9.665  11.778 -11.755  1.00  0.00     0.031 C 
ATOM     61  C   UNL     1      10.497  13.398 -10.070  1.00  0.00     0.037 A 
BRANCH  48  62
ATOM     62  C   UNL     1      11.621  14.105  -4.033  1.00  0.00     0.064 A 
ATOM     63  C   UNL     1      12.833  13.958  -3.341  1.00  0.00     0.173 A 
ATOM     64  C   UNL     1      10.762  15.142  -3.639  1.00  0.00     0.173 A 
ATOM     65  F   UNL     1      13.682  12.973  -3.670  1.00  0.00    -0.203 F 
ATOM     66  C   UNL     1      13.152  14.789  -2.271  1.00  0.00     0.198 A 
ATOM     67  C   UNL     1      11.098  15.990  -2.588  1.00  0.00     0.198 A 
ATOM     68  F   UNL     1       9.593  15.329  -4.271  1.00  0.00    -0.203 F 
ATOM     69  F   UNL     1      14.286  14.589  -1.585  1.00  0.00    -0.200 F 
ATOM     70  C   UNL     1      12.287  15.806  -1.898  1.00  0.00     0.200 A 
ATOM     71  F   UNL     1      10.266  16.980  -2.235  1.00  0.00    -0.200 F 
ATOM     72  F   UNL     1      12.593  16.603  -0.865  1.00  0.00    -0.200 F 
ENDBRANCH  48  62
BRANCH  49  73
ATOM     73  C   UNL     1       8.425   7.792 -11.071  1.00  0.00     0.064 A 
ATOM     74  C   UNL     1       9.250   7.240 -12.060  1.00  0.00     0.173 A 
ATOM     75  C   UNL     1       7.073   7.418 -11.062  1.00  0.00     0.173 A 
ATOM     76  F   UNL     1      10.545   7.584 -12.118  1.00  0.00    -0.203 F 
ATOM     77  C   UNL     1       8.743   6.351 -13.005  1.00  0.00     0.198 A 
ATOM     78  C   UNL     1       6.572   6.512 -11.994  1.00  0.00     0.198 A 
ATOM     79  F   UNL     1       6.246   7.915 -10.131  1.00  0.00    -0.203 F 
ATOM     80  F   UNL     1       9.548   5.855 -13.954  1.00  0.00    -0.200 F 
ATOM     81  C   UNL     1       7.407   5.982 -12.966  1.00  0.00     0.200 A 
ATOM     82  F   UNL     1       5.284   6.147 -11.945  1.00  0.00    -0.200 F 
ATOM     83  F   UNL     1       6.923   5.115 -13.867  1.00  0.00    -0.200 F 
ENDBRANCH  49  73
BRANCH  61  84
ATOM     84  C   UNL     1      10.669  14.400 -11.172  1.00  0.00     0.064 A 
ATOM     85  C   UNL     1       9.571  15.058 -11.743  1.00  0.00     0.173 A 
ATOM     86  C   UNL     1      11.953  14.753 -11.613  1.00  0.00     0.173 A 
ATOM     87  F   UNL     1       8.323  14.743 -11.364  1.00  0.00    -0.203 F 
ATOM     88  C   UNL     1       9.752  16.029 -12.724  1.00  0.00     0.198 A 
ATOM     89  C   UNL     1      12.132  15.740 -12.577  1.00  0.00     0.198 A 
ATOM     90  F   UNL     1      13.034  14.154 -11.093  1.00  0.00    -0.203 F 
ATOM     91  F   UNL     1       8.688  16.627 -13.278  1.00  0.00    -0.200 F 
ATOM     92  C   UNL     1      11.032  16.375 -13.134  1.00  0.00     0.200 A 
ATOM     93  F   UNL     1      13.369  16.081 -12.964  1.00  0.00    -0.200 F 
ATOM     94  F   UNL     1      11.205  17.320 -14.069  1.00  0.00    -0.200 F 
ENDBRANCH  61  84
ENDBRANCH  35  36
ENDBRANCH  27  30
ENDBRANCH  25  26
ENDBRANCH  24  25
ENDBRANCH   1  24
TORSDOF 15
