REMARK SMILES Cc1ccc(C#N)cc1Nc1cc(C)c(N)c(C(=O)NCCCCNC(=O)c2ccc(-c3c4nc(c(-c5c(F)c(F)c(F)c(F)c5F)c5ccc([nH]5)c(-c5c(F)c(F)c(F)c(F)c5F)c5nc(c(-c6c(F)c(F)c(F)c(F)c6F)c6ccc3[nH]6)C=C5)C=C4)cc2)c1
REMARK SMILES IDX 22 1 21 2 20 3 18 4 19 5 17 7 11 8 12 9 91 10 13 11 14 12
REMARK SMILES IDX 15 13 10 14 9 16 1 17 2 18 3 19 4 20 8 21 5 22 6 23 7 24
REMARK SMILES IDX 16 25 23 28 24 29 25 30 26 31 27 33 28 34 29 35 90 36 30 37
REMARK SMILES IDX 89 38 31 39 32 40 33 41 83 42 34 43 88 44 82 45 84 46 35 47
REMARK SMILES IDX 87 48 81 49 80 50 36 52 68 53 48 54 67 55 49 56 52 57 66 58
REMARK SMILES IDX 85 59 50 60 51 61 65 63 86 64 53 65 37 66 38 67 46 68 39 69
REMARK SMILES IDX 40 70 44 71 47 72 41 73 42 74 45 75 43 76 69 77 70 78 78 79
REMARK SMILES IDX 71 80 72 81 76 82 79 83 73 84 74 85 77 86 75 87 54 88 55 89
REMARK SMILES IDX 63 90 56 91 57 92 61 93 64 94 58 95 59 96 62 97 60 98
REMARK H PARENT 20 6 10 15 16 26 16 27 25 32 84 51 52 62
REMARK Flexibility Score: inf
ROOT
ATOM      1  C   UNL     1      -3.548  -1.680   4.344  1.00  0.00     0.023 C 
ENDROOT
BRANCH   1   2
ATOM      2  C   UNL     1      -3.860  -2.814   3.363  1.00  0.00     0.116 C 
BRANCH   2   3
ATOM      3  N   UNL     1      -5.249  -2.750   2.956  1.00  0.00    -0.352 N 
ATOM      4  C   UNL     1      -5.912  -2.167   1.903  1.00  0.00     0.253 C 
ATOM      5  O   UNL     1      -7.140  -2.299   1.927  1.00  0.00    -0.269 OA
ATOM      6  H   UNL     1      -5.850  -3.231   3.569  1.00  0.00     0.163 HD
BRANCH   4   7
ATOM      7  C   UNL     1      -5.242  -1.475   0.743  1.00  0.00     0.065 A 
ATOM      8  C   UNL     1      -3.209  -0.637  -0.324  1.00  0.00     0.040 A 
ATOM      9  C   UNL     1      -3.913  -0.433  -1.504  1.00  0.00     0.031 A 
ATOM     10  C   UNL     1      -3.906  -1.070   0.802  1.00  0.00     0.042 A 
ATOM     11  C   UNL     1      -5.293  -0.703  -1.580  1.00  0.00    -0.025 A 
ATOM     12  C   UNL     1      -5.974  -0.363  -2.880  1.00  0.00     0.047 C 
ATOM     13  C   UNL     1      -5.959  -1.279  -0.473  1.00  0.00     0.047 A 
BRANCH   8  14
ATOM     14  N   UNL     1      -1.806  -0.537  -0.290  1.00  0.00    -0.355 N 
ATOM     15  H   UNL     1      -1.430   0.365  -0.410  1.00  0.00     0.167 HD
BRANCH  14  16
ATOM     16  C   UNL     1      -0.871  -1.587  -0.103  1.00  0.00     0.043 A 
ATOM     17  C   UNL     1       1.022   0.105   0.102  1.00  0.00     0.046 C 
ATOM     18  C   UNL     1       0.498  -1.305   0.092  1.00  0.00    -0.027 A 
ATOM     19  C   UNL     1       1.410  -2.360   0.292  1.00  0.00     0.007 A 
ATOM     20  C   UNL     1       0.982  -3.686   0.301  1.00  0.00     0.020 A 
ATOM     21  C   UNL     1      -1.285  -2.933  -0.059  1.00  0.00     0.045 A 
ATOM     22  C   UNL     1      -0.368  -3.976   0.125  1.00  0.00     0.054 A 
BRANCH  22  23
ATOM     23  C   UNL     1      -0.815  -5.340   0.118  1.00  0.00     0.099 C 
ATOM     24  N   UNL     1      -1.171  -6.442   0.116  1.00  0.00    -0.192 NA
ENDBRANCH  22  23
ENDBRANCH  14  16
ENDBRANCH   8  14
BRANCH  13  25
ATOM     25  N   UNL     1      -7.327  -1.542  -0.546  1.00  0.00    -0.398 N 
ATOM     26  H   UNL     1      -7.811  -1.403  -1.392  1.00  0.00     0.156 HD
ATOM     27  H   UNL     1      -7.809  -1.868   0.248  1.00  0.00     0.156 HD
ENDBRANCH  13  25
ENDBRANCH   4   7
ENDBRANCH   2   3
ENDBRANCH   1   2
BRANCH   1  28
ATOM     28  C   UNL     1      -4.037  -1.963   5.766  1.00  0.00     0.023 C 
BRANCH  28  29
ATOM     29  C   UNL     1      -3.434  -3.209   6.397  1.00  0.00     0.116 C 
BRANCH  29  30
ATOM     30  N   UNL     1      -1.978  -3.180   6.476  1.00  0.00    -0.352 N 
ATOM     31  C   UNL     1      -1.175  -3.715   7.458  1.00  0.00     0.251 C 
ATOM     32  H   UNL     1      -1.514  -2.723   5.738  1.00  0.00     0.163 HD
ATOM     33  O   UNL     1       0.033  -3.514   7.469  1.00  0.00    -0.269 OA
BRANCH  31  34
ATOM     34  C   UNL     1      -1.820  -4.495   8.534  1.00  0.00     0.039 A 
ATOM     35  C   UNL     1      -2.770  -5.462   8.206  1.00  0.00     0.014 A 
ATOM     36  C   UNL     1      -1.572  -4.165   9.867  1.00  0.00     0.014 A 
ATOM     37  C   UNL     1      -3.626  -5.931   9.191  1.00  0.00     0.010 A 
ATOM     38  C   UNL     1      -2.356  -4.739  10.871  1.00  0.00     0.010 A 
ATOM     39  C   UNL     1      -3.434  -5.575  10.537  1.00  0.00    -0.014 A 
BRANCH  39  40
ATOM     40  C   UNL     1      -4.389  -6.080  11.559  1.00  0.00     0.031 A 
ATOM     41  C   UNL     1      -5.213  -5.128  12.388  1.00  0.00     0.074 A 
ATOM     42  C   UNL     1      -4.563  -7.410  11.690  1.00  0.00     0.049 A 
ATOM     43  N   UNL     1      -6.106  -5.400  13.308  1.00  0.00    -0.248 NA
ATOM     44  C   UNL     1      -5.012  -3.687  12.166  1.00  0.00     0.031 C 
ATOM     45  C   UNL     1      -3.832  -8.431  10.936  1.00  0.00     0.029 A 
ATOM     46  N   UNL     1      -5.421  -8.135  12.479  1.00  0.00    -0.354 N 
ATOM     47  C   UNL     1      -6.552  -4.173  13.783  1.00  0.00     0.074 A 
ATOM     48  C   UNL     1      -5.811  -3.151  13.079  1.00  0.00     0.031 C 
ATOM     49  C   UNL     1      -4.309  -9.641  11.255  1.00  0.00     0.029 A 
ATOM     50  C   UNL     1      -5.317  -9.493  12.297  1.00  0.00     0.049 A 
ATOM     51  H   UNL     1      -6.050  -7.721  13.114  1.00  0.00     0.167 HD
ATOM     52  C   UNL     1      -7.507  -3.925  14.711  1.00  0.00     0.037 A 
ATOM     53  C   UNL     1      -5.941 -10.511  12.919  1.00  0.00     0.037 A 
ATOM     54  C   UNL     1      -8.268  -4.947  15.383  1.00  0.00     0.049 A 
ATOM     55  C   UNL     1      -6.958 -10.203  13.982  1.00  0.00     0.074 A 
ATOM     56  C   UNL     1      -9.287  -4.788  16.307  1.00  0.00     0.029 A 
ATOM     57  N   UNL     1      -8.096  -6.311  15.207  1.00  0.00    -0.354 N 
ATOM     58  N   UNL     1      -7.396  -9.038  14.391  1.00  0.00    -0.248 NA
ATOM     59  C   UNL     1      -7.564 -11.349  14.674  1.00  0.00     0.031 C 
ATOM     60  C   UNL     1      -9.682  -6.054  16.743  1.00  0.00     0.029 A 
ATOM     61  C   UNL     1      -8.962  -7.005  16.038  1.00  0.00     0.049 A 
ATOM     62  H   UNL     1      -7.455  -6.726  14.585  1.00  0.00     0.167 HD
ATOM     63  C   UNL     1      -8.337  -9.309  15.374  1.00  0.00     0.074 A 
ATOM     64  C   UNL     1      -8.429 -10.750  15.480  1.00  0.00     0.031 C 
ATOM     65  C   UNL     1      -9.052  -8.440  16.128  1.00  0.00     0.037 A 
BRANCH  52  66
ATOM     66  C   UNL     1      -7.803  -2.497  15.073  1.00  0.00     0.064 A 
ATOM     67  C   UNL     1      -8.475  -1.637  14.194  1.00  0.00     0.173 A 
ATOM     68  C   UNL     1      -7.517  -2.022  16.364  1.00  0.00     0.173 A 
ATOM     69  F   UNL     1      -8.765  -2.037  12.947  1.00  0.00    -0.203 F 
ATOM     70  C   UNL     1      -8.849  -0.355  14.591  1.00  0.00     0.198 A 
ATOM     71  C   UNL     1      -7.920  -0.752  16.768  1.00  0.00     0.198 A 
ATOM     72  F   UNL     1      -6.883  -2.807  17.248  1.00  0.00    -0.203 F 
ATOM     73  F   UNL     1      -9.472   0.458  13.727  1.00  0.00    -0.200 F 
ATOM     74  C   UNL     1      -8.585   0.080  15.882  1.00  0.00     0.200 A 
ATOM     75  F   UNL     1      -7.683  -0.343  18.022  1.00  0.00    -0.200 F 
ATOM     76  F   UNL     1      -8.975   1.302  16.272  1.00  0.00    -0.200 F 
ENDBRANCH  52  66
BRANCH  53  77
ATOM     77  C   UNL     1      -5.598 -11.914  12.562  1.00  0.00     0.064 A 
ATOM     78  C   UNL     1      -6.541 -12.764  11.968  1.00  0.00     0.173 A 
ATOM     79  C   UNL     1      -4.315 -12.432  12.800  1.00  0.00     0.173 A 
ATOM     80  F   UNL     1      -7.786 -12.324  11.736  1.00  0.00    -0.203 F 
ATOM     81  C   UNL     1      -6.219 -14.080  11.643  1.00  0.00     0.198 A 
ATOM     82  C   UNL     1      -3.983 -13.735  12.438  1.00  0.00     0.198 A 
ATOM     83  F   UNL     1      -3.372 -11.662  13.363  1.00  0.00    -0.203 F 
ATOM     84  F   UNL     1      -7.155 -14.886  11.123  1.00  0.00    -0.200 F 
ATOM     85  C   UNL     1      -4.939 -14.562  11.870  1.00  0.00     0.200 A 
ATOM     86  F   UNL     1      -2.738 -14.187  12.639  1.00  0.00    -0.200 F 
ATOM     87  F   UNL     1      -4.628 -15.824  11.546  1.00  0.00    -0.200 F 
ENDBRANCH  53  77
BRANCH  65  88
ATOM     88  C   UNL     1     -10.012  -9.008  17.133  1.00  0.00     0.064 A 
ATOM     89  C   UNL     1      -9.559  -9.645  18.298  1.00  0.00     0.173 A 
ATOM     90  C   UNL     1     -11.395  -8.828  16.979  1.00  0.00     0.173 A 
ATOM     91  F   UNL     1      -8.247  -9.853  18.488  1.00  0.00    -0.203 F 
ATOM     92  C   UNL     1     -10.456 -10.088  19.266  1.00  0.00     0.198 A 
ATOM     93  C   UNL     1     -12.286  -9.240  17.965  1.00  0.00     0.198 A 
ATOM     94  F   UNL     1     -11.880  -8.217  15.887  1.00  0.00    -0.203 F 
ATOM     95  F   UNL     1     -10.002 -10.723  20.355  1.00  0.00    -0.200 F 
ATOM     96  C   UNL     1     -11.816  -9.873  19.106  1.00  0.00     0.200 A 
ATOM     97  F   UNL     1     -13.598  -9.011  17.819  1.00  0.00    -0.200 F 
ATOM     98  F   UNL     1     -12.675 -10.275  20.052  1.00  0.00    -0.200 F 
ENDBRANCH  65  88
ENDBRANCH  39  40
ENDBRANCH  31  34
ENDBRANCH  29  30
ENDBRANCH  28  29
ENDBRANCH   1  28
TORSDOF 15
