REMARK SMILES Cc1ccc(/[NH+]=C2/S[C@@H](CC(=O)Nc3ccc(C(=O)NCCCCNC(=O)c4ccc(-c5c6nc(c(-c7c(F)c(F)c(F)c(F)c7F)c7ccc([nH]7)c(-c7c(F)c(F)c(F)c(F)c7F)c7nc(c(-c8c(F)c(F)c(F)c(F)c8F)c8ccc5[nH]8)C=C7)C=C6)cc4)cc3)C(=O)N2C)cc1
REMARK SMILES IDX 21 1 20 2 18 3 19 4 17 6 14 7 15 8 92 9 16 10 91 11 13 12
REMARK SMILES IDX 11 13 12 14 10 16 9 17 6 18 7 19 8 21 95 22 93 23 96 24
REMARK SMILES IDX 94 25 5 26 1 27 2 28 3 29 98 30 4 31 97 32 22 33 23 34 24 35
REMARK SMILES IDX 25 36 26 37 27 39 28 40 29 41 90 42 30 43 89 44 31 45 32 46
REMARK SMILES IDX 33 47 83 48 34 49 88 50 82 51 84 52 35 53 87 54 81 55 80 56
REMARK SMILES IDX 36 58 68 59 48 60 67 61 49 62 52 63 66 64 85 65 50 66 51 67
REMARK SMILES IDX 65 69 86 70 53 71 37 72 38 73 46 74 39 75 40 76 44 77 47 78
REMARK SMILES IDX 41 79 42 80 45 81 43 82 69 83 70 84 78 85 71 86 72 87 76 88
REMARK SMILES IDX 79 89 73 90 74 91 77 92 75 93 54 94 55 95 63 96 56 97 57 98
REMARK SMILES IDX 61 99 64 100 58 101 59 102 62 103 60 104
REMARK H PARENT 20 5 13 15 6 20 25 38 84 57 52 68
REMARK Flexibility Score: inf
ROOT
ATOM      1  C   UNL     1      -1.459   2.897   2.449  1.00  0.00     0.116 C 
ENDROOT
BRANCH   1   2
ATOM      2  N   UNL     1      -1.526   4.174   3.154  1.00  0.00    -0.352 N 
ATOM      3  C   UNL     1      -2.410   5.232   3.111  1.00  0.00     0.251 C 
ATOM      4  O   UNL     1      -2.155   6.231   3.782  1.00  0.00    -0.269 OA
ATOM      5  H   UNL     1      -0.789   4.307   3.793  1.00  0.00     0.163 HD
BRANCH   3   6
ATOM      6  C   UNL     1      -3.631   5.236   2.263  1.00  0.00     0.039 A 
ATOM      7  C   UNL     1      -5.817   5.274   0.458  1.00  0.00     0.041 A 
ATOM      8  C   UNL     1      -5.476   4.115   1.149  1.00  0.00     0.027 A 
ATOM      9  C   UNL     1      -5.139   6.456   0.793  1.00  0.00     0.027 A 
ATOM     10  C   UNL     1      -4.413   4.102   2.063  1.00  0.00     0.016 A 
ATOM     11  C   UNL     1      -4.050   6.438   1.680  1.00  0.00     0.016 A 
BRANCH   7  12
ATOM     12  N   UNL     1      -6.771   5.359  -0.574  1.00  0.00    -0.326 N 
ATOM     13  C   UNL     1      -7.390   4.462  -1.397  1.00  0.00     0.226 C 
ATOM     14  O   UNL     1      -8.154   4.919  -2.256  1.00  0.00    -0.275 OA
ATOM     15  H   UNL     1      -7.061   6.285  -0.742  1.00  0.00     0.169 HD
BRANCH  13  16
ATOM     16  C   UNL     1      -7.149   2.965  -1.367  1.00  0.00     0.128 C 
BRANCH  16  17
ATOM     17  C   UNL     1      -5.979   2.525  -2.248  1.00  0.00     0.183 C 
ATOM     18  N   UNL     1      -2.884   0.284  -2.087  1.00  0.00    -0.235 N 
ATOM     19  C   UNL     1      -3.729   1.246  -1.904  1.00  0.00     0.319 C 
ATOM     20  H   UNL     1      -3.300  -0.600  -2.212  1.00  0.00     0.313 HD
ATOM     21  S   UNL     1      -5.444   0.811  -1.935  1.00  0.00    -0.022 SA
ATOM     22  N   UNL     1      -3.636   2.588  -1.675  1.00  0.00    -0.193 N 
ATOM     23  C   UNL     1      -4.720   3.345  -2.079  1.00  0.00     0.324 C 
ATOM     24  C   UNL     1      -2.519   3.328  -1.146  1.00  0.00     0.301 C 
ATOM     25  O   UNL     1      -4.648   4.533  -2.351  1.00  0.00    -0.245 OA
BRANCH  18  26
ATOM     26  C   UNL     1      -1.480   0.271  -2.139  1.00  0.00     0.125 A 
ATOM     27  C   UNL     1       2.808  -0.016  -1.504  1.00  0.00     0.044 C 
ATOM     28  C   UNL     1       1.336   0.069  -1.776  1.00  0.00    -0.051 A 
ATOM     29  C   UNL     1       0.534  -1.067  -1.718  1.00  0.00     0.008 A 
ATOM     30  C   UNL     1       0.745   1.266  -2.174  1.00  0.00     0.008 A 
ATOM     31  C   UNL     1      -0.850  -0.961  -1.920  1.00  0.00     0.052 A 
ATOM     32  C   UNL     1      -0.638   1.341  -2.408  1.00  0.00     0.052 A 
ENDBRANCH  18  26
ENDBRANCH  16  17
ENDBRANCH  13  16
ENDBRANCH   7  12
ENDBRANCH   3   6
ENDBRANCH   1   2
BRANCH   1  33
ATOM     33  C   UNL     1      -0.244   2.761   1.519  1.00  0.00     0.023 C 
BRANCH  33  34
ATOM     34  C   UNL     1       1.110   2.569   2.195  1.00  0.00     0.023 C 
BRANCH  34  35
ATOM     35  C   UNL     1       1.306   1.188   2.816  1.00  0.00     0.116 C 
BRANCH  35  36
ATOM     36  N   UNL     1       2.057   0.232   1.994  1.00  0.00    -0.352 N 
ATOM     37  C   UNL     1       2.582  -1.022   2.310  1.00  0.00     0.251 C 
ATOM     38  H   UNL     1       2.216   0.523   1.067  1.00  0.00     0.163 HD
ATOM     39  O   UNL     1       3.221  -1.672   1.489  1.00  0.00    -0.269 OA
BRANCH  37  40
ATOM     40  C   UNL     1       2.205  -1.671   3.588  1.00  0.00     0.039 A 
ATOM     41  C   UNL     1       1.557  -2.910   3.475  1.00  0.00     0.014 A 
ATOM     42  C   UNL     1       1.990  -0.862   4.685  1.00  0.00     0.014 A 
ATOM     43  C   UNL     1       0.416  -3.129   4.229  1.00  0.00     0.010 A 
ATOM     44  C   UNL     1       0.760  -0.968   5.280  1.00  0.00     0.010 A 
ATOM     45  C   UNL     1      -0.051  -2.072   4.999  1.00  0.00    -0.014 A 
BRANCH  45  46
ATOM     46  C   UNL     1      -1.315  -2.086   5.695  1.00  0.00     0.031 A 
ATOM     47  C   UNL     1      -1.258  -2.551   7.083  1.00  0.00     0.074 A 
ATOM     48  C   UNL     1      -2.459  -1.651   5.129  1.00  0.00     0.049 A 
ATOM     49  N   UNL     1      -2.199  -3.211   7.656  1.00  0.00    -0.248 NA
ATOM     50  C   UNL     1      -0.064  -2.393   7.910  1.00  0.00     0.031 C 
ATOM     51  C   UNL     1      -3.728  -1.365   5.786  1.00  0.00     0.029 A 
ATOM     52  N   UNL     1      -2.749  -1.529   3.768  1.00  0.00    -0.354 N 
ATOM     53  C   UNL     1      -1.889  -3.225   8.994  1.00  0.00     0.074 A 
ATOM     54  C   UNL     1      -0.493  -2.876   9.074  1.00  0.00     0.031 C 
ATOM     55  C   UNL     1      -4.712  -1.402   4.871  1.00  0.00     0.029 A 
ATOM     56  C   UNL     1      -4.127  -1.841   3.621  1.00  0.00     0.049 A 
ATOM     57  H   UNL     1      -2.123  -1.276   3.052  1.00  0.00     0.167 HD
ATOM     58  C   UNL     1      -2.907  -3.295   9.894  1.00  0.00     0.037 A 
ATOM     59  C   UNL     1      -4.541  -2.899   2.853  1.00  0.00     0.037 A 
ATOM     60  C   UNL     1      -4.197  -3.388   9.207  1.00  0.00     0.049 A 
ATOM     61  C   UNL     1      -5.181  -3.994   3.654  1.00  0.00     0.074 A 
ATOM     62  C   UNL     1      -5.167  -2.454   8.875  1.00  0.00     0.029 A 
ATOM     63  N   UNL     1      -4.454  -4.488   8.406  1.00  0.00    -0.354 N 
ATOM     64  N   UNL     1      -5.290  -3.956   4.949  1.00  0.00    -0.248 NA
ATOM     65  C   UNL     1      -5.624  -5.262   3.084  1.00  0.00     0.031 C 
ATOM     66  C   UNL     1      -6.026  -3.026   7.896  1.00  0.00     0.029 A 
ATOM     67  C   UNL     1      -5.587  -4.310   7.635  1.00  0.00     0.049 A 
ATOM     68  H   UNL     1      -3.896  -5.300   8.388  1.00  0.00     0.167 HD
ATOM     69  C   UNL     1      -5.774  -5.147   5.398  1.00  0.00     0.074 A 
ATOM     70  C   UNL     1      -5.924  -5.951   4.197  1.00  0.00     0.031 C 
ATOM     71  C   UNL     1      -5.992  -5.372   6.726  1.00  0.00     0.037 A 
BRANCH  58  72
ATOM     72  C   UNL     1      -2.735  -2.906  11.342  1.00  0.00     0.064 A 
ATOM     73  C   UNL     1      -3.800  -2.317  12.051  1.00  0.00     0.173 A 
ATOM     74  C   UNL     1      -1.538  -3.037  12.074  1.00  0.00     0.173 A 
ATOM     75  F   UNL     1      -5.027  -2.227  11.525  1.00  0.00    -0.203 F 
ATOM     76  C   UNL     1      -3.647  -1.794  13.335  1.00  0.00     0.198 A 
ATOM     77  C   UNL     1      -1.367  -2.462  13.338  1.00  0.00     0.198 A 
ATOM     78  F   UNL     1      -0.514  -3.768  11.615  1.00  0.00    -0.203 F 
ATOM     79  F   UNL     1      -4.700  -1.239  13.951  1.00  0.00    -0.200 F 
ATOM     80  C   UNL     1      -2.421  -1.833  13.965  1.00  0.00     0.200 A 
ATOM     81  F   UNL     1      -0.172  -2.526  13.943  1.00  0.00    -0.200 F 
ATOM     82  F   UNL     1      -2.267  -1.295  15.182  1.00  0.00    -0.200 F 
ENDBRANCH  58  72
BRANCH  59  83
ATOM     83  C   UNL     1      -3.679  -3.115   1.649  1.00  0.00     0.064 A 
ATOM     84  C   UNL     1      -3.461  -1.926   0.936  1.00  0.00     0.173 A 
ATOM     85  C   UNL     1      -2.646  -4.060   1.707  1.00  0.00     0.173 A 
ATOM     86  F   UNL     1      -4.458  -1.037   0.794  1.00  0.00    -0.203 F 
ATOM     87  C   UNL     1      -2.157  -1.489   0.808  1.00  0.00     0.198 A 
ATOM     88  C   UNL     1      -1.356  -3.683   1.366  1.00  0.00     0.198 A 
ATOM     89  F   UNL     1      -2.842  -5.264   2.261  1.00  0.00    -0.203 F 
ATOM     90  F   UNL     1      -1.924  -0.173   0.677  1.00  0.00    -0.200 F 
ATOM     91  C   UNL     1      -1.105  -2.363   1.033  1.00  0.00     0.200 A 
ATOM     92  F   UNL     1      -0.339  -4.541   1.531  1.00  0.00    -0.200 F 
ATOM     93  F   UNL     1       0.151  -1.908   0.998  1.00  0.00    -0.200 F 
ENDBRANCH  59  83
BRANCH  71  94
ATOM     94  C   UNL     1      -6.589  -6.640   7.267  1.00  0.00     0.064 A 
ATOM     95  C   UNL     1      -7.549  -7.384   6.564  1.00  0.00     0.173 A 
ATOM     96  C   UNL     1      -6.276  -7.119   8.558  1.00  0.00     0.173 A 
ATOM     97  F   UNL     1      -8.075  -6.931   5.417  1.00  0.00    -0.203 F 
ATOM     98  C   UNL     1      -8.030  -8.602   7.042  1.00  0.00     0.198 A 
ATOM     99  C   UNL     1      -6.806  -8.301   9.062  1.00  0.00     0.198 A 
ATOM    100  F   UNL     1      -5.442  -6.470   9.380  1.00  0.00    -0.203 F 
ATOM    101  F   UNL     1      -8.868  -9.324   6.286  1.00  0.00    -0.200 F 
ATOM    102  C   UNL     1      -7.652  -9.064   8.287  1.00  0.00     0.200 A 
ATOM    103  F   UNL     1      -6.477  -8.697  10.299  1.00  0.00    -0.200 F 
ATOM    104  F   UNL     1      -8.114 -10.233   8.748  1.00  0.00    -0.200 F 
ENDBRANCH  71  94
ENDBRANCH  45  46
ENDBRANCH  37  40
ENDBRANCH  35  36
ENDBRANCH  34  35
ENDBRANCH  33  34
ENDBRANCH   1  33
TORSDOF 15
