REMARK SMILES COc1ccc(NS(=O)(=O)c2ccc(CCC(=O)NCCCCNC(=O)c3ccc(-c4c5nc(c(-c6c(F)c(F)c(F)c(F)c6F)c6ccc([nH]6)c(-c6c(F)c(F)c(F)c(F)c6F)c6nc(c(-c7c(F)c(F)c(F)c(F)c7F)c7ccc4[nH]7)C=C6)C=C5)cc3)cc2)cn1
REMARK SMILES IDX 17 1 18 2 19 3 16 5 15 6 14 7 11 8 12 9 91 10 13 11 90 12
REMARK SMILES IDX 8 13 9 14 10 15 7 16 6 18 3 19 4 20 93 21 5 22 92 23 2 24
REMARK SMILES IDX 1 25 20 26 21 27 22 28 23 29 24 30 25 31 26 33 27 34 28 35
REMARK SMILES IDX 89 36 29 37 88 38 30 39 31 40 32 41 82 42 33 43 87 44 81 45
REMARK SMILES IDX 83 46 34 47 86 48 80 49 79 50 35 52 67 53 47 54 66 55 48 56
REMARK SMILES IDX 51 57 65 58 84 59 49 60 50 61 64 63 85 64 52 65 36 66 37 67
REMARK SMILES IDX 45 68 38 69 39 70 43 71 46 72 40 73 41 74 44 75 42 76 68 77
REMARK SMILES IDX 69 78 77 79 70 80 71 81 75 82 78 83 72 84 73 85 76 86 74 87
REMARK SMILES IDX 53 88 54 89 62 90 55 91 56 92 60 93 63 94 57 95 58 96 61 97
REMARK SMILES IDX 59 98
REMARK H PARENT 19 4 7 17 24 32 83 51 51 62
REMARK Flexibility Score: inf
ROOT
ATOM      1  C   UNL     1      -5.527   4.645  -2.680  1.00  0.00     0.220 C 
ATOM      2  O   UNL     1      -6.687   4.875  -3.027  1.00  0.00    -0.275 OA
ATOM      3  N   UNL     1      -4.865   5.611  -1.980  1.00  0.00    -0.356 N 
ATOM      4  H   UNL     1      -5.426   6.338  -1.625  1.00  0.00     0.163 HD
ENDROOT
BRANCH   1   5
ATOM      5  C   UNL     1      -4.872   3.308  -2.981  1.00  0.00     0.105 C 
BRANCH   5   6
ATOM      6  C   UNL     1      -4.680   3.054  -4.485  1.00  0.00     0.045 C 
BRANCH   6   7
ATOM      7  C   UNL     1      -3.295   3.436  -4.960  1.00  0.00    -0.047 A 
ATOM      8  C   UNL     1      -0.696   4.380  -5.339  1.00  0.00     0.087 A 
ATOM      9  C   UNL     1      -1.773   5.128  -5.811  1.00  0.00     0.022 A 
ATOM     10  C   UNL     1      -0.898   3.082  -4.866  1.00  0.00     0.022 A 
ATOM     11  C   UNL     1      -3.074   4.640  -5.643  1.00  0.00     0.005 A 
ATOM     12  C   UNL     1      -2.197   2.627  -4.642  1.00  0.00     0.005 A 
BRANCH   8  13
ATOM     13  S   UNL     1       0.926   5.108  -5.213  1.00  0.00     0.261 S 
ATOM     14  O   UNL     1       0.836   6.464  -5.723  1.00  0.00    -0.201 OA
ATOM     15  O   UNL     1       1.882   4.170  -5.751  1.00  0.00    -0.201 OA
BRANCH  13  16
ATOM     16  N   UNL     1       1.154   5.273  -3.522  1.00  0.00    -0.278 N 
ATOM     17  H   UNL     1       1.136   6.155  -3.086  1.00  0.00     0.180 HD
BRANCH  16  18
ATOM     18  C   UNL     1       1.372   4.077  -2.773  1.00  0.00     0.067 A 
ATOM     19  C   UNL     1       1.489   1.610  -1.601  1.00  0.00     0.213 A 
ATOM     20  C   UNL     1       2.567   2.040  -2.359  1.00  0.00     0.070 A 
ATOM     21  N   UNL     1       0.386   2.353  -1.370  1.00  0.00    -0.220 NA
ATOM     22  C   UNL     1       2.520   3.311  -2.929  1.00  0.00     0.034 A 
ATOM     23  C   UNL     1       0.361   3.574  -1.956  1.00  0.00     0.141 A 
BRANCH  19  24
ATOM     24  O   UNL     1       1.478   0.287  -1.225  1.00  0.00    -0.481 OA
ATOM     25  C   UNL     1       1.163   0.130   0.152  1.00  0.00     0.280 C 
ENDBRANCH  19  24
ENDBRANCH  16  18
ENDBRANCH  13  16
ENDBRANCH   8  13
ENDBRANCH   6   7
ENDBRANCH   5   6
ENDBRANCH   1   5
BRANCH   3  26
ATOM     26  C   UNL     1      -3.449   5.715  -1.686  1.00  0.00     0.116 C 
BRANCH  26  27
ATOM     27  C   UNL     1      -2.726   6.372  -2.854  1.00  0.00     0.023 C 
BRANCH  27  28
ATOM     28  C   UNL     1      -2.551   7.878  -2.767  1.00  0.00     0.023 C 
BRANCH  28  29
ATOM     29  C   UNL     1      -1.591   8.333  -1.682  1.00  0.00     0.116 C 
BRANCH  29  30
ATOM     30  N   UNL     1      -0.236   7.822  -1.862  1.00  0.00    -0.352 N 
ATOM     31  C   UNL     1       0.954   8.497  -2.008  1.00  0.00     0.251 C 
ATOM     32  H   UNL     1      -0.162   6.841  -1.883  1.00  0.00     0.163 HD
ATOM     33  O   UNL     1       1.965   7.869  -2.316  1.00  0.00    -0.269 OA
BRANCH  31  34
ATOM     34  C   UNL     1       0.985   9.970  -1.841  1.00  0.00     0.039 A 
ATOM     35  C   UNL     1       1.709  10.753  -2.743  1.00  0.00     0.014 A 
ATOM     36  C   UNL     1       0.233  10.585  -0.839  1.00  0.00     0.014 A 
ATOM     37  C   UNL     1       1.586  12.147  -2.705  1.00  0.00     0.010 A 
ATOM     38  C   UNL     1       0.011  11.956  -0.886  1.00  0.00     0.010 A 
ATOM     39  C   UNL     1       0.688  12.759  -1.816  1.00  0.00    -0.014 A 
BRANCH  39  40
ATOM     40  C   UNL     1       0.440  14.227  -1.809  1.00  0.00     0.031 A 
ATOM     41  C   UNL     1       0.645  15.009  -0.537  1.00  0.00     0.074 A 
ATOM     42  C   UNL     1      -0.073  14.840  -2.894  1.00  0.00     0.049 A 
ATOM     43  N   UNL     1       0.313  16.244  -0.254  1.00  0.00    -0.248 NA
ATOM     44  C   UNL     1       1.255  14.284   0.590  1.00  0.00     0.031 C 
ATOM     45  C   UNL     1      -0.388  14.194  -4.170  1.00  0.00     0.029 A 
ATOM     46  N   UNL     1      -0.439  16.150  -3.091  1.00  0.00    -0.354 N 
ATOM     47  C   UNL     1       0.621  16.418   1.089  1.00  0.00     0.074 A 
ATOM     48  C   UNL     1       1.114  15.151   1.580  1.00  0.00     0.031 C 
ATOM     49  C   UNL     1      -0.866  15.112  -5.025  1.00  0.00     0.029 A 
ATOM     50  C   UNL     1      -0.934  16.404  -4.348  1.00  0.00     0.049 A 
ATOM     51  H   UNL     1      -0.354  16.843  -2.397  1.00  0.00     0.167 HD
ATOM     52  C   UNL     1       0.530  17.541   1.841  1.00  0.00     0.037 A 
ATOM     53  C   UNL     1      -1.394  17.548  -4.891  1.00  0.00     0.037 A 
ATOM     54  C   UNL     1       0.123  18.822   1.331  1.00  0.00     0.049 A 
ATOM     55  C   UNL     1      -1.411  18.802  -4.059  1.00  0.00     0.074 A 
ATOM     56  C   UNL     1       0.085  20.040   1.985  1.00  0.00     0.029 A 
ATOM     57  N   UNL     1      -0.297  19.051   0.029  1.00  0.00    -0.354 N 
ATOM     58  N   UNL     1      -1.068  18.966  -2.804  1.00  0.00    -0.248 NA
ATOM     59  C   UNL     1      -1.873  20.030  -4.719  1.00  0.00     0.031 C 
ATOM     60  C   UNL     1      -0.378  21.005   1.083  1.00  0.00     0.029 A 
ATOM     61  C   UNL     1      -0.596  20.392  -0.140  1.00  0.00     0.049 A 
ATOM     62  H   UNL     1      -0.371  18.362  -0.671  1.00  0.00     0.167 HD
ATOM     63  C   UNL     1      -1.247  20.315  -2.533  1.00  0.00     0.074 A 
ATOM     64  C   UNL     1      -1.718  20.929  -3.757  1.00  0.00     0.031 C 
ATOM     65  C   UNL     1      -1.043  20.985  -1.373  1.00  0.00     0.037 A 
BRANCH  52  66
ATOM     66  C   UNL     1       0.901  17.435   3.292  1.00  0.00     0.064 A 
ATOM     67  C   UNL     1       2.228  17.227   3.700  1.00  0.00     0.173 A 
ATOM     68  C   UNL     1      -0.079  17.558   4.288  1.00  0.00     0.173 A 
ATOM     69  F   UNL     1       3.201  17.089   2.787  1.00  0.00    -0.203 F 
ATOM     70  C   UNL     1       2.553  17.106   5.049  1.00  0.00     0.198 A 
ATOM     71  C   UNL     1       0.255  17.469   5.638  1.00  0.00     0.198 A 
ATOM     72  F   UNL     1      -1.362  17.763   3.954  1.00  0.00    -0.203 F 
ATOM     73  F   UNL     1       3.817  16.844   5.410  1.00  0.00    -0.200 F 
ATOM     74  C   UNL     1       1.568  17.233   6.016  1.00  0.00     0.200 A 
ATOM     75  F   UNL     1      -0.696  17.603   6.572  1.00  0.00    -0.200 F 
ATOM     76  F   UNL     1       1.883  17.116   7.313  1.00  0.00    -0.200 F 
ENDBRANCH  52  66
BRANCH  53  77
ATOM     77  C   UNL     1      -1.836  17.573  -6.309  1.00  0.00     0.064 A 
ATOM     78  C   UNL     1      -1.062  18.216  -7.287  1.00  0.00     0.173 A 
ATOM     79  C   UNL     1      -3.030  16.965  -6.719  1.00  0.00     0.173 A 
ATOM     80  F   UNL     1       0.077  18.831  -6.938  1.00  0.00    -0.203 F 
ATOM     81  C   UNL     1      -1.475  18.265  -8.616  1.00  0.00     0.198 A 
ATOM     82  C   UNL     1      -3.431  16.993  -8.054  1.00  0.00     0.198 A 
ATOM     83  F   UNL     1      -3.804  16.334  -5.824  1.00  0.00    -0.203 F 
ATOM     84  F   UNL     1      -0.737  18.922  -9.521  1.00  0.00    -0.200 F 
ATOM     85  C   UNL     1      -2.656  17.649  -9.000  1.00  0.00     0.200 A 
ATOM     86  F   UNL     1      -4.568  16.388  -8.424  1.00  0.00    -0.200 F 
ATOM     87  F   UNL     1      -3.053  17.694 -10.279  1.00  0.00    -0.200 F 
ENDBRANCH  53  77
BRANCH  65  88
ATOM     88  C   UNL     1      -1.286  22.465  -1.381  1.00  0.00     0.064 A 
ATOM     89  C   UNL     1      -2.583  22.995  -1.386  1.00  0.00     0.173 A 
ATOM     90  C   UNL     1      -0.206  23.359  -1.325  1.00  0.00     0.173 A 
ATOM     91  F   UNL     1      -3.646  22.179  -1.453  1.00  0.00    -0.203 F 
ATOM     92  C   UNL     1      -2.791  24.371  -1.353  1.00  0.00     0.198 A 
ATOM     93  C   UNL     1      -0.418  24.733  -1.267  1.00  0.00     0.198 A 
ATOM     94  F   UNL     1       1.054  22.898  -1.311  1.00  0.00    -0.203 F 
ATOM     95  F   UNL     1      -4.038  24.859  -1.394  1.00  0.00    -0.200 F 
ATOM     96  C   UNL     1      -1.710  25.238  -1.286  1.00  0.00     0.200 A 
ATOM     97  F   UNL     1       0.627  25.568  -1.191  1.00  0.00    -0.200 F 
ATOM     98  F   UNL     1      -1.913  26.561  -1.243  1.00  0.00    -0.200 F 
ENDBRANCH  65  88
ENDBRANCH  39  40
ENDBRANCH  31  34
ENDBRANCH  29  30
ENDBRANCH  28  29
ENDBRANCH  27  28
ENDBRANCH  26  27
ENDBRANCH   3  26
TORSDOF 17
