REMARK SMILES CC[C@@H](NC(=O)[C@H](C)C[NH2+]C)C(=O)NCCCCNC(=O)c1ccc(-c2c3nc(c(-c4c(F)c(F)c(F)c(F)c4F)c4ccc([nH]4)c(-c4c(F)c(F)c(F)c(F)c4F)c4nc(c(-c5c(F)c(F)c(F)c(F)c5F)c5ccc2[nH]5)C=C4)C=C3)cc1
REMARK SMILES IDX 15 1 14 2 12 3 13 4 3 6 2 7 1 8 4 9 5 10 6 12 7 13 8 14 9 15
REMARK SMILES IDX 10 16 11 17 16 20 17 21 18 22 19 23 20 24 21 26 22 27 23 28
REMARK SMILES IDX 84 29 24 30 83 31 25 32 26 33 27 34 77 35 28 36 82 37 76 38
REMARK SMILES IDX 78 39 29 40 81 41 75 42 74 43 30 45 62 46 42 47 61 48 43 49
REMARK SMILES IDX 46 50 60 51 79 52 44 53 45 54 59 56 80 57 47 58 31 59 32 60
REMARK SMILES IDX 40 61 33 62 34 63 38 64 41 65 35 66 36 67 39 68 37 69 63 70
REMARK SMILES IDX 64 71 72 72 65 73 66 74 70 75 73 76 67 77 68 78 71 79 69 80
REMARK SMILES IDX 48 81 49 82 57 83 50 84 51 85 55 86 58 87 52 88 53 89 56 90
REMARK SMILES IDX 54 91
REMARK H PARENT 14 5 4 11 10 18 10 19 19 25 78 44 46 55
REMARK Flexibility Score: inf
ROOT
ATOM      1  C   UNL     1       1.576  -5.988   0.065  1.00  0.00     0.116 C 
ENDROOT
BRANCH   1   2
ATOM      2  N   UNL     1       2.246  -4.865   0.707  1.00  0.00    -0.354 N 
ATOM      3  C   UNL     1       1.849  -3.559   0.805  1.00  0.00     0.242 C 
ATOM      4  O   UNL     1       2.551  -2.793   1.469  1.00  0.00    -0.273 OA
ATOM      5  H   UNL     1       3.109  -5.076   1.131  1.00  0.00     0.163 HD
BRANCH   3   6
ATOM      6  C   UNL     1       0.663  -3.033  -0.029  1.00  0.00     0.171 C 
BRANCH   6   7
ATOM      7  C   UNL     1       1.209  -2.944  -1.479  1.00  0.00     0.031 C 
ATOM      8  C   UNL     1       0.213  -2.638  -2.583  1.00  0.00     0.006 C 
ENDBRANCH   6   7
BRANCH   6   9
ATOM      9  N   UNL     1      -0.549  -3.851   0.111  1.00  0.00    -0.344 N 
ATOM     10  C   UNL     1      -1.413  -4.035   1.150  1.00  0.00     0.229 C 
ATOM     11  H   UNL     1      -0.782  -4.362  -0.698  1.00  0.00     0.164 HD
ATOM     12  O   UNL     1      -2.479  -4.594   0.865  1.00  0.00    -0.275 OA
BRANCH  10  13
ATOM     13  C   UNL     1      -1.106  -3.704   2.618  1.00  0.00     0.130 C 
ATOM     14  C   UNL     1      -0.754  -2.243   2.859  1.00  0.00     0.024 C 
BRANCH  13  15
ATOM     15  C   UNL     1      -0.138  -4.750   3.204  1.00  0.00     0.273 C 
BRANCH  15  16
ATOM     16  N   UNL     1       0.598  -4.369   4.414  1.00  0.00    -0.348 N 
ATOM     17  C   UNL     1       1.747  -5.249   4.619  1.00  0.00     0.330 C 
ATOM     18  H   UNL     1      -0.025  -4.436   5.219  1.00  0.00     0.346 HD
ATOM     19  H   UNL     1       0.933  -3.412   4.305  1.00  0.00     0.346 HD
ENDBRANCH  15  16
ENDBRANCH  13  15
ENDBRANCH  10  13
ENDBRANCH   6   9
ENDBRANCH   3   6
ENDBRANCH   1   2
BRANCH   1  20
ATOM     20  C   UNL     1       2.462  -7.228  -0.002  1.00  0.00     0.023 C 
BRANCH  20  21
ATOM     21  C   UNL     1       2.878  -7.791   1.360  1.00  0.00     0.023 C 
BRANCH  21  22
ATOM     22  C   UNL     1       1.727  -8.237   2.257  1.00  0.00     0.116 C 
BRANCH  22  23
ATOM     23  N   UNL     1       1.054  -9.418   1.748  1.00  0.00    -0.352 N 
ATOM     24  C   UNL     1       0.924 -10.659   2.324  1.00  0.00     0.251 C 
ATOM     25  H   UNL     1       0.630  -9.316   0.866  1.00  0.00     0.163 HD
ATOM     26  O   UNL     1       0.469 -11.594   1.676  1.00  0.00    -0.269 OA
BRANCH  24  27
ATOM     27  C   UNL     1       1.358 -10.878   3.721  1.00  0.00     0.039 A 
ATOM     28  C   UNL     1       2.158 -11.988   4.007  1.00  0.00     0.014 A 
ATOM     29  C   UNL     1       0.962 -10.015   4.748  1.00  0.00     0.014 A 
ATOM     30  C   UNL     1       2.601 -12.206   5.314  1.00  0.00     0.010 A 
ATOM     31  C   UNL     1       1.455 -10.201   6.040  1.00  0.00     0.010 A 
ATOM     32  C   UNL     1       2.274 -11.302   6.337  1.00  0.00    -0.014 A 
BRANCH  32  33
ATOM     33  C   UNL     1       2.767 -11.511   7.724  1.00  0.00     0.031 A 
ATOM     34  C   UNL     1       1.801 -11.826   8.833  1.00  0.00     0.074 A 
ATOM     35  C   UNL     1       4.080 -11.383   7.997  1.00  0.00     0.049 A 
ATOM     36  N   UNL     1       2.034 -12.004  10.110  1.00  0.00    -0.248 NA
ATOM     37  C   UNL     1       0.383 -11.940   8.460  1.00  0.00     0.031 C 
ATOM     38  C   UNL     1       5.117 -11.053   7.019  1.00  0.00     0.029 A 
ATOM     39  N   UNL     1       4.765 -11.507   9.181  1.00  0.00    -0.354 N 
ATOM     40  C   UNL     1       0.795 -12.240  10.691  1.00  0.00     0.074 A 
ATOM     41  C   UNL     1      -0.192 -12.133   9.637  1.00  0.00     0.031 C 
ATOM     42  C   UNL     1       6.308 -11.017   7.639  1.00  0.00     0.029 A 
ATOM     43  C   UNL     1       6.115 -11.284   9.062  1.00  0.00     0.049 A 
ATOM     44  H   UNL     1       4.330 -11.735  10.034  1.00  0.00     0.167 HD
ATOM     45  C   UNL     1       0.507 -12.539  11.980  1.00  0.00     0.037 A 
ATOM     46  C   UNL     1       7.086 -11.284   9.995  1.00  0.00     0.037 A 
ATOM     47  C   UNL     1       1.490 -12.659  13.027  1.00  0.00     0.049 A 
ATOM     48  C   UNL     1       6.737 -11.591  11.427  1.00  0.00     0.074 A 
ATOM     49  C   UNL     1       1.300 -13.009  14.353  1.00  0.00     0.029 A 
ATOM     50  N   UNL     1       2.848 -12.425  12.867  1.00  0.00    -0.354 N 
ATOM     51  N   UNL     1       5.571 -11.877  11.953  1.00  0.00    -0.248 NA
ATOM     52  C   UNL     1       7.843 -11.580  12.396  1.00  0.00     0.031 C 
ATOM     53  C   UNL     1       2.533 -12.933  15.007  1.00  0.00     0.029 A 
ATOM     54  C   UNL     1       3.503 -12.595  14.077  1.00  0.00     0.049 A 
ATOM     55  H   UNL     1       3.282 -12.174  12.020  1.00  0.00     0.167 HD
ATOM     56  C   UNL     1       5.806 -12.112  13.301  1.00  0.00     0.074 A 
ATOM     57  C   UNL     1       7.229 -11.946  13.512  1.00  0.00     0.031 C 
ATOM     58  C   UNL     1       4.921 -12.437  14.276  1.00  0.00     0.037 A 
BRANCH  45  59
ATOM     59  C   UNL     1      -0.936 -12.753  12.337  1.00  0.00     0.064 A 
ATOM     60  C   UNL     1      -1.648 -13.877  11.888  1.00  0.00     0.173 A 
ATOM     61  C   UNL     1      -1.607 -11.842  13.167  1.00  0.00     0.173 A 
ATOM     62  F   UNL     1      -1.056 -14.774  11.085  1.00  0.00    -0.203 F 
ATOM     63  C   UNL     1      -2.985 -14.062  12.230  1.00  0.00     0.198 A 
ATOM     64  C   UNL     1      -2.934 -12.047  13.533  1.00  0.00     0.198 A 
ATOM     65  F   UNL     1      -0.972 -10.755  13.632  1.00  0.00    -0.203 F 
ATOM     66  F   UNL     1      -3.658 -15.116  11.747  1.00  0.00    -0.200 F 
ATOM     67  C   UNL     1      -3.625 -13.152  13.057  1.00  0.00     0.200 A 
ATOM     68  F   UNL     1      -3.547 -11.175  14.346  1.00  0.00    -0.200 F 
ATOM     69  F   UNL     1      -4.910 -13.336  13.391  1.00  0.00    -0.200 F 
ENDBRANCH  45  59
BRANCH  46  70
ATOM     70  C   UNL     1       8.491 -10.999   9.602  1.00  0.00     0.064 A 
ATOM     71  C   UNL     1       9.470 -12.003   9.643  1.00  0.00     0.173 A 
ATOM     72  C   UNL     1       8.887  -9.720   9.186  1.00  0.00     0.173 A 
ATOM     73  F   UNL     1       9.145 -13.237  10.056  1.00  0.00    -0.203 F 
ATOM     74  C   UNL     1      10.793 -11.732   9.303  1.00  0.00     0.198 A 
ATOM     75  C   UNL     1      10.204  -9.458   8.817  1.00  0.00     0.198 A 
ATOM     76  F   UNL     1       7.989  -8.725   9.126  1.00  0.00    -0.203 F 
ATOM     77  F   UNL     1      11.717 -12.698   9.396  1.00  0.00    -0.200 F 
ATOM     78  C   UNL     1      11.158 -10.462   8.884  1.00  0.00     0.200 A 
ATOM     79  F   UNL     1      10.550  -8.233   8.399  1.00  0.00    -0.200 F 
ATOM     80  F   UNL     1      12.430 -10.204   8.551  1.00  0.00    -0.200 F 
ENDBRANCH  46  70
BRANCH  58  81
ATOM     81  C   UNL     1       5.467 -12.679  15.655  1.00  0.00     0.064 A 
ATOM     82  C   UNL     1       5.952 -11.632  16.452  1.00  0.00     0.173 A 
ATOM     83  C   UNL     1       5.463 -13.972  16.201  1.00  0.00     0.173 A 
ATOM     84  F   UNL     1       5.991 -10.380  15.972  1.00  0.00    -0.203 F 
ATOM     85  C   UNL     1       6.436 -11.874  17.735  1.00  0.00     0.198 A 
ATOM     86  C   UNL     1       5.919 -14.206  17.496  1.00  0.00     0.198 A 
ATOM     87  F   UNL     1       5.005 -15.008  15.483  1.00  0.00    -0.203 F 
ATOM     88  F   UNL     1       6.940 -10.866  18.461  1.00  0.00    -0.200 F 
ATOM     89  C   UNL     1       6.412 -13.158  18.259  1.00  0.00     0.200 A 
ATOM     90  F   UNL     1       5.880 -15.445  18.005  1.00  0.00    -0.200 F 
ATOM     91  F   UNL     1       6.870 -13.388  19.497  1.00  0.00    -0.200 F 
ENDBRANCH  58  81
ENDBRANCH  32  33
ENDBRANCH  24  27
ENDBRANCH  22  23
ENDBRANCH  21  22
ENDBRANCH  20  21
ENDBRANCH   1  20
TORSDOF 16
