REMARK SMILES C[C@@H]1[C@@H](C(=O)NCCCCNC(=O)c2ccc(-c3c4nc(c(-c5c(F)c(F)c(F)c(F)c5F)c5ccc([nH]5)c(-c5c(F)c(F)c(F)c(F)c5F)c5nc(c(-c6c(F)c(F)c(F)c(F)c6F)c6ccc3[nH]6)C=C5)C=C4)cc2)CCN1C(=O)N1CCC[C@H]2CCC[C@@H]21
REMARK SMILES IDX 8 1 7 2 6 3 4 4 5 5 3 7 1 8 2 9 79 10 77 11 78 12 80 13
REMARK SMILES IDX 81 14 82 15 83 16 90 17 84 18 86 19 89 20 85 21 87 22 88 23
REMARK SMILES IDX 9 24 10 25 11 26 12 27 13 29 14 30 15 31 76 32 16 33 75 34
REMARK SMILES IDX 17 35 18 36 19 37 69 38 20 39 74 40 68 41 70 42 21 43 73 44
REMARK SMILES IDX 67 45 66 46 22 48 54 49 34 50 53 51 35 52 38 53 52 54 71 55
REMARK SMILES IDX 36 56 37 57 51 59 72 60 39 61 23 62 24 63 32 64 25 65 26 66
REMARK SMILES IDX 30 67 33 68 27 69 28 70 31 71 29 72 55 73 56 74 64 75 57 76
REMARK SMILES IDX 58 77 62 78 65 79 59 80 60 81 63 82 61 83 40 84 41 85 49 86
REMARK SMILES IDX 42 87 43 88 47 89 50 90 44 91 45 92 48 93 46 94
REMARK H PARENT 6 6 11 28 70 47 38 58
REMARK Flexibility Score: inf
ROOT
ATOM      1  C   UNL     1      -2.799   4.314  -1.169  1.00  0.00     0.023 C 
ENDROOT
BRANCH   1   2
ATOM      2  C   UNL     1      -2.461   2.880  -0.783  1.00  0.00     0.116 C 
BRANCH   2   3
ATOM      3  N   UNL     1      -1.761   2.142  -1.817  1.00  0.00    -0.356 N 
ATOM      4  C   UNL     1      -0.795   1.182  -1.676  1.00  0.00     0.225 C 
ATOM      5  O   UNL     1      -0.372   0.640  -2.697  1.00  0.00    -0.275 OA
ATOM      6  H   UNL     1      -2.014   2.360  -2.743  1.00  0.00     0.163 HD
BRANCH   4   7
ATOM      7  C   UNL     1      -0.224   0.911  -0.288  1.00  0.00     0.102 C 
ATOM      8  C   UNL     1       1.915   0.219   0.775  1.00  0.00     0.032 C 
ATOM      9  C   UNL     1       0.878  -0.176  -0.287  1.00  0.00     0.096 C 
ATOM     10  N   UNL     1       0.157  -1.425   0.037  1.00  0.00    -0.321 N 
ATOM     11  C   UNL     1      -1.234   0.355   0.721  1.00  0.00     0.037 C 
ATOM     12  C   UNL     1      -1.188  -1.139   0.489  1.00  0.00     0.122 C 
BRANCH  10  13
ATOM     13  C   UNL     1       0.381  -2.702  -0.457  1.00  0.00     0.320 C 
ATOM     14  O   UNL     1      -0.489  -3.573  -0.413  1.00  0.00    -0.248 OA
BRANCH  13  15
ATOM     15  N   UNL     1       1.566  -2.907  -1.112  1.00  0.00    -0.321 N 
ATOM     16  C   UNL     1       2.846  -2.864  -0.423  1.00  0.00     0.121 C 
ATOM     17  C   UNL     1       1.630  -3.618  -2.375  1.00  0.00     0.090 C 
ATOM     18  C   UNL     1       3.893  -2.141  -1.278  1.00  0.00     0.022 C 
ATOM     19  C   UNL     1       2.534  -2.793  -3.293  1.00  0.00     0.012 C 
ATOM     20  C   UNL     1       0.380  -3.786  -3.230  1.00  0.00     0.025 C 
ATOM     21  C   UNL     1       3.945  -2.694  -2.715  1.00  0.00     0.007 C 
ATOM     22  C   UNL     1       2.381  -3.482  -4.638  1.00  0.00     0.006 C 
ATOM     23  C   UNL     1       0.921  -3.956  -4.657  1.00  0.00     0.002 C 
ENDBRANCH  13  15
ENDBRANCH  10  13
ENDBRANCH   4   7
ENDBRANCH   2   3
ENDBRANCH   1   2
BRANCH   1  24
ATOM     24  C   UNL     1      -3.679   4.475  -2.406  1.00  0.00     0.023 C 
BRANCH  24  25
ATOM     25  C   UNL     1      -4.957   3.646  -2.418  1.00  0.00     0.116 C 
BRANCH  25  26
ATOM     26  N   UNL     1      -5.863   3.974  -1.327  1.00  0.00    -0.352 N 
ATOM     27  C   UNL     1      -7.156   4.443  -1.363  1.00  0.00     0.251 C 
ATOM     28  H   UNL     1      -5.493   3.840  -0.424  1.00  0.00     0.163 HD
ATOM     29  O   UNL     1      -7.710   4.794  -0.329  1.00  0.00    -0.269 OA
BRANCH  27  30
ATOM     30  C   UNL     1      -7.869   4.556  -2.655  1.00  0.00     0.039 A 
ATOM     31  C   UNL     1      -8.601   5.715  -2.923  1.00  0.00     0.014 A 
ATOM     32  C   UNL     1      -7.812   3.531  -3.602  1.00  0.00     0.014 A 
ATOM     33  C   UNL     1      -9.210   5.878  -4.170  1.00  0.00     0.010 A 
ATOM     34  C   UNL     1      -8.336   3.735  -4.874  1.00  0.00     0.010 A 
ATOM     35  C   UNL     1      -9.047   4.907  -5.172  1.00  0.00    -0.014 A 
BRANCH  35  36
ATOM     36  C   UNL     1      -9.623   5.089  -6.530  1.00  0.00     0.031 A 
ATOM     37  C   UNL     1     -10.650   4.119  -7.049  1.00  0.00     0.074 A 
ATOM     38  C   UNL     1      -9.176   6.082  -7.324  1.00  0.00     0.049 A 
ATOM     39  N   UNL     1     -11.214   4.058  -8.229  1.00  0.00    -0.248 NA
ATOM     40  C   UNL     1     -11.079   3.057  -6.126  1.00  0.00     0.031 C 
ATOM     41  C   UNL     1      -8.151   7.061  -6.958  1.00  0.00     0.029 A 
ATOM     42  N   UNL     1      -9.519   6.427  -8.608  1.00  0.00    -0.354 N 
ATOM     43  C   UNL     1     -12.046   2.947  -8.193  1.00  0.00     0.074 A 
ATOM     44  C   UNL     1     -11.866   2.326  -6.900  1.00  0.00     0.031 C 
ATOM     45  C   UNL     1      -7.968   7.910  -7.982  1.00  0.00     0.029 A 
ATOM     46  C   UNL     1      -8.829   7.512  -9.091  1.00  0.00     0.049 A 
ATOM     47  H   UNL     1     -10.196   5.941  -9.133  1.00  0.00     0.167 HD
ATOM     48  C   UNL     1     -12.904   2.499  -9.141  1.00  0.00     0.037 A 
ATOM     49  C   UNL     1      -8.880   8.113 -10.296  1.00  0.00     0.037 A 
ATOM     50  C   UNL     1     -13.095   3.131 -10.421  1.00  0.00     0.049 A 
ATOM     51  C   UNL     1      -9.829   7.586 -11.340  1.00  0.00     0.074 A 
ATOM     52  C   UNL     1     -13.976   2.786 -11.431  1.00  0.00     0.029 A 
ATOM     53  N   UNL     1     -12.389   4.239 -10.867  1.00  0.00    -0.354 N 
ATOM     54  N   UNL     1     -10.660   6.575 -11.271  1.00  0.00    -0.248 NA
ATOM     55  C   UNL     1      -9.853   8.293 -12.628  1.00  0.00     0.031 C 
ATOM     56  C   UNL     1     -13.764   3.650 -12.510  1.00  0.00     0.029 A 
ATOM     57  C   UNL     1     -12.798   4.576 -12.148  1.00  0.00     0.049 A 
ATOM     58  H   UNL     1     -11.698   4.715 -10.351  1.00  0.00     0.167 HD
ATOM     59  C   UNL     1     -11.332   6.547 -12.486  1.00  0.00     0.074 A 
ATOM     60  C   UNL     1     -10.818   7.651 -13.270  1.00  0.00     0.031 C 
ATOM     61  C   UNL     1     -12.289   5.687 -12.912  1.00  0.00     0.037 A 
BRANCH  48  62
ATOM     62  C   UNL     1     -13.700   1.264  -8.828  1.00  0.00     0.064 A 
ATOM     63  C   UNL     1     -14.696   1.259  -7.838  1.00  0.00     0.173 A 
ATOM     64  C   UNL     1     -13.482   0.075  -9.540  1.00  0.00     0.173 A 
ATOM     65  F   UNL     1     -14.939   2.365  -7.118  1.00  0.00    -0.203 F 
ATOM     66  C   UNL     1     -15.415   0.102  -7.548  1.00  0.00     0.198 A 
ATOM     67  C   UNL     1     -14.229  -1.070  -9.273  1.00  0.00     0.198 A 
ATOM     68  F   UNL     1     -12.549   0.024 -10.502  1.00  0.00    -0.203 F 
ATOM     69  F   UNL     1     -16.317   0.107  -6.556  1.00  0.00    -0.200 F 
ATOM     70  C   UNL     1     -15.186  -1.059  -8.270  1.00  0.00     0.200 A 
ATOM     71  F   UNL     1     -14.018  -2.187  -9.983  1.00  0.00    -0.200 F 
ATOM     72  F   UNL     1     -15.883  -2.170  -7.993  1.00  0.00    -0.200 F 
ENDBRANCH  48  62
BRANCH  49  73
ATOM     73  C   UNL     1      -8.027   9.299 -10.573  1.00  0.00     0.064 A 
ATOM     74  C   UNL     1      -8.596  10.570 -10.744  1.00  0.00     0.173 A 
ATOM     75  C   UNL     1      -6.633   9.191 -10.682  1.00  0.00     0.173 A 
ATOM     76  F   UNL     1      -9.927  10.723 -10.669  1.00  0.00    -0.203 F 
ATOM     77  C   UNL     1      -7.807  11.680 -11.036  1.00  0.00     0.198 A 
ATOM     78  C   UNL     1      -5.842  10.307 -10.943  1.00  0.00     0.198 A 
ATOM     79  F   UNL     1      -6.037   8.000 -10.521  1.00  0.00    -0.203 F 
ATOM     80  F   UNL     1      -8.382  12.872 -11.245  1.00  0.00    -0.200 F 
ATOM     81  C   UNL     1      -6.430  11.549 -11.130  1.00  0.00     0.200 A 
ATOM     82  F   UNL     1      -4.510  10.180 -11.016  1.00  0.00    -0.200 F 
ATOM     83  F   UNL     1      -5.670  12.618 -11.408  1.00  0.00    -0.200 F 
ENDBRANCH  49  73
BRANCH  61  84
ATOM     84  C   UNL     1     -12.889   5.936 -14.267  1.00  0.00     0.064 A 
ATOM     85  C   UNL     1     -12.164   5.731 -15.450  1.00  0.00     0.173 A 
ATOM     86  C   UNL     1     -14.226   6.350 -14.381  1.00  0.00     0.173 A 
ATOM     87  F   UNL     1     -10.879   5.349 -15.398  1.00  0.00    -0.203 F 
ATOM     88  C   UNL     1     -12.745   5.962 -16.695  1.00  0.00     0.198 A 
ATOM     89  C   UNL     1     -14.814   6.545 -15.627  1.00  0.00     0.198 A 
ATOM     90  F   UNL     1     -14.968   6.553 -13.282  1.00  0.00    -0.203 F 
ATOM     91  F   UNL     1     -12.017   5.813 -17.810  1.00  0.00    -0.200 F 
ATOM     92  C   UNL     1     -14.071   6.360 -16.783  1.00  0.00     0.200 A 
ATOM     93  F   UNL     1     -16.100   6.913 -15.710  1.00  0.00    -0.200 F 
ATOM     94  F   UNL     1     -14.630   6.573 -17.982  1.00  0.00    -0.200 F 
ENDBRANCH  61  84
ENDBRANCH  35  36
ENDBRANCH  27  30
ENDBRANCH  25  26
ENDBRANCH  24  25
ENDBRANCH   1  24
TORSDOF 13
