REMARK SMILES CC(C)CS(=O)(=O)Cc1c(C(=O)NCCCCNC(=O)c2ccc(-c3c4nc(c(-c5c(F)c(F)c(F)c(F)c5F)c5ccc([nH]5)c(-c5c(F)c(F)c(F)c(F)c5F)c5nc(c(-c6c(F)c(F)c(F)c(F)c6F)c6ccc3[nH]6)C=C5)C=C4)cc2)oc2ccccc12
REMARK SMILES IDX 14 1 13 2 11 3 12 4 10 6 9 7 90 8 84 9 85 10 89 11 86 12
REMARK SMILES IDX 88 13 87 14 8 15 5 16 6 17 7 18 4 19 2 20 1 21 3 22 15 23
REMARK SMILES IDX 16 24 17 25 18 26 19 27 20 29 21 30 22 31 83 32 23 33 82 34
REMARK SMILES IDX 24 35 25 36 26 37 76 38 27 39 81 40 75 41 77 42 28 43 80 44
REMARK SMILES IDX 74 45 73 46 29 48 61 49 41 50 60 51 42 52 45 53 59 54 78 55
REMARK SMILES IDX 43 56 44 57 58 59 79 60 46 61 30 62 31 63 39 64 32 65 33 66
REMARK SMILES IDX 37 67 40 68 34 69 35 70 38 71 36 72 62 73 63 74 71 75 64 76
REMARK SMILES IDX 65 77 69 78 72 79 66 80 67 81 70 82 68 83 47 84 48 85 56 86
REMARK SMILES IDX 49 87 50 88 54 89 57 90 51 91 52 92 55 93 53 94
REMARK H PARENT 13 5 18 28 77 47 45 58
REMARK Flexibility Score: inf
ROOT
ATOM      1  C   UNL     1      -4.294   2.752   1.937  1.00  0.00     0.116 C 
ENDROOT
BRANCH   1   2
ATOM      2  N   UNL     1      -4.072   1.389   1.492  1.00  0.00    -0.349 N 
ATOM      3  C   UNL     1      -3.387   0.862   0.428  1.00  0.00     0.287 C 
ATOM      4  O   UNL     1      -3.544  -0.346   0.245  1.00  0.00    -0.266 OA
ATOM      5  H   UNL     1      -4.497   0.710   2.066  1.00  0.00     0.163 HD
BRANCH   3   6
ATOM      6  C   UNL     1      -2.471   1.642  -0.381  1.00  0.00     0.196 A 
ATOM      7  C   UNL     1      -1.580   1.266  -1.392  1.00  0.00     0.027 A 
ATOM      8  C   UNL     1      -0.947   2.493  -1.819  1.00  0.00     0.025 A 
ATOM      9  O   UNL     1      -2.387   2.987  -0.178  1.00  0.00    -0.451 OA
ATOM     10  C   UNL     1      -1.493   3.503  -1.046  1.00  0.00     0.135 A 
ATOM     11  C   UNL     1      -0.004   2.861  -2.800  1.00  0.00     0.012 A 
ATOM     12  C   UNL     1      -1.182   4.856  -1.159  1.00  0.00     0.048 A 
ATOM     13  C   UNL     1       0.333   4.218  -2.946  1.00  0.00     0.001 A 
ATOM     14  C   UNL     1      -0.249   5.197  -2.139  1.00  0.00     0.004 A 
BRANCH   7  15
ATOM     15  C   UNL     1      -1.386  -0.061  -2.070  1.00  0.00     0.177 C 
BRANCH  15  16
ATOM     16  S   UNL     1      -0.975  -1.570  -1.188  1.00  0.00     0.154 S 
ATOM     17  O   UNL     1       0.225  -2.107  -1.813  1.00  0.00    -0.228 OA
ATOM     18  O   UNL     1      -2.163  -2.407  -1.179  1.00  0.00    -0.228 OA
BRANCH  16  19
ATOM     19  C   UNL     1      -0.569  -1.193   0.520  1.00  0.00     0.140 C 
BRANCH  19  20
ATOM     20  C   UNL     1       0.927  -1.088   0.826  1.00  0.00    -0.002 C 
ATOM     21  C   UNL     1       1.567   0.129   0.160  1.00  0.00     0.008 C 
ATOM     22  C   UNL     1       1.127  -1.009   2.343  1.00  0.00     0.008 C 
ENDBRANCH  19  20
ENDBRANCH  16  19
ENDBRANCH  15  16
ENDBRANCH   7  15
ENDBRANCH   3   6
ENDBRANCH   1   2
BRANCH   1  23
ATOM     23  C   UNL     1      -5.697   3.218   1.553  1.00  0.00     0.023 C 
BRANCH  23  24
ATOM     24  C   UNL     1      -6.827   2.416   2.211  1.00  0.00     0.023 C 
BRANCH  24  25
ATOM     25  C   UNL     1      -6.735   2.287   3.729  1.00  0.00     0.116 C 
BRANCH  25  26
ATOM     26  N   UNL     1      -6.668   3.573   4.401  1.00  0.00    -0.352 N 
ATOM     27  C   UNL     1      -7.238   3.958   5.587  1.00  0.00     0.251 C 
ATOM     28  H   UNL     1      -6.138   4.264   3.941  1.00  0.00     0.163 HD
ATOM     29  O   UNL     1      -7.174   5.129   5.949  1.00  0.00    -0.269 OA
BRANCH  27  30
ATOM     30  C   UNL     1      -7.955   2.969   6.418  1.00  0.00     0.039 A 
ATOM     31  C   UNL     1      -9.196   3.322   6.952  1.00  0.00     0.014 A 
ATOM     32  C   UNL     1      -7.400   1.715   6.691  1.00  0.00     0.014 A 
ATOM     33  C   UNL     1      -9.900   2.405   7.734  1.00  0.00     0.010 A 
ATOM     34  C   UNL     1      -8.130   0.779   7.420  1.00  0.00     0.010 A 
ATOM     35  C   UNL     1      -9.378   1.122   7.962  1.00  0.00    -0.014 A 
BRANCH  35  36
ATOM     36  C   UNL     1     -10.106   0.145   8.807  1.00  0.00     0.031 A 
ATOM     37  C   UNL     1      -9.533  -0.269  10.134  1.00  0.00     0.074 A 
ATOM     38  C   UNL     1     -11.255  -0.400   8.365  1.00  0.00     0.049 A 
ATOM     39  N   UNL     1      -9.990  -1.137  11.001  1.00  0.00    -0.248 NA
ATOM     40  C   UNL     1      -8.261   0.358  10.527  1.00  0.00     0.031 C 
ATOM     41  C   UNL     1     -11.884  -0.115   7.075  1.00  0.00     0.029 A 
ATOM     42  N   UNL     1     -12.093  -1.313   8.952  1.00  0.00    -0.354 N 
ATOM     43  C   UNL     1      -9.055  -1.175  12.026  1.00  0.00     0.074 A 
ATOM     44  C   UNL     1      -7.981  -0.280  11.653  1.00  0.00     0.031 C 
ATOM     45  C   UNL     1     -13.021  -0.823   6.977  1.00  0.00     0.029 A 
ATOM     46  C   UNL     1     -13.188  -1.627   8.184  1.00  0.00     0.049 A 
ATOM     47  H   UNL     1     -11.927  -1.706   9.839  1.00  0.00     0.167 HD
ATOM     48  C   UNL     1      -9.098  -1.874  13.185  1.00  0.00     0.037 A 
ATOM     49  C   UNL     1     -14.211  -2.465   8.434  1.00  0.00     0.037 A 
ATOM     50  C   UNL     1     -10.184  -2.735  13.569  1.00  0.00     0.049 A 
ATOM     51  C   UNL     1     -14.258  -3.197   9.748  1.00  0.00     0.074 A 
ATOM     52  C   UNL     1     -10.346  -3.455  14.740  1.00  0.00     0.029 A 
ATOM     53  N   UNL     1     -11.303  -2.986  12.788  1.00  0.00    -0.354 N 
ATOM     54  N   UNL     1     -13.396  -3.181  10.736  1.00  0.00    -0.248 NA
ATOM     55  C   UNL     1     -15.430  -4.050   9.988  1.00  0.00     0.031 C 
ATOM     56  C   UNL     1     -11.551  -4.162  14.656  1.00  0.00     0.029 A 
ATOM     57  C   UNL     1     -12.159  -3.850  13.451  1.00  0.00     0.049 A 
ATOM     58  H   UNL     1     -11.465  -2.605  11.894  1.00  0.00     0.167 HD
ATOM     59  C   UNL     1     -13.937  -3.989  11.726  1.00  0.00     0.074 A 
ATOM     60  C   UNL     1     -15.205  -4.473  11.223  1.00  0.00     0.031 C 
ATOM     61  C   UNL     1     -13.428  -4.301  12.943  1.00  0.00     0.037 A 
BRANCH  48  62
ATOM     62  C   UNL     1      -7.935  -1.727  14.122  1.00  0.00     0.064 A 
ATOM     63  C   UNL     1      -7.710  -0.537  14.831  1.00  0.00     0.173 A 
ATOM     64  C   UNL     1      -7.047  -2.793  14.329  1.00  0.00     0.173 A 
ATOM     65  F   UNL     1      -8.522   0.516  14.657  1.00  0.00    -0.203 F 
ATOM     66  C   UNL     1      -6.620  -0.409  15.687  1.00  0.00     0.198 A 
ATOM     67  C   UNL     1      -5.974  -2.670  15.208  1.00  0.00     0.198 A 
ATOM     68  F   UNL     1      -7.219  -3.954  13.679  1.00  0.00    -0.203 F 
ATOM     69  F   UNL     1      -6.394   0.755  16.312  1.00  0.00    -0.200 F 
ATOM     70  C   UNL     1      -5.756  -1.477  15.880  1.00  0.00     0.200 A 
ATOM     71  F   UNL     1      -5.146  -3.706  15.401  1.00  0.00    -0.200 F 
ATOM     72  F   UNL     1      -4.708  -1.352  16.706  1.00  0.00    -0.200 F 
ENDBRANCH  48  62
BRANCH  49  73
ATOM     73  C   UNL     1     -15.304  -2.616   7.440  1.00  0.00     0.064 A 
ATOM     74  C   UNL     1     -16.576  -2.080   7.686  1.00  0.00     0.173 A 
ATOM     75  C   UNL     1     -15.104  -3.299   6.232  1.00  0.00     0.173 A 
ATOM     76  F   UNL     1     -16.819  -1.435   8.836  1.00  0.00    -0.203 F 
ATOM     77  C   UNL     1     -17.613  -2.240   6.770  1.00  0.00     0.198 A 
ATOM     78  C   UNL     1     -16.136  -3.437   5.306  1.00  0.00     0.198 A 
ATOM     79  F   UNL     1     -13.903  -3.824   5.948  1.00  0.00    -0.203 F 
ATOM     80  F   UNL     1     -18.831  -1.755   7.049  1.00  0.00    -0.200 F 
ATOM     81  C   UNL     1     -17.391  -2.914   5.579  1.00  0.00     0.200 A 
ATOM     82  F   UNL     1     -15.915  -4.078   4.150  1.00  0.00    -0.200 F 
ATOM     83  F   UNL     1     -18.389  -3.067   4.698  1.00  0.00    -0.200 F 
ENDBRANCH  49  73
BRANCH  61  84
ATOM     84  C   UNL     1     -14.271  -5.162  13.837  1.00  0.00     0.064 A 
ATOM     85  C   UNL     1     -14.444  -6.532  13.593  1.00  0.00     0.173 A 
ATOM     86  C   UNL     1     -14.888  -4.611  14.970  1.00  0.00     0.173 A 
ATOM     87  F   UNL     1     -13.885  -7.101  12.515  1.00  0.00    -0.203 F 
ATOM     88  C   UNL     1     -15.229  -7.313  14.436  1.00  0.00     0.198 A 
ATOM     89  C   UNL     1     -15.650  -5.401  15.825  1.00  0.00     0.198 A 
ATOM     90  F   UNL     1     -14.747  -3.306  15.250  1.00  0.00    -0.203 F 
ATOM     91  F   UNL     1     -15.421  -8.610  14.158  1.00  0.00    -0.200 F 
ATOM     92  C   UNL     1     -15.827  -6.749  15.553  1.00  0.00     0.200 A 
ATOM     93  F   UNL     1     -16.218  -4.856  16.910  1.00  0.00    -0.200 F 
ATOM     94  F   UNL     1     -16.581  -7.504  16.365  1.00  0.00    -0.200 F 
ENDBRANCH  61  84
ENDBRANCH  35  36
ENDBRANCH  27  30
ENDBRANCH  25  26
ENDBRANCH  24  25
ENDBRANCH  23  24
ENDBRANCH   1  23
TORSDOF 15
