REMARK SMILES Cc1ccccc1OC1(C(=O)NCCCCNC(=O)c2ccc(-c3c4nc(c(-c5c(F)c(F)c(F)c(F)c5F)c5ccc([nH]5)c(-c5c(F)c(F)c(F)c(F)c5F)c5nc(c(-c6c(F)c(F)c(F)c(F)c6F)c6ccc3[nH]6)C=C5)C=C4)cc2)CCN(c2ncc(C#N)c(N)n2)CC1
REMARK SMILES IDX 14 1 13 2 12 3 10 4 11 5 9 7 83 8 96 9 84 10 95 11 85 12
REMARK SMILES IDX 8 13 7 14 1 15 2 16 3 17 4 18 6 19 5 20 86 21 87 22 94 23
REMARK SMILES IDX 88 24 92 25 89 26 93 27 90 30 91 31 15 32 16 33 17 34 18 35
REMARK SMILES IDX 19 37 20 38 21 39 82 40 22 41 81 42 23 43 24 44 25 45 75 46
REMARK SMILES IDX 26 47 80 48 74 49 76 50 27 51 79 52 73 53 72 54 28 56 60 57
REMARK SMILES IDX 40 58 59 59 41 60 44 61 58 62 77 63 42 64 43 65 57 67 78 68
REMARK SMILES IDX 45 69 29 70 30 71 38 72 31 73 32 74 36 75 39 76 33 77 34 78
REMARK SMILES IDX 37 79 35 80 61 81 62 82 70 83 63 84 64 85 68 86 71 87 65 88
REMARK SMILES IDX 66 89 69 90 67 91 46 92 47 93 55 94 48 95 49 96 53 97 56 98
REMARK SMILES IDX 50 99 51 100 54 101 52 102
REMARK H PARENT 12 6 93 28 93 29 17 36 76 55 44 66
REMARK Flexibility Score: inf
ROOT
ATOM      1  C   UNL     1       5.952   3.041  -1.445  1.00  0.00     0.023 C 
ENDROOT
BRANCH   1   2
ATOM      2  C   UNL     1       5.240   3.185  -0.097  1.00  0.00     0.116 C 
BRANCH   2   3
ATOM      3  N   UNL     1       3.988   3.929  -0.149  1.00  0.00    -0.353 N 
ATOM      4  C   UNL     1       2.673   3.516  -0.036  1.00  0.00     0.264 C 
ATOM      5  O   UNL     1       1.830   4.418  -0.000  1.00  0.00    -0.270 OA
ATOM      6  H   UNL     1       4.097   4.897  -0.288  1.00  0.00     0.163 HD
BRANCH   4   7
ATOM      7  C   UNL     1       2.282   1.975   0.042  1.00  0.00     0.190 C 
ATOM      8  C   UNL     1       2.777   1.398  -1.282  1.00  0.00     0.080 C 
ATOM      9  C   UNL     1       2.842   1.518   1.392  1.00  0.00     0.080 C 
ATOM     10  C   UNL     1       3.833   0.312  -1.217  1.00  0.00     0.124 C 
ATOM     11  C   UNL     1       3.696   0.271   1.375  1.00  0.00     0.124 C 
ATOM     12  N   UNL     1       4.368   0.022   0.108  1.00  0.00    -0.340 N 
BRANCH   7  13
ATOM     13  O   UNL     1       0.830   1.925   0.083  1.00  0.00    -0.477 OA
BRANCH  13  14
ATOM     14  C   UNL     1      -0.067   0.890   0.046  1.00  0.00     0.123 A 
ATOM     15  C   UNL     1       1.282  -1.344  -0.002  1.00  0.00     0.048 C 
ATOM     16  C   UNL     1       0.053  -0.512   0.011  1.00  0.00    -0.009 A 
ATOM     17  C   UNL     1      -1.105  -1.331  -0.017  1.00  0.00     0.007 A 
ATOM     18  C   UNL     1      -2.380  -0.798  -0.023  1.00  0.00     0.001 A 
ATOM     19  C   UNL     1      -1.382   1.398   0.038  1.00  0.00     0.047 A 
ATOM     20  C   UNL     1      -2.519   0.577   0.001  1.00  0.00     0.004 A 
ENDBRANCH  13  14
ENDBRANCH   7  13
BRANCH  12  21
ATOM     21  C   UNL     1       5.093  -1.166   0.080  1.00  0.00     0.227 A 
ATOM     22  N   UNL     1       6.199  -1.197  -0.671  1.00  0.00    -0.220 NA
ATOM     23  N   UNL     1       4.606  -2.239   0.730  1.00  0.00    -0.195 NA
ATOM     24  C   UNL     1       6.875  -2.358  -0.700  1.00  0.00     0.138 A 
ATOM     25  C   UNL     1       5.276  -3.398   0.646  1.00  0.00     0.147 A 
ATOM     26  C   UNL     1       6.460  -3.497  -0.052  1.00  0.00     0.113 A 
BRANCH  25  27
ATOM     27  N   UNL     1       4.638  -4.484   1.217  1.00  0.00    -0.382 N 
ATOM     28  H   UNL     1       5.064  -5.371   1.197  1.00  0.00     0.158 HD
ATOM     29  H   UNL     1       3.758  -4.369   1.643  1.00  0.00     0.158 HD
ENDBRANCH  25  27
BRANCH  26  30
ATOM     30  C   UNL     1       7.242  -4.686  -0.100  1.00  0.00     0.105 C 
ATOM     31  N   UNL     1       7.897  -5.638  -0.111  1.00  0.00    -0.192 NA
ENDBRANCH  26  30
ENDBRANCH  12  21
ENDBRANCH   4   7
ENDBRANCH   2   3
ENDBRANCH   1   2
BRANCH   1  32
ATOM     32  C   UNL     1       6.665   4.295  -1.921  1.00  0.00     0.023 C 
BRANCH  32  33
ATOM     33  C   UNL     1       7.833   4.705  -1.046  1.00  0.00     0.116 C 
BRANCH  33  34
ATOM     34  N   UNL     1       9.055   3.955  -1.285  1.00  0.00    -0.352 N 
ATOM     35  C   UNL     1      10.363   4.300  -0.989  1.00  0.00     0.251 C 
ATOM     36  H   UNL     1       8.936   3.079  -1.717  1.00  0.00     0.163 HD
ATOM     37  O   UNL     1      11.283   3.708  -1.545  1.00  0.00    -0.269 OA
BRANCH  35  38
ATOM     38  C   UNL     1      10.661   5.197   0.166  1.00  0.00     0.039 A 
ATOM     39  C   UNL     1      11.679   4.729   1.015  1.00  0.00     0.014 A 
ATOM     40  C   UNL     1       9.666   6.013   0.675  1.00  0.00     0.014 A 
ATOM     41  C   UNL     1      11.470   4.737   2.382  1.00  0.00     0.010 A 
ATOM     42  C   UNL     1       9.334   5.828   1.983  1.00  0.00     0.010 A 
ATOM     43  C   UNL     1      10.218   5.138   2.812  1.00  0.00    -0.014 A 
BRANCH  43  44
ATOM     44  C   UNL     1       9.727   5.027   4.159  1.00  0.00     0.031 A 
ATOM     45  C   UNL     1       9.880   6.250   4.959  1.00  0.00     0.074 A 
ATOM     46  C   UNL     1       8.928   3.964   4.400  1.00  0.00     0.049 A 
ATOM     47  N   UNL     1       9.724   6.319   6.224  1.00  0.00    -0.248 NA
ATOM     48  C   UNL     1      10.275   7.537   4.374  1.00  0.00     0.031 C 
ATOM     49  C   UNL     1       7.948   3.744   5.455  1.00  0.00     0.029 A 
ATOM     50  N   UNL     1       8.994   2.718   3.746  1.00  0.00    -0.354 N 
ATOM     51  C   UNL     1       9.601   7.658   6.544  1.00  0.00     0.074 A 
ATOM     52  C   UNL     1      10.111   8.367   5.405  1.00  0.00     0.031 C 
ATOM     53  C   UNL     1       7.777   2.417   5.616  1.00  0.00     0.029 A 
ATOM     54  C   UNL     1       8.744   1.757   4.752  1.00  0.00     0.049 A 
ATOM     55  H   UNL     1       9.176   2.553   2.792  1.00  0.00     0.167 HD
ATOM     56  C   UNL     1       8.894   7.959   7.670  1.00  0.00     0.037 A 
ATOM     57  C   UNL     1       9.784   0.985   5.194  1.00  0.00     0.037 A 
ATOM     58  C   UNL     1       8.562   6.705   8.354  1.00  0.00     0.049 A 
ATOM     59  C   UNL     1      10.165   1.347   6.614  1.00  0.00     0.074 A 
ATOM     60  C   UNL     1       7.423   5.918   8.352  1.00  0.00     0.029 A 
ATOM     61  N   UNL     1       9.605   5.889   8.783  1.00  0.00    -0.354 N 
ATOM     62  N   UNL     1       9.997   2.534   7.139  1.00  0.00    -0.248 NA
ATOM     63  C   UNL     1      10.656   0.369   7.578  1.00  0.00     0.031 C 
ATOM     64  C   UNL     1       7.816   4.591   8.692  1.00  0.00     0.029 A 
ATOM     65  C   UNL     1       9.185   4.579   8.909  1.00  0.00     0.049 A 
ATOM     66  H   UNL     1      10.519   6.204   8.970  1.00  0.00     0.167 HD
ATOM     67  C   UNL     1      10.280   2.482   8.480  1.00  0.00     0.074 A 
ATOM     68  C   UNL     1      10.695   1.108   8.701  1.00  0.00     0.031 C 
ATOM     69  C   UNL     1      10.124   3.547   9.328  1.00  0.00     0.037 A 
BRANCH  56  70
ATOM     70  C   UNL     1       8.261   9.288   8.028  1.00  0.00     0.064 A 
ATOM     71  C   UNL     1       7.305   9.340   9.070  1.00  0.00     0.173 A 
ATOM     72  C   UNL     1       8.476  10.523   7.382  1.00  0.00     0.173 A 
ATOM     73  F   UNL     1       7.024   8.261   9.814  1.00  0.00    -0.203 F 
ATOM     74  C   UNL     1       6.594  10.499   9.393  1.00  0.00     0.198 A 
ATOM     75  C   UNL     1       7.762  11.684   7.705  1.00  0.00     0.198 A 
ATOM     76  F   UNL     1       9.392  10.680   6.426  1.00  0.00    -0.203 F 
ATOM     77  F   UNL     1       5.684  10.467  10.376  1.00  0.00    -0.200 F 
ATOM     78  C   UNL     1       6.816  11.671   8.704  1.00  0.00     0.200 A 
ATOM     79  F   UNL     1       8.005  12.818   7.030  1.00  0.00    -0.200 F 
ATOM     80  F   UNL     1       6.132  12.782   9.008  1.00  0.00    -0.200 F 
ENDBRANCH  56  70
BRANCH  57  81
ATOM     81  C   UNL     1      10.701   0.620   4.065  1.00  0.00     0.064 A 
ATOM     82  C   UNL     1      10.127  -0.109   2.997  1.00  0.00     0.173 A 
ATOM     83  C   UNL     1      11.867   1.343   3.786  1.00  0.00     0.173 A 
ATOM     84  F   UNL     1       9.027  -0.852   3.211  1.00  0.00    -0.203 F 
ATOM     85  C   UNL     1      10.569   0.049   1.685  1.00  0.00     0.198 A 
ATOM     86  C   UNL     1      12.338   1.457   2.471  1.00  0.00     0.198 A 
ATOM     87  F   UNL     1      12.476   2.048   4.749  1.00  0.00    -0.203 F 
ATOM     88  F   UNL     1       9.887  -0.517   0.677  1.00  0.00    -0.200 F 
ATOM     89  C   UNL     1      11.653   0.864   1.419  1.00  0.00     0.200 A 
ATOM     90  F   UNL     1      13.400   2.233   2.209  1.00  0.00    -0.200 F 
ATOM     91  F   UNL     1      12.016   1.105   0.151  1.00  0.00    -0.200 F 
ENDBRANCH  57  81
BRANCH  69  92
ATOM     92  C   UNL     1      10.776   3.685  10.689  1.00  0.00     0.064 A 
ATOM     93  C   UNL     1      11.906   2.957  11.091  1.00  0.00     0.173 A 
ATOM     94  C   UNL     1      10.368   4.704  11.590  1.00  0.00     0.173 A 
ATOM     95  F   UNL     1      12.504   2.078  10.277  1.00  0.00    -0.203 F 
ATOM     96  C   UNL     1      12.512   3.154  12.333  1.00  0.00     0.198 A 
ATOM     97  C   UNL     1      11.039   4.966  12.782  1.00  0.00     0.198 A 
ATOM     98  F   UNL     1       9.326   5.508  11.336  1.00  0.00    -0.203 F 
ATOM     99  F   UNL     1      13.535   2.370  12.699  1.00  0.00    -0.200 F 
ATOM    100  C   UNL     1      12.090   4.167  13.171  1.00  0.00     0.200 A 
ATOM    101  F   UNL     1      10.668   6.009  13.536  1.00  0.00    -0.200 F 
ATOM    102  F   UNL     1      12.709   4.388  14.336  1.00  0.00    -0.200 F 
ENDBRANCH  69  92
ENDBRANCH  43  44
ENDBRANCH  35  38
ENDBRANCH  33  34
ENDBRANCH  32  33
ENDBRANCH   1  32
TORSDOF 16
