REMARK SMILES CCC[C@@H]1C[N@@H+](Cc2cc(OC)c3c(c2)OCO3)C[C@H]1C(=O)NCCCCNC(=O)c1ccc(-c2c3nc(c(-c4c(F)c(F)c(F)c(F)c4F)c4ccc([nH]4)c(-c4c(F)c(F)c(F)c(F)c4F)c4nc(c(-c5c(F)c(F)c(F)c(F)c5F)c5ccc2[nH]5)C=C4)C=C3)cc1
REMARK SMILES IDX 25 1 24 2 23 3 21 4 22 5 20 7 4 8 5 9 6 10 19 11 3 13 2 14
REMARK SMILES IDX 1 15 7 16 8 17 9 18 15 19 10 20 14 21 13 22 16 23 18 24
REMARK SMILES IDX 17 25 11 26 12 27 26 28 27 29 28 30 29 31 30 33 31 34 32 35
REMARK SMILES IDX 93 36 33 37 92 38 34 39 35 40 36 41 86 42 37 43 91 44 85 45
REMARK SMILES IDX 87 46 38 47 90 48 84 49 83 50 39 52 71 53 51 54 70 55 52 56
REMARK SMILES IDX 55 57 69 58 88 59 53 60 54 61 68 63 89 64 56 65 40 66 41 67
REMARK SMILES IDX 49 68 42 69 43 70 47 71 50 72 44 73 45 74 48 75 46 76 72 77
REMARK SMILES IDX 73 78 81 79 74 80 75 81 79 82 82 83 76 84 77 85 80 86 78 87
REMARK SMILES IDX 57 88 58 89 66 90 59 91 60 92 64 93 67 94 61 95 62 96 65 97
REMARK SMILES IDX 63 98
REMARK H PARENT 23 6 6 12 28 32 87 51 55 62
REMARK Flexibility Score: inf
ROOT
ATOM      1  C   UNL     1      -2.112   1.602  -6.145  1.00  0.00     0.023 C 
ENDROOT
BRANCH   1   2
ATOM      2  C   UNL     1      -0.714   2.128  -6.544  1.00  0.00     0.116 C 
BRANCH   2   3
ATOM      3  N   UNL     1       0.057   2.975  -5.603  1.00  0.00    -0.356 N 
ATOM      4  C   UNL     1       1.070   2.882  -4.675  1.00  0.00     0.229 C 
ATOM      5  O   UNL     1       1.543   3.980  -4.338  1.00  0.00    -0.275 OA
ATOM      6  H   UNL     1      -0.256   3.906  -5.661  1.00  0.00     0.163 HD
BRANCH   4   7
ATOM      7  C   UNL     1       1.632   1.607  -3.958  1.00  0.00     0.142 C 
ATOM      8  C   UNL     1       1.343   1.412  -2.414  1.00  0.00     0.062 C 
ATOM      9  C   UNL     1       1.178  -0.101  -2.282  1.00  0.00     0.267 C 
ATOM     10  N   UNL     1       0.500  -0.501  -3.496  1.00  0.00    -0.330 N 
ATOM     11  C   UNL     1       1.163   0.272  -4.548  1.00  0.00     0.276 C 
ATOM     12  H   UNL     1       0.597  -1.486  -3.746  1.00  0.00     0.348 HD
BRANCH   8  13
ATOM     13  C   UNL     1       2.197   1.977  -1.271  1.00  0.00     0.010 C 
BRANCH  13  14
ATOM     14  C   UNL     1       1.481   1.806   0.113  1.00  0.00    -0.003 C 
ATOM     15  C   UNL     1       1.592   0.436   0.786  1.00  0.00     0.004 C 
ENDBRANCH  13  14
ENDBRANCH   8  13
BRANCH  10  16
ATOM     16  C   UNL     1      -0.982  -0.560  -3.386  1.00  0.00     0.299 C 
BRANCH  16  17
ATOM     17  C   UNL     1      -1.824   0.566  -2.761  1.00  0.00     0.014 A 
ATOM     18  C   UNL     1      -1.567   1.905  -3.070  1.00  0.00     0.060 A 
ATOM     19  C   UNL     1      -2.971   0.368  -1.998  1.00  0.00     0.060 A 
ATOM     20  C   UNL     1      -2.229   3.045  -2.622  1.00  0.00     0.165 A 
ATOM     21  C   UNL     1      -3.717   1.493  -1.616  1.00  0.00     0.170 A 
ATOM     22  C   UNL     1      -3.355   2.801  -1.907  1.00  0.00     0.207 A 
ATOM     23  O   UNL     1      -4.907   1.446  -0.948  1.00  0.00    -0.453 OA
ATOM     24  O   UNL     1      -4.250   3.710  -1.446  1.00  0.00    -0.450 OA
ATOM     25  C   UNL     1      -5.295   2.835  -0.990  1.00  0.00     0.468 C 
BRANCH  20  26
ATOM     26  O   UNL     1      -1.635   4.201  -3.006  1.00  0.00    -0.493 OA
ATOM     27  C   UNL     1      -2.432   5.360  -3.154  1.00  0.00     0.278 C 
ENDBRANCH  20  26
ENDBRANCH  16  17
ENDBRANCH  10  16
ENDBRANCH   4   7
ENDBRANCH   2   3
ENDBRANCH   1   2
BRANCH   1  28
ATOM     28  C   UNL     1      -3.192   2.643  -5.827  1.00  0.00     0.023 C 
BRANCH  28  29
ATOM     29  C   UNL     1      -4.271   2.722  -6.894  1.00  0.00     0.116 C 
BRANCH  29  30
ATOM     30  N   UNL     1      -5.121   1.533  -6.941  1.00  0.00    -0.352 N 
ATOM     31  C   UNL     1      -6.466   1.447  -7.238  1.00  0.00     0.251 C 
ATOM     32  H   UNL     1      -4.674   0.681  -6.732  1.00  0.00     0.163 HD
ATOM     33  O   UNL     1      -7.075   0.397  -7.113  1.00  0.00    -0.269 OA
BRANCH  31  34
ATOM     34  C   UNL     1      -7.170   2.671  -7.677  1.00  0.00     0.039 A 
ATOM     35  C   UNL     1      -8.415   2.988  -7.128  1.00  0.00     0.014 A 
ATOM     36  C   UNL     1      -6.556   3.535  -8.583  1.00  0.00     0.014 A 
ATOM     37  C   UNL     1      -9.004   4.216  -7.436  1.00  0.00     0.010 A 
ATOM     38  C   UNL     1      -7.075   4.801  -8.781  1.00  0.00     0.010 A 
ATOM     39  C   UNL     1      -8.316   5.147  -8.232  1.00  0.00    -0.014 A 
BRANCH  39  40
ATOM     40  C   UNL     1      -8.885   6.476  -8.554  1.00  0.00     0.031 A 
ATOM     41  C   UNL     1      -9.120   6.842  -9.995  1.00  0.00     0.074 A 
ATOM     42  C   UNL     1      -9.101   7.367  -7.569  1.00  0.00     0.049 A 
ATOM     43  N   UNL     1      -9.499   7.982 -10.511  1.00  0.00    -0.248 NA
ATOM     44  C   UNL     1      -8.838   5.799 -10.998  1.00  0.00     0.031 C 
ATOM     45  C   UNL     1      -8.834   7.141  -6.147  1.00  0.00     0.029 A 
ATOM     46  N   UNL     1      -9.584   8.650  -7.614  1.00  0.00    -0.354 N 
ATOM     47  C   UNL     1      -9.474   7.796 -11.887  1.00  0.00     0.074 A 
ATOM     48  C   UNL     1      -8.962   6.469 -12.132  1.00  0.00     0.031 C 
ATOM     49  C   UNL     1      -9.189   8.233  -5.452  1.00  0.00     0.029 A 
ATOM     50  C   UNL     1      -9.669   9.250  -6.381  1.00  0.00     0.049 A 
ATOM     51  H   UNL     1      -9.845   9.098  -8.450  1.00  0.00     0.167 HD
ATOM     52  C   UNL     1      -9.884   8.644 -12.859  1.00  0.00     0.037 A 
ATOM     53  C   UNL     1     -10.087  10.486  -6.048  1.00  0.00     0.037 A 
ATOM     54  C   UNL     1     -10.437   9.943 -12.593  1.00  0.00     0.049 A 
ATOM     55  C   UNL     1     -10.561  11.401  -7.144  1.00  0.00     0.074 A 
ATOM     56  C   UNL     1     -10.955  10.861 -13.486  1.00  0.00     0.029 A 
ATOM     57  N   UNL     1     -10.548  10.503 -11.327  1.00  0.00    -0.354 N 
ATOM     58  N   UNL     1     -10.611  11.187  -8.438  1.00  0.00    -0.248 NA
ATOM     59  C   UNL     1     -11.044  12.726  -6.737  1.00  0.00     0.031 C 
ATOM     60  C   UNL     1     -11.338  11.997 -12.766  1.00  0.00     0.029 A 
ATOM     61  C   UNL     1     -11.107  11.766 -11.418  1.00  0.00     0.049 A 
ATOM     62  H   UNL     1     -10.270  10.067 -10.490  1.00  0.00     0.167 HD
ATOM     63  C   UNL     1     -11.146  12.338  -8.997  1.00  0.00     0.074 A 
ATOM     64  C   UNL     1     -11.431  13.238  -7.897  1.00  0.00     0.031 C 
ATOM     65  C   UNL     1     -11.377  12.634 -10.300  1.00  0.00     0.037 A 
BRANCH  52  66
ATOM     66  C   UNL     1      -9.769   8.179 -14.283  1.00  0.00     0.064 A 
ATOM     67  C   UNL     1     -10.549   7.122 -14.779  1.00  0.00     0.173 A 
ATOM     68  C   UNL     1      -8.882   8.807 -15.169  1.00  0.00     0.173 A 
ATOM     69  F   UNL     1     -11.403   6.475 -13.971  1.00  0.00    -0.203 F 
ATOM     70  C   UNL     1     -10.419   6.688 -16.096  1.00  0.00     0.198 A 
ATOM     71  C   UNL     1      -8.779   8.393 -16.496  1.00  0.00     0.198 A 
ATOM     72  F   UNL     1      -8.112   9.822 -14.751  1.00  0.00    -0.203 F 
ATOM     73  F   UNL     1     -11.130   5.636 -16.526  1.00  0.00    -0.200 F 
ATOM     74  C   UNL     1      -9.540   7.329 -16.955  1.00  0.00     0.200 A 
ATOM     75  F   UNL     1      -7.938   9.021 -17.329  1.00  0.00    -0.200 F 
ATOM     76  F   UNL     1      -9.420   6.914 -18.224  1.00  0.00    -0.200 F 
ENDBRANCH  52  66
BRANCH  53  77
ATOM     77  C   UNL     1     -10.102  10.912  -4.623  1.00  0.00     0.064 A 
ATOM     78  C   UNL     1     -11.312  11.135  -3.949  1.00  0.00     0.173 A 
ATOM     79  C   UNL     1      -8.914  11.105  -3.903  1.00  0.00     0.173 A 
ATOM     80  F   UNL     1     -12.476  10.978  -4.596  1.00  0.00    -0.203 F 
ATOM     81  C   UNL     1     -11.332  11.557  -2.621  1.00  0.00     0.198 A 
ATOM     82  C   UNL     1      -8.935  11.497  -2.566  1.00  0.00     0.198 A 
ATOM     83  F   UNL     1      -7.728  10.896  -4.495  1.00  0.00    -0.203 F 
ATOM     84  F   UNL     1     -12.502  11.809  -2.018  1.00  0.00    -0.200 F 
ATOM     85  C   UNL     1     -10.144  11.733  -1.929  1.00  0.00     0.200 A 
ATOM     86  F   UNL     1      -7.785  11.646  -1.895  1.00  0.00    -0.200 F 
ATOM     87  F   UNL     1     -10.163  12.134  -0.650  1.00  0.00    -0.200 F 
ENDBRANCH  53  77
BRANCH  65  88
ATOM     88  C   UNL     1     -11.979  13.975 -10.598  1.00  0.00     0.064 A 
ATOM     89  C   UNL     1     -11.239  15.157 -10.456  1.00  0.00     0.173 A 
ATOM     90  C   UNL     1     -13.295  14.072 -11.075  1.00  0.00     0.173 A 
ATOM     91  F   UNL     1      -9.982  15.115  -9.990  1.00  0.00    -0.203 F 
ATOM     92  C   UNL     1     -11.806  16.393 -10.753  1.00  0.00     0.198 A 
ATOM     93  C   UNL     1     -13.846  15.306 -11.403  1.00  0.00     0.198 A 
ATOM     94  F   UNL     1     -14.040  12.968 -11.237  1.00  0.00    -0.203 F 
ATOM     95  F   UNL     1     -11.099  17.515 -10.560  1.00  0.00    -0.200 F 
ATOM     96  C   UNL     1     -13.105  16.466 -11.234  1.00  0.00     0.200 A 
ATOM     97  F   UNL     1     -15.095  15.373 -11.885  1.00  0.00    -0.200 F 
ATOM     98  F   UNL     1     -13.645  17.656 -11.529  1.00  0.00    -0.200 F 
ENDBRANCH  65  88
ENDBRANCH  39  40
ENDBRANCH  31  34
ENDBRANCH  29  30
ENDBRANCH  28  29
ENDBRANCH   1  28
TORSDOF 16
