REMARK SMILES O=C(COCC(=O)N1CCC([NH+]2CCN(c3ccc(F)cc3)CC2)CC1)NCCCCNC(=O)c1ccc(-c2c3nc(c(-c4c(F)c(F)c(F)c(F)c4F)c4ccc([nH]4)c(-c4c(F)c(F)c(F)c(F)c4F)c4nc(c(-c5c(F)c(F)c(F)c(F)c5F)c5ccc2[nH]5)C=C4)C=C3)cc1
REMARK SMILES IDX 28 1 27 2 1 3 2 4 3 6 4 7 5 8 6 9 7 10 8 11 9 12 26 13 10 14
REMARK SMILES IDX 25 15 11 16 12 17 13 18 24 19 14 21 23 22 15 23 16 24 17 25
REMARK SMILES IDX 22 26 18 27 21 28 19 29 20 30 29 31 30 32 31 33 32 34 33 35
REMARK SMILES IDX 34 37 35 38 36 39 97 40 37 41 96 42 38 43 39 44 40 45 90 46
REMARK SMILES IDX 41 47 95 48 89 49 91 50 42 51 94 52 88 53 87 54 43 56 75 57
REMARK SMILES IDX 55 58 74 59 56 60 59 61 73 62 92 63 57 64 58 65 72 67 93 68
REMARK SMILES IDX 60 69 44 70 45 71 53 72 46 73 47 74 51 75 54 76 48 77 49 78
REMARK SMILES IDX 52 79 50 80 76 81 77 82 85 83 78 84 79 85 83 86 86 87 80 88
REMARK SMILES IDX 81 89 84 90 82 91 61 92 62 93 70 94 63 95 64 96 68 97 71 98
REMARK SMILES IDX 65 99 66 100 69 101 67 102
REMARK H PARENT 27 5 12 20 32 36 91 55 59 66
REMARK Flexibility Score: inf
ROOT
ATOM      1  C   UNL     1       1.980  -1.535   1.919  1.00  0.00     0.116 C 
ENDROOT
BRANCH   1   2
ATOM      2  N   UNL     1       2.613  -0.666   0.951  1.00  0.00    -0.354 N 
ATOM      3  O   UNL     1       0.801  -0.513  -0.461  1.00  0.00    -0.272 OA
ATOM      4  C   UNL     1       1.949  -0.200  -0.165  1.00  0.00     0.246 C 
ATOM      5  H   UNL     1       3.549  -0.398   1.093  1.00  0.00     0.163 HD
BRANCH   4   6
ATOM      6  C   UNL     1       2.802   0.712  -1.054  1.00  0.00     0.260 C 
BRANCH   6   7
ATOM      7  O   UNL     1       3.730   1.548  -0.377  1.00  0.00    -0.362 OA
BRANCH   7   8
ATOM      8  C   UNL     1       3.123   2.606   0.338  1.00  0.00     0.260 C 
BRANCH   8   9
ATOM      9  C   UNL     1       2.314   3.736  -0.341  1.00  0.00     0.248 C 
ATOM     10  O   UNL     1       1.181   4.005   0.067  1.00  0.00    -0.272 OA
ATOM     11  N   UNL     1       2.955   4.522  -1.288  1.00  0.00    -0.340 N 
ATOM     12  C   UNL     1       2.437   5.849  -1.572  1.00  0.00     0.125 C 
ATOM     13  C   UNL     1       3.882   4.022  -2.293  1.00  0.00     0.125 C 
ATOM     14  C   UNL     1       1.694   5.883  -2.900  1.00  0.00     0.086 C 
ATOM     15  C   UNL     1       3.135   3.896  -3.624  1.00  0.00     0.086 C 
ATOM     16  C   UNL     1       2.494   5.243  -4.051  1.00  0.00     0.187 C 
BRANCH  16  17
ATOM     17  N   UNL     1       1.804   5.140  -5.353  1.00  0.00    -0.329 N 
ATOM     18  C   UNL     1       0.745   4.119  -5.501  1.00  0.00     0.284 C 
ATOM     19  C   UNL     1       1.313   6.424  -5.903  1.00  0.00     0.284 C 
ATOM     20  H   UNL     1       2.591   4.806  -5.909  1.00  0.00     0.348 HD
ATOM     21  C   UNL     1      -0.662   4.493  -4.987  1.00  0.00     0.178 C 
ATOM     22  C   UNL     1      -0.104   6.886  -5.473  1.00  0.00     0.178 C 
ATOM     23  N   UNL     1      -1.074   5.787  -5.535  1.00  0.00    -0.360 N 
BRANCH  23  24
ATOM     24  C   UNL     1      -2.418   6.121  -5.558  1.00  0.00     0.037 A 
ATOM     25  C   UNL     1      -2.948   6.723  -6.709  1.00  0.00     0.029 A 
ATOM     26  C   UNL     1      -3.287   5.858  -4.489  1.00  0.00     0.029 A 
ATOM     27  C   UNL     1      -4.306   7.024  -6.809  1.00  0.00     0.041 A 
ATOM     28  C   UNL     1      -4.647   6.173  -4.576  1.00  0.00     0.041 A 
ATOM     29  C   UNL     1      -5.144   6.744  -5.740  1.00  0.00     0.123 A 
ATOM     30  F   UNL     1      -6.450   7.024  -5.835  1.00  0.00    -0.207 F 
ENDBRANCH  23  24
ENDBRANCH  16  17
ENDBRANCH   8   9
ENDBRANCH   7   8
ENDBRANCH   6   7
ENDBRANCH   4   6
ENDBRANCH   1   2
BRANCH   1  31
ATOM     31  C   UNL     1       2.376  -2.999   1.734  1.00  0.00     0.023 C 
BRANCH  31  32
ATOM     32  C   UNL     1       3.867  -3.291   1.916  1.00  0.00     0.023 C 
BRANCH  32  33
ATOM     33  C   UNL     1       4.462  -2.866   3.255  1.00  0.00     0.116 C 
BRANCH  33  34
ATOM     34  N   UNL     1       3.860  -3.549   4.390  1.00  0.00    -0.352 N 
ATOM     35  C   UNL     1       4.460  -4.218   5.428  1.00  0.00     0.251 C 
ATOM     36  H   UNL     1       2.876  -3.528   4.418  1.00  0.00     0.163 HD
ATOM     37  O   UNL     1       3.774  -4.854   6.227  1.00  0.00    -0.269 OA
BRANCH  35  38
ATOM     38  C   UNL     1       5.932  -4.207   5.578  1.00  0.00     0.039 A 
ATOM     39  C   UNL     1       6.586  -5.405   5.880  1.00  0.00     0.014 A 
ATOM     40  C   UNL     1       6.668  -3.029   5.428  1.00  0.00     0.014 A 
ATOM     41  C   UNL     1       7.981  -5.435   5.958  1.00  0.00     0.010 A 
ATOM     42  C   UNL     1       8.061  -3.075   5.430  1.00  0.00     0.010 A 
ATOM     43  C   UNL     1       8.733  -4.279   5.691  1.00  0.00    -0.014 A 
BRANCH  43  44
ATOM     44  C   UNL     1      10.219  -4.317   5.664  1.00  0.00     0.031 A 
ATOM     45  C   UNL     1      11.021  -3.510   6.647  1.00  0.00     0.074 A 
ATOM     46  C   UNL     1      10.850  -5.033   4.712  1.00  0.00     0.049 A 
ATOM     47  N   UNL     1      12.320  -3.366   6.734  1.00  0.00    -0.248 NA
ATOM     48  C   UNL     1      10.265  -2.746   7.652  1.00  0.00     0.031 C 
ATOM     49  C   UNL     1      10.186  -5.829   3.678  1.00  0.00     0.029 A 
ATOM     50  N   UNL     1      12.188  -5.206   4.455  1.00  0.00    -0.354 N 
ATOM     51  C   UNL     1      12.533  -2.493   7.792  1.00  0.00     0.074 A 
ATOM     52  C   UNL     1      11.232  -2.095   8.282  1.00  0.00     0.031 C 
ATOM     53  C   UNL     1      11.117  -6.429   2.920  1.00  0.00     0.029 A 
ATOM     54  C   UNL     1      12.442  -6.026   3.382  1.00  0.00     0.049 A 
ATOM     55  H   UNL     1      12.898  -4.782   4.989  1.00  0.00     0.167 HD
ATOM     56  C   UNL     1      13.710  -2.081   8.321  1.00  0.00     0.037 A 
ATOM     57  C   UNL     1      13.609  -6.407   2.827  1.00  0.00     0.037 A 
ATOM     58  C   UNL     1      15.003  -2.499   7.847  1.00  0.00     0.049 A 
ATOM     59  C   UNL     1      14.902  -5.914   3.417  1.00  0.00     0.074 A 
ATOM     60  C   UNL     1      16.250  -2.179   8.356  1.00  0.00     0.029 A 
ATOM     61  N   UNL     1      15.218  -3.324   6.752  1.00  0.00    -0.354 N 
ATOM     62  N   UNL     1      15.092  -5.132   4.451  1.00  0.00    -0.248 NA
ATOM     63  C   UNL     1      16.143  -6.356   2.765  1.00  0.00     0.031 C 
ATOM     64  C   UNL     1      17.220  -2.760   7.536  1.00  0.00     0.029 A 
ATOM     65  C   UNL     1      16.579  -3.498   6.553  1.00  0.00     0.049 A 
ATOM     66  H   UNL     1      14.510  -3.725   6.199  1.00  0.00     0.167 HD
ATOM     67  C   UNL     1      16.468  -5.009   4.591  1.00  0.00     0.074 A 
ATOM     68  C   UNL     1      17.067  -5.807   3.542  1.00  0.00     0.031 C 
ATOM     69  C   UNL     1      17.167  -4.298   5.509  1.00  0.00     0.037 A 
BRANCH  56  70
ATOM     70  C   UNL     1      13.664  -1.134   9.486  1.00  0.00     0.064 A 
ATOM     71  C   UNL     1      14.143   0.179   9.356  1.00  0.00     0.173 A 
ATOM     72  C   UNL     1      13.221  -1.547  10.752  1.00  0.00     0.173 A 
ATOM     73  F   UNL     1      14.585   0.623   8.170  1.00  0.00    -0.203 F 
ATOM     74  C   UNL     1      14.194   1.036  10.452  1.00  0.00     0.198 A 
ATOM     75  C   UNL     1      13.242  -0.676  11.838  1.00  0.00     0.198 A 
ATOM     76  F   UNL     1      12.744  -2.788  10.929  1.00  0.00    -0.203 F 
ATOM     77  F   UNL     1      14.690   2.273  10.310  1.00  0.00    -0.200 F 
ATOM     78  C   UNL     1      13.739   0.610  11.690  1.00  0.00     0.200 A 
ATOM     79  F   UNL     1      12.779  -1.081  13.029  1.00  0.00    -0.200 F 
ATOM     80  F   UNL     1      13.778   1.440  12.742  1.00  0.00    -0.200 F 
ENDBRANCH  56  70
BRANCH  57  81
ATOM     81  C   UNL     1      13.599  -7.334   1.665  1.00  0.00     0.064 A 
ATOM     82  C   UNL     1      13.114  -6.933   0.411  1.00  0.00     0.173 A 
ATOM     83  C   UNL     1      14.041  -8.657   1.799  1.00  0.00     0.173 A 
ATOM     84  F   UNL     1      12.676  -5.678   0.231  1.00  0.00    -0.203 F 
ATOM     85  C   UNL     1      13.049  -7.827  -0.655  1.00  0.00     0.198 A 
ATOM     86  C   UNL     1      14.002  -9.543   0.724  1.00  0.00     0.198 A 
ATOM     87  F   UNL     1      14.534  -9.082   2.972  1.00  0.00    -0.203 F 
ATOM     88  F   UNL     1      12.543  -7.428  -1.831  1.00  0.00    -0.200 F 
ATOM     89  C   UNL     1      13.496  -9.130  -0.499  1.00  0.00     0.200 A 
ATOM     90  F   UNL     1      14.459 -10.794   0.872  1.00  0.00    -0.200 F 
ATOM     91  F   UNL     1      13.442  -9.987  -1.528  1.00  0.00    -0.200 F 
ENDBRANCH  57  81
BRANCH  69  92
ATOM     92  C   UNL     1      18.667  -4.359   5.450  1.00  0.00     0.064 A 
ATOM     93  C   UNL     1      19.392  -4.993   6.472  1.00  0.00     0.173 A 
ATOM     94  C   UNL     1      19.389  -3.712   4.437  1.00  0.00     0.173 A 
ATOM     95  F   UNL     1      18.749  -5.619   7.469  1.00  0.00    -0.203 F 
ATOM     96  C   UNL     1      20.783  -4.957   6.493  1.00  0.00     0.198 A 
ATOM     97  C   UNL     1      20.782  -3.705   4.444  1.00  0.00     0.198 A 
ATOM     98  F   UNL     1      18.744  -3.102   3.432  1.00  0.00    -0.203 F 
ATOM     99  F   UNL     1      21.452  -5.531   7.503  1.00  0.00    -0.200 F 
ATOM    100  C   UNL     1      21.477  -4.316   5.478  1.00  0.00     0.200 A 
ATOM    101  F   UNL     1      21.452  -3.107   3.450  1.00  0.00    -0.200 F 
ATOM    102  F   UNL     1      22.817  -4.287   5.495  1.00  0.00    -0.200 F 
ENDBRANCH  69  92
ENDBRANCH  43  44
ENDBRANCH  35  38
ENDBRANCH  33  34
ENDBRANCH  32  33
ENDBRANCH  31  32
ENDBRANCH   1  31
TORSDOF 16
