REMARK SMILES COC[C@@H](C)CC(=O)N1[C@@H](C2CC2)SC[C@H]1C(=O)NCCCCNC(=O)c1ccc(-c2c3nc(c(-c4c(F)c(F)c(F)c(F)c4F)c4ccc([nH]4)c(-c4c(F)c(F)c(F)c(F)c4F)c4nc(c(-c5c(F)c(F)c(F)c(F)c5F)c5ccc2[nH]5)C=C4)C=C3)cc1
REMARK SMILES IDX 20 1 19 2 17 3 18 4 16 6 9 7 10 8 14 9 15 10 7 11 8 12 6 13
REMARK SMILES IDX 4 14 5 15 3 16 2 17 1 18 11 19 12 20 13 21 21 22 22 23 23 24
REMARK SMILES IDX 24 25 25 26 26 28 27 29 28 30 89 31 29 32 88 33 30 34 31 35
REMARK SMILES IDX 32 36 82 37 33 38 87 39 81 40 83 41 34 42 86 43 80 44 79 45
REMARK SMILES IDX 35 47 67 48 47 49 66 50 48 51 51 52 65 53 84 54 49 55 50 56
REMARK SMILES IDX 64 58 85 59 52 60 36 61 37 62 45 63 38 64 39 65 43 66 46 67
REMARK SMILES IDX 40 68 41 69 44 70 42 71 68 72 69 73 77 74 70 75 71 76 75 77
REMARK SMILES IDX 78 78 72 79 73 80 76 81 74 82 53 83 54 84 62 85 55 86 56 87
REMARK SMILES IDX 60 88 63 89 57 90 58 91 61 92 59 93
REMARK H PARENT 19 5 24 27 83 46 51 57
REMARK Flexibility Score: inf
ROOT
ATOM      1  C   UNL     1      -1.701   6.309   2.789  1.00  0.00     0.116 C 
ENDROOT
BRANCH   1   2
ATOM      2  N   UNL     1      -1.245   6.340   4.157  1.00  0.00    -0.354 N 
ATOM      3  C   UNL     1      -0.016   6.050   4.668  1.00  0.00     0.243 C 
ATOM      4  O   UNL     1       0.224   6.475   5.806  1.00  0.00    -0.273 OA
ATOM      5  H   UNL     1      -1.921   6.610   4.819  1.00  0.00     0.163 HD
BRANCH   3   6
ATOM      6  C   UNL     1       1.122   5.427   3.830  1.00  0.00     0.185 C 
ATOM      7  N   UNL     1       0.839   4.272   2.959  1.00  0.00    -0.318 N 
ATOM      8  C   UNL     1       1.444   4.333   1.631  1.00  0.00     0.147 C 
ATOM      9  S   UNL     1       2.663   5.651   1.693  1.00  0.00    -0.134 SA
ATOM     10  C   UNL     1       1.810   6.525   3.023  1.00  0.00     0.107 C 
BRANCH   7  11
ATOM     11  C   UNL     1       0.432   3.117   3.604  1.00  0.00     0.224 C 
ATOM     12  O   UNL     1      -0.405   3.157   4.507  1.00  0.00    -0.275 OA
BRANCH  11  13
ATOM     13  C   UNL     1       1.171   1.818   3.326  1.00  0.00     0.106 C 
BRANCH  13  14
ATOM     14  C   UNL     1       0.369   0.749   2.574  1.00  0.00     0.021 C 
ATOM     15  C   UNL     1       0.894  -0.643   2.962  1.00  0.00     0.010 C 
BRANCH  14  16
ATOM     16  C   UNL     1       0.447   0.953   1.054  1.00  0.00     0.163 C 
BRANCH  16  17
ATOM     17  O   UNL     1      -0.069  -0.192   0.383  1.00  0.00    -0.384 OA
ATOM     18  C   UNL     1       0.812  -0.715  -0.602  1.00  0.00     0.194 C 
ENDBRANCH  16  17
ENDBRANCH  14  16
ENDBRANCH  13  14
ENDBRANCH  11  13
ENDBRANCH   7  11
BRANCH   8  19
ATOM     19  C   UNL     1       0.350   4.505   0.604  1.00  0.00     0.022 C 
ATOM     20  C   UNL     1       0.120   5.726  -0.268  1.00  0.00     0.007 C 
ATOM     21  C   UNL     1       0.638   4.457  -0.880  1.00  0.00     0.007 C 
ENDBRANCH   8  19
ENDBRANCH   3   6
ENDBRANCH   1   2
BRANCH   1  22
ATOM     22  C   UNL     1      -2.688   5.179   2.503  1.00  0.00     0.023 C 
BRANCH  22  23
ATOM     23  C   UNL     1      -4.139   5.632   2.351  1.00  0.00     0.023 C 
BRANCH  23  24
ATOM     24  C   UNL     1      -4.401   6.653   1.247  1.00  0.00     0.116 C 
BRANCH  24  25
ATOM     25  N   UNL     1      -4.102   6.196  -0.103  1.00  0.00    -0.352 N 
ATOM     26  C   UNL     1      -4.727   6.562  -1.277  1.00  0.00     0.251 C 
ATOM     27  H   UNL     1      -3.365   5.548  -0.188  1.00  0.00     0.163 HD
ATOM     28  O   UNL     1      -4.383   6.076  -2.350  1.00  0.00    -0.269 OA
BRANCH  26  29
ATOM     29  C   UNL     1      -5.875   7.495  -1.218  1.00  0.00     0.039 A 
ATOM     30  C   UNL     1      -7.088   7.103  -1.789  1.00  0.00     0.014 A 
ATOM     31  C   UNL     1      -5.788   8.692  -0.503  1.00  0.00     0.014 A 
ATOM     32  C   UNL     1      -8.242   7.850  -1.539  1.00  0.00     0.010 A 
ATOM     33  C   UNL     1      -6.952   9.389  -0.187  1.00  0.00     0.010 A 
ATOM     34  C   UNL     1      -8.195   8.961  -0.680  1.00  0.00    -0.014 A 
BRANCH  34  35
ATOM     35  C   UNL     1      -9.438   9.648  -0.238  1.00  0.00     0.031 A 
ATOM     36  C   UNL     1      -9.663  11.100  -0.557  1.00  0.00     0.074 A 
ATOM     37  C   UNL     1     -10.320   8.988   0.540  1.00  0.00     0.049 A 
ATOM     38  N   UNL     1     -10.643  11.886  -0.187  1.00  0.00    -0.248 NA
ATOM     39  C   UNL     1      -8.635  11.767  -1.371  1.00  0.00     0.031 C 
ATOM     40  C   UNL     1     -10.181   7.601   0.992  1.00  0.00     0.029 A 
ATOM     41  N   UNL     1     -11.503   9.399   1.106  1.00  0.00    -0.354 N 
ATOM     42  C   UNL     1     -10.336  13.139  -0.697  1.00  0.00     0.074 A 
ATOM     43  C   UNL     1      -9.060  13.023  -1.369  1.00  0.00     0.031 C 
ATOM     44  C   UNL     1     -11.242   7.273   1.747  1.00  0.00     0.029 A 
ATOM     45  C   UNL     1     -12.121   8.431   1.863  1.00  0.00     0.049 A 
ATOM     46  H   UNL     1     -11.874  10.303   0.981  1.00  0.00     0.167 HD
ATOM     47  C   UNL     1     -11.063  14.280  -0.629  1.00  0.00     0.037 A 
ATOM     48  C   UNL     1     -13.264   8.475   2.575  1.00  0.00     0.037 A 
ATOM     49  C   UNL     1     -12.358  14.383  -0.009  1.00  0.00     0.049 A 
ATOM     50  C   UNL     1     -14.074   9.743   2.590  1.00  0.00     0.074 A 
ATOM     51  C   UNL     1     -13.219  15.466   0.012  1.00  0.00     0.029 A 
ATOM     52  N   UNL     1     -12.977  13.365   0.700  1.00  0.00    -0.354 N 
ATOM     53  N   UNL     1     -13.822  10.892   2.012  1.00  0.00    -0.248 NA
ATOM     54  C   UNL     1     -15.332   9.718   3.350  1.00  0.00     0.031 C 
ATOM     55  C   UNL     1     -14.342  15.118   0.769  1.00  0.00     0.029 A 
ATOM     56  C   UNL     1     -14.199  13.804   1.183  1.00  0.00     0.049 A 
ATOM     57  H   UNL     1     -12.604  12.464   0.839  1.00  0.00     0.167 HD
ATOM     58  C   UNL     1     -14.899  11.714   2.315  1.00  0.00     0.074 A 
ATOM     59  C   UNL     1     -15.816  10.929   3.113  1.00  0.00     0.031 C 
ATOM     60  C   UNL     1     -15.107  13.007   1.965  1.00  0.00     0.037 A 
BRANCH  47  61
ATOM     61  C   UNL     1     -10.487  15.516  -1.253  1.00  0.00     0.064 A 
ATOM     62  C   UNL     1     -10.411  15.670  -2.645  1.00  0.00     0.173 A 
ATOM     63  C   UNL     1     -10.068  16.586  -0.449  1.00  0.00     0.173 A 
ATOM     64  F   UNL     1     -10.790  14.671  -3.456  1.00  0.00    -0.203 F 
ATOM     65  C   UNL     1      -9.918  16.844  -3.209  1.00  0.00     0.198 A 
ATOM     66  C   UNL     1      -9.601  17.768  -1.016  1.00  0.00     0.198 A 
ATOM     67  F   UNL     1     -10.126  16.491   0.888  1.00  0.00    -0.203 F 
ATOM     68  F   UNL     1      -9.821  16.955  -4.541  1.00  0.00    -0.200 F 
ATOM     69  C   UNL     1      -9.522  17.895  -2.395  1.00  0.00     0.200 A 
ATOM     70  F   UNL     1      -9.230  18.788  -0.229  1.00  0.00    -0.200 F 
ATOM     71  F   UNL     1      -9.061  19.029  -2.940  1.00  0.00    -0.200 F 
ENDBRANCH  47  61
BRANCH  48  72
ATOM     72  C   UNL     1     -13.728   7.276   3.322  1.00  0.00     0.064 A 
ATOM     73  C   UNL     1     -14.869   6.570   2.914  1.00  0.00     0.173 A 
ATOM     74  C   UNL     1     -13.062   6.830   4.472  1.00  0.00     0.173 A 
ATOM     75  F   UNL     1     -15.553   6.972   1.833  1.00  0.00    -0.203 F 
ATOM     76  C   UNL     1     -15.344   5.484   3.646  1.00  0.00     0.198 A 
ATOM     77  C   UNL     1     -13.521   5.726   5.188  1.00  0.00     0.198 A 
ATOM     78  F   UNL     1     -11.963   7.467   4.902  1.00  0.00    -0.203 F 
ATOM     79  F   UNL     1     -16.470   4.864   3.266  1.00  0.00    -0.200 F 
ATOM     80  C   UNL     1     -14.668   5.060   4.780  1.00  0.00     0.200 A 
ATOM     81  F   UNL     1     -12.859   5.312   6.276  1.00  0.00    -0.200 F 
ATOM     82  F   UNL     1     -15.128   4.019   5.487  1.00  0.00    -0.200 F 
ENDBRANCH  48  72
BRANCH  60  83
ATOM     83  C   UNL     1     -16.389  13.643   2.414  1.00  0.00     0.064 A 
ATOM     84  C   UNL     1     -16.603  13.997   3.754  1.00  0.00     0.173 A 
ATOM     85  C   UNL     1     -17.399  13.938   1.486  1.00  0.00     0.173 A 
ATOM     86  F   UNL     1     -15.674  13.722   4.682  1.00  0.00    -0.203 F 
ATOM     87  C   UNL     1     -17.792  14.602   4.152  1.00  0.00     0.198 A 
ATOM     88  C   UNL     1     -18.574  14.568   1.883  1.00  0.00     0.198 A 
ATOM     89  F   UNL     1     -17.239  13.624   0.191  1.00  0.00    -0.203 F 
ATOM     90  F   UNL     1     -17.994  14.891   5.445  1.00  0.00    -0.200 F 
ATOM     91  C   UNL     1     -18.773  14.894   3.216  1.00  0.00     0.200 A 
ATOM     92  F   UNL     1     -19.516  14.861   0.975  1.00  0.00    -0.200 F 
ATOM     93  F   UNL     1     -19.914  15.483   3.600  1.00  0.00    -0.200 F 
ENDBRANCH  60  83
ENDBRANCH  34  35
ENDBRANCH  26  29
ENDBRANCH  24  25
ENDBRANCH  23  24
ENDBRANCH  22  23
ENDBRANCH   1  22
TORSDOF 17
