REMARK SMILES O=C(Cc1ccccc1C(=O)NCCCCNC(=O)c1ccc(-c2c3nc(c(-c4c(F)c(F)c(F)c(F)c4F)c4ccc([nH]4)c(-c4c(F)c(F)c(F)c(F)c4F)c4nc(c(-c5c(F)c(F)c(F)c(F)c5F)c5ccc2[nH]5)C=C4)C=C3)cc1)Nc1cccc(OC[C@@H]2CCCO2)c1
REMARK SMILES IDX 10 1 11 2 12 3 9 5 4 6 5 7 6 8 8 9 7 10 3 11 2 12 1 13 83 14
REMARK SMILES IDX 84 16 85 17 96 18 86 19 88 20 87 21 89 22 90 23 91 24 92 25
REMARK SMILES IDX 95 26 93 27 94 28 13 29 14 30 15 31 16 32 17 33 18 34 19 36
REMARK SMILES IDX 20 37 21 38 82 39 22 40 81 41 23 42 24 43 25 44 75 45 26 46
REMARK SMILES IDX 80 47 74 48 76 49 27 50 79 51 73 52 72 53 28 55 60 56 40 57
REMARK SMILES IDX 59 58 41 59 44 60 58 61 77 62 42 63 43 64 57 66 78 67 45 68
REMARK SMILES IDX 29 69 30 70 38 71 31 72 32 73 36 74 39 75 33 76 34 77 37 78
REMARK SMILES IDX 35 79 61 80 62 81 70 82 63 83 64 84 68 85 71 86 65 87 66 88
REMARK SMILES IDX 69 89 67 90 46 91 47 92 55 93 48 94 49 95 53 96 56 97 50 98
REMARK SMILES IDX 51 99 54 100 52 101
REMARK H PARENT 12 4 83 15 17 35 76 54 44 65
REMARK Flexibility Score: inf
ROOT
ATOM      1  C   UNL     1       5.468  -0.244  -0.316  1.00  0.00     0.251 C 
ATOM      2  O   UNL     1       6.174   0.196  -1.227  1.00  0.00    -0.269 OA
ATOM      3  N   UNL     1       5.034   0.652   0.631  1.00  0.00    -0.352 N 
ATOM      4  H   UNL     1       5.428   1.551   0.553  1.00  0.00     0.163 HD
ENDROOT
BRANCH   1   5
ATOM      5  C   UNL     1       5.184  -1.716  -0.317  1.00  0.00     0.043 A 
ATOM      6  C   UNL     1       3.951  -2.377  -0.157  1.00  0.00    -0.026 A 
ATOM      7  C   UNL     1       3.932  -3.797  -0.214  1.00  0.00     0.005 A 
ATOM      8  C   UNL     1       5.061  -4.546  -0.520  1.00  0.00     0.000 A 
ATOM      9  C   UNL     1       6.312  -2.500  -0.661  1.00  0.00     0.014 A 
ATOM     10  C   UNL     1       6.252  -3.893  -0.769  1.00  0.00     0.001 A 
BRANCH   6  11
ATOM     11  C   UNL     1       2.607  -1.780   0.140  1.00  0.00     0.136 C 
BRANCH  11  12
ATOM     12  C   UNL     1       2.056  -0.588  -0.587  1.00  0.00     0.228 C 
ATOM     13  O   UNL     1       0.980  -0.168  -0.157  1.00  0.00    -0.274 OA
ATOM     14  N   UNL     1       2.727  -0.058  -1.664  1.00  0.00    -0.326 N 
ATOM     15  H   UNL     1       3.547  -0.514  -1.964  1.00  0.00     0.169 HD
BRANCH  14  16
ATOM     16  C   UNL     1       2.317   1.101  -2.371  1.00  0.00     0.044 A 
ATOM     17  C   UNL     1       2.819   1.305  -3.657  1.00  0.00     0.026 A 
ATOM     18  C   UNL     1       1.374   2.001  -1.858  1.00  0.00     0.072 A 
ATOM     19  C   UNL     1       2.280   2.315  -4.457  1.00  0.00     0.006 A 
ATOM     20  C   UNL     1       0.762   2.946  -2.675  1.00  0.00     0.121 A 
ATOM     21  C   UNL     1       1.230   3.103  -3.979  1.00  0.00     0.046 A 
BRANCH  20  22
ATOM     22  O   UNL     1      -0.330   3.698  -2.350  1.00  0.00    -0.491 OA
BRANCH  22  23
ATOM     23  C   UNL     1      -0.840   3.713  -1.011  1.00  0.00     0.261 C 
BRANCH  23  24
ATOM     24  C   UNL     1      -1.955   2.700  -0.694  1.00  0.00     0.156 C 
ATOM     25  C   UNL     1      -1.543   1.247  -0.596  1.00  0.00     0.038 C 
ATOM     26  O   UNL     1      -3.037   2.733  -1.646  1.00  0.00    -0.375 OA
ATOM     27  C   UNL     1      -2.849   0.527  -0.775  1.00  0.00     0.031 C 
ATOM     28  C   UNL     1      -3.499   1.383  -1.841  1.00  0.00     0.161 C 
ENDBRANCH  23  24
ENDBRANCH  22  23
ENDBRANCH  20  22
ENDBRANCH  14  16
ENDBRANCH  11  12
ENDBRANCH   6  11
ENDBRANCH   1   5
BRANCH   3  29
ATOM     29  C   UNL     1       4.101   0.502   1.721  1.00  0.00     0.116 C 
BRANCH  29  30
ATOM     30  C   UNL     1       4.341   1.384   2.939  1.00  0.00     0.023 C 
BRANCH  30  31
ATOM     31  C   UNL     1       4.233   2.898   2.758  1.00  0.00     0.023 C 
BRANCH  31  32
ATOM     32  C   UNL     1       3.025   3.451   2.005  1.00  0.00     0.116 C 
BRANCH  32  33
ATOM     33  N   UNL     1       1.729   3.069   2.547  1.00  0.00    -0.352 N 
ATOM     34  C   UNL     1       0.638   3.849   2.876  1.00  0.00     0.251 C 
ATOM     35  H   UNL     1       1.612   2.104   2.704  1.00  0.00     0.163 HD
ATOM     36  O   UNL     1      -0.376   3.337   3.319  1.00  0.00    -0.269 OA
BRANCH  34  37
ATOM     37  C   UNL     1       0.706   5.323   2.728  1.00  0.00     0.039 A 
ATOM     38  C   UNL     1       0.313   6.126   3.805  1.00  0.00     0.014 A 
ATOM     39  C   UNL     1       1.173   5.912   1.553  1.00  0.00     0.014 A 
ATOM     40  C   UNL     1       0.497   7.511   3.744  1.00  0.00     0.010 A 
ATOM     41  C   UNL     1       1.414   7.282   1.514  1.00  0.00     0.010 A 
ATOM     42  C   UNL     1       1.099   8.091   2.617  1.00  0.00    -0.014 A 
BRANCH  42  43
ATOM     43  C   UNL     1       1.457   9.532   2.575  1.00  0.00     0.031 A 
ATOM     44  C   UNL     1       0.799  10.445   1.581  1.00  0.00     0.074 A 
ATOM     45  C   UNL     1       2.459   9.986   3.353  1.00  0.00     0.049 A 
ATOM     46  N   UNL     1       1.058  11.699   1.311  1.00  0.00    -0.248 NA
ATOM     47  C   UNL     1      -0.271   9.860   0.759  1.00  0.00     0.031 C 
ATOM     48  C   UNL     1       3.219   9.180   4.310  1.00  0.00     0.029 A 
ATOM     49  N   UNL     1       3.031  11.231   3.442  1.00  0.00    -0.354 N 
ATOM     50  C   UNL     1       0.197  12.047   0.279  1.00  0.00     0.074 A 
ATOM     51  C   UNL     1      -0.557  10.860  -0.062  1.00  0.00     0.031 C 
ATOM     52  C   UNL     1       4.150   9.951   4.895  1.00  0.00     0.029 A 
ATOM     53  C   UNL     1       4.074  11.296   4.333  1.00  0.00     0.049 A 
ATOM     54  H   UNL     1       2.721  12.005   2.917  1.00  0.00     0.167 HD
ATOM     55  C   UNL     1       0.036  13.254  -0.315  1.00  0.00     0.037 A 
ATOM     56  C   UNL     1       4.884  12.323   4.653  1.00  0.00     0.037 A 
ATOM     57  C   UNL     1       0.774  14.437   0.043  1.00  0.00     0.049 A 
ATOM     58  C   UNL     1       4.676  13.656   3.987  1.00  0.00     0.074 A 
ATOM     59  C   UNL     1       0.636  15.723  -0.450  1.00  0.00     0.029 A 
ATOM     60  N   UNL     1       1.794  14.475   0.983  1.00  0.00    -0.354 N 
ATOM     61  N   UNL     1       3.803  13.996   3.071  1.00  0.00    -0.248 NA
ATOM     62  C   UNL     1       5.562  14.752   4.407  1.00  0.00     0.031 C 
ATOM     63  C   UNL     1       1.598  16.532   0.165  1.00  0.00     0.029 A 
ATOM     64  C   UNL     1       2.306  15.760   1.072  1.00  0.00     0.049 A 
ATOM     65  H   UNL     1       2.107  13.704   1.509  1.00  0.00     0.167 HD
ATOM     66  C   UNL     1       4.013  15.345   2.825  1.00  0.00     0.074 A 
ATOM     67  C   UNL     1       5.089  15.767   3.698  1.00  0.00     0.031 C 
ATOM     68  C   UNL     1       3.371  16.162   1.954  1.00  0.00     0.037 A 
BRANCH  55  69
ATOM     69  C   UNL     1      -0.987  13.356  -1.408  1.00  0.00     0.064 A 
ATOM     70  C   UNL     1      -2.361  13.283  -1.134  1.00  0.00     0.173 A 
ATOM     71  C   UNL     1      -0.593  13.563  -2.739  1.00  0.00     0.173 A 
ATOM     72  F   UNL     1      -2.789  13.077   0.121  1.00  0.00    -0.203 F 
ATOM     73  C   UNL     1      -3.302  13.384  -2.155  1.00  0.00     0.198 A 
ATOM     74  C   UNL     1      -1.538  13.692  -3.753  1.00  0.00     0.198 A 
ATOM     75  F   UNL     1       0.708  13.647  -3.055  1.00  0.00    -0.203 F 
ATOM     76  F   UNL     1      -4.607  13.265  -1.875  1.00  0.00    -0.200 F 
ATOM     77  C   UNL     1      -2.891  13.595  -3.462  1.00  0.00     0.200 A 
ATOM     78  F   UNL     1      -1.140  13.910  -5.014  1.00  0.00    -0.200 F 
ATOM     79  F   UNL     1      -3.798  13.700  -4.443  1.00  0.00    -0.200 F 
ENDBRANCH  55  69
BRANCH  56  80
ATOM     80  C   UNL     1       5.944  12.142   5.678  1.00  0.00     0.064 A 
ATOM     81  C   UNL     1       5.832  12.747   6.938  1.00  0.00     0.173 A 
ATOM     82  C   UNL     1       7.087  11.370   5.424  1.00  0.00     0.173 A 
ATOM     83  F   UNL     1       4.767  13.511   7.220  1.00  0.00    -0.203 F 
ATOM     84  C   UNL     1       6.831  12.602   7.899  1.00  0.00     0.198 A 
ATOM     85  C   UNL     1       8.074  11.205   6.395  1.00  0.00     0.198 A 
ATOM     86  F   UNL     1       7.240  10.767   4.237  1.00  0.00    -0.203 F 
ATOM     87  F   UNL     1       6.718  13.226   9.079  1.00  0.00    -0.200 F 
ATOM     88  C   UNL     1       7.949  11.828   7.628  1.00  0.00     0.200 A 
ATOM     89  F   UNL     1       9.146  10.446   6.135  1.00  0.00    -0.200 F 
ATOM     90  F   UNL     1       8.908  11.687   8.553  1.00  0.00    -0.200 F 
ENDBRANCH  56  80
BRANCH  68  91
ATOM     91  C   UNL     1       3.793  17.602   1.927  1.00  0.00     0.064 A 
ATOM     92  C   UNL     1       5.011  18.000   1.358  1.00  0.00     0.173 A 
ATOM     93  C   UNL     1       2.949  18.598   2.441  1.00  0.00     0.173 A 
ATOM     94  F   UNL     1       5.860  17.083   0.869  1.00  0.00    -0.203 F 
ATOM     95  C   UNL     1       5.379  19.342   1.325  1.00  0.00     0.198 A 
ATOM     96  C   UNL     1       3.308  19.941   2.381  1.00  0.00     0.198 A 
ATOM     97  F   UNL     1       1.771  18.268   2.991  1.00  0.00    -0.203 F 
ATOM     98  F   UNL     1       6.567  19.697   0.817  1.00  0.00    -0.200 F 
ATOM     99  C   UNL     1       4.524  20.312   1.830  1.00  0.00     0.200 A 
ATOM    100  F   UNL     1       2.476  20.877   2.859  1.00  0.00    -0.200 F 
ATOM    101  F   UNL     1       4.878  21.604   1.791  1.00  0.00    -0.200 F 
ENDBRANCH  68  91
ENDBRANCH  42  43
ENDBRANCH  34  37
ENDBRANCH  32  33
ENDBRANCH  31  32
ENDBRANCH  30  31
ENDBRANCH  29  30
ENDBRANCH   3  29
TORSDOF 17
