REMARK SMILES O=C(NCCCCNC(=O)c1cncc(Nc2cc(Cl)ccc2Cl)n1)c1ccc(-c2c3nc(c(-c4c(F)c(F)c(F)c(F)c4F)c4ccc([nH]4)c(-c4c(F)c(F)c(F)c(F)c4F)c4nc(c(-c5c(F)c(F)c(F)c(F)c5F)c5ccc2[nH]5)C=C4)C=C3)cc1
REMARK SMILES IDX 5 1 4 2 3 3 1 4 2 5 26 7 27 8 88 9 28 10 87 11 29 12 30 13
REMARK SMILES IDX 31 14 81 15 32 16 86 17 80 18 82 19 33 20 85 21 79 22 78 23
REMARK SMILES IDX 34 25 66 26 46 27 65 28 47 29 50 30 64 31 83 32 48 33 49 34
REMARK SMILES IDX 63 36 84 37 51 38 35 39 36 40 44 41 37 42 38 43 42 44 45 45
REMARK SMILES IDX 39 46 40 47 43 48 41 49 67 50 68 51 76 52 69 53 70 54 74 55
REMARK SMILES IDX 77 56 71 57 72 58 75 59 73 60 52 61 53 62 61 63 54 64 55 65
REMARK SMILES IDX 59 66 62 67 56 68 57 69 60 70 58 71 6 72 7 73 8 74 9 75
REMARK SMILES IDX 10 77 11 78 12 79 25 80 13 81 15 82 14 83 16 84 17 86 18 87
REMARK SMILES IDX 23 88 19 89 22 90 24 91 20 92 21 93
REMARK H PARENT 3 6 82 24 50 35 8 76 16 85
REMARK Flexibility Score: inf
ROOT
ATOM      1  C   UNL     1       4.949  -2.148   1.476  1.00  0.00     0.023 C 
ENDROOT
BRANCH   1   2
ATOM      2  C   UNL     1       4.628  -1.295   0.256  1.00  0.00     0.116 C 
BRANCH   2   3
ATOM      3  N   UNL     1       3.200  -1.138   0.030  1.00  0.00    -0.352 N 
ATOM      4  O   UNL     1       1.232  -0.045  -0.142  1.00  0.00    -0.269 OA
ATOM      5  C   UNL     1       2.457   0.013  -0.088  1.00  0.00     0.251 C 
ATOM      6  H   UNL     1       2.691  -1.977  -0.051  1.00  0.00     0.163 HD
BRANCH   5   7
ATOM      7  C   UNL     1       3.134   1.327  -0.120  1.00  0.00     0.039 A 
ATOM      8  C   UNL     1       4.264   1.529  -0.915  1.00  0.00     0.014 A 
ATOM      9  C   UNL     1       2.628   2.373   0.659  1.00  0.00     0.014 A 
ATOM     10  C   UNL     1       4.973   2.720  -0.817  1.00  0.00     0.010 A 
ATOM     11  C   UNL     1       3.294   3.601   0.690  1.00  0.00     0.010 A 
ATOM     12  C   UNL     1       4.491   3.774  -0.022  1.00  0.00    -0.014 A 
BRANCH  12  13
ATOM     13  C   UNL     1       5.226   5.064  -0.004  1.00  0.00     0.031 A 
ATOM     14  C   UNL     1       5.886   5.568   1.248  1.00  0.00     0.074 A 
ATOM     15  C   UNL     1       5.318   5.768  -1.148  1.00  0.00     0.049 A 
ATOM     16  N   UNL     1       6.586   6.661   1.427  1.00  0.00    -0.248 NA
ATOM     17  C   UNL     1       5.739   4.747   2.458  1.00  0.00     0.031 C 
ATOM     18  C   UNL     1       4.705   5.383  -2.421  1.00  0.00     0.029 A 
ATOM     19  N   UNL     1       5.971   6.938  -1.434  1.00  0.00    -0.354 N 
ATOM     20  C   UNL     1       6.947   6.668   2.768  1.00  0.00     0.074 A 
ATOM     21  C   UNL     1       6.368   5.483   3.365  1.00  0.00     0.031 C 
ATOM     22  C   UNL     1       5.048   6.274  -3.362  1.00  0.00     0.029 A 
ATOM     23  C   UNL     1       5.854   7.323  -2.747  1.00  0.00     0.049 A 
ATOM     24  H   UNL     1       6.475   7.453  -0.763  1.00  0.00     0.167 HD
ATOM     25  C   UNL     1       7.699   7.578   3.434  1.00  0.00     0.037 A 
ATOM     26  C   UNL     1       6.329   8.408  -3.384  1.00  0.00     0.037 A 
ATOM     27  C   UNL     1       8.286   8.747   2.830  1.00  0.00     0.049 A 
ATOM     28  C   UNL     1       7.142   9.408  -2.615  1.00  0.00     0.074 A 
ATOM     29  C   UNL     1       9.100   9.704   3.412  1.00  0.00     0.029 A 
ATOM     30  N   UNL     1       8.118   9.121   1.504  1.00  0.00    -0.354 N 
ATOM     31  N   UNL     1       7.505   9.384  -1.357  1.00  0.00    -0.248 NA
ATOM     32  C   UNL     1       7.606  10.589  -3.355  1.00  0.00     0.031 C 
ATOM     33  C   UNL     1       9.386  10.681   2.451  1.00  0.00     0.029 A 
ATOM     34  C   UNL     1       8.791  10.308   1.257  1.00  0.00     0.049 A 
ATOM     35  H   UNL     1       7.598   8.617   0.837  1.00  0.00     0.167 HD
ATOM     36  C   UNL     1       8.250  10.536  -1.154  1.00  0.00     0.074 A 
ATOM     37  C   UNL     1       8.305  11.227  -2.427  1.00  0.00     0.031 C 
ATOM     38  C   UNL     1       8.830  10.985  -0.014  1.00  0.00     0.037 A 
BRANCH  25  39
ATOM     39  C   UNL     1       7.921   7.358   4.903  1.00  0.00     0.064 A 
ATOM     40  C   UNL     1       8.766   6.345   5.379  1.00  0.00     0.173 A 
ATOM     41  C   UNL     1       7.320   8.206   5.846  1.00  0.00     0.173 A 
ATOM     42  F   UNL     1       9.358   5.501   4.520  1.00  0.00    -0.203 F 
ATOM     43  C   UNL     1       8.984   6.175   6.744  1.00  0.00     0.198 A 
ATOM     44  C   UNL     1       7.560   8.049   7.209  1.00  0.00     0.198 A 
ATOM     45  F   UNL     1       6.508   9.196   5.445  1.00  0.00    -0.203 F 
ATOM     46  F   UNL     1       9.765   5.175   7.177  1.00  0.00    -0.200 F 
ATOM     47  C   UNL     1       8.386   7.030   7.657  1.00  0.00     0.200 A 
ATOM     48  F   UNL     1       6.991   8.885   8.089  1.00  0.00    -0.200 F 
ATOM     49  F   UNL     1       8.603   6.870   8.970  1.00  0.00    -0.200 F 
ENDBRANCH  25  39
BRANCH  26  50
ATOM     50  C   UNL     1       6.040   8.595  -4.828  1.00  0.00     0.064 A 
ATOM     51  C   UNL     1       7.053   8.478  -5.788  1.00  0.00     0.173 A 
ATOM     52  C   UNL     1       4.739   8.867  -5.279  1.00  0.00     0.173 A 
ATOM     53  F   UNL     1       8.315   8.237  -5.402  1.00  0.00    -0.203 F 
ATOM     54  C   UNL     1       6.779   8.636  -7.144  1.00  0.00     0.198 A 
ATOM     55  C   UNL     1       4.461   8.995  -6.637  1.00  0.00     0.198 A 
ATOM     56  F   UNL     1       3.733   8.981  -4.399  1.00  0.00    -0.203 F 
ATOM     57  F   UNL     1       7.772   8.553  -8.040  1.00  0.00    -0.200 F 
ATOM     58  C   UNL     1       5.482   8.886  -7.568  1.00  0.00     0.200 A 
ATOM     59  F   UNL     1       3.204   9.219  -7.043  1.00  0.00    -0.200 F 
ATOM     60  F   UNL     1       5.218   9.025  -8.874  1.00  0.00    -0.200 F 
ENDBRANCH  26  50
BRANCH  38  61
ATOM     61  C   UNL     1       9.589  12.276  -0.101  1.00  0.00     0.064 A 
ATOM     62  C   UNL     1       8.927  13.506  -0.228  1.00  0.00     0.173 A 
ATOM     63  C   UNL     1      10.990  12.284  -0.035  1.00  0.00     0.173 A 
ATOM     64  F   UNL     1       7.589  13.548  -0.313  1.00  0.00    -0.203 F 
ATOM     65  C   UNL     1       9.643  14.697  -0.312  1.00  0.00     0.198 A 
ATOM     66  C   UNL     1      11.701  13.479  -0.092  1.00  0.00     0.198 A 
ATOM     67  F   UNL     1      11.668  11.134   0.089  1.00  0.00    -0.203 F 
ATOM     68  F   UNL     1       8.994  15.857  -0.482  1.00  0.00    -0.200 F 
ATOM     69  C   UNL     1      11.028  14.683  -0.238  1.00  0.00     0.200 A 
ATOM     70  F   UNL     1      13.039  13.466  -0.011  1.00  0.00    -0.200 F 
ATOM     71  F   UNL     1      11.716  15.831  -0.317  1.00  0.00    -0.200 F 
ENDBRANCH  38  61
ENDBRANCH  12  13
ENDBRANCH   5   7
ENDBRANCH   2   3
ENDBRANCH   1   2
BRANCH   1  72
ATOM     72  C   UNL     1       4.475  -3.599   1.402  1.00  0.00     0.023 C 
BRANCH  72  73
ATOM     73  C   UNL     1       4.921  -4.366   0.160  1.00  0.00     0.116 C 
BRANCH  73  74
ATOM     74  N   UNL     1       6.368  -4.430   0.030  1.00  0.00    -0.351 N 
ATOM     75  C   UNL     1       7.160  -5.541  -0.170  1.00  0.00     0.271 C 
ATOM     76  H   UNL     1       6.843  -3.570   0.094  1.00  0.00     0.163 HD
ATOM     77  O   UNL     1       8.381  -5.429  -0.199  1.00  0.00    -0.267 OA
BRANCH  75  78
ATOM     78  C   UNL     1       6.514  -6.853  -0.383  1.00  0.00     0.148 A 
ATOM     79  C   UNL     1       5.722  -7.035  -1.505  1.00  0.00     0.145 A 
ATOM     80  N   UNL     1       6.675  -7.798   0.581  1.00  0.00    -0.222 NA
ATOM     81  N   UNL     1       5.007  -8.161  -1.694  1.00  0.00    -0.258 NA
ATOM     82  C   UNL     1       6.002  -8.953   0.391  1.00  0.00     0.149 A 
ATOM     83  C   UNL     1       5.163  -9.098  -0.722  1.00  0.00     0.158 A 
BRANCH  82  84
ATOM     84  N   UNL     1       6.154  -9.926   1.377  1.00  0.00    -0.338 N 
ATOM     85  H   UNL     1       6.685  -9.631   2.152  1.00  0.00     0.168 HD
BRANCH  84  86
ATOM     86  C   UNL     1       5.690 -11.249   1.474  1.00  0.00     0.060 A 
ATOM     87  C   UNL     1       5.642 -12.090   0.351  1.00  0.00     0.048 A 
ATOM     88  C   UNL     1       5.165 -11.738   2.687  1.00  0.00     0.064 A 
ATOM     89  C   UNL     1       5.048 -13.350   0.425  1.00  0.00     0.043 A 
ATOM     90  C   UNL     1       4.567 -13.000   2.758  1.00  0.00     0.024 A 
ATOM     91  Cl  UNL     1       5.202 -10.771   4.121  1.00  0.00    -0.082 Cl
ATOM     92  Cl  UNL     1       4.977 -14.340  -0.980  1.00  0.00    -0.084 Cl
ATOM     93  C   UNL     1       4.498 -13.803   1.620  1.00  0.00     0.022 A 
ENDBRANCH  84  86
ENDBRANCH  82  84
ENDBRANCH  75  78
ENDBRANCH  73  74
ENDBRANCH  72  73
ENDBRANCH   1  72
TORSDOF 13
