REMARK SMILES Cc1cccc(NC(=O)[C@H]2CCCCC[C@@H]2[NH3+])c1C(=O)NCCCCNC(=O)c1ccc(-c2c3nc(c(-c4c(F)c(F)c(F)c(F)c4F)c4ccc([nH]4)c(-c4c(F)c(F)c(F)c(F)c4F)c4nc(c(-c5c(F)c(F)c(F)c(F)c5F)c5ccc2[nH]5)C=C4)C=C3)cc1
REMARK SMILES IDX 22 1 21 2 19 3 20 4 18 6 1 7 2 8 3 9 4 10 6 11 5 12 7 13
REMARK SMILES IDX 8 14 9 16 10 17 11 18 12 19 13 20 16 22 15 23 14 24 17 26
REMARK SMILES IDX 23 30 24 31 25 32 26 33 27 34 28 36 29 37 30 38 91 39 31 40
REMARK SMILES IDX 90 41 32 42 33 43 34 44 84 45 35 46 89 47 83 48 85 49 36 50
REMARK SMILES IDX 88 51 82 52 81 53 37 55 69 56 49 57 68 58 50 59 53 60 67 61
REMARK SMILES IDX 86 62 51 63 52 64 66 66 87 67 54 68 38 69 39 70 47 71 40 72
REMARK SMILES IDX 41 73 45 74 48 75 42 76 43 77 46 78 44 79 70 80 71 81 79 82
REMARK SMILES IDX 72 83 73 84 77 85 80 86 74 87 75 88 78 89 76 90 55 91 56 92
REMARK SMILES IDX 64 93 57 94 58 95 62 96 65 97 59 98 60 99 63 100 61 101
REMARK H PARENT 21 5 7 15 17 27 17 28 17 29 26 35 85 54 53 65
REMARK Flexibility Score: 90.00
ROOT
ATOM      1  C   UNL     1      -6.755   6.901   4.020  1.00  0.00     0.116 C 
ENDROOT
BRANCH   1   2
ATOM      2  N   UNL     1      -6.860   5.491   3.707  1.00  0.00    -0.352 N 
ATOM      3  C   UNL     1      -6.473   4.665   2.684  1.00  0.00     0.253 C 
ATOM      4  O   UNL     1      -6.943   3.525   2.781  1.00  0.00    -0.269 OA
ATOM      5  H   UNL     1      -7.333   4.996   4.414  1.00  0.00     0.163 HD
BRANCH   3   6
ATOM      6  C   UNL     1      -5.484   4.941   1.568  1.00  0.00     0.066 A 
ATOM      7  C   UNL     1      -6.280   7.339   0.921  1.00  0.00     0.045 C 
ATOM      8  C   UNL     1      -5.356   6.163   0.853  1.00  0.00    -0.036 A 
ATOM      9  C   UNL     1      -4.352   6.306  -0.125  1.00  0.00     0.004 A 
ATOM     10  C   UNL     1      -3.549   5.245  -0.487  1.00  0.00     0.002 A 
ATOM     11  C   UNL     1      -4.689   3.815   1.125  1.00  0.00     0.054 A 
ATOM     12  C   UNL     1      -3.732   4.011   0.121  1.00  0.00     0.027 A 
BRANCH  11  13
ATOM     13  N   UNL     1      -4.878   2.531   1.714  1.00  0.00    -0.325 N 
ATOM     14  C   UNL     1      -4.522   1.237   1.450  1.00  0.00     0.233 C 
ATOM     15  H   UNL     1      -5.411   2.593   2.539  1.00  0.00     0.169 HD
ATOM     16  O   UNL     1      -4.784   0.413   2.336  1.00  0.00    -0.274 OA
BRANCH  14  17
ATOM     17  C   UNL     1      -3.893   0.777   0.128  1.00  0.00     0.137 C 
BRANCH  17  18
ATOM     18  C   UNL     1      -3.232  -0.619   0.204  1.00  0.00     0.020 C 
BRANCH  18  19
ATOM     19  C   UNL     1      -4.145  -1.826   0.392  1.00  0.00     0.001 C 
BRANCH  19  20
ATOM     20  C   UNL     1      -4.718  -2.415  -0.889  1.00  0.00     0.000 CG0
ATOM     21  G   UNL     1      -5.322  -1.438  -1.889  1.00  0.00     0.000 G0
ENDBRANCH  19  20
ENDBRANCH  18  19
ENDBRANCH  17  18
BRANCH  17  22
ATOM     22  C   UNL     1      -4.874   0.989  -1.047  1.00  0.00     0.193 C 
BRANCH  22  23
ATOM     23  C   UNL     1      -5.888  -0.147  -1.297  1.00  0.00     0.066 C 
BRANCH  23  24
ATOM     24  C   UNL     1      -5.322  -1.438  -1.889  1.00  0.00     0.006 CG0
ATOM     25  G   UNL     1      -4.718  -2.415  -0.889  1.00  0.00     0.000 G0
ENDBRANCH  23  24
ENDBRANCH  22  23
BRANCH  22  26
ATOM     26  N   UNL     1      -4.128   1.313  -2.278  1.00  0.00    -0.354 N 
ATOM     27  H   UNL     1      -3.553   0.515  -2.547  1.00  0.00     0.344 HD
ATOM     28  H   UNL     1      -3.530   2.122  -2.111  1.00  0.00     0.344 HD
ATOM     29  H   UNL     1      -4.786   1.526  -3.028  1.00  0.00     0.344 HD
ENDBRANCH  22  26
ENDBRANCH  17  22
ENDBRANCH  14  17
ENDBRANCH  11  13
ENDBRANCH   3   6
ENDBRANCH   1   2
BRANCH   1  30
ATOM     30  C   UNL     1      -8.011   7.644   3.525  1.00  0.00     0.023 C 
BRANCH  30  31
ATOM     31  C   UNL     1      -9.257   7.473   4.392  1.00  0.00     0.023 C 
BRANCH  31  32
ATOM     32  C   UNL     1      -9.299   8.442   5.557  1.00  0.00     0.116 C 
BRANCH  32  33
ATOM     33  N   UNL     1      -9.798   9.775   5.226  1.00  0.00    -0.352 N 
ATOM     34  C   UNL     1      -9.803  10.926   5.997  1.00  0.00     0.251 C 
ATOM     35  H   UNL     1     -10.186   9.869   4.326  1.00  0.00     0.163 HD
ATOM     36  O   UNL     1     -10.330  11.951   5.573  1.00  0.00    -0.269 OA
BRANCH  34  37
ATOM     37  C   UNL     1      -9.028  10.962   7.262  1.00  0.00     0.039 A 
ATOM     38  C   UNL     1      -8.156  12.038   7.460  1.00  0.00     0.014 A 
ATOM     39  C   UNL     1      -8.925   9.825   8.054  1.00  0.00     0.014 A 
ATOM     40  C   UNL     1      -7.002  11.842   8.212  1.00  0.00     0.010 A 
ATOM     41  C   UNL     1      -7.718   9.577   8.669  1.00  0.00     0.010 A 
ATOM     42  C   UNL     1      -6.723  10.560   8.676  1.00  0.00    -0.014 A 
BRANCH  42  43
ATOM     43  C   UNL     1      -5.380  10.109   9.027  1.00  0.00     0.031 A 
ATOM     44  C   UNL     1      -5.069   9.695  10.411  1.00  0.00     0.074 A 
ATOM     45  C   UNL     1      -4.472   9.928   8.041  1.00  0.00     0.049 A 
ATOM     46  N   UNL     1      -3.877   9.581  10.890  1.00  0.00    -0.248 NA
ATOM     47  C   UNL     1      -6.105   9.429  11.399  1.00  0.00     0.031 C 
ATOM     48  C   UNL     1      -3.220   9.180   8.113  1.00  0.00     0.029 A 
ATOM     49  N   UNL     1      -4.424  10.563   6.785  1.00  0.00    -0.354 N 
ATOM     50  C   UNL     1      -3.969   8.959  12.116  1.00  0.00     0.074 A 
ATOM     51  C   UNL     1      -5.378   8.978  12.423  1.00  0.00     0.031 C 
ATOM     52  C   UNL     1      -2.404   9.604   7.135  1.00  0.00     0.029 A 
ATOM     53  C   UNL     1      -3.049  10.742   6.505  1.00  0.00     0.049 A 
ATOM     54  H   UNL     1      -5.187  10.827   6.221  1.00  0.00     0.167 HD
ATOM     55  C   UNL     1      -2.848   8.382  12.643  1.00  0.00     0.037 A 
ATOM     56  C   UNL     1      -2.501  11.988   6.405  1.00  0.00     0.037 A 
ATOM     57  C   UNL     1      -1.665   8.748  11.856  1.00  0.00     0.049 A 
ATOM     58  C   UNL     1      -1.409  12.263   7.414  1.00  0.00     0.074 A 
ATOM     59  C   UNL     1      -0.919   8.074  10.902  1.00  0.00     0.029 A 
ATOM     60  N   UNL     1      -1.280  10.084  11.781  1.00  0.00    -0.354 N 
ATOM     61  N   UNL     1      -1.226  11.557   8.495  1.00  0.00    -0.248 NA
ATOM     62  C   UNL     1      -0.469  13.375   7.308  1.00  0.00     0.031 C 
ATOM     63  C   UNL     1      -0.132   9.026  10.205  1.00  0.00     0.029 A 
ATOM     64  C   UNL     1      -0.380  10.274  10.749  1.00  0.00     0.049 A 
ATOM     65  H   UNL     1      -1.603  10.795  12.380  1.00  0.00     0.167 HD
ATOM     66  C   UNL     1      -0.211  12.106   9.233  1.00  0.00     0.074 A 
ATOM     67  C   UNL     1       0.247  13.228   8.437  1.00  0.00     0.031 C 
ATOM     68  C   UNL     1       0.148  11.598  10.450  1.00  0.00     0.037 A 
BRANCH  55  69
ATOM     69  C   UNL     1      -2.844   7.258  13.674  1.00  0.00     0.064 A 
ATOM     70  C   UNL     1      -1.720   6.407  13.799  1.00  0.00     0.173 A 
ATOM     71  C   UNL     1      -3.926   6.892  14.497  1.00  0.00     0.173 A 
ATOM     72  F   UNL     1      -0.563   6.678  13.181  1.00  0.00    -0.203 F 
ATOM     73  C   UNL     1      -1.734   5.236  14.568  1.00  0.00     0.198 A 
ATOM     74  C   UNL     1      -3.956   5.705  15.239  1.00  0.00     0.198 A 
ATOM     75  F   UNL     1      -4.980   7.687  14.679  1.00  0.00    -0.203 F 
ATOM     76  F   UNL     1      -0.641   4.461  14.620  1.00  0.00    -0.200 F 
ATOM     77  C   UNL     1      -2.865   4.866  15.261  1.00  0.00     0.200 A 
ATOM     78  F   UNL     1      -5.057   5.389  15.936  1.00  0.00    -0.200 F 
ATOM     79  F   UNL     1      -2.896   3.730  15.969  1.00  0.00    -0.200 F 
ENDBRANCH  55  69
BRANCH  56  80
ATOM     80  C   UNL     1      -3.448  13.002   5.872  1.00  0.00     0.064 A 
ATOM     81  C   UNL     1      -3.917  12.846   4.553  1.00  0.00     0.173 A 
ATOM     82  C   UNL     1      -4.168  13.852   6.719  1.00  0.00     0.173 A 
ATOM     83  F   UNL     1      -3.265  12.038   3.702  1.00  0.00    -0.203 F 
ATOM     84  C   UNL     1      -5.116  13.420   4.138  1.00  0.00     0.198 A 
ATOM     85  C   UNL     1      -5.364  14.436   6.294  1.00  0.00     0.198 A 
ATOM     86  F   UNL     1      -3.788  14.021   7.993  1.00  0.00    -0.203 F 
ATOM     87  F   UNL     1      -5.592  13.158   2.912  1.00  0.00    -0.200 F 
ATOM     88  C   UNL     1      -5.854  14.191   5.019  1.00  0.00     0.200 A 
ATOM     89  F   UNL     1      -6.098  15.152   7.158  1.00  0.00    -0.200 F 
ATOM     90  F   UNL     1      -7.055  14.662   4.657  1.00  0.00    -0.200 F 
ENDBRANCH  56  80
BRANCH  68  91
ATOM     91  C   UNL     1       1.082  12.251  11.438  1.00  0.00     0.064 A 
ATOM     92  C   UNL     1       1.235  13.641  11.571  1.00  0.00     0.173 A 
ATOM     93  C   UNL     1       1.751  11.467  12.409  1.00  0.00     0.173 A 
ATOM     94  F   UNL     1       0.565  14.494  10.786  1.00  0.00    -0.203 F 
ATOM     95  C   UNL     1       2.043  14.202  12.565  1.00  0.00     0.198 A 
ATOM     96  C   UNL     1       2.509  12.033  13.433  1.00  0.00     0.198 A 
ATOM     97  F   UNL     1       1.667  10.128  12.406  1.00  0.00    -0.203 F 
ATOM     98  F   UNL     1       2.188  15.534  12.627  1.00  0.00    -0.200 F 
ATOM     99  C   UNL     1       2.668  13.401  13.502  1.00  0.00     0.200 A 
ATOM    100  F   UNL     1       3.065  11.245  14.364  1.00  0.00    -0.200 F 
ATOM    101  F   UNL     1       3.401  13.947  14.481  1.00  0.00    -0.200 F 
ENDBRANCH  68  91
ENDBRANCH  42  43
ENDBRANCH  34  37
ENDBRANCH  32  33
ENDBRANCH  31  32
ENDBRANCH  30  31
ENDBRANCH   1  30
TORSDOF 14
