REMARK SMILES COc1ccc2c(CC(=O)NCCCCNC(=O)c3ccc(-c4c5nc(c(-c6c(F)c(F)c(F)c(F)c6F)c6ccc([nH]6)c(-c6c(F)c(F)c(F)c(F)c6F)c6nc(c(-c7c(F)c(F)c(F)c(F)c7F)c7ccc4[nH]7)C=C6)C=C5)cc3)c(C(=O)c3cc(C)ccn3)[nH]c2c1
REMARK SMILES IDX 13 1 12 2 11 3 9 4 10 5 8 7 7 8 3 9 4 10 94 11 5 12 93 13
REMARK SMILES IDX 6 14 92 15 82 16 2 18 1 19 83 20 84 21 85 22 86 23 91 24
REMARK SMILES IDX 87 25 90 26 88 27 89 28 14 29 15 30 16 31 17 32 18 34 19 35
REMARK SMILES IDX 20 36 81 37 21 38 80 39 22 40 23 41 24 42 74 43 25 44 79 45
REMARK SMILES IDX 73 46 75 47 26 48 78 49 72 50 71 51 27 53 59 54 39 55 58 56
REMARK SMILES IDX 40 57 43 58 57 59 76 60 41 61 42 62 56 64 77 65 44 66 28 67
REMARK SMILES IDX 29 68 37 69 30 70 31 71 35 72 38 73 32 74 33 75 36 76 34 77
REMARK SMILES IDX 60 78 61 79 69 80 62 81 63 82 67 83 70 84 64 85 65 86 68 87
REMARK SMILES IDX 66 88 45 89 46 90 54 91 47 92 48 93 52 94 55 95 49 96 50 97
REMARK SMILES IDX 53 98 51 99
REMARK H PARENT 11 6 92 17 16 33 75 52 43 63
REMARK Flexibility Score: inf
ROOT
ATOM      1  C   UNL     1       2.063  -6.621   2.621  1.00  0.00     0.023 C 
ENDROOT
BRANCH   1   2
ATOM      2  C   UNL     1       3.295  -6.827   1.741  1.00  0.00     0.116 C 
BRANCH   2   3
ATOM      3  N   UNL     1       3.256  -8.072   1.007  1.00  0.00    -0.356 N 
ATOM      4  C   UNL     1       2.998  -8.296  -0.316  1.00  0.00     0.224 C 
ATOM      5  O   UNL     1       3.237  -9.431  -0.740  1.00  0.00    -0.275 OA
ATOM      6  H   UNL     1       3.442  -8.879   1.540  1.00  0.00     0.163 HD
BRANCH   4   7
ATOM      7  C   UNL     1       2.579  -7.168  -1.254  1.00  0.00     0.138 C 
BRANCH   7   8
ATOM      8  C   UNL     1       1.356  -6.395  -0.833  1.00  0.00    -0.002 A 
ATOM      9  C   UNL     1       0.643  -2.406   0.345  1.00  0.00     0.120 A 
ATOM     10  C   UNL     1       1.942  -2.679  -0.076  1.00  0.00     0.047 A 
ATOM     11  C   UNL     1      -0.323  -3.417   0.375  1.00  0.00     0.073 A 
ATOM     12  C   UNL     1       2.294  -3.964  -0.508  1.00  0.00     0.014 A 
ATOM     13  C   UNL     1       0.044  -4.691  -0.076  1.00  0.00     0.050 A 
ATOM     14  C   UNL     1       1.329  -4.995  -0.510  1.00  0.00     0.004 A 
ATOM     15  N   UNL     1      -0.697  -5.842  -0.176  1.00  0.00    -0.351 N 
ATOM     16  C   UNL     1       0.047  -6.870  -0.720  1.00  0.00     0.093 A 
ATOM     17  H   UNL     1      -1.637  -5.924   0.104  1.00  0.00     0.167 HD
BRANCH   9  18
ATOM     18  O   UNL     1       0.219  -1.183   0.798  1.00  0.00    -0.497 OA
ATOM     19  C   UNL     1       0.808  -0.067   0.136  1.00  0.00     0.278 C 
ENDBRANCH   9  18
BRANCH  16  20
ATOM     20  C   UNL     1      -0.469  -8.192  -1.059  1.00  0.00     0.227 C 
ATOM     21  O   UNL     1       0.228  -9.081  -1.547  1.00  0.00    -0.285 OA
BRANCH  20  22
ATOM     22  C   UNL     1      -1.915  -8.482  -0.866  1.00  0.00     0.113 A 
ATOM     23  C   UNL     1      -2.868  -7.784  -1.604  1.00  0.00     0.036 A 
ATOM     24  N   UNL     1      -2.217  -9.454   0.031  1.00  0.00    -0.253 NA
ATOM     25  C   UNL     1      -4.215  -8.097  -1.412  1.00  0.00    -0.047 A 
ATOM     26  C   UNL     1      -3.522  -9.761   0.170  1.00  0.00     0.112 A 
ATOM     27  C   UNL     1      -5.296  -7.387  -2.169  1.00  0.00     0.044 C 
ATOM     28  C   UNL     1      -4.542  -9.118  -0.515  1.00  0.00     0.023 A 
ENDBRANCH  20  22
ENDBRANCH  16  20
ENDBRANCH   7   8
ENDBRANCH   4   7
ENDBRANCH   2   3
ENDBRANCH   1   2
BRANCH   1  29
ATOM     29  C   UNL     1       1.945  -7.578   3.810  1.00  0.00     0.023 C 
BRANCH  29  30
ATOM     30  C   UNL     1       3.140  -7.608   4.755  1.00  0.00     0.116 C 
BRANCH  30  31
ATOM     31  N   UNL     1       3.474  -6.307   5.310  1.00  0.00    -0.352 N 
ATOM     32  C   UNL     1       4.004  -5.999   6.538  1.00  0.00     0.251 C 
ATOM     33  H   UNL     1       3.296  -5.538   4.722  1.00  0.00     0.163 HD
ATOM     34  O   UNL     1       4.141  -4.824   6.870  1.00  0.00    -0.269 OA
BRANCH  32  35
ATOM     35  C   UNL     1       4.370  -7.075   7.487  1.00  0.00     0.039 A 
ATOM     36  C   UNL     1       4.006  -6.929   8.829  1.00  0.00     0.014 A 
ATOM     37  C   UNL     1       5.066  -8.214   7.073  1.00  0.00     0.014 A 
ATOM     38  C   UNL     1       4.282  -7.950   9.739  1.00  0.00     0.010 A 
ATOM     39  C   UNL     1       5.283  -9.261   7.968  1.00  0.00     0.010 A 
ATOM     40  C   UNL     1       4.894  -9.139   9.309  1.00  0.00    -0.014 A 
BRANCH  40  41
ATOM     41  C   UNL     1       5.113 -10.262  10.255  1.00  0.00     0.031 A 
ATOM     42  C   UNL     1       6.504 -10.682  10.637  1.00  0.00     0.074 A 
ATOM     43  C   UNL     1       4.050 -10.934  10.739  1.00  0.00     0.049 A 
ATOM     44  N   UNL     1       6.886 -11.632  11.454  1.00  0.00    -0.248 NA
ATOM     45  C   UNL     1       7.613  -9.959   9.998  1.00  0.00     0.031 C 
ATOM     46  C   UNL     1       2.653 -10.669  10.390  1.00  0.00     0.029 A 
ATOM     47  N   UNL     1       3.979 -11.979  11.625  1.00  0.00    -0.354 N 
ATOM     48  C   UNL     1       8.274 -11.627  11.418  1.00  0.00     0.074 A 
ATOM     49  C   UNL     1       8.667 -10.615  10.461  1.00  0.00     0.031 C 
ATOM     50  C   UNL     1       1.862 -11.508  11.078  1.00  0.00     0.029 A 
ATOM     51  C   UNL     1       2.695 -12.381  11.899  1.00  0.00     0.049 A 
ATOM     52  H   UNL     1       4.773 -12.401  12.026  1.00  0.00     0.167 HD
ATOM     53  C   UNL     1       9.141 -12.381  12.135  1.00  0.00     0.037 A 
ATOM     54  C   UNL     1       2.240 -13.338  12.729  1.00  0.00     0.037 A 
ATOM     55  C   UNL     1       8.749 -13.369  13.105  1.00  0.00     0.049 A 
ATOM     56  C   UNL     1       3.223 -14.129  13.548  1.00  0.00     0.074 A 
ATOM     57  C   UNL     1       9.552 -14.146  13.923  1.00  0.00     0.029 A 
ATOM     58  N   UNL     1       7.437 -13.717  13.390  1.00  0.00    -0.354 N 
ATOM     59  N   UNL     1       4.531 -14.059  13.566  1.00  0.00    -0.248 NA
ATOM     60  C   UNL     1       2.662 -15.120  14.477  1.00  0.00     0.031 C 
ATOM     61  C   UNL     1       8.727 -14.985  14.680  1.00  0.00     0.029 A 
ATOM     62  C   UNL     1       7.408 -14.702  14.364  1.00  0.00     0.049 A 
ATOM     63  H   UNL     1       6.643 -13.323  12.962  1.00  0.00     0.167 HD
ATOM     64  C   UNL     1       4.949 -14.971  14.525  1.00  0.00     0.074 A 
ATOM     65  C   UNL     1       3.753 -15.573  15.078  1.00  0.00     0.031 C 
ATOM     66  C   UNL     1       6.210 -15.282  14.912  1.00  0.00     0.037 A 
BRANCH  53  67
ATOM     67  C   UNL     1      10.607 -12.155  11.904  1.00  0.00     0.064 A 
ATOM     68  C   UNL     1      11.245 -10.985  12.344  1.00  0.00     0.173 A 
ATOM     69  C   UNL     1      11.389 -13.130  11.268  1.00  0.00     0.173 A 
ATOM     70  F   UNL     1      10.540 -10.017  12.947  1.00  0.00    -0.203 F 
ATOM     71  C   UNL     1      12.607 -10.788  12.130  1.00  0.00     0.198 A 
ATOM     72  C   UNL     1      12.756 -12.942  11.081  1.00  0.00     0.198 A 
ATOM     73  F   UNL     1      10.829 -14.269  10.834  1.00  0.00    -0.203 F 
ATOM     74  F   UNL     1      13.186  -9.643  12.517  1.00  0.00    -0.200 F 
ATOM     75  C   UNL     1      13.362 -11.769  11.505  1.00  0.00     0.200 A 
ATOM     76  F   UNL     1      13.487 -13.896  10.487  1.00  0.00    -0.200 F 
ATOM     77  F   UNL     1      14.674 -11.581  11.305  1.00  0.00    -0.200 F 
ENDBRANCH  53  67
BRANCH  54  78
ATOM     78  C   UNL     1       0.779 -13.560  12.871  1.00  0.00     0.064 A 
ATOM     79  C   UNL     1       0.106 -13.173  14.038  1.00  0.00     0.173 A 
ATOM     80  C   UNL     1       0.028 -14.158  11.850  1.00  0.00     0.173 A 
ATOM     81  F   UNL     1       0.788 -12.615  15.050  1.00  0.00    -0.203 F 
ATOM     82  C   UNL     1      -1.261 -13.394  14.187  1.00  0.00     0.198 A 
ATOM     83  C   UNL     1      -1.344 -14.355  11.990  1.00  0.00     0.198 A 
ATOM     84  F   UNL     1       0.625 -14.539  10.712  1.00  0.00    -0.203 F 
ATOM     85  F   UNL     1      -1.872 -13.053  15.330  1.00  0.00    -0.200 F 
ATOM     86  C   UNL     1      -1.986 -13.980  13.161  1.00  0.00     0.200 A 
ATOM     87  F   UNL     1      -2.044 -14.911  10.992  1.00  0.00    -0.200 F 
ATOM     88  F   UNL     1      -3.302 -14.190  13.303  1.00  0.00    -0.200 F 
ENDBRANCH  54  78
BRANCH  66  89
ATOM     89  C   UNL     1       6.357 -16.290  16.014  1.00  0.00     0.064 A 
ATOM     90  C   UNL     1       6.104 -17.653  15.803  1.00  0.00     0.173 A 
ATOM     91  C   UNL     1       6.774 -15.887  17.291  1.00  0.00     0.173 A 
ATOM     92  F   UNL     1       5.688 -18.085  14.603  1.00  0.00    -0.203 F 
ATOM     93  C   UNL     1       6.235 -18.573  16.840  1.00  0.00     0.198 A 
ATOM     94  C   UNL     1       6.929 -16.813  18.319  1.00  0.00     0.198 A 
ATOM     95  F   UNL     1       7.033 -14.595  17.542  1.00  0.00    -0.203 F 
ATOM     96  F   UNL     1       5.938 -19.863  16.630  1.00  0.00    -0.200 F 
ATOM     97  C   UNL     1       6.651 -18.153  18.095  1.00  0.00     0.200 A 
ATOM     98  F   UNL     1       7.341 -16.408  19.528  1.00  0.00    -0.200 F 
ATOM     99  F   UNL     1       6.775 -19.040  19.092  1.00  0.00    -0.200 F 
ENDBRANCH  66  89
ENDBRANCH  40  41
ENDBRANCH  32  35
ENDBRANCH  30  31
ENDBRANCH  29  30
ENDBRANCH   1  29
TORSDOF 15
