REMARK SMILES CCCC[C@H]1C[NH2+]CCN1c1ccc(C(=O)NCCCCNC(=O)c2ccc(-c3c4nc(c(-c5c(F)c(F)c(F)c(F)c5F)c5ccc([nH]5)c(-c5c(F)c(F)c(F)c(F)c5F)c5nc(c(-c6c(F)c(F)c(F)c(F)c6F)c6ccc3[nH]6)C=C5)C=C4)cc2)cc1
REMARK SMILES IDX 18 1 17 2 15 3 16 4 14 6 11 7 12 8 89 9 13 10 88 11 10 12
REMARK SMILES IDX 5 13 6 14 7 15 9 16 8 17 4 20 3 21 2 22 1 23 19 24 20 25
REMARK SMILES IDX 21 26 22 27 23 28 24 30 25 31 26 32 87 33 27 34 86 35 28 36
REMARK SMILES IDX 29 37 30 38 80 39 31 40 85 41 79 42 81 43 32 44 84 45 78 46
REMARK SMILES IDX 77 47 33 49 65 50 45 51 64 52 46 53 49 54 63 55 82 56 47 57
REMARK SMILES IDX 48 58 62 60 83 61 50 62 34 63 35 64 43 65 36 66 37 67 41 68
REMARK SMILES IDX 44 69 38 70 39 71 42 72 40 73 66 74 67 75 75 76 68 77 69 78
REMARK SMILES IDX 73 79 76 80 70 81 71 82 74 83 72 84 51 85 52 86 60 87 53 88
REMARK SMILES IDX 54 89 58 90 61 91 55 92 56 93 59 94 57 95
REMARK H PARENT 17 5 7 18 7 19 22 29 81 48 49 59
REMARK Flexibility Score: inf
ROOT
ATOM      1  C   UNL     1       3.190   4.196  -1.418  1.00  0.00     0.116 C 
ENDROOT
BRANCH   1   2
ATOM      2  N   UNL     1       2.621   5.443  -0.949  1.00  0.00    -0.352 N 
ATOM      3  C   UNL     1       1.524   5.701  -0.167  1.00  0.00     0.251 C 
ATOM      4  O   UNL     1       1.300   6.874   0.132  1.00  0.00    -0.269 OA
ATOM      5  H   UNL     1       3.107   6.247  -1.244  1.00  0.00     0.163 HD
BRANCH   3   6
ATOM      6  C   UNL     1       0.629   4.633   0.364  1.00  0.00     0.039 A 
ATOM      7  C   UNL     1      -1.127   2.720   1.498  1.00  0.00     0.037 A 
ATOM      8  C   UNL     1      -0.882   3.938   2.138  1.00  0.00     0.027 A 
ATOM      9  C   UNL     1      -0.495   2.479   0.278  1.00  0.00     0.027 A 
ATOM     10  C   UNL     1      -0.018   4.886   1.579  1.00  0.00     0.016 A 
ATOM     11  C   UNL     1       0.353   3.432  -0.293  1.00  0.00     0.016 A 
BRANCH   7  12
ATOM     12  N   UNL     1      -1.979   1.787   2.079  1.00  0.00    -0.357 N 
ATOM     13  C   UNL     1      -1.328   0.733   2.882  1.00  0.00     0.137 C 
ATOM     14  C   UNL     1      -1.371  -0.631   2.124  1.00  0.00     0.285 C 
ATOM     15  N   UNL     1      -2.707  -1.008   1.612  1.00  0.00    -0.343 N 
ATOM     16  C   UNL     1      -3.206   1.458   1.335  1.00  0.00     0.178 C 
ATOM     17  C   UNL     1      -3.169   0.055   0.699  1.00  0.00     0.282 C 
ATOM     18  H   UNL     1      -3.361  -1.103   2.390  1.00  0.00     0.346 HD
ATOM     19  H   UNL     1      -2.656  -1.899   1.118  1.00  0.00     0.346 HD
BRANCH  13  20
ATOM     20  C   UNL     1      -1.938   0.577   4.292  1.00  0.00     0.031 C 
BRANCH  20  21
ATOM     21  C   UNL     1      -2.268   1.856   5.070  1.00  0.00     0.002 C 
BRANCH  21  22
ATOM     22  C   UNL     1      -3.595   2.540   4.722  1.00  0.00    -0.003 C 
ATOM     23  C   UNL     1      -4.808   1.621   4.758  1.00  0.00     0.004 C 
ENDBRANCH  21  22
ENDBRANCH  20  21
ENDBRANCH  13  20
ENDBRANCH   7  12
ENDBRANCH   3   6
ENDBRANCH   1   2
BRANCH   1  24
ATOM     24  C   UNL     1       2.720   3.883  -2.840  1.00  0.00     0.023 C 
BRANCH  24  25
ATOM     25  C   UNL     1       3.436   4.674  -3.935  1.00  0.00     0.023 C 
BRANCH  25  26
ATOM     26  C   UNL     1       4.924   4.384  -4.057  1.00  0.00     0.116 C 
BRANCH  26  27
ATOM     27  N   UNL     1       5.221   2.986  -4.330  1.00  0.00    -0.352 N 
ATOM     28  C   UNL     1       6.293   2.470  -5.017  1.00  0.00     0.251 C 
ATOM     29  H   UNL     1       4.575   2.330  -3.981  1.00  0.00     0.163 HD
ATOM     30  O   UNL     1       6.372   1.271  -5.257  1.00  0.00    -0.269 OA
BRANCH  28  31
ATOM     31  C   UNL     1       7.332   3.397  -5.504  1.00  0.00     0.039 A 
ATOM     32  C   UNL     1       7.682   3.370  -6.855  1.00  0.00     0.014 A 
ATOM     33  C   UNL     1       7.905   4.330  -4.637  1.00  0.00     0.014 A 
ATOM     34  C   UNL     1       8.566   4.327  -7.354  1.00  0.00     0.010 A 
ATOM     35  C   UNL     1       8.727   5.326  -5.149  1.00  0.00     0.010 A 
ATOM     36  C   UNL     1       9.066   5.332  -6.511  1.00  0.00    -0.014 A 
BRANCH  36  37
ATOM     37  C   UNL     1       9.966   6.394  -7.020  1.00  0.00     0.031 A 
ATOM     38  C   UNL     1      11.377   6.475  -6.514  1.00  0.00     0.074 A 
ATOM     39  C   UNL     1       9.491   7.328  -7.866  1.00  0.00     0.049 A 
ATOM     40  N   UNL     1      12.288   7.388  -6.735  1.00  0.00    -0.248 NA
ATOM     41  C   UNL     1      11.812   5.399  -5.608  1.00  0.00     0.031 C 
ATOM     42  C   UNL     1       8.128   7.377  -8.395  1.00  0.00     0.029 A 
ATOM     43  N   UNL     1      10.102   8.426  -8.416  1.00  0.00    -0.354 N 
ATOM     44  C   UNL     1      13.389   7.010  -5.981  1.00  0.00     0.074 A 
ATOM     45  C   UNL     1      13.018   5.815  -5.255  1.00  0.00     0.031 C 
ATOM     46  C   UNL     1       8.011   8.439  -9.208  1.00  0.00     0.029 A 
ATOM     47  C   UNL     1       9.277   9.166  -9.227  1.00  0.00     0.049 A 
ATOM     48  H   UNL     1      11.043   8.662  -8.246  1.00  0.00     0.167 HD
ATOM     49  C   UNL     1      14.609   7.594  -5.917  1.00  0.00     0.037 A 
ATOM     50  C   UNL     1       9.517  10.306  -9.902  1.00  0.00     0.037 A 
ATOM     51  C   UNL     1      14.982   8.764  -6.665  1.00  0.00     0.049 A 
ATOM     52  C   UNL     1      10.881  10.936  -9.817  1.00  0.00     0.074 A 
ATOM     53  C   UNL     1      16.208   9.405  -6.714  1.00  0.00     0.029 A 
ATOM     54  N   UNL     1      14.128   9.469  -7.501  1.00  0.00    -0.354 N 
ATOM     55  N   UNL     1      11.934  10.540  -9.143  1.00  0.00    -0.248 NA
ATOM     56  C   UNL     1      11.091  12.168 -10.589  1.00  0.00     0.031 C 
ATOM     57  C   UNL     1      16.085  10.518  -7.552  1.00  0.00     0.029 A 
ATOM     58  C   UNL     1      14.796  10.546  -8.060  1.00  0.00     0.049 A 
ATOM     59  H   UNL     1      13.186   9.238  -7.672  1.00  0.00     0.167 HD
ATOM     60  C   UNL     1      12.939  11.453  -9.436  1.00  0.00     0.074 A 
ATOM     61  C   UNL     1      12.371  12.419 -10.353  1.00  0.00     0.031 C 
ATOM     62  C   UNL     1      14.217  11.486  -8.987  1.00  0.00     0.037 A 
BRANCH  49  63
ATOM     63  C   UNL     1      15.626   6.968  -5.008  1.00  0.00     0.064 A 
ATOM     64  C   UNL     1      16.200   5.720  -5.295  1.00  0.00     0.173 A 
ATOM     65  C   UNL     1      16.040   7.628  -3.841  1.00  0.00     0.173 A 
ATOM     66  F   UNL     1      15.827   5.042  -6.391  1.00  0.00    -0.203 F 
ATOM     67  C   UNL     1      17.122   5.139  -4.429  1.00  0.00     0.198 A 
ATOM     68  C   UNL     1      16.986   7.058  -2.994  1.00  0.00     0.198 A 
ATOM     69  F   UNL     1      15.526   8.825  -3.521  1.00  0.00    -0.203 F 
ATOM     70  F   UNL     1      17.612   3.920  -4.695  1.00  0.00    -0.200 F 
ATOM     71  C   UNL     1      17.519   5.811  -3.283  1.00  0.00     0.200 A 
ATOM     72  F   UNL     1      17.378   7.713  -1.891  1.00  0.00    -0.200 F 
ATOM     73  F   UNL     1      18.408   5.251  -2.451  1.00  0.00    -0.200 F 
ENDBRANCH  49  63
BRANCH  50  74
ATOM     74  C   UNL     1       8.453  10.905 -10.747  1.00  0.00     0.064 A 
ATOM     75  C   UNL     1       8.548  10.874 -12.146  1.00  0.00     0.173 A 
ATOM     76  C   UNL     1       7.324  11.514 -10.183  1.00  0.00     0.173 A 
ATOM     77  F   UNL     1       9.620  10.319 -12.731  1.00  0.00    -0.203 F 
ATOM     78  C   UNL     1       7.562  11.445 -12.947  1.00  0.00     0.198 A 
ATOM     79  C   UNL     1       6.326  12.063 -10.986  1.00  0.00     0.198 A 
ATOM     80  F   UNL     1       7.183  11.565  -8.850  1.00  0.00    -0.203 F 
ATOM     81  F   UNL     1       7.698  11.437 -14.280  1.00  0.00    -0.200 F 
ATOM     82  C   UNL     1       6.449  12.035 -12.367  1.00  0.00     0.200 A 
ATOM     83  F   UNL     1       5.245  12.621 -10.422  1.00  0.00    -0.200 F 
ATOM     84  F   UNL     1       5.499  12.580 -13.139  1.00  0.00    -0.200 F 
ENDBRANCH  50  74
BRANCH  62  85
ATOM     85  C   UNL     1      15.106  12.571  -9.517  1.00  0.00     0.064 A 
ATOM     86  C   UNL     1      14.972  13.903  -9.100  1.00  0.00     0.173 A 
ATOM     87  C   UNL     1      16.140  12.262 -10.415  1.00  0.00     0.173 A 
ATOM     88  F   UNL     1      13.989  14.250  -8.255  1.00  0.00    -0.203 F 
ATOM     89  C   UNL     1      15.829  14.890  -9.578  1.00  0.00     0.198 A 
ATOM     90  C   UNL     1      17.012  13.246 -10.869  1.00  0.00     0.198 A 
ATOM     91  F   UNL     1      16.312  11.001 -10.838  1.00  0.00    -0.203 F 
ATOM     92  F   UNL     1      15.659  16.164  -9.198  1.00  0.00    -0.200 F 
ATOM     93  C   UNL     1      16.853  14.560 -10.455  1.00  0.00     0.200 A 
ATOM     94  F   UNL     1      18.007  12.924 -11.706  1.00  0.00    -0.200 F 
ATOM     95  F   UNL     1      17.683  15.511 -10.905  1.00  0.00    -0.200 F 
ENDBRANCH  62  85
ENDBRANCH  36  37
ENDBRANCH  28  31
ENDBRANCH  26  27
ENDBRANCH  25  26
ENDBRANCH  24  25
ENDBRANCH   1  24
TORSDOF 15
