REMARK SMILES CC(C)N1C[C@@H](C(=O)N[C@@H](C)CC(=O)NCCCCNC(=O)c2ccc(-c3c4nc(c(-c5c(F)c(F)c(F)c(F)c5F)c5ccc([nH]5)c(-c5c(F)c(F)c(F)c(F)c5F)c5nc(c(-c6c(F)c(F)c(F)c(F)c6F)c6ccc3[nH]6)C=C5)C=C4)cc2)CC1=O
REMARK SMILES IDX 16 1 15 2 13 3 14 4 12 6 10 7 11 8 9 9 7 10 8 11 6 13 4 14
REMARK SMILES IDX 5 15 87 16 86 17 88 18 2 19 1 20 3 21 17 22 18 23 19 24
REMARK SMILES IDX 20 25 21 26 22 28 23 29 24 30 85 31 25 32 84 33 26 34 27 35
REMARK SMILES IDX 28 36 78 37 29 38 83 39 77 40 79 41 30 42 82 43 76 44 75 45
REMARK SMILES IDX 31 47 63 48 43 49 62 50 44 51 47 52 61 53 80 54 45 55 46 56
REMARK SMILES IDX 60 58 81 59 48 60 32 61 33 62 41 63 34 64 35 65 39 66 42 67
REMARK SMILES IDX 36 68 37 69 40 70 38 71 64 72 65 73 73 74 66 75 67 76 71 77
REMARK SMILES IDX 74 78 68 79 69 80 72 81 70 82 49 83 50 84 58 85 51 86 52 87
REMARK SMILES IDX 56 88 59 89 53 90 54 91 57 92 55 93
REMARK H PARENT 15 5 9 12 20 27 79 46 47 57
REMARK Flexibility Score: inf
ROOT
ATOM      1  C   UNL     1      -4.017  -4.207   2.929  1.00  0.00     0.116 C 
ENDROOT
BRANCH   1   2
ATOM      2  N   UNL     1      -2.623  -3.979   3.260  1.00  0.00    -0.356 N 
ATOM      3  C   UNL     1      -2.075  -3.005   4.040  1.00  0.00     0.222 C 
ATOM      4  O   UNL     1      -0.849  -2.880   4.044  1.00  0.00    -0.275 OA
ATOM      5  H   UNL     1      -1.984  -4.616   2.866  1.00  0.00     0.163 HD
BRANCH   3   6
ATOM      6  C   UNL     1      -2.954  -2.108   4.887  1.00  0.00     0.124 C 
BRANCH   6   7
ATOM      7  C   UNL     1      -3.338  -0.767   4.236  1.00  0.00     0.088 C 
ATOM      8  C   UNL     1      -3.932   0.149   5.310  1.00  0.00     0.031 C 
BRANCH   7   9
ATOM      9  N   UNL     1      -4.355  -0.919   3.194  1.00  0.00    -0.353 N 
ATOM     10  C   UNL     1      -4.414  -0.543   1.893  1.00  0.00     0.225 C 
ATOM     11  O   UNL     1      -5.510  -0.681   1.338  1.00  0.00    -0.275 OA
ATOM     12  H   UNL     1      -5.162  -1.391   3.502  1.00  0.00     0.163 HD
BRANCH  10  13
ATOM     13  C   UNL     1      -3.252   0.016   1.098  1.00  0.00     0.107 C 
ATOM     14  N   UNL     1      -0.949   0.433   1.351  1.00  0.00    -0.339 N 
ATOM     15  C   UNL     1      -1.897  -0.650   1.249  1.00  0.00     0.133 C 
ATOM     16  C   UNL     1      -1.554   1.678   1.294  1.00  0.00     0.223 C 
ATOM     17  C   UNL     1      -3.041   1.490   1.388  1.00  0.00     0.115 C 
ATOM     18  O   UNL     1      -1.010   2.765   1.228  1.00  0.00    -0.275 OA
BRANCH  14  19
ATOM     19  C   UNL     1       0.495   0.178   1.353  1.00  0.00     0.078 C 
ATOM     20  C   UNL     1       1.057   0.163  -0.065  1.00  0.00     0.031 C 
ATOM     21  C   UNL     1       1.272   1.156   2.238  1.00  0.00     0.031 C 
ENDBRANCH  14  19
ENDBRANCH  10  13
ENDBRANCH   7   9
ENDBRANCH   6   7
ENDBRANCH   3   6
ENDBRANCH   1   2
BRANCH   1  22
ATOM     22  C   UNL     1      -4.326  -3.686   1.530  1.00  0.00     0.023 C 
BRANCH  22  23
ATOM     23  C   UNL     1      -3.952  -4.597   0.376  1.00  0.00     0.023 C 
BRANCH  23  24
ATOM     24  C   UNL     1      -4.672  -5.929   0.375  1.00  0.00     0.116 C 
BRANCH  24  25
ATOM     25  N   UNL     1      -6.123  -5.808   0.325  1.00  0.00    -0.352 N 
ATOM     26  C   UNL     1      -7.013  -6.419  -0.528  1.00  0.00     0.251 C 
ATOM     27  H   UNL     1      -6.522  -5.206   0.994  1.00  0.00     0.163 HD
ATOM     28  O   UNL     1      -8.205  -6.138  -0.504  1.00  0.00    -0.269 OA
BRANCH  26  29
ATOM     29  C   UNL     1      -6.495  -7.383  -1.518  1.00  0.00     0.039 A 
ATOM     30  C   UNL     1      -6.840  -7.223  -2.861  1.00  0.00     0.014 A 
ATOM     31  C   UNL     1      -5.573  -8.358  -1.131  1.00  0.00     0.014 A 
ATOM     32  C   UNL     1      -6.171  -7.970  -3.830  1.00  0.00     0.010 A 
ATOM     33  C   UNL     1      -4.827  -9.010  -2.102  1.00  0.00     0.010 A 
ATOM     34  C   UNL     1      -5.112  -8.817  -3.462  1.00  0.00    -0.014 A 
BRANCH  34  35
ATOM     35  C   UNL     1      -4.268  -9.492  -4.479  1.00  0.00     0.031 A 
ATOM     36  C   UNL     1      -4.171 -10.990  -4.497  1.00  0.00     0.074 A 
ATOM     37  C   UNL     1      -3.511  -8.752  -5.314  1.00  0.00     0.049 A 
ATOM     38  N   UNL     1      -3.413 -11.762  -5.232  1.00  0.00    -0.248 NA
ATOM     39  C   UNL     1      -5.013 -11.716  -3.533  1.00  0.00     0.031 C 
ATOM     40  C   UNL     1      -3.466  -7.289  -5.344  1.00  0.00     0.029 A 
ATOM     41  N   UNL     1      -2.619  -9.131  -6.286  1.00  0.00    -0.354 N 
ATOM     42  C   UNL     1      -3.671 -13.057  -4.804  1.00  0.00     0.074 A 
ATOM     43  C   UNL     1      -4.604 -12.964  -3.704  1.00  0.00     0.031 C 
ATOM     44  C   UNL     1      -2.607  -6.894  -6.297  1.00  0.00     0.029 A 
ATOM     45  C   UNL     1      -2.004  -8.073  -6.911  1.00  0.00     0.049 A 
ATOM     46  H   UNL     1      -2.436 -10.071  -6.514  1.00  0.00     0.167 HD
ATOM     47  C   UNL     1      -3.191 -14.221  -5.303  1.00  0.00     0.037 A 
ATOM     48  C   UNL     1      -1.046  -8.053  -7.857  1.00  0.00     0.037 A 
ATOM     49  C   UNL     1      -2.278 -14.303  -6.412  1.00  0.00     0.049 A 
ATOM     50  C   UNL     1      -0.522  -9.358  -8.393  1.00  0.00     0.074 A 
ATOM     51  C   UNL     1      -1.801 -15.432  -7.053  1.00  0.00     0.029 A 
ATOM     52  N   UNL     1      -1.694 -13.210  -7.037  1.00  0.00    -0.354 N 
ATOM     53  N   UNL     1      -0.846 -10.581  -8.050  1.00  0.00    -0.248 NA
ATOM     54  C   UNL     1       0.498  -9.281  -9.448  1.00  0.00     0.031 C 
ATOM     55  C   UNL     1      -0.874 -15.025  -8.018  1.00  0.00     0.029 A 
ATOM     56  C   UNL     1      -0.824 -13.640  -8.026  1.00  0.00     0.049 A 
ATOM     57  H   UNL     1      -1.872 -12.268  -6.811  1.00  0.00     0.167 HD
ATOM     58  C   UNL     1      -0.083 -11.419  -8.852  1.00  0.00     0.074 A 
ATOM     59  C   UNL     1       0.703 -10.563  -9.717  1.00  0.00     0.031 C 
ATOM     60  C   UNL     1      -0.037 -12.774  -8.869  1.00  0.00     0.037 A 
BRANCH  47  61
ATOM     61  C   UNL     1      -3.635 -15.494  -4.640  1.00  0.00     0.064 A 
ATOM     62  C   UNL     1      -4.967 -15.935  -4.696  1.00  0.00     0.173 A 
ATOM     63  C   UNL     1      -2.712 -16.291  -3.946  1.00  0.00     0.173 A 
ATOM     64  F   UNL     1      -5.894 -15.207  -5.337  1.00  0.00    -0.203 F 
ATOM     65  C   UNL     1      -5.366 -17.101  -4.046  1.00  0.00     0.198 A 
ATOM     66  C   UNL     1      -3.107 -17.476  -3.329  1.00  0.00     0.198 A 
ATOM     67  F   UNL     1      -1.425 -15.921  -3.863  1.00  0.00    -0.203 F 
ATOM     68  F   UNL     1      -6.656 -17.464  -4.057  1.00  0.00    -0.200 F 
ATOM     69  C   UNL     1      -4.435 -17.873  -3.369  1.00  0.00     0.200 A 
ATOM     70  F   UNL     1      -2.203 -18.228  -2.688  1.00  0.00    -0.200 F 
ATOM     71  F   UNL     1      -4.819 -18.995  -2.745  1.00  0.00    -0.200 F 
ENDBRANCH  47  61
BRANCH  48  72
ATOM     72  C   UNL     1      -0.525  -6.751  -8.351  1.00  0.00     0.064 A 
ATOM     73  C   UNL     1      -0.796  -6.307  -9.652  1.00  0.00     0.173 A 
ATOM     74  C   UNL     1       0.235  -5.912  -7.521  1.00  0.00     0.173 A 
ATOM     75  F   UNL     1      -1.501  -7.080 -10.490  1.00  0.00    -0.203 F 
ATOM     76  C   UNL     1      -0.317  -5.080 -10.108  1.00  0.00     0.198 A 
ATOM     77  C   UNL     1       0.687  -4.672  -7.968  1.00  0.00     0.198 A 
ATOM     78  F   UNL     1       0.518  -6.287  -6.265  1.00  0.00    -0.203 F 
ATOM     79  F   UNL     1      -0.558  -4.696 -11.370  1.00  0.00    -0.200 F 
ATOM     80  C   UNL     1       0.416  -4.260  -9.264  1.00  0.00     0.200 A 
ATOM     81  F   UNL     1       1.379  -3.876  -7.142  1.00  0.00    -0.200 F 
ATOM     82  F   UNL     1       0.865  -3.075  -9.699  1.00  0.00    -0.200 F 
ENDBRANCH  48  72
BRANCH  60  83
ATOM     83  C   UNL     1       0.890 -13.421  -9.858  1.00  0.00     0.064 A 
ATOM     84  C   UNL     1       2.283 -13.372  -9.699  1.00  0.00     0.173 A 
ATOM     85  C   UNL     1       0.379 -14.147 -10.945  1.00  0.00     0.173 A 
ATOM     86  F   UNL     1       2.823 -12.678  -8.685  1.00  0.00    -0.203 F 
ATOM     87  C   UNL     1       3.129 -14.009 -10.602  1.00  0.00     0.198 A 
ATOM     88  C   UNL     1       1.227 -14.811 -11.826  1.00  0.00     0.198 A 
ATOM     89  F   UNL     1      -0.946 -14.231 -11.139  1.00  0.00    -0.203 F 
ATOM     90  F   UNL     1       4.458 -13.911 -10.455  1.00  0.00    -0.200 F 
ATOM     91  C   UNL     1       2.601 -14.736 -11.658  1.00  0.00     0.200 A 
ATOM     92  F   UNL     1       0.713 -15.527 -12.835  1.00  0.00    -0.200 F 
ATOM     93  F   UNL     1       3.417 -15.361 -12.518  1.00  0.00    -0.200 F 
ENDBRANCH  60  83
ENDBRANCH  34  35
ENDBRANCH  26  29
ENDBRANCH  24  25
ENDBRANCH  23  24
ENDBRANCH  22  23
ENDBRANCH   1  22
TORSDOF 15
