REMARK SMILES O=C(NCCCCNC(=O)[C@H]1CC=CC[C@@H]1C(=O)Nc1nn(Cc2ccccc2F)cc1Br)c1ccc(-c2c3nc(c(-c4c(F)c(F)c(F)c(F)c4F)c4ccc([nH]4)c(-c4c(F)c(F)c(F)c(F)c4F)c4nc(c(-c5c(F)c(F)c(F)c(F)c5F)c5ccc2[nH]5)C=C4)C=C3)cc1
REMARK SMILES IDX 6 1 5 2 4 3 3 4 1 5 2 6 34 8 35 9 96 10 36 11 95 12 37 13
REMARK SMILES IDX 38 14 39 15 89 16 40 17 94 18 88 19 90 20 41 21 93 22 87 23
REMARK SMILES IDX 86 24 42 26 74 27 54 28 73 29 55 30 58 31 72 32 91 33 56 34
REMARK SMILES IDX 57 35 71 37 92 38 59 39 43 40 44 41 52 42 45 43 46 44 50 45
REMARK SMILES IDX 53 46 47 47 48 48 51 49 49 50 75 51 76 52 84 53 77 54 78 55
REMARK SMILES IDX 82 56 85 57 79 58 80 59 83 60 81 61 60 62 61 63 69 64 62 65
REMARK SMILES IDX 63 66 67 67 70 68 64 69 65 70 68 71 66 72 7 73 8 74 9 75
REMARK SMILES IDX 10 77 11 78 12 79 16 80 13 81 15 82 14 83 17 84 18 85 19 86
REMARK SMILES IDX 20 88 21 89 32 90 22 91 31 92 33 93 23 94 24 95 25 96 29 97
REMARK SMILES IDX 26 98 28 99 30 100 27 101
REMARK H PARENT 3 7 90 25 58 36 8 76 19 87
REMARK Flexibility Score: inf
ROOT
ATOM      1  C   UNL     1       5.055   2.165   2.730  1.00  0.00     0.023 C 
ENDROOT
BRANCH   1   2
ATOM      2  C   UNL     1       5.253   1.935   1.225  1.00  0.00     0.023 C 
BRANCH   2   3
ATOM      3  C   UNL     1       4.725   0.602   0.696  1.00  0.00     0.116 C 
BRANCH   3   4
ATOM      4  N   UNL     1       3.309   0.377   0.896  1.00  0.00    -0.352 N 
ATOM      5  O   UNL     1       1.304  -0.383   0.311  1.00  0.00    -0.269 OA
ATOM      6  C   UNL     1       2.267   0.328   0.009  1.00  0.00     0.251 C 
ATOM      7  H   UNL     1       3.049   0.234   1.835  1.00  0.00     0.163 HD
BRANCH   6   8
ATOM      8  C   UNL     1       2.197   1.170  -1.216  1.00  0.00     0.039 A 
ATOM      9  C   UNL     1       3.275   1.849  -1.780  1.00  0.00     0.014 A 
ATOM     10  C   UNL     1       0.918   1.349  -1.781  1.00  0.00     0.014 A 
ATOM     11  C   UNL     1       3.080   2.730  -2.831  1.00  0.00     0.010 A 
ATOM     12  C   UNL     1       0.715   2.234  -2.838  1.00  0.00     0.010 A 
ATOM     13  C   UNL     1       1.799   2.939  -3.344  1.00  0.00    -0.014 A 
BRANCH  13  14
ATOM     14  C   UNL     1       1.716   3.777  -4.533  1.00  0.00     0.031 A 
ATOM     15  C   UNL     1       2.431   3.212  -5.711  1.00  0.00     0.074 A 
ATOM     16  C   UNL     1       1.039   4.936  -4.619  1.00  0.00     0.049 A 
ATOM     17  N   UNL     1       3.468   3.693  -6.315  1.00  0.00    -0.248 NA
ATOM     18  C   UNL     1       2.013   1.889  -6.195  1.00  0.00     0.031 C 
ATOM     19  C   UNL     1       0.075   5.496  -3.675  1.00  0.00     0.029 A 
ATOM     20  N   UNL     1       1.024   5.831  -5.649  1.00  0.00    -0.354 N 
ATOM     21  C   UNL     1       3.745   2.816  -7.360  1.00  0.00     0.074 A 
ATOM     22  C   UNL     1       2.903   1.665  -7.162  1.00  0.00     0.031 C 
ATOM     23  C   UNL     1      -0.586   6.516  -4.271  1.00  0.00     0.029 A 
ATOM     24  C   UNL     1       0.003   6.767  -5.577  1.00  0.00     0.049 A 
ATOM     25  H   UNL     1       1.683   5.813  -6.381  1.00  0.00     0.167 HD
ATOM     26  C   UNL     1       4.503   3.200  -8.423  1.00  0.00     0.037 A 
ATOM     27  C   UNL     1      -0.360   7.635  -6.554  1.00  0.00     0.037 A 
ATOM     28  C   UNL     1       5.311   4.346  -8.103  1.00  0.00     0.049 A 
ATOM     29  C   UNL     1       0.790   7.781  -7.479  1.00  0.00     0.074 A 
ATOM     30  C   UNL     1       6.316   4.608  -7.193  1.00  0.00     0.029 A 
ATOM     31  N   UNL     1       4.897   5.571  -8.561  1.00  0.00    -0.354 N 
ATOM     32  N   UNL     1       1.902   8.388  -7.181  1.00  0.00    -0.248 NA
ATOM     33  C   UNL     1       0.845   6.908  -8.642  1.00  0.00     0.031 C 
ATOM     34  C   UNL     1       6.120   5.965  -6.803  1.00  0.00     0.029 A 
ATOM     35  C   UNL     1       5.042   6.464  -7.535  1.00  0.00     0.049 A 
ATOM     36  H   UNL     1       4.557   5.770  -9.463  1.00  0.00     0.167 HD
ATOM     37  C   UNL     1       2.882   7.650  -7.822  1.00  0.00     0.074 A 
ATOM     38  C   UNL     1       2.168   6.832  -8.796  1.00  0.00     0.031 C 
ATOM     39  C   UNL     1       4.143   7.569  -7.308  1.00  0.00     0.037 A 
BRANCH  26  40
ATOM     40  C   UNL     1       4.240   2.775  -9.848  1.00  0.00     0.064 A 
ATOM     41  C   UNL     1       2.998   2.280 -10.301  1.00  0.00     0.173 A 
ATOM     42  C   UNL     1       5.140   3.168 -10.861  1.00  0.00     0.173 A 
ATOM     43  F   UNL     1       2.011   1.953  -9.460  1.00  0.00    -0.203 F 
ATOM     44  C   UNL     1       2.670   2.212 -11.654  1.00  0.00     0.198 A 
ATOM     45  C   UNL     1       4.787   3.149 -12.213  1.00  0.00     0.198 A 
ATOM     46  F   UNL     1       6.343   3.674 -10.549  1.00  0.00    -0.203 F 
ATOM     47  F   UNL     1       1.457   1.770 -12.014  1.00  0.00    -0.200 F 
ATOM     48  C   UNL     1       3.549   2.677 -12.608  1.00  0.00     0.200 A 
ATOM     49  F   UNL     1       5.623   3.661 -13.126  1.00  0.00    -0.200 F 
ATOM     50  F   UNL     1       3.183   2.718 -13.895  1.00  0.00    -0.200 F 
ENDBRANCH  26  40
BRANCH  27  51
ATOM     51  C   UNL     1      -1.714   8.109  -6.932  1.00  0.00     0.064 A 
ATOM     52  C   UNL     1      -2.857   7.327  -6.690  1.00  0.00     0.173 A 
ATOM     53  C   UNL     1      -1.870   9.185  -7.825  1.00  0.00     0.173 A 
ATOM     54  F   UNL     1      -2.796   6.242  -5.906  1.00  0.00    -0.203 F 
ATOM     55  C   UNL     1      -4.070   7.576  -7.336  1.00  0.00     0.198 A 
ATOM     56  C   UNL     1      -3.082   9.428  -8.478  1.00  0.00     0.198 A 
ATOM     57  F   UNL     1      -0.822   9.961  -8.139  1.00  0.00    -0.203 F 
ATOM     58  F   UNL     1      -5.112   6.760  -7.128  1.00  0.00    -0.200 F 
ATOM     59  C   UNL     1      -4.176   8.613  -8.245  1.00  0.00     0.200 A 
ATOM     60  F   UNL     1      -3.167  10.410  -9.387  1.00  0.00    -0.200 F 
ATOM     61  F   UNL     1      -5.315   8.796  -8.927  1.00  0.00    -0.200 F 
ENDBRANCH  27  51
BRANCH  39  62
ATOM     62  C   UNL     1       4.542   8.561  -6.253  1.00  0.00     0.064 A 
ATOM     63  C   UNL     1       5.696   9.324  -6.481  1.00  0.00     0.173 A 
ATOM     64  C   UNL     1       3.923   8.681  -4.997  1.00  0.00     0.173 A 
ATOM     65  F   UNL     1       6.356   9.213  -7.646  1.00  0.00    -0.203 F 
ATOM     66  C   UNL     1       6.214  10.164  -5.502  1.00  0.00     0.198 A 
ATOM     67  C   UNL     1       4.420   9.557  -4.032  1.00  0.00     0.198 A 
ATOM     68  F   UNL     1       2.875   7.916  -4.663  1.00  0.00    -0.203 F 
ATOM     69  F   UNL     1       7.354  10.830  -5.731  1.00  0.00    -0.200 F 
ATOM     70  C   UNL     1       5.570  10.289  -4.282  1.00  0.00     0.200 A 
ATOM     71  F   UNL     1       3.808   9.667  -2.844  1.00  0.00    -0.200 F 
ATOM     72  F   UNL     1       6.076  11.093  -3.336  1.00  0.00    -0.200 F 
ENDBRANCH  39  62
ENDBRANCH  13  14
ENDBRANCH   6   8
ENDBRANCH   3   4
ENDBRANCH   2   3
ENDBRANCH   1   2
BRANCH   1  73
ATOM     73  C   UNL     1       5.503   1.010   3.624  1.00  0.00     0.116 C 
BRANCH  73  74
ATOM     74  N   UNL     1       6.759   1.209   4.305  1.00  0.00    -0.356 N 
ATOM     75  C   UNL     1       7.075   1.071   5.621  1.00  0.00     0.224 C 
ATOM     76  H   UNL     1       7.504   1.490   3.727  1.00  0.00     0.163 HD
ATOM     77  O   UNL     1       8.250   0.753   5.851  1.00  0.00    -0.275 OA
BRANCH  75  78
ATOM     78  C   UNL     1       6.153   1.454   6.793  1.00  0.00     0.095 C 
ATOM     79  C   UNL     1       6.276   2.966   7.015  1.00  0.00     0.041 C 
ATOM     80  C   UNL     1       4.708   0.927   6.787  1.00  0.00     0.095 C 
ATOM     81  C   UNL     1       5.288   3.773   6.236  1.00  0.00    -0.030 C 
ATOM     82  C   UNL     1       3.639   1.915   6.229  1.00  0.00     0.041 C 
ATOM     83  C   UNL     1       4.101   3.286   5.867  1.00  0.00    -0.030 C 
BRANCH  80  84
ATOM     84  C   UNL     1       4.189   0.494   8.175  1.00  0.00     0.229 C 
ATOM     85  O   UNL     1       4.731   0.847   9.223  1.00  0.00    -0.274 OA
ATOM     86  N   UNL     1       2.958  -0.131   8.217  1.00  0.00    -0.308 N 
ATOM     87  H   UNL     1       2.471  -0.127   9.073  1.00  0.00     0.171 HD
BRANCH  86  88
ATOM     88  C   UNL     1       2.363  -0.759   7.144  1.00  0.00     0.168 A 
ATOM     89  N   UNL     1       3.058  -1.539   6.322  1.00  0.00    -0.153 NA
ATOM     90  C   UNL     1       1.027  -0.666   6.711  1.00  0.00     0.080 A 
ATOM     91  N   UNL     1       2.194  -1.946   5.381  1.00  0.00    -0.265 N 
ATOM     92  C   UNL     1       0.955  -1.383   5.540  1.00  0.00     0.127 A 
ATOM     93  Br  UNL     1      -0.305   0.403   7.471  1.00  0.00    -0.045 Br
BRANCH  91  94
ATOM     94  C   UNL     1       2.573  -2.997   4.431  1.00  0.00     0.182 C 
BRANCH  94  95
ATOM     95  C   UNL     1       3.915  -2.825   3.755  1.00  0.00     0.009 A 
ATOM     96  C   UNL     1       3.998  -2.760   2.354  1.00  0.00     0.008 A 
ATOM     97  C   UNL     1       5.119  -2.830   4.474  1.00  0.00     0.128 A 
ATOM     98  C   UNL     1       5.242  -2.676   1.715  1.00  0.00     0.001 A 
ATOM     99  C   UNL     1       6.353  -2.673   3.847  1.00  0.00     0.039 A 
ATOM    100  F   UNL     1       5.124  -3.036   5.797  1.00  0.00    -0.207 F 
ATOM    101  C   UNL     1       6.417  -2.596   2.460  1.00  0.00     0.003 A 
ENDBRANCH  94  95
ENDBRANCH  91  94
ENDBRANCH  86  88
ENDBRANCH  80  84
ENDBRANCH  75  78
ENDBRANCH  73  74
ENDBRANCH   1  73
TORSDOF 15
