REMARK SMILES N#C/C(=C/c1cccn1-c1ccc(C(=O)NCCCCNC(=O)c2ccc(-c3c4nc(c(-c5c(F)c(F)c(F)c(F)c5F)c5ccc([nH]5)c(-c5c(F)c(F)c(F)c(F)c5F)c5nc(c(-c6c(F)c(F)c(F)c(F)c6F)c6ccc3[nH]6)C=C5)C=C4)cc2)cc1)C(=O)Nc1ccc(O)cc1
REMARK SMILES IDX 17 1 16 2 14 3 15 4 13 6 10 7 11 8 88 9 12 10 87 11 9 12
REMARK SMILES IDX 5 13 6 14 7 15 8 16 4 17 3 18 2 19 1 20 89 21 90 22 91 23
REMARK SMILES IDX 92 25 93 26 98 27 94 28 97 29 95 30 96 31 18 33 19 34 20 35
REMARK SMILES IDX 21 36 22 37 23 39 24 40 25 41 86 42 26 43 85 44 27 45 28 46
REMARK SMILES IDX 29 47 79 48 30 49 84 50 78 51 80 52 31 53 83 54 77 55 76 56
REMARK SMILES IDX 32 58 64 59 44 60 63 61 45 62 48 63 62 64 81 65 46 66 47 67
REMARK SMILES IDX 61 69 82 70 49 71 33 72 34 73 42 74 35 75 36 76 40 77 43 78
REMARK SMILES IDX 37 79 38 80 41 81 39 82 65 83 66 84 74 85 67 86 68 87 72 88
REMARK SMILES IDX 75 89 69 90 70 91 73 92 71 93 50 94 51 95 59 96 52 97 53 98
REMARK SMILES IDX 57 99 60 100 54 101 55 102 58 103 56 104
REMARK H PARENT 16 5 91 24 96 32 21 38 80 57 48 68
REMARK Flexibility Score: inf
ROOT
ATOM      1  C   UNL     1       3.114  -2.905  -6.243  1.00  0.00     0.116 C 
ENDROOT
BRANCH   1   2
ATOM      2  N   UNL     1       3.877  -4.144  -6.211  1.00  0.00    -0.352 N 
ATOM      3  C   UNL     1       4.801  -4.700  -5.362  1.00  0.00     0.251 C 
ATOM      4  O   UNL     1       5.284  -5.782  -5.700  1.00  0.00    -0.269 OA
ATOM      5  H   UNL     1       3.684  -4.723  -6.984  1.00  0.00     0.163 HD
BRANCH   3   6
ATOM      6  C   UNL     1       5.193  -4.127  -4.046  1.00  0.00     0.039 A 
ATOM      7  C   UNL     1       5.755  -3.252  -1.408  1.00  0.00     0.046 A 
ATOM      8  C   UNL     1       6.091  -4.549  -1.801  1.00  0.00     0.027 A 
ATOM      9  C   UNL     1       5.194  -2.400  -2.363  1.00  0.00     0.027 A 
ATOM     10  C   UNL     1       5.775  -4.988  -3.097  1.00  0.00     0.016 A 
ATOM     11  C   UNL     1       5.008  -2.802  -3.685  1.00  0.00     0.016 A 
BRANCH   7  12
ATOM     12  N   UNL     1       6.043  -2.783  -0.082  1.00  0.00    -0.317 N 
ATOM     13  C   UNL     1       5.406  -1.766   0.643  1.00  0.00     0.047 A 
ATOM     14  C   UNL     1       6.066  -1.614   1.850  1.00  0.00     0.028 A 
ATOM     15  C   UNL     1       7.135  -2.530   1.877  1.00  0.00     0.020 A 
ATOM     16  C   UNL     1       7.083  -3.250   0.706  1.00  0.00     0.092 A 
BRANCH  13  17
ATOM     17  C   UNL     1       4.163  -1.242   0.226  1.00  0.00     0.052 C 
ATOM     18  C   UNL     1       3.760   0.044   0.087  1.00  0.00     0.119 C 
BRANCH  18  19
ATOM     19  C   UNL     1       2.240   0.044   0.087  1.00  0.00     0.105 C 
ATOM     20  N   UNL     1       0.979   0.044   0.087  1.00  0.00    -0.192 NA
ENDBRANCH  18  19
BRANCH  18  21
ATOM     21  C   UNL     1       4.536   1.319   0.245  1.00  0.00     0.266 C 
ATOM     22  O   UNL     1       3.900   2.340   0.532  1.00  0.00    -0.268 OA
ATOM     23  N   UNL     1       5.908   1.445   0.226  1.00  0.00    -0.321 N 
ATOM     24  H   UNL     1       6.209   2.252   0.703  1.00  0.00     0.170 HD
BRANCH  23  25
ATOM     25  C   UNL     1       6.990   0.712  -0.303  1.00  0.00     0.041 A 
ATOM     26  C   UNL     1       8.150   0.601   0.480  1.00  0.00     0.030 A 
ATOM     27  C   UNL     1       7.001   0.142  -1.573  1.00  0.00     0.030 A 
ATOM     28  C   UNL     1       9.203  -0.239   0.092  1.00  0.00     0.048 A 
ATOM     29  C   UNL     1       8.062  -0.692  -1.975  1.00  0.00     0.048 A 
ATOM     30  C   UNL     1       9.123  -0.926  -1.109  1.00  0.00     0.115 A 
BRANCH  30  31
ATOM     31  O   UNL     1      10.088  -1.846  -1.389  1.00  0.00    -0.508 OA
ATOM     32  H   UNL     1      10.793  -1.985  -0.788  1.00  0.00     0.293 HD
ENDBRANCH  30  31
ENDBRANCH  23  25
ENDBRANCH  18  21
ENDBRANCH  13  17
ENDBRANCH   7  12
ENDBRANCH   3   6
ENDBRANCH   1   2
BRANCH   1  33
ATOM     33  C   UNL     1       3.649  -1.985  -7.344  1.00  0.00     0.023 C 
BRANCH  33  34
ATOM     34  C   UNL     1       3.175  -2.393  -8.749  1.00  0.00     0.023 C 
BRANCH  34  35
ATOM     35  C   UNL     1       1.671  -2.203  -8.978  1.00  0.00     0.116 C 
BRANCH  35  36
ATOM     36  N   UNL     1       1.306  -0.798  -8.931  1.00  0.00    -0.352 N 
ATOM     37  C   UNL     1       0.073  -0.212  -9.064  1.00  0.00     0.251 C 
ATOM     38  H   UNL     1       2.054  -0.175  -8.782  1.00  0.00     0.163 HD
ATOM     39  O   UNL     1       0.006   0.954  -9.434  1.00  0.00    -0.269 OA
BRANCH  37  40
ATOM     40  C   UNL     1      -1.177  -0.948  -8.775  1.00  0.00     0.039 A 
ATOM     41  C   UNL     1      -2.265  -0.747  -9.635  1.00  0.00     0.014 A 
ATOM     42  C   UNL     1      -1.329  -1.728  -7.623  1.00  0.00     0.014 A 
ATOM     43  C   UNL     1      -3.482  -1.373  -9.376  1.00  0.00     0.010 A 
ATOM     44  C   UNL     1      -2.547  -2.365  -7.363  1.00  0.00     0.010 A 
ATOM     45  C   UNL     1      -3.616  -2.210  -8.257  1.00  0.00    -0.014 A 
BRANCH  45  46
ATOM     46  C   UNL     1      -4.773  -3.146  -8.237  1.00  0.00     0.031 A 
ATOM     47  C   UNL     1      -4.520  -4.319  -9.226  1.00  0.00     0.074 A 
ATOM     48  C   UNL     1      -5.850  -2.842  -7.442  1.00  0.00     0.049 A 
ATOM     49  N   UNL     1      -5.358  -5.073  -9.868  1.00  0.00    -0.248 NA
ATOM     50  C   UNL     1      -3.116  -4.667  -9.604  1.00  0.00     0.031 C 
ATOM     51  C   UNL     1      -5.893  -1.727  -6.471  1.00  0.00     0.029 A 
ATOM     52  N   UNL     1      -7.119  -3.384  -7.274  1.00  0.00    -0.354 N 
ATOM     53  C   UNL     1      -4.615  -6.084 -10.529  1.00  0.00     0.074 A 
ATOM     54  C   UNL     1      -3.244  -5.701 -10.438  1.00  0.00     0.031 C 
ATOM     55  C   UNL     1      -7.115  -1.618  -5.899  1.00  0.00     0.029 A 
ATOM     56  C   UNL     1      -7.998  -2.646  -6.419  1.00  0.00     0.049 A 
ATOM     57  H   UNL     1      -7.395  -4.220  -7.715  1.00  0.00     0.167 HD
ATOM     58  C   UNL     1      -5.177  -7.254 -10.961  1.00  0.00     0.037 A 
ATOM     59  C   UNL     1      -9.341  -2.828  -6.178  1.00  0.00     0.037 A 
ATOM     60  C   UNL     1      -6.579  -7.207 -10.740  1.00  0.00     0.049 A 
ATOM     61  C   UNL     1      -9.650  -4.117  -6.797  1.00  0.00     0.074 A 
ATOM     62  C   UNL     1      -7.569  -6.470 -11.331  1.00  0.00     0.029 A 
ATOM     63  N   UNL     1      -7.021  -7.696  -9.536  1.00  0.00    -0.354 N 
ATOM     64  N   UNL     1      -9.320  -5.262  -6.283  1.00  0.00    -0.248 NA
ATOM     65  C   UNL     1     -10.329  -4.142  -8.098  1.00  0.00     0.031 C 
ATOM     66  C   UNL     1      -8.377  -6.113 -10.237  1.00  0.00     0.029 A 
ATOM     67  C   UNL     1      -8.028  -6.874  -9.114  1.00  0.00     0.049 A 
ATOM     68  H   UNL     1      -6.676  -8.489  -9.064  1.00  0.00     0.167 HD
ATOM     69  C   UNL     1      -9.423  -6.088  -7.372  1.00  0.00     0.074 A 
ATOM     70  C   UNL     1     -10.349  -5.458  -8.289  1.00  0.00     0.031 C 
ATOM     71  C   UNL     1      -8.345  -6.840  -7.710  1.00  0.00     0.037 A 
BRANCH  58  72
ATOM     72  C   UNL     1      -4.606  -8.602 -11.320  1.00  0.00     0.064 A 
ATOM     73  C   UNL     1      -5.477  -9.549 -11.924  1.00  0.00     0.173 A 
ATOM     74  C   UNL     1      -3.439  -9.119 -10.747  1.00  0.00     0.173 A 
ATOM     75  F   UNL     1      -6.595  -9.154 -12.555  1.00  0.00    -0.203 F 
ATOM     76  C   UNL     1      -5.281 -10.922 -11.795  1.00  0.00     0.198 A 
ATOM     77  C   UNL     1      -3.219 -10.499 -10.670  1.00  0.00     0.198 A 
ATOM     78  F   UNL     1      -2.543  -8.322 -10.155  1.00  0.00    -0.203 F 
ATOM     79  F   UNL     1      -6.220 -11.776 -12.228  1.00  0.00    -0.200 F 
ATOM     80  C   UNL     1      -4.161 -11.397 -11.146  1.00  0.00     0.200 A 
ATOM     81  F   UNL     1      -2.123 -10.958 -10.050  1.00  0.00    -0.200 F 
ATOM     82  F   UNL     1      -4.005 -12.712 -10.945  1.00  0.00    -0.200 F 
ENDBRANCH  58  72
BRANCH  59  83
ATOM     83  C   UNL     1     -10.539  -2.150  -5.523  1.00  0.00     0.064 A 
ATOM     84  C   UNL     1     -10.515  -1.000  -4.728  1.00  0.00     0.173 A 
ATOM     85  C   UNL     1     -11.863  -2.641  -5.772  1.00  0.00     0.173 A 
ATOM     86  F   UNL     1      -9.356  -0.491  -4.297  1.00  0.00    -0.203 F 
ATOM     87  C   UNL     1     -11.701  -0.339  -4.332  1.00  0.00     0.198 A 
ATOM     88  C   UNL     1     -13.031  -1.958  -5.437  1.00  0.00     0.198 A 
ATOM     89  F   UNL     1     -12.085  -3.824  -6.359  1.00  0.00    -0.203 F 
ATOM     90  F   UNL     1     -11.627   0.760  -3.569  1.00  0.00    -0.200 F 
ATOM     91  C   UNL     1     -12.951  -0.789  -4.728  1.00  0.00     0.200 A 
ATOM     92  F   UNL     1     -14.220  -2.441  -5.827  1.00  0.00    -0.200 F 
ATOM     93  F   UNL     1     -14.066  -0.115  -4.417  1.00  0.00    -0.200 F 
ENDBRANCH  59  83
BRANCH  71  94
ATOM     94  C   UNL     1      -7.425  -7.162  -6.543  1.00  0.00     0.064 A 
ATOM     95  C   UNL     1      -7.946  -7.815  -5.411  1.00  0.00     0.173 A 
ATOM     96  C   UNL     1      -6.093  -6.728  -6.437  1.00  0.00     0.173 A 
ATOM     97  F   UNL     1      -9.199  -8.295  -5.436  1.00  0.00    -0.203 F 
ATOM     98  C   UNL     1      -7.200  -7.980  -4.241  1.00  0.00     0.198 A 
ATOM     99  C   UNL     1      -5.340  -6.896  -5.269  1.00  0.00     0.198 A 
ATOM    100  F   UNL     1      -5.485  -6.136  -7.464  1.00  0.00    -0.203 F 
ATOM    101  F   UNL     1      -7.745  -8.595  -3.183  1.00  0.00    -0.200 F 
ATOM    102  C   UNL     1      -5.899  -7.514  -4.167  1.00  0.00     0.200 A 
ATOM    103  F   UNL     1      -4.071  -6.461  -5.219  1.00  0.00    -0.200 F 
ATOM    104  F   UNL     1      -5.180  -7.679  -3.047  1.00  0.00    -0.200 F 
ENDBRANCH  71  94
ENDBRANCH  45  46
ENDBRANCH  37  40
ENDBRANCH  35  36
ENDBRANCH  34  35
ENDBRANCH  33  34
ENDBRANCH   1  33
TORSDOF 17
