REMARK SMILES C[C@@H](NC(=O)CNC(=O)N1CC(=O)Nc2ccccc21)C(=O)NCCCCNC(=O)c1ccc(-c2c3nc(c(-c4c(F)c(F)c(F)c(F)c4F)c4ccc([nH]4)c(-c4c(F)c(F)c(F)c(F)c4F)c4nc(c(-c5c(F)c(F)c(F)c(F)c5F)c5ccc2[nH]5)C=C4)C=C3)cc1
REMARK SMILES IDX 24 1 23 2 21 3 22 4 2 6 1 7 3 8 4 9 5 11 6 12 7 13 8 14 9 16
REMARK SMILES IDX 10 17 11 18 20 19 12 20 15 21 19 22 13 23 14 24 16 25 18 26
REMARK SMILES IDX 17 28 25 29 26 30 27 31 28 32 29 33 30 35 31 36 32 37 93 38
REMARK SMILES IDX 33 39 92 40 34 41 35 42 36 43 86 44 37 45 91 46 85 47 87 48
REMARK SMILES IDX 38 49 90 50 84 51 83 52 39 54 71 55 51 56 70 57 52 58 55 59
REMARK SMILES IDX 69 60 88 61 53 62 54 63 68 65 89 66 56 67 40 68 41 69 49 70
REMARK SMILES IDX 42 71 43 72 47 73 50 74 44 75 45 76 48 77 46 78 72 79 73 80
REMARK SMILES IDX 81 81 74 82 75 83 79 84 82 85 76 86 77 87 80 88 78 89 57 90
REMARK SMILES IDX 58 91 66 92 59 93 60 94 64 95 67 96 61 97 62 98 65 99 63 100
REMARK H PARENT 23 5 3 10 7 15 14 27 28 34 87 53 55 64
REMARK Flexibility Score: inf
ROOT
ATOM      1  C   UNL     1      -0.450  -1.042  -1.962  1.00  0.00     0.116 C 
ENDROOT
BRANCH   1   2
ATOM      2  N   UNL     1      -0.710  -0.631  -0.598  1.00  0.00    -0.354 N 
ATOM      3  C   UNL     1      -0.097   0.335   0.143  1.00  0.00     0.242 C 
ATOM      4  O   UNL     1      -0.287   0.343   1.361  1.00  0.00    -0.273 OA
ATOM      5  H   UNL     1      -1.432  -1.119  -0.140  1.00  0.00     0.163 HD
BRANCH   3   6
ATOM      6  C   UNL     1       0.951   1.284  -0.463  1.00  0.00     0.168 C 
ATOM      7  C   UNL     1       2.316   0.618  -0.297  1.00  0.00     0.041 C 
BRANCH   6   8
ATOM      8  N   UNL     1       0.720   1.668  -1.854  1.00  0.00    -0.343 N 
ATOM      9  C   UNL     1      -0.287   2.435  -2.368  1.00  0.00     0.240 C 
ATOM     10  H   UNL     1       1.376   1.329  -2.506  1.00  0.00     0.164 HD
ATOM     11  O   UNL     1      -0.319   2.602  -3.589  1.00  0.00    -0.273 OA
BRANCH   9  12
ATOM     12  C   UNL     1      -1.436   2.909  -1.475  1.00  0.00     0.218 C 
BRANCH  12  13
ATOM     13  N   UNL     1      -2.552   1.968  -1.548  1.00  0.00    -0.329 N 
ATOM     14  C   UNL     1      -3.282   1.472  -0.498  1.00  0.00     0.322 C 
ATOM     15  H   UNL     1      -2.807   1.658  -2.446  1.00  0.00     0.165 HD
ATOM     16  O   UNL     1      -3.790   0.363  -0.626  1.00  0.00    -0.248 OA
BRANCH  14  17
ATOM     17  N   UNL     1      -3.329   2.256   0.634  1.00  0.00    -0.283 N 
ATOM     18  C   UNL     1      -3.675   3.673   0.543  1.00  0.00     0.227 C 
ATOM     19  C   UNL     1      -3.075   1.763   1.948  1.00  0.00     0.070 A 
ATOM     20  C   UNL     1      -2.757   4.556   1.367  1.00  0.00     0.244 C 
ATOM     21  C   UNL     1      -2.524   2.665   2.885  1.00  0.00     0.065 A 
ATOM     22  C   UNL     1      -3.206   0.420   2.310  1.00  0.00     0.028 A 
ATOM     23  O   UNL     1      -2.554   5.737   1.097  1.00  0.00    -0.273 OA
ATOM     24  N   UNL     1      -2.310   4.010   2.541  1.00  0.00    -0.323 N 
ATOM     25  C   UNL     1      -2.085   2.224   4.135  1.00  0.00     0.028 A 
ATOM     26  C   UNL     1      -2.784  -0.016   3.572  1.00  0.00     0.002 A 
ATOM     27  H   UNL     1      -1.818   4.585   3.171  1.00  0.00     0.170 HD
ATOM     28  C   UNL     1      -2.214   0.879   4.476  1.00  0.00     0.002 A 
ENDBRANCH  14  17
ENDBRANCH  12  13
ENDBRANCH   9  12
ENDBRANCH   6   8
ENDBRANCH   3   6
ENDBRANCH   1   2
BRANCH   1  29
ATOM     29  C   UNL     1      -1.039  -2.416  -2.269  1.00  0.00     0.023 C 
BRANCH  29  30
ATOM     30  C   UNL     1      -2.563  -2.434  -2.425  1.00  0.00     0.023 C 
BRANCH  30  31
ATOM     31  C   UNL     1      -3.106  -1.601  -3.584  1.00  0.00     0.116 C 
BRANCH  31  32
ATOM     32  N   UNL     1      -2.619  -2.067  -4.875  1.00  0.00    -0.352 N 
ATOM     33  C   UNL     1      -3.301  -2.625  -5.925  1.00  0.00     0.251 C 
ATOM     34  H   UNL     1      -1.649  -1.966  -5.015  1.00  0.00     0.163 HD
ATOM     35  O   UNL     1      -2.680  -3.151  -6.849  1.00  0.00    -0.269 OA
BRANCH  33  36
ATOM     36  C   UNL     1      -4.778  -2.612  -5.956  1.00  0.00     0.039 A 
ATOM     37  C   UNL     1      -5.454  -3.773  -6.342  1.00  0.00     0.014 A 
ATOM     38  C   UNL     1      -5.497  -1.453  -5.650  1.00  0.00     0.014 A 
ATOM     39  C   UNL     1      -6.850  -3.789  -6.365  1.00  0.00     0.010 A 
ATOM     40  C   UNL     1      -6.890  -1.489  -5.611  1.00  0.00     0.010 A 
ATOM     41  C   UNL     1      -7.580  -2.656  -5.972  1.00  0.00    -0.014 A 
BRANCH  41  42
ATOM     42  C   UNL     1      -9.065  -2.679  -5.936  1.00  0.00     0.031 A 
ATOM     43  C   UNL     1      -9.862  -1.817  -6.874  1.00  0.00     0.074 A 
ATOM     44  C   UNL     1      -9.696  -3.441  -5.022  1.00  0.00     0.049 A 
ATOM     45  N   UNL     1     -11.161  -1.667  -6.960  1.00  0.00    -0.248 NA
ATOM     46  C   UNL     1      -9.100  -1.000  -7.830  1.00  0.00     0.031 C 
ATOM     47  C   UNL     1      -9.035  -4.286  -4.027  1.00  0.00     0.029 A 
ATOM     48  N   UNL     1     -11.034  -3.619  -4.775  1.00  0.00    -0.354 N 
ATOM     49  C   UNL     1     -11.368  -0.735  -7.968  1.00  0.00     0.074 A 
ATOM     50  C   UNL     1     -10.063  -0.316  -8.431  1.00  0.00     0.031 C 
ATOM     51  C   UNL     1      -9.969  -4.905  -3.287  1.00  0.00     0.029 A 
ATOM     52  C   UNL     1     -11.292  -4.476  -3.733  1.00  0.00     0.049 A 
ATOM     53  H   UNL     1     -11.742  -3.175  -5.295  1.00  0.00     0.167 HD
ATOM     54  C   UNL     1     -12.541  -0.287  -8.476  1.00  0.00     0.037 A 
ATOM     55  C   UNL     1     -12.462  -4.866  -3.192  1.00  0.00     0.037 A 
ATOM     56  C   UNL     1     -13.839  -0.717  -8.027  1.00  0.00     0.049 A 
ATOM     57  C   UNL     1     -13.750  -4.349  -3.772  1.00  0.00     0.074 A 
ATOM     58  C   UNL     1     -15.085  -0.358  -8.514  1.00  0.00     0.029 A 
ATOM     59  N   UNL     1     -14.060  -1.601  -6.981  1.00  0.00    -0.354 N 
ATOM     60  N   UNL     1     -13.935  -3.518  -4.769  1.00  0.00    -0.248 NA
ATOM     61  C   UNL     1     -14.995  -4.831  -3.156  1.00  0.00     0.031 C 
ATOM     62  C   UNL     1     -16.059  -0.993  -7.737  1.00  0.00     0.029 A 
ATOM     63  C   UNL     1     -15.421  -1.785  -6.796  1.00  0.00     0.049 A 
ATOM     64  H   UNL     1     -13.354  -2.035  -6.449  1.00  0.00     0.167 HD
ATOM     65  C   UNL     1     -15.310  -3.398  -4.917  1.00  0.00     0.074 A 
ATOM     66  C   UNL     1     -15.914  -4.253  -3.916  1.00  0.00     0.031 C 
ATOM     67  C   UNL     1     -16.009  -2.644  -5.801  1.00  0.00     0.037 A 
BRANCH  54  68
ATOM     68  C   UNL     1     -12.474   0.722  -9.586  1.00  0.00     0.064 A 
ATOM     69  C   UNL     1     -12.035   0.370 -10.872  1.00  0.00     0.173 A 
ATOM     70  C   UNL     1     -12.891   2.045  -9.375  1.00  0.00     0.173 A 
ATOM     71  F   UNL     1     -11.616  -0.879 -11.123  1.00  0.00    -0.203 F 
ATOM     72  C   UNL     1     -11.989   1.312 -11.896  1.00  0.00     0.198 A 
ATOM     73  C   UNL     1     -12.872   2.977 -10.410  1.00  0.00     0.198 A 
ATOM     74  F   UNL     1     -13.327   2.433  -8.167  1.00  0.00    -0.203 F 
ATOM     75  F   UNL     1     -11.523   0.964 -13.104  1.00  0.00    -0.200 F 
ATOM     76  C   UNL     1     -12.414   2.612 -11.667  1.00  0.00     0.200 A 
ATOM     77  F   UNL     1     -13.296   4.229 -10.190  1.00  0.00    -0.200 F 
ATOM     78  F   UNL     1     -12.377   3.515 -12.656  1.00  0.00    -0.200 F 
ENDBRANCH  54  68
BRANCH  55  79
ATOM     79  C   UNL     1     -12.469  -5.814  -2.049  1.00  0.00     0.064 A 
ATOM     80  C   UNL     1     -12.924  -7.130  -2.207  1.00  0.00     0.173 A 
ATOM     81  C   UNL     1     -12.026  -5.424  -0.776  1.00  0.00     0.173 A 
ATOM     82  F   UNL     1     -13.378  -7.543  -3.399  1.00  0.00    -0.203 F 
ATOM     83  C   UNL     1     -12.953  -8.015  -1.131  1.00  0.00     0.198 A 
ATOM     84  C   UNL     1     -12.029  -6.318   0.292  1.00  0.00     0.198 A 
ATOM     85  F   UNL     1     -11.578  -4.176  -0.574  1.00  0.00    -0.203 F 
ATOM     86  F   UNL     1     -13.434  -9.254  -1.299  1.00  0.00    -0.200 F 
ATOM     87  C   UNL     1     -12.500  -7.610   0.116  1.00  0.00     0.200 A 
ATOM     88  F   UNL     1     -11.579  -5.927   1.492  1.00  0.00    -0.200 F 
ATOM     89  F   UNL     1     -12.525  -8.463   1.149  1.00  0.00    -0.200 F 
ENDBRANCH  55  79
BRANCH  67  90
ATOM     90  C   UNL     1     -17.506  -2.735  -5.749  1.00  0.00     0.064 A 
ATOM     91  C   UNL     1     -18.242  -2.157  -4.705  1.00  0.00     0.173 A 
ATOM     92  C   UNL     1     -18.214  -3.374  -6.778  1.00  0.00     0.173 A 
ATOM     93  F   UNL     1     -17.610  -1.548  -3.689  1.00  0.00    -0.203 F 
ATOM     94  C   UNL     1     -19.632  -2.236  -4.680  1.00  0.00     0.198 A 
ATOM     95  C   UNL     1     -19.605  -3.427  -6.764  1.00  0.00     0.198 A 
ATOM     96  F   UNL     1     -17.557  -3.938  -7.803  1.00  0.00    -0.203 F 
ATOM     97  F   UNL     1     -20.313  -1.717  -3.649  1.00  0.00    -0.200 F 
ATOM     98  C   UNL     1     -20.312  -2.865  -5.713  1.00  0.00     0.200 A 
ATOM     99  F   UNL     1     -20.261  -4.023  -7.769  1.00  0.00    -0.200 F 
ATOM    100  F   UNL     1     -21.650  -2.934  -5.690  1.00  0.00    -0.200 F 
ENDBRANCH  67  90
ENDBRANCH  41  42
ENDBRANCH  33  36
ENDBRANCH  31  32
ENDBRANCH  30  31
ENDBRANCH  29  30
ENDBRANCH   1  29
TORSDOF 15
