REMARK SMILES O=C(NCCCCNC(=O)c1csc(C[NH2+][C@H]2CCSc3ccc(F)cc32)c1)c1ccc(-c2c3nc(c(-c4c(F)c(F)c(F)c(F)c4F)c4ccc([nH]4)c(-c4c(F)c(F)c(F)c(F)c4F)c4nc(c(-c5c(F)c(F)c(F)c(F)c5F)c5ccc2[nH]5)C=C4)C=C3)cc1
REMARK SMILES IDX 6 1 5 2 4 3 3 4 1 5 2 6 29 8 30 9 91 10 31 11 90 12 32 13
REMARK SMILES IDX 33 14 34 15 84 16 35 17 89 18 83 19 85 20 36 21 88 22 82 23
REMARK SMILES IDX 81 24 37 26 69 27 49 28 68 29 50 30 53 31 67 32 86 33 51 34
REMARK SMILES IDX 52 35 66 37 87 38 54 39 38 40 39 41 47 42 40 43 41 44 45 45
REMARK SMILES IDX 48 46 42 47 43 48 46 49 44 50 70 51 71 52 79 53 72 54 73 55
REMARK SMILES IDX 77 56 80 57 74 58 75 59 78 60 76 61 55 62 56 63 64 64 57 65
REMARK SMILES IDX 58 66 62 67 65 68 59 69 60 70 63 71 61 72 7 73 8 74 9 75
REMARK SMILES IDX 10 77 11 78 12 79 28 80 13 81 14 82 15 83 16 84 17 87 18 88
REMARK SMILES IDX 27 89 19 90 21 91 26 92 20 93 22 94 24 95 23 96 25 97
REMARK H PARENT 3 7 85 25 53 36 8 76 16 85 16 86
REMARK Flexibility Score: inf
ROOT
ATOM      1  C   UNL     1      11.388   3.942  15.199  1.00  0.00     0.023 C 
ENDROOT
BRANCH   1   2
ATOM      2  C   UNL     1      12.740   4.381  15.774  1.00  0.00     0.023 C 
BRANCH   2   3
ATOM      3  C   UNL     1      13.254   3.577  16.967  1.00  0.00     0.116 C 
BRANCH   3   4
ATOM      4  N   UNL     1      13.365   2.157  16.689  1.00  0.00    -0.352 N 
ATOM      5  O   UNL     1      14.282   0.106  16.656  1.00  0.00    -0.269 OA
ATOM      6  C   UNL     1      14.321   1.257  17.085  1.00  0.00     0.251 C 
ATOM      7  H   UNL     1      12.644   1.782  16.132  1.00  0.00     0.163 HD
BRANCH   6   8
ATOM      8  C   UNL     1      15.414   1.653  18.002  1.00  0.00     0.039 A 
ATOM      9  C   UNL     1      16.707   1.199  17.722  1.00  0.00     0.014 A 
ATOM     10  C   UNL     1      15.175   2.402  19.157  1.00  0.00     0.014 A 
ATOM     11  C   UNL     1      17.766   1.525  18.573  1.00  0.00     0.010 A 
ATOM     12  C   UNL     1      16.238   2.759  19.989  1.00  0.00     0.010 A 
ATOM     13  C   UNL     1      17.540   2.319  19.706  1.00  0.00    -0.014 A 
BRANCH  13  14
ATOM     14  C   UNL     1      18.646   2.660  20.633  1.00  0.00     0.031 A 
ATOM     15  C   UNL     1      18.708   2.020  21.990  1.00  0.00     0.074 A 
ATOM     16  C   UNL     1      19.580   3.558  20.270  1.00  0.00     0.049 A 
ATOM     17  N   UNL     1      19.509   2.278  22.992  1.00  0.00    -0.248 NA
ATOM     18  C   UNL     1      17.732   0.952  22.257  1.00  0.00     0.031 C 
ATOM     19  C   UNL     1      19.647   4.233  18.975  1.00  0.00     0.029 A 
ATOM     20  N   UNL     1      20.654   4.056  20.964  1.00  0.00    -0.354 N 
ATOM     21  C   UNL     1      19.120   1.424  24.015  1.00  0.00     0.074 A 
ATOM     22  C   UNL     1      18.005   0.646  23.517  1.00  0.00     0.031 C 
ATOM     23  C   UNL     1      20.720   5.041  18.958  1.00  0.00     0.029 A 
ATOM     24  C   UNL     1      21.392   4.969  20.253  1.00  0.00     0.049 A 
ATOM     25  H   UNL     1      20.874   3.784  21.884  1.00  0.00     0.167 HD
ATOM     26  C   UNL     1      19.647   1.300  25.256  1.00  0.00     0.037 A 
ATOM     27  C   UNL     1      22.483   5.672  20.610  1.00  0.00     0.037 A 
ATOM     28  C   UNL     1      20.765   2.058  25.748  1.00  0.00     0.049 A 
ATOM     29  C   UNL     1      23.047   5.516  21.994  1.00  0.00     0.074 A 
ATOM     30  C   UNL     1      21.339   2.037  27.008  1.00  0.00     0.029 A 
ATOM     31  N   UNL     1      21.493   2.962  24.991  1.00  0.00    -0.354 N 
ATOM     32  N   UNL     1      22.632   4.753  22.974  1.00  0.00    -0.248 NA
ATOM     33  C   UNL     1      24.227   6.330  22.325  1.00  0.00     0.031 C 
ATOM     34  C   UNL     1      22.415   2.931  27.014  1.00  0.00     0.029 A 
ATOM     35  C   UNL     1      22.521   3.493  25.752  1.00  0.00     0.049 A 
ATOM     36  H   UNL     1      21.307   3.193  24.053  1.00  0.00     0.167 HD
ATOM     37  C   UNL     1      23.503   4.980  24.029  1.00  0.00     0.074 A 
ATOM     38  C   UNL     1      24.478   5.947  23.570  1.00  0.00     0.031 C 
ATOM     39  C   UNL     1      23.491   4.440  25.271  1.00  0.00     0.037 A 
BRANCH  26  40
ATOM     40  C   UNL     1      19.006   0.308  26.174  1.00  0.00     0.064 A 
ATOM     41  C   UNL     1      19.259  -1.065  26.052  1.00  0.00     0.173 A 
ATOM     42  C   UNL     1      18.157   0.735  27.204  1.00  0.00     0.173 A 
ATOM     43  F   UNL     1      20.052  -1.519  25.070  1.00  0.00    -0.203 F 
ATOM     44  C   UNL     1      18.672  -1.979  26.922  1.00  0.00     0.198 A 
ATOM     45  C   UNL     1      17.585  -0.181  28.083  1.00  0.00     0.198 A 
ATOM     46  F   UNL     1      17.885   2.039  27.359  1.00  0.00    -0.203 F 
ATOM     47  F   UNL     1      18.902  -3.290  26.770  1.00  0.00    -0.200 F 
ATOM     48  C   UNL     1      17.840  -1.536  27.939  1.00  0.00     0.200 A 
ATOM     49  F   UNL     1      16.783   0.248  29.067  1.00  0.00    -0.200 F 
ATOM     50  F   UNL     1      17.277  -2.417  28.777  1.00  0.00    -0.200 F 
ENDBRANCH  26  40
BRANCH  27  51
ATOM     51  C   UNL     1      23.128   6.579  19.631  1.00  0.00     0.064 A 
ATOM     52  C   UNL     1      24.326   6.212  19.006  1.00  0.00     0.173 A 
ATOM     53  C   UNL     1      22.566   7.819  19.301  1.00  0.00     0.173 A 
ATOM     54  F   UNL     1      24.909   5.044  19.312  1.00  0.00    -0.203 F 
ATOM     55  C   UNL     1      24.945   7.058  18.090  1.00  0.00     0.198 A 
ATOM     56  C   UNL     1      23.178   8.657  18.373  1.00  0.00     0.198 A 
ATOM     57  F   UNL     1      21.421   8.211  19.877  1.00  0.00    -0.203 F 
ATOM     58  F   UNL     1      26.105   6.698  17.525  1.00  0.00    -0.200 F 
ATOM     59  C   UNL     1      24.368   8.278  17.770  1.00  0.00     0.200 A 
ATOM     60  F   UNL     1      22.616   9.833  18.062  1.00  0.00    -0.200 F 
ATOM     61  F   UNL     1      24.963   9.092  16.887  1.00  0.00    -0.200 F 
ENDBRANCH  27  51
BRANCH  39  62
ATOM     62  C   UNL     1      24.579   4.856  26.209  1.00  0.00     0.064 A 
ATOM     63  C   UNL     1      24.517   6.071  26.904  1.00  0.00     0.173 A 
ATOM     64  C   UNL     1      25.669   4.009  26.451  1.00  0.00     0.173 A 
ATOM     65  F   UNL     1      23.498   6.917  26.691  1.00  0.00    -0.203 F 
ATOM     66  C   UNL     1      25.515   6.429  27.805  1.00  0.00     0.198 A 
ATOM     67  C   UNL     1      26.659   4.364  27.362  1.00  0.00     0.198 A 
ATOM     68  F   UNL     1      25.769   2.836  25.808  1.00  0.00    -0.203 F 
ATOM     69  F   UNL     1      25.450   7.605  28.443  1.00  0.00    -0.200 F 
ATOM     70  C   UNL     1      26.583   5.573  28.037  1.00  0.00     0.200 A 
ATOM     71  F   UNL     1      27.689   3.536  27.588  1.00  0.00    -0.200 F 
ATOM     72  F   UNL     1      27.542   5.918  28.907  1.00  0.00    -0.200 F 
ENDBRANCH  39  62
ENDBRANCH  13  14
ENDBRANCH   6   8
ENDBRANCH   3   4
ENDBRANCH   2   3
ENDBRANCH   1   2
BRANCH   1  73
ATOM     73  C   UNL     1      10.250   3.821  16.212  1.00  0.00     0.116 C 
BRANCH  73  74
ATOM     74  N   UNL     1       9.967   5.089  16.857  1.00  0.00    -0.352 N 
ATOM     75  C   UNL     1       8.948   5.977  16.622  1.00  0.00     0.252 C 
ATOM     76  H   UNL     1      10.598   5.351  17.566  1.00  0.00     0.163 HD
ATOM     77  O   UNL     1       9.049   7.120  17.059  1.00  0.00    -0.269 OA
BRANCH  75  78
ATOM     78  C   UNL     1       7.787   5.550  15.854  1.00  0.00     0.051 A 
ATOM     79  C   UNL     1       7.035   4.424  16.135  1.00  0.00     0.079 A 
ATOM     80  C   UNL     1       7.199   6.292  14.777  1.00  0.00     0.035 A 
ATOM     81  S   UNL     1       5.700   4.239  15.086  1.00  0.00    -0.142 S 
ATOM     82  C   UNL     1       6.073   5.688  14.251  1.00  0.00     0.059 A 
BRANCH  82  83
ATOM     83  C   UNL     1       5.194   6.180  13.134  1.00  0.00     0.308 C 
BRANCH  83  84
ATOM     84  N   UNL     1       5.267   5.277  11.984  1.00  0.00    -0.336 N 
ATOM     85  H   UNL     1       4.807   4.403  12.239  1.00  0.00     0.347 HD
ATOM     86  H   UNL     1       6.258   5.165  11.771  1.00  0.00     0.347 HD
BRANCH  84  87
ATOM     87  C   UNL     1       4.634   5.787  10.752  1.00  0.00     0.215 C 
ATOM     88  C   UNL     1       3.115   5.927  10.966  1.00  0.00     0.081 C 
ATOM     89  C   UNL     1       5.341   6.992  10.141  1.00  0.00     0.026 A 
ATOM     90  C   UNL     1       2.422   6.499   9.746  1.00  0.00     0.081 C 
ATOM     91  C   UNL     1       4.652   8.107   9.625  1.00  0.00     0.017 A 
ATOM     92  C   UNL     1       6.747   6.969  10.008  1.00  0.00     0.050 A 
ATOM     93  S   UNL     1       2.873   8.245   9.579  1.00  0.00    -0.125 SA
ATOM     94  C   UNL     1       5.367   9.189   9.081  1.00  0.00     0.018 A 
ATOM     95  C   UNL     1       7.434   8.042   9.450  1.00  0.00     0.123 A 
ATOM     96  C   UNL     1       6.757   9.160   8.996  1.00  0.00     0.040 A 
ATOM     97  F   UNL     1       8.768   7.988   9.346  1.00  0.00    -0.207 F 
ENDBRANCH  84  87
ENDBRANCH  83  84
ENDBRANCH  82  83
ENDBRANCH  75  78
ENDBRANCH  73  74
ENDBRANCH   1  73
TORSDOF 14
