REMARK SMILES Nc1c(Nc2ccc(I)cc2)ncnc1Nc1ccc(C(=O)NCCCCNC(=O)c2ccc(-c3c4nc(c(-c5c(F)c(F)c(F)c(F)c5F)c5ccc([nH]5)c(-c5c(F)c(F)c(F)c(F)c5F)c5nc(c(-c6c(F)c(F)c(F)c(F)c6F)c6ccc3[nH]6)C=C5)C=C4)cc2)cc1
REMARK SMILES IDX 24 1 23 2 21 3 22 4 20 6 17 7 18 8 95 9 19 10 94 11 16 12
REMARK SMILES IDX 15 14 2 15 3 16 12 17 14 18 13 19 1 20 4 23 5 25 6 26 11 27
REMARK SMILES IDX 7 28 10 29 8 30 9 31 25 32 26 33 27 34 28 35 29 36 30 38
REMARK SMILES IDX 31 39 32 40 93 41 33 42 92 43 34 44 35 45 36 46 86 47 37 48
REMARK SMILES IDX 91 49 85 50 87 51 38 52 90 53 84 54 83 55 39 57 71 58 51 59
REMARK SMILES IDX 70 60 52 61 55 62 69 63 88 64 53 65 54 66 68 68 89 69 56 70
REMARK SMILES IDX 40 71 41 72 49 73 42 74 43 75 47 76 50 77 44 78 45 79 48 80
REMARK SMILES IDX 46 81 72 82 73 83 81 84 74 85 75 86 79 87 82 88 76 89 77 90
REMARK SMILES IDX 80 91 78 92 57 93 58 94 66 95 59 96 60 97 64 98 67 99 61 100
REMARK SMILES IDX 62 101 65 102 63 103
REMARK H PARENT 23 5 16 13 1 21 1 22 4 24 28 37 87 56 55 67
REMARK Flexibility Score: inf
ROOT
ATOM      1  C   UNL     1       3.093   1.170   8.799  1.00  0.00     0.116 C 
ENDROOT
BRANCH   1   2
ATOM      2  N   UNL     1       3.112   2.598   8.555  1.00  0.00    -0.352 N 
ATOM      3  C   UNL     1       2.979   3.338   7.407  1.00  0.00     0.251 C 
ATOM      4  O   UNL     1       3.033   4.564   7.520  1.00  0.00    -0.269 OA
ATOM      5  H   UNL     1       3.246   3.139   9.366  1.00  0.00     0.163 HD
BRANCH   3   6
ATOM      6  C   UNL     1       2.717   2.746   6.063  1.00  0.00     0.039 A 
ATOM      7  C   UNL     1       1.990   1.754   3.515  1.00  0.00     0.040 A 
ATOM      8  C   UNL     1       1.678   3.065   3.879  1.00  0.00     0.027 A 
ATOM      9  C   UNL     1       2.710   0.964   4.415  1.00  0.00     0.027 A 
ATOM     10  C   UNL     1       2.033   3.553   5.141  1.00  0.00     0.016 A 
ATOM     11  C   UNL     1       3.102   1.466   5.660  1.00  0.00     0.016 A 
BRANCH   7  12
ATOM     12  N   UNL     1       1.457   1.196   2.341  1.00  0.00    -0.338 N 
ATOM     13  H   UNL     1       1.769   1.552   1.478  1.00  0.00     0.168 HD
BRANCH  12  14
ATOM     14  C   UNL     1       0.496   0.150   2.321  1.00  0.00     0.159 A 
ATOM     15  C   UNL     1       0.162  -0.434   1.092  1.00  0.00     0.118 A 
ATOM     16  C   UNL     1      -0.840  -1.414   1.150  1.00  0.00     0.159 A 
ATOM     17  N   UNL     1      -1.468  -1.741   2.296  1.00  0.00    -0.217 NA
ATOM     18  N   UNL     1      -0.083  -0.218   3.480  1.00  0.00    -0.217 NA
ATOM     19  C   UNL     1      -1.046  -1.136   3.406  1.00  0.00     0.226 A 
BRANCH  15  20
ATOM     20  N   UNL     1       0.817  -0.105  -0.100  1.00  0.00    -0.393 N 
ATOM     21  H   UNL     1       0.552  -0.538  -0.943  1.00  0.00     0.156 HD
ATOM     22  H   UNL     1       1.543   0.559  -0.094  1.00  0.00     0.156 HD
ENDBRANCH  15  20
BRANCH  16  23
ATOM     23  N   UNL     1      -1.188  -2.097  -0.042  1.00  0.00    -0.338 N 
ATOM     24  H   UNL     1      -0.589  -1.966  -0.812  1.00  0.00     0.168 HD
BRANCH  23  25
ATOM     25  C   UNL     1      -2.293  -2.940  -0.245  1.00  0.00     0.040 A 
ATOM     26  C   UNL     1      -2.120  -4.167  -0.897  1.00  0.00     0.027 A 
ATOM     27  C   UNL     1      -3.563  -2.626   0.258  1.00  0.00     0.027 A 
ATOM     28  C   UNL     1      -3.182  -5.068  -1.024  1.00  0.00     0.017 A 
ATOM     29  C   UNL     1      -4.633  -3.515   0.123  1.00  0.00     0.017 A 
ATOM     30  C   UNL     1      -4.435  -4.739  -0.510  1.00  0.00     0.013 A 
ATOM     31  I   UNL     1      -6.006  -6.089  -0.666  1.00  0.00    -0.044 I 
ENDBRANCH  23  25
ENDBRANCH  16  23
ENDBRANCH  12  14
ENDBRANCH   7  12
ENDBRANCH   3   6
ENDBRANCH   1   2
BRANCH   1  32
ATOM     32  C   UNL     1       4.516   0.608   8.813  1.00  0.00     0.023 C 
BRANCH  32  33
ATOM     33  C   UNL     1       5.314   0.949  10.074  1.00  0.00     0.023 C 
BRANCH  33  34
ATOM     34  C   UNL     1       4.749   0.371  11.365  1.00  0.00     0.116 C 
BRANCH  34  35
ATOM     35  N   UNL     1       4.635  -1.079  11.344  1.00  0.00    -0.352 N 
ATOM     36  C   UNL     1       4.807  -1.960  12.385  1.00  0.00     0.251 C 
ATOM     37  H   UNL     1       4.405  -1.480  10.475  1.00  0.00     0.163 HD
ATOM     38  O   UNL     1       4.773  -3.168  12.199  1.00  0.00    -0.269 OA
BRANCH  36  39
ATOM     39  C   UNL     1       5.081  -1.421  13.731  1.00  0.00     0.039 A 
ATOM     40  C   UNL     1       6.207  -1.877  14.417  1.00  0.00     0.014 A 
ATOM     41  C   UNL     1       4.259  -0.432  14.280  1.00  0.00     0.014 A 
ATOM     42  C   UNL     1       6.546  -1.293  15.637  1.00  0.00     0.010 A 
ATOM     43  C   UNL     1       4.634   0.192  15.465  1.00  0.00     0.010 A 
ATOM     44  C   UNL     1       5.780  -0.234  16.152  1.00  0.00    -0.014 A 
BRANCH  44  45
ATOM     45  C   UNL     1       6.165   0.424  17.422  1.00  0.00     0.031 A 
ATOM     46  C   UNL     1       5.306   0.261  18.641  1.00  0.00     0.074 A 
ATOM     47  C   UNL     1       7.276   1.183  17.467  1.00  0.00     0.049 A 
ATOM     48  N   UNL     1       5.485   0.737  19.847  1.00  0.00    -0.248 NA
ATOM     49  C   UNL     1       4.070  -0.524  18.482  1.00  0.00     0.031 C 
ATOM     50  C   UNL     1       8.161   1.453  16.332  1.00  0.00     0.029 A 
ATOM     51  N   UNL     1       7.855   1.861  18.509  1.00  0.00    -0.354 N 
ATOM     52  C   UNL     1       4.393   0.306  20.586  1.00  0.00     0.074 A 
ATOM     53  C   UNL     1       3.522  -0.412  19.683  1.00  0.00     0.031 C 
ATOM     54  C   UNL     1       9.193   2.203  16.750  1.00  0.00     0.029 A 
ATOM     55  C   UNL     1       9.031   2.486  18.174  1.00  0.00     0.049 A 
ATOM     56  H   UNL     1       7.465   1.897  19.413  1.00  0.00     0.167 HD
ATOM     57  C   UNL     1       4.157   0.465  21.908  1.00  0.00     0.037 A 
ATOM     58  C   UNL     1       9.887   3.193  18.936  1.00  0.00     0.037 A 
ATOM     59  C   UNL     1       5.040   1.155  22.809  1.00  0.00     0.049 A 
ATOM     60  C   UNL     1       9.591   3.373  20.399  1.00  0.00     0.074 A 
ATOM     61  C   UNL     1       4.919   1.319  24.177  1.00  0.00     0.029 A 
ATOM     62  N   UNL     1       6.210   1.793  22.427  1.00  0.00    -0.354 N 
ATOM     63  N   UNL     1       8.591   2.900  21.103  1.00  0.00    -0.248 NA
ATOM     64  C   UNL     1      10.541   4.183  21.175  1.00  0.00     0.031 C 
ATOM     65  C   UNL     1       6.002   2.084  24.620  1.00  0.00     0.029 A 
ATOM     66  C   UNL     1       6.812   2.370  23.532  1.00  0.00     0.049 A 
ATOM     67  H   UNL     1       6.561   1.830  21.508  1.00  0.00     0.167 HD
ATOM     68  C   UNL     1       8.800   3.337  22.403  1.00  0.00     0.074 A 
ATOM     69  C   UNL     1      10.029   4.103  22.396  1.00  0.00     0.031 C 
ATOM     70  C   UNL     1       8.039   3.123  23.503  1.00  0.00     0.037 A 
BRANCH  57  71
ATOM     71  C   UNL     1       2.909  -0.148  22.467  1.00  0.00     0.064 A 
ATOM     72  C   UNL     1       2.792  -1.537  22.625  1.00  0.00     0.173 A 
ATOM     73  C   UNL     1       1.842   0.657  22.891  1.00  0.00     0.173 A 
ATOM     74  F   UNL     1       3.782  -2.348  22.222  1.00  0.00    -0.203 F 
ATOM     75  C   UNL     1       1.642  -2.100  23.169  1.00  0.00     0.198 A 
ATOM     76  C   UNL     1       0.703   0.091  23.457  1.00  0.00     0.198 A 
ATOM     77  F   UNL     1       1.908   1.990  22.764  1.00  0.00    -0.203 F 
ATOM     78  F   UNL     1       1.537  -3.432  23.277  1.00  0.00    -0.200 F 
ATOM     79  C   UNL     1       0.602  -1.286  23.592  1.00  0.00     0.200 A 
ATOM     80  F   UNL     1      -0.298   0.878  23.874  1.00  0.00    -0.200 F 
ATOM     81  F   UNL     1      -0.501  -1.829  24.125  1.00  0.00    -0.200 F 
ENDBRANCH  57  71
BRANCH  58  82
ATOM     82  C   UNL     1      11.134   3.735  18.338  1.00  0.00     0.064 A 
ATOM     83  C   UNL     1      12.377   3.165  18.645  1.00  0.00     0.173 A 
ATOM     84  C   UNL     1      11.111   4.815  17.445  1.00  0.00     0.173 A 
ATOM     85  F   UNL     1      12.449   2.141  19.508  1.00  0.00    -0.203 F 
ATOM     86  C   UNL     1      13.553   3.661  18.087  1.00  0.00     0.198 A 
ATOM     87  C   UNL     1      12.287   5.298  16.873  1.00  0.00     0.198 A 
ATOM     88  F   UNL     1       9.946   5.393  17.119  1.00  0.00    -0.203 F 
ATOM     89  F   UNL     1      14.732   3.117  18.420  1.00  0.00    -0.200 F 
ATOM     90  C   UNL     1      13.507   4.724  17.198  1.00  0.00     0.200 A 
ATOM     91  F   UNL     1      12.237   6.319  16.006  1.00  0.00    -0.200 F 
ATOM     92  F   UNL     1      14.638   5.198  16.658  1.00  0.00    -0.200 F 
ENDBRANCH  58  82
BRANCH  70  93
ATOM     93  C   UNL     1       8.506   3.716  24.797  1.00  0.00     0.064 A 
ATOM     94  C   UNL     1       8.345   5.082  25.067  1.00  0.00     0.173 A 
ATOM     95  C   UNL     1       9.024   2.896  25.810  1.00  0.00     0.173 A 
ATOM     96  F   UNL     1       7.865   5.905  24.123  1.00  0.00    -0.203 F 
ATOM     97  C   UNL     1       8.688   5.607  26.309  1.00  0.00     0.198 A 
ATOM     98  C   UNL     1       9.346   3.421  27.058  1.00  0.00     0.198 A 
ATOM     99  F   UNL     1       9.189   1.582  25.598  1.00  0.00    -0.203 F 
ATOM    100  F   UNL     1       8.542   6.918  26.543  1.00  0.00    -0.200 F 
ATOM    101  C   UNL     1       9.177   4.775  27.307  1.00  0.00     0.200 A 
ATOM    102  F   UNL     1       9.805   2.615  28.025  1.00  0.00    -0.200 F 
ATOM    103  F   UNL     1       9.485   5.280  28.509  1.00  0.00    -0.200 F 
ENDBRANCH  70  93
ENDBRANCH  44  45
ENDBRANCH  36  39
ENDBRANCH  34  35
ENDBRANCH  33  34
ENDBRANCH  32  33
ENDBRANCH   1  32
TORSDOF 16
