REMARK SMILES Cn1cc(S(=O)(=O)N[C@@H]2C=C[C@@H](C(=O)NCCCCNC(=O)c3ccc(-c4c5nc(c(-c6c(F)c(F)c(F)c(F)c6F)c6ccc([nH]6)c(-c6c(F)c(F)c(F)c(F)c6F)c6nc(c(-c7c(F)c(F)c(F)c(F)c7F)c7ccc4[nH]7)C=C6)C=C5)cc3)C2)cc1C(N)=O
REMARK SMILES IDX 16 1 15 2 13 3 14 4 12 6 9 7 10 8 86 9 11 10 8 11 5 13 6 14
REMARK SMILES IDX 7 15 4 16 1 17 2 18 3 19 88 20 87 21 89 22 90 23 91 24 17 27
REMARK SMILES IDX 18 28 19 29 20 30 21 31 22 33 23 34 24 35 85 36 25 37 84 38
REMARK SMILES IDX 26 39 27 40 28 41 78 42 29 43 83 44 77 45 79 46 30 47 82 48
REMARK SMILES IDX 76 49 75 50 31 52 63 53 43 54 62 55 44 56 47 57 61 58 80 59
REMARK SMILES IDX 45 60 46 61 60 63 81 64 48 65 32 66 33 67 41 68 34 69 35 70
REMARK SMILES IDX 39 71 42 72 36 73 37 74 40 75 38 76 64 77 65 78 73 79 66 80
REMARK SMILES IDX 67 81 71 82 74 83 68 84 69 85 72 86 70 87 49 88 50 89 58 90
REMARK SMILES IDX 51 91 52 92 56 93 59 94 53 95 54 96 57 97 55 98
REMARK H PARENT 15 5 8 12 90 25 90 26 20 32 79 51 47 62
REMARK Flexibility Score: inf
ROOT
ATOM      1  C   UNL     1      -3.695  -2.474  -1.635  1.00  0.00     0.116 C 
ENDROOT
BRANCH   1   2
ATOM      2  N   UNL     1      -3.007  -3.397  -0.751  1.00  0.00    -0.356 N 
ATOM      3  C   UNL     1      -3.019  -3.492   0.610  1.00  0.00     0.226 C 
ATOM      4  O   UNL     1      -2.400  -4.430   1.120  1.00  0.00    -0.274 OA
ATOM      5  H   UNL     1      -2.440  -4.061  -1.207  1.00  0.00     0.163 HD
BRANCH   3   6
ATOM      6  C   UNL     1      -3.760  -2.485   1.494  1.00  0.00     0.103 C 
ATOM      7  C   UNL     1      -4.463  -0.129   1.253  1.00  0.00     0.093 C 
ATOM      8  C   UNL     1      -5.565  -1.095   0.962  1.00  0.00    -0.011 C 
ATOM      9  C   UNL     1      -3.230  -1.048   1.379  1.00  0.00     0.042 C 
ATOM     10  C   UNL     1      -5.207  -2.371   1.134  1.00  0.00    -0.016 C 
BRANCH   7  11
ATOM     11  N   UNL     1      -4.694   0.549   2.537  1.00  0.00    -0.204 NA
ATOM     12  H   UNL     1      -4.862  -0.174   3.236  1.00  0.00     0.142 HD
BRANCH  11  13
ATOM     13  S   UNL     1      -5.976   1.649   2.632  1.00  0.00     0.242 S 
ATOM     14  O   UNL     1      -6.085   2.324   1.359  1.00  0.00    -0.207 OA
ATOM     15  O   UNL     1      -5.819   2.361   3.880  1.00  0.00    -0.207 OA
BRANCH  13  16
ATOM     16  C   UNL     1      -7.450   0.773   2.815  1.00  0.00     0.100 A 
ATOM     17  C   UNL     1     -10.989   0.203   2.377  1.00  0.00     0.150 C 
ATOM     18  N   UNL     1      -9.568   0.123   2.650  1.00  0.00    -0.345 N 
ATOM     19  C   UNL     1      -8.710   1.177   2.438  1.00  0.00     0.107 A 
ATOM     20  C   UNL     1      -8.863  -0.986   3.091  1.00  0.00     0.107 A 
ATOM     21  C   UNL     1      -7.566  -0.541   3.325  1.00  0.00     0.055 A 
BRANCH  20  22
ATOM     22  C   UNL     1      -9.397  -2.325   3.252  1.00  0.00     0.265 C 
ATOM     23  N   UNL     1      -8.465  -3.323   3.288  1.00  0.00    -0.364 N 
ATOM     24  O   UNL     1     -10.588  -2.611   3.307  1.00  0.00    -0.268 OA
ATOM     25  H   UNL     1      -7.506  -3.103   3.245  1.00  0.00     0.160 HD
ATOM     26  H   UNL     1      -8.752  -4.262   3.358  1.00  0.00     0.160 HD
ENDBRANCH  20  22
ENDBRANCH  13  16
ENDBRANCH  11  13
ENDBRANCH   7  11
ENDBRANCH   3   6
ENDBRANCH   1   2
BRANCH   1  27
ATOM     27  C   UNL     1      -2.755  -1.818  -2.636  1.00  0.00     0.023 C 
BRANCH  27  28
ATOM     28  C   UNL     1      -2.253  -2.744  -3.740  1.00  0.00     0.023 C 
BRANCH  28  29
ATOM     29  C   UNL     1      -3.344  -3.451  -4.539  1.00  0.00     0.116 C 
BRANCH  29  30
ATOM     30  N   UNL     1      -4.309  -2.538  -5.137  1.00  0.00    -0.352 N 
ATOM     31  C   UNL     1      -4.752  -2.475  -6.438  1.00  0.00     0.251 C 
ATOM     32  H   UNL     1      -4.699  -1.873  -4.525  1.00  0.00     0.163 HD
ATOM     33  O   UNL     1      -5.501  -1.577  -6.804  1.00  0.00    -0.269 OA
BRANCH  31  34
ATOM     34  C   UNL     1      -4.274  -3.482  -7.404  1.00  0.00     0.039 A 
ATOM     35  C   UNL     1      -3.654  -3.047  -8.578  1.00  0.00     0.014 A 
ATOM     36  C   UNL     1      -4.361  -4.844  -7.104  1.00  0.00     0.014 A 
ATOM     37  C   UNL     1      -3.020  -3.976  -9.402  1.00  0.00     0.010 A 
ATOM     38  C   UNL     1      -3.675  -5.761  -7.893  1.00  0.00     0.010 A 
ATOM     39  C   UNL     1      -2.976  -5.330  -9.032  1.00  0.00    -0.014 A 
BRANCH  39  40
ATOM     40  C   UNL     1      -2.146  -6.306  -9.778  1.00  0.00     0.031 A 
ATOM     41  C   UNL     1      -2.790  -7.449 -10.504  1.00  0.00     0.074 A 
ATOM     42  C   UNL     1      -0.803  -6.218  -9.705  1.00  0.00     0.049 A 
ATOM     43  N   UNL     1      -2.228  -8.466 -11.106  1.00  0.00    -0.248 NA
ATOM     44  C   UNL     1      -4.260  -7.466 -10.533  1.00  0.00     0.031 C 
ATOM     45  C   UNL     1      -0.061  -5.184  -8.980  1.00  0.00     0.029 A 
ATOM     46  N   UNL     1       0.177  -7.024 -10.228  1.00  0.00    -0.354 N 
ATOM     47  C   UNL     1      -3.273  -9.252 -11.568  1.00  0.00     0.074 A 
ATOM     48  C   UNL     1      -4.503  -8.616 -11.147  1.00  0.00     0.031 C 
ATOM     49  C   UNL     1       1.255  -5.413  -9.111  1.00  0.00     0.029 A 
ATOM     50  C   UNL     1       1.449  -6.627  -9.897  1.00  0.00     0.049 A 
ATOM     51  H   UNL     1      -0.014  -7.811 -10.787  1.00  0.00     0.167 HD
ATOM     52  C   UNL     1      -3.209 -10.393 -12.293  1.00  0.00     0.037 A 
ATOM     53  C   UNL     1       2.639  -7.189 -10.182  1.00  0.00     0.037 A 
ATOM     54  C   UNL     1      -1.986 -11.004 -12.741  1.00  0.00     0.049 A 
ATOM     55  C   UNL     1       2.680  -8.454 -10.991  1.00  0.00     0.074 A 
ATOM     56  C   UNL     1      -1.822 -12.105 -13.563  1.00  0.00     0.029 A 
ATOM     57  N   UNL     1      -0.716 -10.565 -12.401  1.00  0.00    -0.354 N 
ATOM     58  N   UNL     1       1.686  -9.150 -11.486  1.00  0.00    -0.248 NA
ATOM     59  C   UNL     1       4.008  -9.014 -11.279  1.00  0.00     0.031 C 
ATOM     60  C   UNL     1      -0.451 -12.355 -13.691  1.00  0.00     0.029 A 
ATOM     61  C   UNL     1       0.238 -11.390 -12.974  1.00  0.00     0.049 A 
ATOM     62  H   UNL     1      -0.520  -9.784 -11.835  1.00  0.00     0.167 HD
ATOM     63  C   UNL     1       2.264 -10.220 -12.151  1.00  0.00     0.074 A 
ATOM     64  C   UNL     1       3.699 -10.075 -12.013  1.00  0.00     0.031 C 
ATOM     65  C   UNL     1       1.661 -11.235 -12.816  1.00  0.00     0.037 A 
BRANCH  52  66
ATOM     66  C   UNL     1      -4.504 -11.054 -12.657  1.00  0.00     0.064 A 
ATOM     67  C   UNL     1      -5.350 -10.517 -13.638  1.00  0.00     0.173 A 
ATOM     68  C   UNL     1      -4.883 -12.259 -12.048  1.00  0.00     0.173 A 
ATOM     69  F   UNL     1      -5.036  -9.359 -14.239  1.00  0.00    -0.203 F 
ATOM     70  C   UNL     1      -6.541 -11.151 -13.981  1.00  0.00     0.198 A 
ATOM     71  C   UNL     1      -6.063 -12.903 -12.409  1.00  0.00     0.198 A 
ATOM     72  F   UNL     1      -4.106 -12.815 -11.105  1.00  0.00    -0.203 F 
ATOM     73  F   UNL     1      -7.353 -10.600 -14.893  1.00  0.00    -0.200 F 
ATOM     74  C   UNL     1      -6.893 -12.346 -13.371  1.00  0.00     0.200 A 
ATOM     75  F   UNL     1      -6.399 -14.062 -11.825  1.00  0.00    -0.200 F 
ATOM     76  F   UNL     1      -8.037 -12.959 -13.707  1.00  0.00    -0.200 F 
ENDBRANCH  52  66
BRANCH  53  77
ATOM     77  C   UNL     1       3.890  -6.553  -9.701  1.00  0.00     0.064 A 
ATOM     78  C   UNL     1       4.744  -5.889 -10.593  1.00  0.00     0.173 A 
ATOM     79  C   UNL     1       4.254  -6.588  -8.348  1.00  0.00     0.173 A 
ATOM     80  F   UNL     1       4.446  -5.849 -11.899  1.00  0.00    -0.203 F 
ATOM     81  C   UNL     1       5.924  -5.295 -10.150  1.00  0.00     0.198 A 
ATOM     82  C   UNL     1       5.423  -5.974  -7.903  1.00  0.00     0.198 A 
ATOM     83  F   UNL     1       3.467  -7.208  -7.457  1.00  0.00    -0.203 F 
ATOM     84  F   UNL     1       6.740  -4.696 -11.027  1.00  0.00    -0.200 F 
ATOM     85  C   UNL     1       6.259  -5.333  -8.805  1.00  0.00     0.200 A 
ATOM     86  F   UNL     1       5.739  -6.004  -6.601  1.00  0.00    -0.200 F 
ATOM     87  F   UNL     1       7.391  -4.757  -8.378  1.00  0.00    -0.200 F 
ENDBRANCH  53  77
BRANCH  65  88
ATOM     88  C   UNL     1       2.550 -12.263 -13.444  1.00  0.00     0.064 A 
ATOM     89  C   UNL     1       3.192 -13.240 -12.670  1.00  0.00     0.173 A 
ATOM     90  C   UNL     1       2.732 -12.296 -14.835  1.00  0.00     0.173 A 
ATOM     91  F   UNL     1       3.062 -13.236 -11.335  1.00  0.00    -0.203 F 
ATOM     92  C   UNL     1       3.999 -14.206 -13.266  1.00  0.00     0.198 A 
ATOM     93  C   UNL     1       3.522 -13.276 -15.428  1.00  0.00     0.198 A 
ATOM     94  F   UNL     1       2.137 -11.383 -15.616  1.00  0.00    -0.203 F 
ATOM     95  F   UNL     1       4.632 -15.109 -12.505  1.00  0.00    -0.200 F 
ATOM     96  C   UNL     1       4.157 -14.227 -14.644  1.00  0.00     0.200 A 
ATOM     97  F   UNL     1       3.668 -13.301 -16.760  1.00  0.00    -0.200 F 
ATOM     98  F   UNL     1       4.930 -15.161 -15.216  1.00  0.00    -0.200 F 
ENDBRANCH  65  88
ENDBRANCH  39  40
ENDBRANCH  31  34
ENDBRANCH  29  30
ENDBRANCH  28  29
ENDBRANCH  27  28
ENDBRANCH   1  27
TORSDOF 15
