REMARK SMILES Nc1oc2ccc(F)cc2c(=O)c1[C@@H]1[NH2+][C@H](C(=O)NCCCCNC(=O)c2ccc(-c3c4nc(c(-c5c(F)c(F)c(F)c(F)c5F)c5ccc([nH]5)c(-c5c(F)c(F)c(F)c(F)c5F)c5nc(c(-c6c(F)c(F)c(F)c(F)c6F)c6ccc3[nH]6)C=C5)C=C4)cc2)CS1
REMARK SMILES IDX 21 1 20 2 19 3 17 4 18 5 16 7 14 8 15 9 91 10 90 13 13 14
REMARK SMILES IDX 2 15 3 16 4 17 11 18 5 19 10 20 12 21 6 22 9 23 7 24 8 25
REMARK SMILES IDX 1 26 22 29 23 30 24 31 25 32 26 34 27 35 28 36 89 37 29 38
REMARK SMILES IDX 88 39 30 40 31 41 32 42 82 43 33 44 87 45 81 46 83 47 34 48
REMARK SMILES IDX 86 49 80 50 79 51 35 53 67 54 47 55 66 56 48 57 51 58 65 59
REMARK SMILES IDX 84 60 49 61 50 62 64 64 85 65 52 66 36 67 37 68 45 69 38 70
REMARK SMILES IDX 39 71 43 72 46 73 40 74 41 75 44 76 42 77 68 78 69 79 77 80
REMARK SMILES IDX 70 81 71 82 75 83 78 84 72 85 73 86 76 87 74 88 53 89 54 90
REMARK SMILES IDX 62 91 55 92 56 93 60 94 63 95 57 96 58 97 61 98 59 99
REMARK H PARENT 19 6 15 11 15 12 1 27 1 28 24 33 83 52 51 63
REMARK Flexibility Score: inf
ROOT
ATOM      1  C   UNL     1      -1.537  -0.194   2.274  1.00  0.00     0.023 C 
ENDROOT
BRANCH   1   2
ATOM      2  C   UNL     1      -0.897   0.491   1.058  1.00  0.00     0.116 C 
BRANCH   2   3
ATOM      3  N   UNL     1      -0.411   1.826   1.359  1.00  0.00    -0.351 N 
ATOM      4  C   UNL     1       0.817   2.258   1.767  1.00  0.00     0.279 C 
ATOM      5  O   UNL     1       0.968   3.482   1.864  1.00  0.00    -0.268 OA
ATOM      6  H   UNL     1      -1.081   2.540   1.250  1.00  0.00     0.163 HD
BRANCH   4   7
ATOM      7  C   UNL     1       2.022   1.327   2.007  1.00  0.00     0.283 C 
ATOM      8  C   UNL     1       2.559  -1.046   1.890  1.00  0.00     0.283 C 
ATOM      9  N   UNL     1       1.638  -0.033   2.425  1.00  0.00    -0.320 N 
ATOM     10  S   UNL     1       3.843  -0.210   0.921  1.00  0.00    -0.087 SA
ATOM     11  H   UNL     1       1.650  -0.081   3.444  1.00  0.00     0.348 HD
ATOM     12  H   UNL     1       0.706  -0.227   2.060  1.00  0.00     0.348 HD
ATOM     13  C   UNL     1       2.876   1.301   0.750  1.00  0.00     0.151 C 
BRANCH   8  14
ATOM     14  C   UNL     1       1.755  -2.097   1.149  1.00  0.00     0.128 A 
ATOM     15  C   UNL     1       1.476  -2.213  -0.171  1.00  0.00     0.205 A 
ATOM     16  O   UNL     1       0.612  -3.158  -0.699  1.00  0.00    -0.440 OA
ATOM     17  C   UNL     1       0.005  -4.059   0.123  1.00  0.00     0.140 A 
ATOM     18  C   UNL     1       1.146  -3.104   2.069  1.00  0.00     0.205 A 
ATOM     19  C   UNL     1      -0.875  -4.967  -0.467  1.00  0.00     0.051 A 
ATOM     20  C   UNL     1       0.244  -4.102   1.488  1.00  0.00     0.068 A 
ATOM     21  O   UNL     1       1.359  -3.105   3.277  1.00  0.00    -0.288 OA
ATOM     22  C   UNL     1      -1.487  -5.941   0.320  1.00  0.00     0.043 A 
ATOM     23  C   UNL     1      -0.374  -5.068   2.285  1.00  0.00     0.055 A 
ATOM     24  C   UNL     1      -1.228  -5.987   1.688  1.00  0.00     0.124 A 
ATOM     25  F   UNL     1      -1.817  -6.924   2.440  1.00  0.00    -0.207 F 
BRANCH  15  26
ATOM     26  N   UNL     1       1.960  -1.401  -1.153  1.00  0.00    -0.369 N 
ATOM     27  H   UNL     1       1.705  -1.556  -2.091  1.00  0.00     0.159 HD
ATOM     28  H   UNL     1       2.565  -0.658  -0.924  1.00  0.00     0.159 HD
ENDBRANCH  15  26
ENDBRANCH   8  14
ENDBRANCH   4   7
ENDBRANCH   2   3
ENDBRANCH   1   2
BRANCH   1  29
ATOM     29  C   UNL     1      -3.067  -0.230   2.226  1.00  0.00     0.023 C 
BRANCH  29  30
ATOM     30  C   UNL     1      -3.648  -1.123   1.130  1.00  0.00     0.116 C 
BRANCH  30  31
ATOM     31  N   UNL     1      -3.482  -2.552   1.362  1.00  0.00    -0.352 N 
ATOM     32  C   UNL     1      -4.270  -3.595   0.921  1.00  0.00     0.251 C 
ATOM     33  H   UNL     1      -2.702  -2.807   1.905  1.00  0.00     0.163 HD
ATOM     34  O   UNL     1      -4.066  -4.738   1.320  1.00  0.00    -0.269 OA
BRANCH  32  35
ATOM     35  C   UNL     1      -5.449  -3.339   0.061  1.00  0.00     0.039 A 
ATOM     36  C   UNL     1      -5.441  -2.359  -0.930  1.00  0.00     0.014 A 
ATOM     37  C   UNL     1      -6.635  -4.015   0.368  1.00  0.00     0.014 A 
ATOM     38  C   UNL     1      -6.650  -1.844  -1.382  1.00  0.00     0.010 A 
ATOM     39  C   UNL     1      -7.842  -3.561  -0.157  1.00  0.00     0.010 A 
ATOM     40  C   UNL     1      -7.859  -2.392  -0.931  1.00  0.00    -0.014 A 
BRANCH  40  41
ATOM     41  C   UNL     1      -9.120  -1.629  -1.090  1.00  0.00     0.031 A 
ATOM     42  C   UNL     1      -9.778  -1.046   0.137  1.00  0.00     0.074 A 
ATOM     43  C   UNL     1      -9.626  -1.391  -2.311  1.00  0.00     0.049 A 
ATOM     44  N   UNL     1     -10.922  -0.419   0.249  1.00  0.00    -0.248 NA
ATOM     45  C   UNL     1      -9.056  -1.193   1.414  1.00  0.00     0.031 C 
ATOM     46  C   UNL     1      -9.039  -1.846  -3.570  1.00  0.00     0.029 A 
ATOM     47  N   UNL     1     -10.741  -0.691  -2.691  1.00  0.00    -0.354 N 
ATOM     48  C   UNL     1     -11.070  -0.140   1.603  1.00  0.00     0.074 A 
ATOM     49  C   UNL     1      -9.913  -0.676   2.281  1.00  0.00     0.031 C 
ATOM     50  C   UNL     1      -9.785  -1.390  -4.588  1.00  0.00     0.029 A 
ATOM     51  C   UNL     1     -10.931  -0.662  -4.049  1.00  0.00     0.049 A 
ATOM     52  H   UNL     1     -11.348  -0.252  -2.051  1.00  0.00     0.167 HD
ATOM     53  C   UNL     1     -12.079   0.517   2.223  1.00  0.00     0.037 A 
ATOM     54  C   UNL     1     -11.932  -0.127  -4.773  1.00  0.00     0.037 A 
ATOM     55  C   UNL     1     -13.201   1.095   1.535  1.00  0.00     0.049 A 
ATOM     56  C   UNL     1     -13.057   0.570  -4.061  1.00  0.00     0.074 A 
ATOM     57  C   UNL     1     -14.276   1.787   2.063  1.00  0.00     0.029 A 
ATOM     58  N   UNL     1     -13.378   1.062   0.160  1.00  0.00    -0.354 N 
ATOM     59  N   UNL     1     -13.216   0.779  -2.777  1.00  0.00    -0.248 NA
ATOM     60  C   UNL     1     -14.147   1.091  -4.896  1.00  0.00     0.031 C 
ATOM     61  C   UNL     1     -15.118   2.152   1.008  1.00  0.00     0.029 A 
ATOM     62  C   UNL     1     -14.550   1.716  -0.179  1.00  0.00     0.049 A 
ATOM     63  H   UNL     1     -12.763   0.637  -0.480  1.00  0.00     0.167 HD
ATOM     64  C   UNL     1     -14.419   1.458  -2.647  1.00  0.00     0.074 A 
ATOM     65  C   UNL     1     -14.939   1.644  -3.987  1.00  0.00     0.031 C 
ATOM     66  C   UNL     1     -15.042   1.882  -1.521  1.00  0.00     0.037 A 
BRANCH  53  67
ATOM     67  C   UNL     1     -12.025   0.640   3.717  1.00  0.00     0.064 A 
ATOM     68  C   UNL     1     -11.142   1.524   4.353  1.00  0.00     0.173 A 
ATOM     69  C   UNL     1     -12.909  -0.097   4.520  1.00  0.00     0.173 A 
ATOM     70  F   UNL     1     -10.265   2.237   3.632  1.00  0.00    -0.203 F 
ATOM     71  C   UNL     1     -11.138   1.658   5.740  1.00  0.00     0.198 A 
ATOM     72  C   UNL     1     -12.919   0.056   5.904  1.00  0.00     0.198 A 
ATOM     73  F   UNL     1     -13.775  -0.956   3.961  1.00  0.00    -0.203 F 
ATOM     74  F   UNL     1     -10.265   2.486   6.329  1.00  0.00    -0.200 F 
ATOM     75  C   UNL     1     -12.032   0.931   6.513  1.00  0.00     0.200 A 
ATOM     76  F   UNL     1     -13.790  -0.639   6.649  1.00  0.00    -0.200 F 
ATOM     77  F   UNL     1     -12.036   1.072   7.846  1.00  0.00    -0.200 F 
ENDBRANCH  53  67
BRANCH  54  78
ATOM     78  C   UNL     1     -11.903  -0.246  -6.251  1.00  0.00     0.064 A 
ATOM     79  C   UNL     1     -11.639   0.869  -7.057  1.00  0.00     0.173 A 
ATOM     80  C   UNL     1     -12.084  -1.484  -6.885  1.00  0.00     0.173 A 
ATOM     81  F   UNL     1     -11.478   2.077  -6.496  1.00  0.00    -0.203 F 
ATOM     82  C   UNL     1     -11.553   0.749  -8.442  1.00  0.00     0.198 A 
ATOM     83  C   UNL     1     -11.974  -1.607  -8.268  1.00  0.00     0.198 A 
ATOM     84  F   UNL     1     -12.335  -2.581  -6.155  1.00  0.00    -0.203 F 
ATOM     85  F   UNL     1     -11.317   1.834  -9.193  1.00  0.00    -0.200 F 
ATOM     86  C   UNL     1     -11.710  -0.490  -9.046  1.00  0.00     0.200 A 
ATOM     87  F   UNL     1     -12.110  -2.809  -8.844  1.00  0.00    -0.200 F 
ATOM     88  F   UNL     1     -11.606  -0.608 -10.376  1.00  0.00    -0.200 F 
ENDBRANCH  54  78
BRANCH  66  89
ATOM     89  C   UNL     1     -16.350   2.591  -1.688  1.00  0.00     0.064 A 
ATOM     90  C   UNL     1     -17.528   1.884  -1.962  1.00  0.00     0.173 A 
ATOM     91  C   UNL     1     -16.436   3.979  -1.505  1.00  0.00     0.173 A 
ATOM     92  F   UNL     1     -17.489   0.557  -2.154  1.00  0.00    -0.203 F 
ATOM     93  C   UNL     1     -18.749   2.544  -2.060  1.00  0.00     0.198 A 
ATOM     94  C   UNL     1     -17.661   4.633  -1.583  1.00  0.00     0.198 A 
ATOM     95  F   UNL     1     -15.335   4.695  -1.233  1.00  0.00    -0.203 F 
ATOM     96  F   UNL     1     -19.861   1.854  -2.349  1.00  0.00    -0.200 F 
ATOM     97  C   UNL     1     -18.816   3.916  -1.863  1.00  0.00     0.200 A 
ATOM     98  F   UNL     1     -17.727   5.957  -1.383  1.00  0.00    -0.200 F 
ATOM     99  F   UNL     1     -19.994   4.549  -1.948  1.00  0.00    -0.200 F 
ENDBRANCH  66  89
ENDBRANCH  40  41
ENDBRANCH  32  35
ENDBRANCH  30  31
ENDBRANCH  29  30
ENDBRANCH   1  29
TORSDOF 13
