REMARK SMILES O=C(C[C@H](C(=O)NCCCCNC(=O)c1ccc(-c2c3nc(c(-c4c(F)c(F)c(F)c(F)c4F)c4ccc([nH]4)c(-c4c(F)c(F)c(F)c(F)c4F)c4nc(c(-c5c(F)c(F)c(F)c(F)c5F)c5ccc2[nH]5)C=C4)C=C3)cc1)c1ccccc1)Nc1ccc(Cl)cc1Cl
REMARK SMILES IDX 9 1 8 2 7 3 5 4 6 5 4 7 3 8 2 9 1 10 84 11 85 13 86 14 91 15
REMARK SMILES IDX 87 16 90 17 92 18 88 19 89 20 78 21 79 22 83 23 80 24 82 25
REMARK SMILES IDX 81 26 10 27 11 28 12 29 13 30 14 32 15 33 16 34 77 35 17 36
REMARK SMILES IDX 76 37 18 38 19 39 20 40 70 41 21 42 75 43 69 44 71 45 22 46
REMARK SMILES IDX 74 47 68 48 67 49 23 51 55 52 35 53 54 54 36 55 39 56 53 57
REMARK SMILES IDX 72 58 37 59 38 60 52 62 73 63 40 64 24 65 25 66 33 67 26 68
REMARK SMILES IDX 27 69 31 70 34 71 28 72 29 73 32 74 30 75 56 76 57 77 65 78
REMARK SMILES IDX 58 79 59 80 63 81 66 82 60 83 61 84 64 85 62 86 41 87 42 88
REMARK SMILES IDX 50 89 43 90 44 91 48 92 51 93 45 94 46 95 49 96 47 97
REMARK H PARENT 7 6 84 12 12 31 71 50 39 61
REMARK Flexibility Score: inf
ROOT
ATOM      1  C   UNL     1       1.182   1.302   1.359  1.00  0.00     0.023 C 
ENDROOT
BRANCH   1   2
ATOM      2  C   UNL     1       1.647   0.089   0.556  1.00  0.00     0.116 C 
BRANCH   2   3
ATOM      3  N   UNL     1       1.572   0.255  -0.883  1.00  0.00    -0.356 N 
ATOM      4  C   UNL     1       2.512   0.166  -1.869  1.00  0.00     0.228 C 
ATOM      5  O   UNL     1       2.094  -0.377  -2.901  1.00  0.00    -0.274 OA
ATOM      6  H   UNL     1       0.670   0.473  -1.212  1.00  0.00     0.163 HD
BRANCH   4   7
ATOM      7  C   UNL     1       3.868   0.923  -1.848  1.00  0.00     0.118 C 
BRANCH   7   8
ATOM      8  C   UNL     1       4.704   0.999  -0.566  1.00  0.00     0.118 C 
BRANCH   8   9
ATOM      9  C   UNL     1       4.909  -0.324   0.140  1.00  0.00     0.225 C 
ATOM     10  O   UNL     1       4.833  -1.402  -0.427  1.00  0.00    -0.275 OA
ATOM     11  N   UNL     1       5.114  -0.165   1.505  1.00  0.00    -0.325 N 
ATOM     12  H   UNL     1       5.469   0.700   1.812  1.00  0.00     0.169 HD
BRANCH  11  13
ATOM     13  C   UNL     1       4.852  -1.151   2.490  1.00  0.00     0.060 A 
ATOM     14  C   UNL     1       4.031  -2.255   2.221  1.00  0.00     0.029 A 
ATOM     15  C   UNL     1       5.319  -0.966   3.803  1.00  0.00     0.066 A 
ATOM     16  C   UNL     1       3.687  -3.153   3.232  1.00  0.00     0.023 A 
ATOM     17  C   UNL     1       5.001  -1.881   4.811  1.00  0.00     0.043 A 
ATOM     18  Cl  UNL     1       6.284   0.408   4.215  1.00  0.00    -0.082 Cl
ATOM     19  C   UNL     1       4.186  -2.971   4.518  1.00  0.00     0.042 A 
ATOM     20  Cl  UNL     1       3.771  -4.093   5.753  1.00  0.00    -0.084 Cl
ENDBRANCH  11  13
ENDBRANCH   8   9
ENDBRANCH   7   8
BRANCH   7  21
ATOM     21  C   UNL     1       4.758   0.599  -3.063  1.00  0.00    -0.035 A 
ATOM     22  C   UNL     1       5.022  -0.720  -3.466  1.00  0.00     0.004 A 
ATOM     23  C   UNL     1       5.329   1.644  -3.812  1.00  0.00     0.004 A 
ATOM     24  C   UNL     1       5.800  -0.986  -4.597  1.00  0.00     0.000 A 
ATOM     25  C   UNL     1       6.112   1.376  -4.940  1.00  0.00     0.000 A 
ATOM     26  C   UNL     1       6.342   0.061  -5.336  1.00  0.00     0.000 A 
ENDBRANCH   7  21
ENDBRANCH   4   7
ENDBRANCH   2   3
ENDBRANCH   1   2
BRANCH   1  27
ATOM     27  C   UNL     1       0.642   0.950   2.764  1.00  0.00     0.023 C 
BRANCH  27  28
ATOM     28  C   UNL     1       1.611   0.120   3.609  1.00  0.00     0.116 C 
BRANCH  28  29
ATOM     29  N   UNL     1       1.706   0.530   4.998  1.00  0.00    -0.352 N 
ATOM     30  C   UNL     1       1.591  -0.097   6.211  1.00  0.00     0.251 C 
ATOM     31  H   UNL     1       1.899   1.491   5.091  1.00  0.00     0.163 HD
ATOM     32  O   UNL     1       2.125   0.468   7.170  1.00  0.00    -0.269 OA
BRANCH  30  33
ATOM     33  C   UNL     1       0.788  -1.321   6.482  1.00  0.00     0.039 A 
ATOM     34  C   UNL     1       0.193  -1.390   7.757  1.00  0.00     0.014 A 
ATOM     35  C   UNL     1       0.580  -2.381   5.601  1.00  0.00     0.014 A 
ATOM     36  C   UNL     1      -0.650  -2.448   8.111  1.00  0.00     0.010 A 
ATOM     37  C   UNL     1      -0.285  -3.432   5.940  1.00  0.00     0.010 A 
ATOM     38  C   UNL     1      -0.931  -3.455   7.182  1.00  0.00    -0.014 A 
BRANCH  38  39
ATOM     39  C   UNL     1      -2.027  -4.422   7.434  1.00  0.00     0.031 A 
ATOM     40  C   UNL     1      -1.760  -5.863   7.743  1.00  0.00     0.074 A 
ATOM     41  C   UNL     1      -3.290  -3.974   7.294  1.00  0.00     0.049 A 
ATOM     42  N   UNL     1      -2.614  -6.818   8.017  1.00  0.00    -0.248 NA
ATOM     43  C   UNL     1      -0.357  -6.297   7.720  1.00  0.00     0.031 C 
ATOM     44  C   UNL     1      -3.653  -2.607   6.911  1.00  0.00     0.029 A 
ATOM     45  N   UNL     1      -4.496  -4.610   7.436  1.00  0.00    -0.354 N 
ATOM     46  C   UNL     1      -1.855  -7.964   8.211  1.00  0.00     0.074 A 
ATOM     47  C   UNL     1      -0.474  -7.595   7.970  1.00  0.00     0.031 C 
ATOM     48  C   UNL     1      -4.989  -2.505   6.857  1.00  0.00     0.029 A 
ATOM     49  C   UNL     1      -5.576  -3.799   7.185  1.00  0.00     0.049 A 
ATOM     50  H   UNL     1      -4.580  -5.557   7.692  1.00  0.00     0.167 HD
ATOM     51  C   UNL     1      -2.279  -9.202   8.570  1.00  0.00     0.037 A 
ATOM     52  C   UNL     1      -6.894  -4.066   7.223  1.00  0.00     0.037 A 
ATOM     53  C   UNL     1      -3.665  -9.548   8.779  1.00  0.00     0.049 A 
ATOM     54  C   UNL     1      -7.336  -5.441   7.638  1.00  0.00     0.074 A 
ATOM     55  C   UNL     1      -4.204 -10.749   9.207  1.00  0.00     0.029 A 
ATOM     56  N   UNL     1      -4.737  -8.693   8.551  1.00  0.00    -0.354 N 
ATOM     57  N   UNL     1      -6.605  -6.487   7.942  1.00  0.00    -0.248 NA
ATOM     58  C   UNL     1      -8.782  -5.667   7.740  1.00  0.00     0.031 C 
ATOM     59  C   UNL     1      -5.599 -10.640   9.179  1.00  0.00     0.029 A 
ATOM     60  C   UNL     1      -5.932  -9.350   8.800  1.00  0.00     0.049 A 
ATOM     61  H   UNL     1      -4.658  -7.757   8.256  1.00  0.00     0.167 HD
ATOM     62  C   UNL     1      -7.498  -7.486   8.300  1.00  0.00     0.074 A 
ATOM     63  C   UNL     1      -8.825  -6.911   8.195  1.00  0.00     0.031 C 
ATOM     64  C   UNL     1      -7.245  -8.762   8.684  1.00  0.00     0.037 A 
BRANCH  51  65
ATOM     65  C   UNL     1      -1.240 -10.275   8.764  1.00  0.00     0.064 A 
ATOM     66  C   UNL     1      -0.312 -10.219   9.817  1.00  0.00     0.173 A 
ATOM     67  C   UNL     1      -1.208 -11.404   7.930  1.00  0.00     0.173 A 
ATOM     68  F   UNL     1      -0.297  -9.166  10.648  1.00  0.00    -0.203 F 
ATOM     69  C   UNL     1       0.625 -11.233  10.007  1.00  0.00     0.198 A 
ATOM     70  C   UNL     1      -0.290 -12.431   8.142  1.00  0.00     0.198 A 
ATOM     71  F   UNL     1      -2.077 -11.521   6.915  1.00  0.00    -0.203 F 
ATOM     72  F   UNL     1       1.528 -11.132  10.992  1.00  0.00    -0.200 F 
ATOM     73  C   UNL     1       0.630 -12.341   9.175  1.00  0.00     0.200 A 
ATOM     74  F   UNL     1      -0.300 -13.512   7.349  1.00  0.00    -0.200 F 
ATOM     75  F   UNL     1       1.525 -13.321   9.366  1.00  0.00    -0.200 F 
ENDBRANCH  51  65
BRANCH  52  76
ATOM     76  C   UNL     1      -7.874  -2.992   6.918  1.00  0.00     0.064 A 
ATOM     77  C   UNL     1      -8.681  -2.446   7.926  1.00  0.00     0.173 A 
ATOM     78  C   UNL     1      -8.004  -2.466   5.624  1.00  0.00     0.173 A 
ATOM     79  F   UNL     1      -8.602  -2.921   9.178  1.00  0.00    -0.203 F 
ATOM     80  C   UNL     1      -9.596  -1.433   7.647  1.00  0.00     0.198 A 
ATOM     81  C   UNL     1      -8.896  -1.430   5.353  1.00  0.00     0.198 A 
ATOM     82  F   UNL     1      -7.243  -2.940   4.626  1.00  0.00    -0.203 F 
ATOM     83  F   UNL     1     -10.384  -0.959   8.622  1.00  0.00    -0.200 F 
ATOM     84  C   UNL     1      -9.697  -0.920   6.363  1.00  0.00     0.200 A 
ATOM     85  F   UNL     1      -8.974  -0.922   4.115  1.00  0.00    -0.200 F 
ATOM     86  F   UNL     1     -10.569   0.063   6.098  1.00  0.00    -0.200 F 
ENDBRANCH  52  76
BRANCH  64  87
ATOM     87  C   UNL     1      -8.431  -9.611   9.046  1.00  0.00     0.064 A 
ATOM     88  C   UNL     1      -9.352 -10.044   8.080  1.00  0.00     0.173 A 
ATOM     89  C   UNL     1      -8.638 -10.008  10.375  1.00  0.00     0.173 A 
ATOM     90  F   UNL     1      -9.209  -9.678   6.797  1.00  0.00    -0.203 F 
ATOM     91  C   UNL     1     -10.457 -10.811   8.439  1.00  0.00     0.198 A 
ATOM     92  C   UNL     1      -9.723 -10.806  10.725  1.00  0.00     0.198 A 
ATOM     93  F   UNL     1      -7.784  -9.627  11.337  1.00  0.00    -0.203 F 
ATOM     94  F   UNL     1     -11.359 -11.158   7.511  1.00  0.00    -0.200 F 
ATOM     95  C   UNL     1     -10.638 -11.197   9.759  1.00  0.00     0.200 A 
ATOM     96  F   UNL     1      -9.887 -11.191  11.998  1.00  0.00    -0.200 F 
ATOM     97  F   UNL     1     -11.700 -11.938  10.102  1.00  0.00    -0.200 F 
ENDBRANCH  64  87
ENDBRANCH  38  39
ENDBRANCH  30  33
ENDBRANCH  28  29
ENDBRANCH  27  28
ENDBRANCH   1  27
TORSDOF 15
