REMARK SMILES Cc1cc(C(=O)NCCCCNC(=O)c2ccc(-c3c4nc(c(-c5c(F)c(F)c(F)c(F)c5F)c5ccc([nH]5)c(-c5c(F)c(F)c(F)c(F)c5F)c5nc(c(-c6c(F)c(F)c(F)c(F)c6F)c6ccc3[nH]6)C=C5)C=C4)cc2)ccc1NC(=O)N1C[C@@H](C)[C@H](C)C1
REMARK SMILES IDX 10 1 9 2 8 3 7 4 5 5 6 6 4 8 1 9 2 10 3 11 80 12 79 13 78 14
REMARK SMILES IDX 81 15 82 16 83 18 84 19 85 20 90 21 86 22 88 23 87 24 89 25
REMARK SMILES IDX 11 26 12 27 13 28 14 30 15 31 16 32 77 33 17 34 76 35 18 36
REMARK SMILES IDX 19 37 20 38 70 39 21 40 75 41 69 42 71 43 22 44 74 45 68 46
REMARK SMILES IDX 67 47 23 49 55 50 35 51 54 52 36 53 39 54 53 55 72 56 37 57
REMARK SMILES IDX 38 58 52 60 73 61 40 62 24 63 25 64 33 65 26 66 27 67 31 68
REMARK SMILES IDX 34 69 28 70 29 71 32 72 30 73 56 74 57 75 65 76 58 77 59 78
REMARK SMILES IDX 63 79 66 80 60 81 61 82 64 83 62 84 41 85 42 86 50 87 43 88
REMARK SMILES IDX 44 89 48 90 51 91 45 92 46 93 49 94 47 95
REMARK H PARENT 7 7 81 17 12 29 71 48 39 59
REMARK Flexibility Score: inf
ROOT
ATOM      1  C   UNL     1      -5.574  -2.190  -2.035  1.00  0.00     0.023 C 
ENDROOT
BRANCH   1   2
ATOM      2  C   UNL     1      -4.793  -1.056  -1.376  1.00  0.00     0.023 C 
BRANCH   2   3
ATOM      3  C   UNL     1      -4.040  -1.443  -0.090  1.00  0.00     0.116 C 
BRANCH   3   4
ATOM      4  N   UNL     1      -3.048  -2.498  -0.281  1.00  0.00    -0.352 N 
ATOM      5  C   UNL     1      -1.672  -2.463  -0.361  1.00  0.00     0.251 C 
ATOM      6  O   UNL     1      -1.051  -3.523  -0.318  1.00  0.00    -0.269 OA
ATOM      7  H   UNL     1      -3.433  -3.400  -0.371  1.00  0.00     0.163 HD
BRANCH   5   8
ATOM      8  C   UNL     1      -0.924  -1.184  -0.449  1.00  0.00     0.040 A 
ATOM      9  C   UNL     1       2.461   0.160   0.627  1.00  0.00     0.046 C 
ATOM     10  C   UNL     1       1.036   0.166   0.146  1.00  0.00    -0.027 A 
ATOM     11  C   UNL     1       0.350  -1.072   0.121  1.00  0.00     0.019 A 
ATOM     12  C   UNL     1       0.378   1.308  -0.341  1.00  0.00     0.045 A 
ATOM     13  C   UNL     1      -0.797   1.137  -1.074  1.00  0.00     0.027 A 
ATOM     14  C   UNL     1      -1.422  -0.099  -1.150  1.00  0.00     0.016 A 
BRANCH  12  15
ATOM     15  N   UNL     1       0.894   2.605  -0.149  1.00  0.00    -0.308 N 
ATOM     16  C   UNL     1       0.258   3.804  -0.335  1.00  0.00     0.321 C 
ATOM     17  H   UNL     1       1.828   2.656   0.156  1.00  0.00     0.171 HD
ATOM     18  O   UNL     1       0.909   4.773  -0.725  1.00  0.00    -0.248 OA
ATOM     19  N   UNL     1      -1.087   3.888  -0.056  1.00  0.00    -0.324 N 
ATOM     20  C   UNL     1      -1.927   4.881  -0.699  1.00  0.00     0.125 C 
ATOM     21  C   UNL     1      -1.724   3.348   1.141  1.00  0.00     0.125 C 
ATOM     22  C   UNL     1      -3.075   5.138   0.276  1.00  0.00     0.010 C 
ATOM     23  C   UNL     1      -3.180   3.819   1.063  1.00  0.00     0.010 C 
ATOM     24  C   UNL     1      -4.371   5.507  -0.436  1.00  0.00     0.010 C 
ATOM     25  C   UNL     1      -3.839   3.986   2.430  1.00  0.00     0.010 C 
ENDBRANCH  12  15
ENDBRANCH   5   8
ENDBRANCH   3   4
ENDBRANCH   2   3
ENDBRANCH   1   2
BRANCH   1  26
ATOM     26  C   UNL     1      -6.907  -2.469  -1.364  1.00  0.00     0.116 C 
BRANCH  26  27
ATOM     27  N   UNL     1      -8.015  -1.669  -1.874  1.00  0.00    -0.352 N 
ATOM     28  C   UNL     1      -9.327  -1.579  -1.425  1.00  0.00     0.251 C 
ATOM     29  H   UNL     1      -7.801  -1.108  -2.654  1.00  0.00     0.163 HD
ATOM     30  O   UNL     1     -10.135  -0.901  -2.026  1.00  0.00    -0.269 OA
BRANCH  28  31
ATOM     31  C   UNL     1      -9.688  -2.189  -0.117  1.00  0.00     0.039 A 
ATOM     32  C   UNL     1     -10.406  -1.397   0.788  1.00  0.00     0.014 A 
ATOM     33  C   UNL     1      -9.108  -3.378   0.305  1.00  0.00     0.014 A 
ATOM     34  C   UNL     1     -10.280  -1.643   2.152  1.00  0.00     0.010 A 
ATOM     35  C   UNL     1      -8.872  -3.548   1.653  1.00  0.00     0.010 A 
ATOM     36  C   UNL     1      -9.388  -2.627   2.570  1.00  0.00    -0.014 A 
BRANCH  36  37
ATOM     37  C   UNL     1      -8.791  -2.649   3.902  1.00  0.00     0.031 A 
ATOM     38  C   UNL     1      -9.058  -3.760   4.836  1.00  0.00     0.074 A 
ATOM     39  C   UNL     1      -7.858  -1.716   4.202  1.00  0.00     0.049 A 
ATOM     40  N   UNL     1      -8.827  -3.720   6.105  1.00  0.00    -0.248 NA
ATOM     41  C   UNL     1      -9.669  -5.010   4.409  1.00  0.00     0.031 C 
ATOM     42  C   UNL     1      -6.887  -1.751   5.292  1.00  0.00     0.029 A 
ATOM     43  N   UNL     1      -7.723  -0.426   3.658  1.00  0.00    -0.354 N 
ATOM     44  C   UNL     1      -8.971  -4.997   6.604  1.00  0.00     0.074 A 
ATOM     45  C   UNL     1      -9.587  -5.735   5.527  1.00  0.00     0.031 C 
ATOM     46  C   UNL     1      -6.467  -0.500   5.539  1.00  0.00     0.029 A 
ATOM     47  C   UNL     1      -7.276   0.389   4.723  1.00  0.00     0.049 A 
ATOM     48  H   UNL     1      -7.902  -0.148   2.730  1.00  0.00     0.167 HD
ATOM     49  C   UNL     1      -8.415  -5.295   7.817  1.00  0.00     0.037 A 
ATOM     50  C   UNL     1      -8.046   1.404   5.214  1.00  0.00     0.037 A 
ATOM     51  C   UNL     1      -7.914  -4.080   8.469  1.00  0.00     0.049 A 
ATOM     52  C   UNL     1      -8.395   1.264   6.676  1.00  0.00     0.074 A 
ATOM     53  C   UNL     1      -6.645  -3.542   8.612  1.00  0.00     0.029 A 
ATOM     54  N   UNL     1      -8.808  -3.077   8.833  1.00  0.00    -0.354 N 
ATOM     55  N   UNL     1      -8.313   0.143   7.337  1.00  0.00    -0.248 NA
ATOM     56  C   UNL     1      -8.904   2.360   7.497  1.00  0.00     0.031 C 
ATOM     57  C   UNL     1      -6.783  -2.187   9.007  1.00  0.00     0.029 A 
ATOM     58  C   UNL     1      -8.133  -1.907   9.124  1.00  0.00     0.049 A 
ATOM     59  H   UNL     1      -9.785  -3.186   8.877  1.00  0.00     0.167 HD
ATOM     60  C   UNL     1      -8.771   0.330   8.614  1.00  0.00     0.074 A 
ATOM     61  C   UNL     1      -9.107   1.740   8.673  1.00  0.00     0.031 C 
ATOM     62  C   UNL     1      -8.853  -0.701   9.505  1.00  0.00     0.037 A 
BRANCH  49  63
ATOM     63  C   UNL     1      -8.042  -6.698   8.285  1.00  0.00     0.064 A 
ATOM     64  C   UNL     1      -7.039  -6.884   9.266  1.00  0.00     0.173 A 
ATOM     65  C   UNL     1      -8.551  -7.900   7.758  1.00  0.00     0.173 A 
ATOM     66  F   UNL     1      -6.541  -5.856   9.964  1.00  0.00    -0.203 F 
ATOM     67  C   UNL     1      -6.504  -8.140   9.578  1.00  0.00     0.198 A 
ATOM     68  C   UNL     1      -7.992  -9.153   8.037  1.00  0.00     0.198 A 
ATOM     69  F   UNL     1      -9.652  -7.931   7.005  1.00  0.00    -0.203 F 
ATOM     70  F   UNL     1      -5.536  -8.241  10.499  1.00  0.00    -0.200 F 
ATOM     71  C   UNL     1      -6.955  -9.272   8.934  1.00  0.00     0.200 A 
ATOM     72  F   UNL     1      -8.477 -10.244   7.428  1.00  0.00    -0.200 F 
ATOM     73  F   UNL     1      -6.419 -10.470   9.200  1.00  0.00    -0.200 F 
ENDBRANCH  49  63
BRANCH  50  74
ATOM     74  C   UNL     1      -8.920   2.030   4.189  1.00  0.00     0.064 A 
ATOM     75  C   UNL     1      -8.310   2.718   3.123  1.00  0.00     0.173 A 
ATOM     76  C   UNL     1     -10.258   1.654   4.034  1.00  0.00     0.173 A 
ATOM     77  F   UNL     1      -7.027   3.101   3.223  1.00  0.00    -0.203 F 
ATOM     78  C   UNL     1      -8.971   2.916   1.913  1.00  0.00     0.198 A 
ATOM     79  C   UNL     1     -10.923   1.865   2.824  1.00  0.00     0.198 A 
ATOM     80  F   UNL     1     -10.887   0.974   5.003  1.00  0.00    -0.203 F 
ATOM     81  F   UNL     1      -8.321   3.473   0.881  1.00  0.00    -0.200 F 
ATOM     82  C   UNL     1     -10.269   2.463   1.756  1.00  0.00     0.200 A 
ATOM     83  F   UNL     1     -12.168   1.396   2.658  1.00  0.00    -0.200 F 
ATOM     84  F   UNL     1     -10.876   2.563   0.565  1.00  0.00    -0.200 F 
ENDBRANCH  50  74
BRANCH  62  85
ATOM     85  C   UNL     1      -9.544  -0.656  10.845  1.00  0.00     0.064 A 
ATOM     86  C   UNL     1     -10.665   0.144  11.121  1.00  0.00     0.173 A 
ATOM     87  C   UNL     1      -9.172  -1.562  11.867  1.00  0.00     0.173 A 
ATOM     88  F   UNL     1     -11.183   0.960  10.194  1.00  0.00    -0.203 F 
ATOM     89  C   UNL     1     -11.330   0.084  12.349  1.00  0.00     0.198 A 
ATOM     90  C   UNL     1      -9.872  -1.659  13.069  1.00  0.00     0.198 A 
ATOM     91  F   UNL     1      -8.133  -2.397  11.718  1.00  0.00    -0.203 F 
ATOM     92  F   UNL     1     -12.372   0.895  12.579  1.00  0.00    -0.200 F 
ATOM     93  C   UNL     1     -10.943  -0.825  13.316  1.00  0.00     0.200 A 
ATOM     94  F   UNL     1      -9.516  -2.580  13.975  1.00  0.00    -0.200 F 
ATOM     95  F   UNL     1     -11.613  -0.912  14.473  1.00  0.00    -0.200 F 
ENDBRANCH  62  85
ENDBRANCH  36  37
ENDBRANCH  28  31
ENDBRANCH  26  27
ENDBRANCH   1  26
TORSDOF 12
