REMARK SMILES CCC[C@@H](C[NH2+]C(C)C)C(=O)NCCCCNC(=O)c1ccc(-c2c3nc(c(-c4c(F)c(F)c(F)c(F)c4F)c4ccc([nH]4)c(-c4c(F)c(F)c(F)c(F)c4F)c4nc(c(-c5c(F)c(F)c(F)c(F)c5F)c5ccc2[nH]5)C=C4)C=C3)cc1
REMARK SMILES IDX 14 1 13 2 12 3 10 4 11 5 4 7 3 8 2 9 1 10 5 11 6 12 7 15
REMARK SMILES IDX 8 16 9 17 15 18 16 19 17 20 18 21 19 23 20 24 21 25 82 26
REMARK SMILES IDX 22 27 81 28 23 29 24 30 25 31 75 32 26 33 80 34 74 35 76 36
REMARK SMILES IDX 27 37 79 38 73 39 72 40 28 42 60 43 40 44 59 45 41 46 44 47
REMARK SMILES IDX 58 48 77 49 42 50 43 51 57 53 78 54 45 55 29 56 30 57 38 58
REMARK SMILES IDX 31 59 32 60 36 61 39 62 33 63 34 64 37 65 35 66 61 67 62 68
REMARK SMILES IDX 70 69 63 70 64 71 68 72 71 73 65 74 66 75 69 76 67 77 46 78
REMARK SMILES IDX 47 79 55 80 48 81 49 82 53 83 56 84 50 85 51 86 54 87 52 88
REMARK H PARENT 12 6 6 13 6 14 17 22 76 41 44 52
REMARK Flexibility Score: inf
ROOT
ATOM      1  C   UNL     1       0.955  -5.484  -2.877  1.00  0.00     0.023 C 
ENDROOT
BRANCH   1   2
ATOM      2  C   UNL     1       0.113  -5.035  -1.691  1.00  0.00     0.116 C 
BRANCH   2   3
ATOM      3  N   UNL     1       0.840  -5.060  -0.439  1.00  0.00    -0.356 N 
ATOM      4  C   UNL     1       0.917  -4.125   0.547  1.00  0.00     0.228 C 
ATOM      5  O   UNL     1       1.493  -4.456   1.590  1.00  0.00    -0.275 OA
ATOM      6  H   UNL     1       1.358  -5.881  -0.275  1.00  0.00     0.163 HD
BRANCH   4   7
ATOM      7  C   UNL     1       0.340  -2.713   0.408  1.00  0.00     0.133 C 
BRANCH   7   8
ATOM      8  C   UNL     1       0.997  -1.928  -0.745  1.00  0.00     0.019 C 
BRANCH   8   9
ATOM      9  C   UNL     1       0.522  -0.487  -0.934  1.00  0.00    -0.002 C 
ATOM     10  C   UNL     1       0.919   0.434   0.205  1.00  0.00     0.004 C 
ENDBRANCH   8   9
ENDBRANCH   7   8
BRANCH   7  11
ATOM     11  C   UNL     1      -1.201  -2.699   0.534  1.00  0.00     0.274 C 
BRANCH  11  12
ATOM     12  N   UNL     1      -1.925  -3.037  -0.690  1.00  0.00    -0.344 N 
ATOM     13  H   UNL     1      -1.527  -3.895  -1.071  1.00  0.00     0.346 HD
ATOM     14  H   UNL     1      -1.825  -2.241  -1.320  1.00  0.00     0.346 HD
BRANCH  12  15
ATOM     15  C   UNL     1      -3.362  -3.244  -0.498  1.00  0.00     0.176 C 
ATOM     16  C   UNL     1      -4.131  -1.940  -0.697  1.00  0.00     0.075 C 
ATOM     17  C   UNL     1      -3.811  -4.288  -1.522  1.00  0.00     0.075 C 
ENDBRANCH  12  15
ENDBRANCH  11  12
ENDBRANCH   7  11
ENDBRANCH   4   7
ENDBRANCH   2   3
ENDBRANCH   1   2
BRANCH   1  18
ATOM     18  C   UNL     1       1.250  -6.978  -2.921  1.00  0.00     0.023 C 
BRANCH  18  19
ATOM     19  C   UNL     1       0.030  -7.885  -2.807  1.00  0.00     0.116 C 
BRANCH  19  20
ATOM     20  N   UNL     1      -1.001  -7.606  -3.798  1.00  0.00    -0.352 N 
ATOM     21  C   UNL     1      -1.673  -8.480  -4.622  1.00  0.00     0.251 C 
ATOM     22  H   UNL     1      -1.254  -6.659  -3.890  1.00  0.00     0.163 HD
ATOM     23  O   UNL     1      -2.451  -8.069  -5.471  1.00  0.00    -0.269 OA
BRANCH  21  24
ATOM     24  C   UNL     1      -1.406  -9.927  -4.497  1.00  0.00     0.039 A 
ATOM     25  C   UNL     1      -1.073 -10.653  -5.642  1.00  0.00     0.014 A 
ATOM     26  C   UNL     1      -1.416 -10.543  -3.243  1.00  0.00     0.014 A 
ATOM     27  C   UNL     1      -0.657 -11.979  -5.517  1.00  0.00     0.010 A 
ATOM     28  C   UNL     1      -0.922 -11.835  -3.111  1.00  0.00     0.010 A 
ATOM     29  C   UNL     1      -0.529 -12.563  -4.245  1.00  0.00    -0.014 A 
BRANCH  29  30
ATOM     30  C   UNL     1       0.034 -13.926  -4.077  1.00  0.00     0.031 A 
ATOM     31  C   UNL     1      -0.808 -15.023  -3.493  1.00  0.00     0.074 A 
ATOM     32  C   UNL     1       1.329 -14.152  -4.375  1.00  0.00     0.049 A 
ATOM     33  N   UNL     1      -0.476 -16.256  -3.202  1.00  0.00    -0.248 NA
ATOM     34  C   UNL     1      -2.200 -14.682  -3.160  1.00  0.00     0.031 C 
ATOM     35  C   UNL     1       2.268 -13.151  -4.886  1.00  0.00     0.029 A 
ATOM     36  N   UNL     1       2.083 -15.294  -4.279  1.00  0.00    -0.354 N 
ATOM     37  C   UNL     1      -1.608 -16.827  -2.637  1.00  0.00     0.074 A 
ATOM     38  C   UNL     1      -2.619 -15.793  -2.575  1.00  0.00     0.031 C 
ATOM     39  C   UNL     1       3.464 -13.728  -5.081  1.00  0.00     0.029 A 
ATOM     40  C   UNL     1       3.387 -15.129  -4.678  1.00  0.00     0.049 A 
ATOM     41  H   UNL     1       1.724 -16.151  -3.954  1.00  0.00     0.167 HD
ATOM     42  C   UNL     1      -1.796 -18.105  -2.230  1.00  0.00     0.037 A 
ATOM     43  C   UNL     1       4.406 -16.009  -4.713  1.00  0.00     0.037 A 
ATOM     44  C   UNL     1      -0.799 -19.138  -2.326  1.00  0.00     0.049 A 
ATOM     45  C   UNL     1       4.165 -17.428  -4.276  1.00  0.00     0.074 A 
ATOM     46  C   UNL     1      -0.916 -20.481  -2.013  1.00  0.00     0.029 A 
ATOM     47  N   UNL     1       0.500 -18.941  -2.768  1.00  0.00    -0.354 N 
ATOM     48  N   UNL     1       3.067 -17.978  -3.820  1.00  0.00    -0.248 NA
ATOM     49  C   UNL     1       5.305 -18.351  -4.366  1.00  0.00     0.031 C 
ATOM     50  C   UNL     1       0.325 -21.089  -2.227  1.00  0.00     0.029 A 
ATOM     51  C   UNL     1       1.202 -20.135  -2.718  1.00  0.00     0.049 A 
ATOM     52  H   UNL     1       0.870 -18.081  -3.073  1.00  0.00     0.167 HD
ATOM     53  C   UNL     1       3.373 -19.312  -3.593  1.00  0.00     0.074 A 
ATOM     54  C   UNL     1       4.758 -19.494  -3.976  1.00  0.00     0.031 C 
ATOM     55  C   UNL     1       2.579 -20.298  -3.110  1.00  0.00     0.037 A 
BRANCH  42  56
ATOM     56  C   UNL     1      -3.136 -18.457  -1.654  1.00  0.00     0.064 A 
ATOM     57  C   UNL     1      -4.287 -18.517  -2.454  1.00  0.00     0.173 A 
ATOM     58  C   UNL     1      -3.266 -18.767  -0.292  1.00  0.00     0.173 A 
ATOM     59  F   UNL     1      -4.218 -18.217  -3.760  1.00  0.00    -0.203 F 
ATOM     60  C   UNL     1      -5.524 -18.845  -1.907  1.00  0.00     0.198 A 
ATOM     61  C   UNL     1      -4.500 -19.124   0.246  1.00  0.00     0.198 A 
ATOM     62  F   UNL     1      -2.197 -18.730   0.516  1.00  0.00    -0.203 F 
ATOM     63  F   UNL     1      -6.618 -18.846  -2.681  1.00  0.00    -0.200 F 
ATOM     64  C   UNL     1      -5.629 -19.154  -0.559  1.00  0.00     0.200 A 
ATOM     65  F   UNL     1      -4.598 -19.435   1.546  1.00  0.00    -0.200 F 
ATOM     66  F   UNL     1      -6.820 -19.475  -0.035  1.00  0.00    -0.200 F 
ENDBRANCH  42  56
BRANCH  43  67
ATOM     67  C   UNL     1       5.738 -15.581  -5.214  1.00  0.00     0.064 A 
ATOM     68  C   UNL     1       6.221 -16.037  -6.448  1.00  0.00     0.173 A 
ATOM     69  C   UNL     1       6.552 -14.711  -4.475  1.00  0.00     0.173 A 
ATOM     70  F   UNL     1       5.487 -16.887  -7.181  1.00  0.00    -0.203 F 
ATOM     71  C   UNL     1       7.476 -15.654  -6.916  1.00  0.00     0.198 A 
ATOM     72  C   UNL     1       7.796 -14.307  -4.956  1.00  0.00     0.198 A 
ATOM     73  F   UNL     1       6.133 -14.242  -3.291  1.00  0.00    -0.203 F 
ATOM     74  F   UNL     1       7.931 -16.138  -8.080  1.00  0.00    -0.200 F 
ATOM     75  C   UNL     1       8.260 -14.785  -6.173  1.00  0.00     0.200 A 
ATOM     76  F   UNL     1       8.545 -13.457  -4.242  1.00  0.00    -0.200 F 
ATOM     77  F   UNL     1       9.465 -14.413  -6.626  1.00  0.00    -0.200 F 
ENDBRANCH  43  67
BRANCH  55  78
ATOM     78  C   UNL     1       3.178 -21.669  -2.996  1.00  0.00     0.064 A 
ATOM     79  C   UNL     1       4.121 -21.979  -2.006  1.00  0.00     0.173 A 
ATOM     80  C   UNL     1       2.771 -22.695  -3.863  1.00  0.00     0.173 A 
ATOM     81  F   UNL     1       4.553 -21.028  -1.163  1.00  0.00    -0.203 F 
ATOM     82  C   UNL     1       4.652 -23.261  -1.902  1.00  0.00     0.198 A 
ATOM     83  C   UNL     1       3.284 -23.982  -3.738  1.00  0.00     0.198 A 
ATOM     84  F   UNL     1       1.867 -22.450  -4.823  1.00  0.00    -0.203 F 
ATOM     85  F   UNL     1       5.585 -23.525  -0.976  1.00  0.00    -0.200 F 
ATOM     86  C   UNL     1       4.228 -24.263  -2.762  1.00  0.00     0.200 A 
ATOM     87  F   UNL     1       2.864 -24.952  -4.562  1.00  0.00    -0.200 F 
ATOM     88  F   UNL     1       4.736 -25.499  -2.656  1.00  0.00    -0.200 F 
ENDBRANCH  55  78
ENDBRANCH  29  30
ENDBRANCH  21  24
ENDBRANCH  19  20
ENDBRANCH  18  19
ENDBRANCH   1  18
TORSDOF 16
