REMARK SMILES COc1cc(CC(=O)N2CCC[C@H]2C(=O)NCCCCNC(=O)c2ccc(-c3c4nc(c(-c5c(F)c(F)c(F)c(F)c5F)c5ccc([nH]5)c(-c5c(F)c(F)c(F)c(F)c5F)c5nc(c(-c6c(F)c(F)c(F)c(F)c6F)c6ccc3[nH]6)C=C5)C=C4)cc2)ccc1C
REMARK SMILES IDX 17 1 16 2 14 3 15 4 13 6 9 7 10 8 11 9 12 10 7 11 8 12 6 13
REMARK SMILES IDX 5 14 3 15 4 16 89 17 88 18 90 19 87 20 2 21 1 22 18 23 19 24
REMARK SMILES IDX 20 25 21 26 22 27 23 29 24 30 25 31 86 32 26 33 85 34 27 35
REMARK SMILES IDX 28 36 29 37 79 38 30 39 84 40 78 41 80 42 31 43 83 44 77 45
REMARK SMILES IDX 76 46 32 48 64 49 44 50 63 51 45 52 48 53 62 54 81 55 46 56
REMARK SMILES IDX 47 57 61 59 82 60 49 61 33 62 34 63 42 64 35 65 36 66 40 67
REMARK SMILES IDX 43 68 37 69 38 70 41 71 39 72 65 73 66 74 74 75 67 76 68 77
REMARK SMILES IDX 72 78 75 79 69 80 70 81 73 82 71 83 50 84 51 85 59 86 52 87
REMARK SMILES IDX 53 88 57 89 60 90 54 91 55 92 58 93 56 94
REMARK H PARENT 16 5 21 28 80 47 48 58
REMARK Flexibility Score: inf
ROOT
ATOM      1  C   UNL     1       8.464   6.762  -1.854  1.00  0.00     0.116 C 
ENDROOT
BRANCH   1   2
ATOM      2  N   UNL     1       7.441   7.425  -1.060  1.00  0.00    -0.354 N 
ATOM      3  C   UNL     1       6.293   6.907  -0.506  1.00  0.00     0.242 C 
ATOM      4  O   UNL     1       5.528   7.683   0.069  1.00  0.00    -0.273 OA
ATOM      5  H   UNL     1       7.591   8.384  -0.896  1.00  0.00     0.163 HD
BRANCH   3   6
ATOM      6  C   UNL     1       5.987   5.408  -0.714  1.00  0.00     0.174 C 
ATOM      7  N   UNL     1       4.852   4.877   0.058  1.00  0.00    -0.330 N 
ATOM      8  C   UNL     1       3.736   4.617  -0.830  1.00  0.00     0.120 C 
ATOM      9  C   UNL     1       4.403   4.246  -2.135  1.00  0.00     0.024 C 
ATOM     10  C   UNL     1       5.596   5.178  -2.182  1.00  0.00     0.037 C 
BRANCH   7  11
ATOM     11  C   UNL     1       5.005   4.620   1.400  1.00  0.00     0.227 C 
ATOM     12  O   UNL     1       6.034   5.008   1.975  1.00  0.00    -0.275 OA
BRANCH  11  13
ATOM     13  C   UNL     1       4.072   3.701   2.189  1.00  0.00     0.135 C 
BRANCH  13  14
ATOM     14  C   UNL     1       2.611   3.587   1.840  1.00  0.00    -0.035 A 
ATOM     15  C   UNL     1       0.798   2.318   0.794  1.00  0.00     0.122 A 
ATOM     16  C   UNL     1       2.121   2.407   1.242  1.00  0.00     0.051 A 
ATOM     17  C   UNL     1      -0.068   3.404   0.996  1.00  0.00    -0.009 A 
ATOM     18  C   UNL     1       0.402   4.548   1.664  1.00  0.00     0.007 A 
ATOM     19  C   UNL     1      -1.496   3.393   0.522  1.00  0.00     0.048 C 
ATOM     20  C   UNL     1       1.731   4.644   2.077  1.00  0.00     0.005 A 
BRANCH  15  21
ATOM     21  O   UNL     1       0.287   1.252   0.102  1.00  0.00    -0.496 OA
ATOM     22  C   UNL     1       1.025   0.038   0.126  1.00  0.00     0.278 C 
ENDBRANCH  15  21
ENDBRANCH  13  14
ENDBRANCH  11  13
ENDBRANCH   7  11
ENDBRANCH   3   6
ENDBRANCH   1   2
BRANCH   1  23
ATOM     23  C   UNL     1       8.295   6.980  -3.367  1.00  0.00     0.023 C 
BRANCH  23  24
ATOM     24  C   UNL     1       8.354   8.437  -3.833  1.00  0.00     0.023 C 
BRANCH  24  25
ATOM     25  C   UNL     1       9.731   9.066  -3.695  1.00  0.00     0.116 C 
BRANCH  25  26
ATOM     26  N   UNL     1      10.636   8.812  -4.806  1.00  0.00    -0.352 N 
ATOM     27  C   UNL     1      11.993   9.069  -4.928  1.00  0.00     0.251 C 
ATOM     28  H   UNL     1      10.220   8.393  -5.594  1.00  0.00     0.163 HD
ATOM     29  O   UNL     1      12.544   8.895  -6.003  1.00  0.00    -0.269 OA
BRANCH  27  30
ATOM     30  C   UNL     1      12.808   9.407  -3.728  1.00  0.00     0.039 A 
ATOM     31  C   UNL     1      14.095   8.854  -3.629  1.00  0.00     0.014 A 
ATOM     32  C   UNL     1      12.261  10.068  -2.636  1.00  0.00     0.014 A 
ATOM     33  C   UNL     1      14.697   8.729  -2.379  1.00  0.00     0.010 A 
ATOM     34  C   UNL     1      12.787   9.831  -1.386  1.00  0.00     0.010 A 
ATOM     35  C   UNL     1      13.972   9.099  -1.254  1.00  0.00    -0.014 A 
BRANCH  35  36
ATOM     36  C   UNL     1      14.293   8.702   0.108  1.00  0.00     0.031 A 
ATOM     37  C   UNL     1      14.728   9.720   1.086  1.00  0.00     0.074 A 
ATOM     38  C   UNL     1      13.936   7.461   0.511  1.00  0.00     0.049 A 
ATOM     39  N   UNL     1      15.111   9.445   2.285  1.00  0.00    -0.248 NA
ATOM     40  C   UNL     1      14.825  11.146   0.772  1.00  0.00     0.031 C 
ATOM     41  C   UNL     1      13.693   7.000   1.878  1.00  0.00     0.029 A 
ATOM     42  N   UNL     1      13.916   6.281  -0.257  1.00  0.00    -0.354 N 
ATOM     43  C   UNL     1      15.175  10.628   2.977  1.00  0.00     0.074 A 
ATOM     44  C   UNL     1      15.137  11.655   1.969  1.00  0.00     0.031 C 
ATOM     45  C   UNL     1      13.838   5.667   1.922  1.00  0.00     0.029 A 
ATOM     46  C   UNL     1      14.358   5.265   0.628  1.00  0.00     0.049 A 
ATOM     47  H   UNL     1      13.654   6.183  -1.200  1.00  0.00     0.167 HD
ATOM     48  C   UNL     1      15.099  10.585   4.334  1.00  0.00     0.037 A 
ATOM     49  C   UNL     1      15.554   4.630   0.447  1.00  0.00     0.037 A 
ATOM     50  C   UNL     1      15.332   9.226   4.820  1.00  0.00     0.049 A 
ATOM     51  C   UNL     1      16.497   4.745   1.622  1.00  0.00     0.074 A 
ATOM     52  C   UNL     1      14.525   8.253   5.382  1.00  0.00     0.029 A 
ATOM     53  N   UNL     1      16.538   8.606   4.502  1.00  0.00    -0.354 N 
ATOM     54  N   UNL     1      16.431   5.687   2.522  1.00  0.00    -0.248 NA
ATOM     55  C   UNL     1      17.594   3.814   1.866  1.00  0.00     0.031 C 
ATOM     56  C   UNL     1      15.227   7.016   5.307  1.00  0.00     0.029 A 
ATOM     57  C   UNL     1      16.474   7.252   4.751  1.00  0.00     0.049 A 
ATOM     58  H   UNL     1      17.329   9.072   4.146  1.00  0.00     0.167 HD
ATOM     59  C   UNL     1      17.439   5.519   3.437  1.00  0.00     0.074 A 
ATOM     60  C   UNL     1      18.127   4.322   2.991  1.00  0.00     0.031 C 
ATOM     61  C   UNL     1      17.619   6.393   4.473  1.00  0.00     0.037 A 
BRANCH  48  62
ATOM     62  C   UNL     1      14.641  11.721   5.224  1.00  0.00     0.064 A 
ATOM     63  C   UNL     1      14.678  11.577   6.629  1.00  0.00     0.173 A 
ATOM     64  C   UNL     1      14.029  12.911   4.772  1.00  0.00     0.173 A 
ATOM     65  F   UNL     1      15.213  10.488   7.200  1.00  0.00    -0.203 F 
ATOM     66  C   UNL     1      14.144  12.537   7.498  1.00  0.00     0.198 A 
ATOM     67  C   UNL     1      13.547  13.893   5.643  1.00  0.00     0.198 A 
ATOM     68  F   UNL     1      13.805  13.152   3.477  1.00  0.00    -0.203 F 
ATOM     69  F   UNL     1      14.154  12.318   8.820  1.00  0.00    -0.200 F 
ATOM     70  C   UNL     1      13.592  13.701   7.005  1.00  0.00     0.200 A 
ATOM     71  F   UNL     1      13.009  15.015   5.140  1.00  0.00    -0.200 F 
ATOM     72  F   UNL     1      13.085  14.624   7.834  1.00  0.00    -0.200 F 
ENDBRANCH  48  62
BRANCH  49  73
ATOM     73  C   UNL     1      15.966   4.574  -0.981  1.00  0.00     0.064 A 
ATOM     74  C   UNL     1      15.154   3.849  -1.875  1.00  0.00     0.173 A 
ATOM     75  C   UNL     1      16.839   5.525  -1.522  1.00  0.00     0.173 A 
ATOM     76  F   UNL     1      14.300   2.925  -1.405  1.00  0.00    -0.203 F 
ATOM     77  C   UNL     1      15.115   4.162  -3.232  1.00  0.00     0.198 A 
ATOM     78  C   UNL     1      16.811   5.821  -2.887  1.00  0.00     0.198 A 
ATOM     79  F   UNL     1      17.625   6.258  -0.722  1.00  0.00    -0.203 F 
ATOM     80  F   UNL     1      14.236   3.545  -4.035  1.00  0.00    -0.200 F 
ATOM     81  C   UNL     1      15.920   5.171  -3.731  1.00  0.00     0.200 A 
ATOM     82  F   UNL     1      17.569   6.816  -3.368  1.00  0.00    -0.200 F 
ATOM     83  F   UNL     1      15.807   5.551  -5.011  1.00  0.00    -0.200 F 
ENDBRANCH  49  73
BRANCH  61  84
ATOM     84  C   UNL     1      18.838   6.494   5.371  1.00  0.00     0.064 A 
ATOM     85  C   UNL     1      20.118   6.021   5.032  1.00  0.00     0.173 A 
ATOM     86  C   UNL     1      18.776   7.231   6.582  1.00  0.00     0.173 A 
ATOM     87  F   UNL     1      20.360   5.428   3.857  1.00  0.00    -0.203 F 
ATOM     88  C   UNL     1      21.226   6.204   5.868  1.00  0.00     0.198 A 
ATOM     89  C   UNL     1      19.895   7.467   7.381  1.00  0.00     0.198 A 
ATOM     90  F   UNL     1      17.631   7.777   7.016  1.00  0.00    -0.203 F 
ATOM     91  F   UNL     1      22.413   5.690   5.516  1.00  0.00    -0.200 F 
ATOM     92  C   UNL     1      21.118   6.937   7.034  1.00  0.00     0.200 A 
ATOM     93  F   UNL     1      19.782   8.233   8.476  1.00  0.00    -0.200 F 
ATOM     94  F   UNL     1      22.192   7.152   7.804  1.00  0.00    -0.200 F 
ENDBRANCH  61  84
ENDBRANCH  35  36
ENDBRANCH  27  30
ENDBRANCH  25  26
ENDBRANCH  24  25
ENDBRANCH  23  24
ENDBRANCH   1  23
TORSDOF 15
