REMARK SMILES COC[C@@H](C)CC(=O)N1CC(CC(=O)NCCCCNC(=O)c2ccc(-c3c4nc(c(-c5c(F)c(F)c(F)c(F)c5F)c5ccc([nH]5)c(-c5c(F)c(F)c(F)c(F)c5F)c5nc(c(-c6c(F)c(F)c(F)c(F)c6F)c6ccc3[nH]6)C=C5)C=C4)cc2)C1
REMARK SMILES IDX 16 1 15 2 13 3 14 4 12 6 11 7 7 8 8 9 9 10 10 11 86 12 6 13
REMARK SMILES IDX 4 14 5 15 3 16 2 17 1 18 17 19 18 20 19 21 20 22 21 23 22 25
REMARK SMILES IDX 23 26 24 27 85 28 25 29 84 30 26 31 27 32 28 33 78 34 29 35
REMARK SMILES IDX 83 36 77 37 79 38 30 39 82 40 76 41 75 42 31 44 63 45 43 46
REMARK SMILES IDX 62 47 44 48 47 49 61 50 80 51 45 52 46 53 60 55 81 56 48 57
REMARK SMILES IDX 32 58 33 59 41 60 34 61 35 62 39 63 42 64 36 65 37 66 40 67
REMARK SMILES IDX 38 68 64 69 65 70 73 71 66 72 67 73 71 74 74 75 68 76 69 77
REMARK SMILES IDX 72 78 70 79 49 80 50 81 58 82 51 83 52 84 56 85 59 86 53 87
REMARK SMILES IDX 54 88 57 89 55 90
REMARK H PARENT 15 5 20 24 79 43 47 54
REMARK Flexibility Score: inf
ROOT
ATOM      1  C   UNL     1       1.358  -3.554   2.660  1.00  0.00     0.116 C 
ENDROOT
BRANCH   1   2
ATOM      2  N   UNL     1       0.651  -4.774   2.996  1.00  0.00    -0.356 N 
ATOM      3  C   UNL     1       0.611  -5.979   2.361  1.00  0.00     0.220 C 
ATOM      4  O   UNL     1      -0.163  -6.832   2.798  1.00  0.00    -0.275 OA
ATOM      5  H   UNL     1       0.112  -4.724   3.818  1.00  0.00     0.163 HD
BRANCH   3   6
ATOM      6  C   UNL     1       1.468  -6.266   1.136  1.00  0.00     0.107 C 
BRANCH   6   7
ATOM      7  C   UNL     1       0.732  -6.022  -0.180  1.00  0.00     0.037 C 
ATOM      8  C   UNL     1       0.702  -4.343  -3.041  1.00  0.00     0.222 C 
ATOM      9  O   UNL     1      -0.023  -4.966  -3.811  1.00  0.00    -0.275 OA
ATOM     10  N   UNL     1       1.216  -4.884  -1.881  1.00  0.00    -0.342 N 
ATOM     11  C   UNL     1       1.405  -6.297  -1.536  1.00  0.00     0.125 C 
ATOM     12  C   UNL     1       0.691  -4.556  -0.571  1.00  0.00     0.125 C 
BRANCH   8  13
ATOM     13  C   UNL     1       1.223  -2.938  -3.367  1.00  0.00     0.106 C 
BRANCH  13  14
ATOM     14  C   UNL     1       0.394  -1.707  -2.938  1.00  0.00     0.021 C 
ATOM     15  C   UNL     1       0.877  -0.478  -3.721  1.00  0.00     0.010 C 
BRANCH  14  16
ATOM     16  C   UNL     1       0.507  -1.421  -1.437  1.00  0.00     0.163 C 
BRANCH  16  17
ATOM     17  O   UNL     1      -0.201  -0.257  -1.020  1.00  0.00    -0.384 OA
ATOM     18  C   UNL     1       0.637   0.818  -0.614  1.00  0.00     0.194 C 
ENDBRANCH  16  17
ENDBRANCH  14  16
ENDBRANCH  13  14
ENDBRANCH   8  13
ENDBRANCH   6   7
ENDBRANCH   3   6
ENDBRANCH   1   2
BRANCH   1  19
ATOM     19  C   UNL     1       0.446  -2.577   1.918  1.00  0.00     0.023 C 
BRANCH  19  20
ATOM     20  C   UNL     1      -0.383  -1.634   2.772  1.00  0.00     0.023 C 
BRANCH  20  21
ATOM     21  C   UNL     1       0.429  -0.654   3.597  1.00  0.00     0.116 C 
BRANCH  21  22
ATOM     22  N   UNL     1       1.334   0.169   2.803  1.00  0.00    -0.352 N 
ATOM     23  C   UNL     1       1.500   1.533   2.820  1.00  0.00     0.251 C 
ATOM     24  H   UNL     1       1.905  -0.320   2.167  1.00  0.00     0.163 HD
ATOM     25  O   UNL     1       2.209   2.087   1.986  1.00  0.00    -0.269 OA
BRANCH  23  26
ATOM     26  C   UNL     1       0.794   2.327   3.841  1.00  0.00     0.039 A 
ATOM     27  C   UNL     1       0.126   3.495   3.468  1.00  0.00     0.014 A 
ATOM     28  C   UNL     1       0.767   1.884   5.165  1.00  0.00     0.014 A 
ATOM     29  C   UNL     1      -0.616   4.191   4.423  1.00  0.00     0.010 A 
ATOM     30  C   UNL     1      -0.064   2.509   6.080  1.00  0.00     0.010 A 
ATOM     31  C   UNL     1      -0.738   3.686   5.728  1.00  0.00    -0.014 A 
BRANCH  31  32
ATOM     32  C   UNL     1      -1.519   4.396   6.767  1.00  0.00     0.031 A 
ATOM     33  C   UNL     1      -0.821   4.892   8.005  1.00  0.00     0.074 A 
ATOM     34  C   UNL     1      -2.851   4.527   6.631  1.00  0.00     0.049 A 
ATOM     35  N   UNL     1      -1.323   5.464   9.069  1.00  0.00    -0.248 NA
ATOM     36  C   UNL     1       0.634   4.675   8.075  1.00  0.00     0.031 C 
ATOM     37  C   UNL     1      -3.642   4.027   5.504  1.00  0.00     0.029 A 
ATOM     38  N   UNL     1      -3.778   5.115   7.452  1.00  0.00    -0.354 N 
ATOM     39  C   UNL     1      -0.253   5.652   9.934  1.00  0.00     0.074 A 
ATOM     40  C   UNL     1       0.910   5.067   9.308  1.00  0.00     0.031 C 
ATOM     41  C   UNL     1      -4.929   4.359   5.690  1.00  0.00     0.029 A 
ATOM     42  C   UNL     1      -5.060   5.060   6.963  1.00  0.00     0.049 A 
ATOM     43  H   UNL     1      -3.546   5.537   8.311  1.00  0.00     0.167 HD
ATOM     44  C   UNL     1      -0.235   6.288  11.129  1.00  0.00     0.037 A 
ATOM     45  C   UNL     1      -6.208   5.525   7.490  1.00  0.00     0.037 A 
ATOM     46  C   UNL     1      -1.394   6.896  11.726  1.00  0.00     0.049 A 
ATOM     47  C   UNL     1      -6.159   6.245   8.811  1.00  0.00     0.074 A 
ATOM     48  C   UNL     1      -1.482   7.620  12.901  1.00  0.00     0.029 A 
ATOM     49  N   UNL     1      -2.673   6.848  11.187  1.00  0.00    -0.354 N 
ATOM     50  N   UNL     1      -5.129   6.484   9.588  1.00  0.00    -0.248 NA
ATOM     51  C   UNL     1      -7.431   6.772   9.320  1.00  0.00     0.031 C 
ATOM     52  C   UNL     1      -2.823   7.966  13.100  1.00  0.00     0.029 A 
ATOM     53  C   UNL     1      -3.561   7.513  12.017  1.00  0.00     0.049 A 
ATOM     54  H   UNL     1      -2.913   6.408  10.340  1.00  0.00     0.167 HD
ATOM     55  C   UNL     1      -5.623   7.210  10.663  1.00  0.00     0.074 A 
ATOM     56  C   UNL     1      -7.039   7.396  10.421  1.00  0.00     0.031 C 
ATOM     57  C   UNL     1      -4.968   7.679  11.756  1.00  0.00     0.037 A 
BRANCH  44  58
ATOM     58  C   UNL     1       1.077   6.360  11.859  1.00  0.00     0.064 A 
ATOM     59  C   UNL     1       2.158   7.110  11.365  1.00  0.00     0.173 A 
ATOM     60  C   UNL     1       1.253   5.685  13.076  1.00  0.00     0.173 A 
ATOM     61  F   UNL     1       2.051   7.761  10.197  1.00  0.00    -0.203 F 
ATOM     62  C   UNL     1       3.373   7.151  12.043  1.00  0.00     0.198 A 
ATOM     63  C   UNL     1       2.459   5.758  13.770  1.00  0.00     0.198 A 
ATOM     64  F   UNL     1       0.256   4.954  13.595  1.00  0.00    -0.203 F 
ATOM     65  F   UNL     1       4.409   7.821  11.519  1.00  0.00    -0.200 F 
ATOM     66  C   UNL     1       3.520   6.482  13.249  1.00  0.00     0.200 A 
ATOM     67  F   UNL     1       2.595   5.122  14.941  1.00  0.00    -0.200 F 
ATOM     68  F   UNL     1       4.689   6.528  13.903  1.00  0.00    -0.200 F 
ENDBRANCH  44  58
BRANCH  45  69
ATOM     69  C   UNL     1      -7.488   5.361   6.751  1.00  0.00     0.064 A 
ATOM     70  C   UNL     1      -8.153   6.470   6.209  1.00  0.00     0.173 A 
ATOM     71  C   UNL     1      -8.074   4.099   6.573  1.00  0.00     0.173 A 
ATOM     72  F   UNL     1      -7.643   7.700   6.367  1.00  0.00    -0.203 F 
ATOM     73  C   UNL     1      -9.368   6.327   5.542  1.00  0.00     0.198 A 
ATOM     74  C   UNL     1      -9.273   3.954   5.877  1.00  0.00     0.198 A 
ATOM     75  F   UNL     1      -7.476   3.005   7.063  1.00  0.00    -0.203 F 
ATOM     76  F   UNL     1     -10.008   7.411   5.081  1.00  0.00    -0.200 F 
ATOM     77  C   UNL     1      -9.924   5.069   5.371  1.00  0.00     0.200 A 
ATOM     78  F   UNL     1      -9.798   2.734   5.699  1.00  0.00    -0.200 F 
ATOM     79  F   UNL     1     -11.091   4.931   4.726  1.00  0.00    -0.200 F 
ENDBRANCH  45  69
BRANCH  57  80
ATOM     80  C   UNL     1      -5.780   8.462  12.748  1.00  0.00     0.064 A 
ATOM     81  C   UNL     1      -6.766   7.854  13.540  1.00  0.00     0.173 A 
ATOM     82  C   UNL     1      -5.564   9.839  12.913  1.00  0.00     0.173 A 
ATOM     83  F   UNL     1      -7.020   6.542  13.413  1.00  0.00    -0.203 F 
ATOM     84  C   UNL     1      -7.539   8.604  14.422  1.00  0.00     0.198 A 
ATOM     85  C   UNL     1      -6.311  10.578  13.825  1.00  0.00     0.198 A 
ATOM     86  F   UNL     1      -4.624  10.468  12.191  1.00  0.00    -0.203 F 
ATOM     87  F   UNL     1      -8.525   8.014  15.112  1.00  0.00    -0.200 F 
ATOM     88  C   UNL     1      -7.308   9.963  14.567  1.00  0.00     0.200 A 
ATOM     89  F   UNL     1      -6.074  11.888  13.977  1.00  0.00    -0.200 F 
ATOM     90  F   UNL     1      -8.054  10.684  15.415  1.00  0.00    -0.200 F 
ENDBRANCH  57  80
ENDBRANCH  31  32
ENDBRANCH  23  26
ENDBRANCH  21  22
ENDBRANCH  20  21
ENDBRANCH  19  20
ENDBRANCH   1  19
TORSDOF 16
