REMARK SMILES CO[C@H]1C[C@H](C(=O)NCCCCNC(=O)c2ccc(-c3c4nc(c(-c5c(F)c(F)c(F)c(F)c5F)c5ccc([nH]5)c(-c5c(F)c(F)c(F)c(F)c5F)c5nc(c(-c6c(F)c(F)c(F)c(F)c6F)c6ccc3[nH]6)C=C5)C=C4)cc2)N(C(=O)[C@H]2C=C[C@@H]([NH3+])C2)C1
REMARK SMILES IDX 10 1 9 2 8 3 6 4 7 5 5 7 3 8 4 9 88 10 79 11 2 12 1 13 80 14
REMARK SMILES IDX 81 15 82 16 83 17 87 18 84 19 85 20 86 21 11 25 12 26 13 27
REMARK SMILES IDX 14 28 15 30 16 31 17 32 78 33 18 34 77 35 19 36 20 37 21 38
REMARK SMILES IDX 71 39 22 40 76 41 70 42 72 43 23 44 75 45 69 46 68 47 24 49
REMARK SMILES IDX 56 50 36 51 55 52 37 53 40 54 54 55 73 56 38 57 39 58 53 60
REMARK SMILES IDX 74 61 41 62 25 63 26 64 34 65 27 66 28 67 32 68 35 69 29 70
REMARK SMILES IDX 30 71 33 72 31 73 57 74 58 75 66 76 59 77 60 78 64 79 67 80
REMARK SMILES IDX 61 81 62 82 65 83 63 84 42 85 43 86 51 87 44 88 45 89 49 90
REMARK SMILES IDX 52 91 46 92 47 93 50 94 48 95
REMARK H PARENT 8 6 86 22 86 23 86 24 13 29 72 48 40 59
REMARK Flexibility Score: inf
ROOT
ATOM      1  C   UNL     1      -0.242  -1.126   0.138  1.00  0.00     0.023 C 
ENDROOT
BRANCH   1   2
ATOM      2  C   UNL     1      -1.272  -0.594  -0.865  1.00  0.00     0.116 C 
BRANCH   2   3
ATOM      3  N   UNL     1      -1.292   0.853  -0.865  1.00  0.00    -0.354 N 
ATOM      4  C   UNL     1      -0.637   1.768  -1.627  1.00  0.00     0.242 C 
ATOM      5  O   UNL     1      -0.667   2.932  -1.205  1.00  0.00    -0.273 OA
ATOM      6  H   UNL     1      -1.890   1.247  -0.189  1.00  0.00     0.163 HD
BRANCH   4   7
ATOM      7  C   UNL     1       0.263   1.430  -2.844  1.00  0.00     0.177 C 
ATOM      8  C   UNL     1       1.666  -0.555  -2.700  1.00  0.00     0.139 C 
ATOM      9  C   UNL     1       1.647   0.943  -2.405  1.00  0.00     0.069 C 
ATOM     10  C   UNL     1       0.712  -0.704  -3.878  1.00  0.00     0.152 C 
ATOM     11  N   UNL     1      -0.180   0.448  -3.836  1.00  0.00    -0.327 N 
BRANCH   8  12
ATOM     12  O   UNL     1       2.964  -1.040  -3.023  1.00  0.00    -0.380 OA
ATOM     13  C   UNL     1       3.843  -1.052  -1.904  1.00  0.00     0.195 C 
ENDBRANCH   8  12
BRANCH  11  14
ATOM     14  C   UNL     1      -1.092   0.584  -4.861  1.00  0.00     0.230 C 
ATOM     15  O   UNL     1      -1.360  -0.393  -5.574  1.00  0.00    -0.274 OA
BRANCH  14  16
ATOM     16  C   UNL     1      -1.754   1.927  -5.202  1.00  0.00     0.107 C 
ATOM     17  C   UNL     1      -2.515   2.585  -4.100  1.00  0.00    -0.012 C 
ATOM     18  C   UNL     1      -0.779   3.010  -5.685  1.00  0.00     0.087 C 
ATOM     19  C   UNL     1      -2.272   3.900  -4.056  1.00  0.00     0.033 C 
ATOM     20  C   UNL     1      -1.306   4.334  -5.107  1.00  0.00     0.205 C 
BRANCH  20  21
ATOM     21  N   UNL     1      -0.240   5.148  -4.552  1.00  0.00    -0.352 N 
ATOM     22  H   UNL     1       0.245   4.622  -3.824  1.00  0.00     0.345 HD
ATOM     23  H   UNL     1      -0.635   5.998  -4.151  1.00  0.00     0.345 HD
ATOM     24  H   UNL     1       0.420   5.394  -5.290  1.00  0.00     0.345 HD
ENDBRANCH  20  21
ENDBRANCH  14  16
ENDBRANCH  11  14
ENDBRANCH   4   7
ENDBRANCH   2   3
ENDBRANCH   1   2
BRANCH   1  25
ATOM     25  C   UNL     1      -0.716  -1.208   1.588  1.00  0.00     0.023 C 
BRANCH  25  26
ATOM     26  C   UNL     1      -1.848  -2.196   1.839  1.00  0.00     0.116 C 
BRANCH  26  27
ATOM     27  N   UNL     1      -1.538  -3.562   1.442  1.00  0.00    -0.352 N 
ATOM     28  C   UNL     1      -2.015  -4.736   1.977  1.00  0.00     0.251 C 
ATOM     29  H   UNL     1      -0.905  -3.657   0.694  1.00  0.00     0.163 HD
ATOM     30  O   UNL     1      -1.596  -5.817   1.582  1.00  0.00    -0.269 OA
BRANCH  28  31
ATOM     31  C   UNL     1      -3.001  -4.677   3.076  1.00  0.00     0.039 A 
ATOM     32  C   UNL     1      -2.761  -5.423   4.232  1.00  0.00     0.014 A 
ATOM     33  C   UNL     1      -4.122  -3.849   2.987  1.00  0.00     0.014 A 
ATOM     34  C   UNL     1      -3.606  -5.276   5.333  1.00  0.00     0.010 A 
ATOM     35  C   UNL     1      -4.918  -3.647   4.108  1.00  0.00     0.010 A 
ATOM     36  C   UNL     1      -4.665  -4.354   5.293  1.00  0.00    -0.014 A 
BRANCH  36  37
ATOM     37  C   UNL     1      -5.514  -4.105   6.483  1.00  0.00     0.031 A 
ATOM     38  C   UNL     1      -6.977  -4.444   6.446  1.00  0.00     0.074 A 
ATOM     39  C   UNL     1      -4.984  -3.499   7.562  1.00  0.00     0.049 A 
ATOM     40  N   UNL     1      -7.899  -4.229   7.349  1.00  0.00    -0.248 NA
ATOM     41  C   UNL     1      -7.476  -5.081   5.217  1.00  0.00     0.031 C 
ATOM     42  C   UNL     1      -3.593  -3.062   7.691  1.00  0.00     0.029 A 
ATOM     43  N   UNL     1      -5.558  -3.131   8.753  1.00  0.00    -0.354 N 
ATOM     44  C   UNL     1      -9.086  -4.680   6.789  1.00  0.00     0.074 A 
ATOM     45  C   UNL     1      -8.779  -5.138   5.452  1.00  0.00     0.031 C 
ATOM     46  C   UNL     1      -3.417  -2.503   8.899  1.00  0.00     0.029 A 
ATOM     47  C   UNL     1      -4.687  -2.515   9.618  1.00  0.00     0.049 A 
ATOM     48  H   UNL     1      -6.505  -3.292   8.967  1.00  0.00     0.167 HD
ATOM     49  C   UNL     1     -10.317  -4.730   7.350  1.00  0.00     0.037 A 
ATOM     50  C   UNL     1      -4.892  -2.016  10.851  1.00  0.00     0.037 A 
ATOM     51  C   UNL     1     -10.610  -4.314   8.696  1.00  0.00     0.049 A 
ATOM     52  C   UNL     1      -6.261  -2.120  11.466  1.00  0.00     0.074 A 
ATOM     53  C   UNL     1     -11.808  -4.397   9.384  1.00  0.00     0.029 A 
ATOM     54  N   UNL     1      -9.690  -3.741   9.561  1.00  0.00    -0.354 N 
ATOM     55  N   UNL     1      -7.360  -2.620  10.956  1.00  0.00    -0.248 NA
ATOM     56  C   UNL     1      -6.416  -1.601  12.832  1.00  0.00     0.031 C 
ATOM     57  C   UNL     1     -11.621  -3.843  10.655  1.00  0.00     0.029 A 
ATOM     58  C   UNL     1     -10.297  -3.451  10.772  1.00  0.00     0.049 A 
ATOM     59  H   UNL     1      -8.745  -3.565   9.346  1.00  0.00     0.167 HD
ATOM     60  C   UNL     1      -8.328  -2.499  11.943  1.00  0.00     0.074 A 
ATOM     61  C   UNL     1      -7.683  -1.892  13.088  1.00  0.00     0.031 C 
ATOM     62  C   UNL     1      -9.635  -2.857  11.903  1.00  0.00     0.037 A 
BRANCH  49  63
ATOM     63  C   UNL     1     -11.440  -5.265   6.512  1.00  0.00     0.064 A 
ATOM     64  C   UNL     1     -11.529  -6.628   6.189  1.00  0.00     0.173 A 
ATOM     65  C   UNL     1     -12.457  -4.414   6.056  1.00  0.00     0.173 A 
ATOM     66  F   UNL     1     -10.573  -7.480   6.589  1.00  0.00    -0.203 F 
ATOM     67  C   UNL     1     -12.581  -7.113   5.417  1.00  0.00     0.198 A 
ATOM     68  C   UNL     1     -13.523  -4.908   5.308  1.00  0.00     0.198 A 
ATOM     69  F   UNL     1     -12.421  -3.103   6.341  1.00  0.00    -0.203 F 
ATOM     70  F   UNL     1     -12.620  -8.410   5.082  1.00  0.00    -0.200 F 
ATOM     71  C   UNL     1     -13.580  -6.255   4.984  1.00  0.00     0.200 A 
ATOM     72  F   UNL     1     -14.493  -4.079   4.899  1.00  0.00    -0.200 F 
ATOM     73  F   UNL     1     -14.596  -6.726   4.247  1.00  0.00    -0.200 F 
ENDBRANCH  49  63
BRANCH  50  74
ATOM     74  C   UNL     1      -3.767  -1.403  11.602  1.00  0.00     0.064 A 
ATOM     75  C   UNL     1      -3.207  -2.051  12.712  1.00  0.00     0.173 A 
ATOM     76  C   UNL     1      -3.232  -0.161  11.232  1.00  0.00     0.173 A 
ATOM     77  F   UNL     1      -3.699  -3.233  13.114  1.00  0.00    -0.203 F 
ATOM     78  C   UNL     1      -2.169  -1.471  13.437  1.00  0.00     0.198 A 
ATOM     79  C   UNL     1      -2.177   0.407  11.943  1.00  0.00     0.198 A 
ATOM     80  F   UNL     1      -3.728   0.496  10.174  1.00  0.00    -0.203 F 
ATOM     81  F   UNL     1      -1.682  -2.092  14.520  1.00  0.00    -0.200 F 
ATOM     82  C   UNL     1      -1.652  -0.244  13.050  1.00  0.00     0.200 A 
ATOM     83  F   UNL     1      -1.671   1.587  11.559  1.00  0.00    -0.200 F 
ATOM     84  F   UNL     1      -0.653   0.314  13.747  1.00  0.00    -0.200 F 
ENDBRANCH  50  74
BRANCH  62  85
ATOM     85  C   UNL     1     -10.445  -2.632  13.145  1.00  0.00     0.064 A 
ATOM     86  C   UNL     1     -10.850  -1.347  13.533  1.00  0.00     0.173 A 
ATOM     87  C   UNL     1     -10.855  -3.719  13.931  1.00  0.00     0.173 A 
ATOM     88  F   UNL     1     -10.469  -0.276  12.821  1.00  0.00    -0.203 F 
ATOM     89  C   UNL     1     -11.619  -1.156  14.677  1.00  0.00     0.198 A 
ATOM     90  C   UNL     1     -11.646  -3.527  15.060  1.00  0.00     0.198 A 
ATOM     91  F   UNL     1     -10.497  -4.968  13.598  1.00  0.00    -0.203 F 
ATOM     92  F   UNL     1     -11.960   0.084  15.053  1.00  0.00    -0.200 F 
ATOM     93  C   UNL     1     -12.022  -2.246  15.435  1.00  0.00     0.200 A 
ATOM     94  F   UNL     1     -12.043  -4.581  15.785  1.00  0.00    -0.200 F 
ATOM     95  F   UNL     1     -12.768  -2.060  16.532  1.00  0.00    -0.200 F 
ENDBRANCH  62  85
ENDBRANCH  36  37
ENDBRANCH  28  31
ENDBRANCH  26  27
ENDBRANCH  25  26
ENDBRANCH   1  25
TORSDOF 15
