REMARK SMILES Cc1cc(NC(=O)NCc2sccc2C)ccc1C(=O)NCCCCNC(=O)c1ccc(-c2c3nc(c(-c4c(F)c(F)c(F)c(F)c4F)c4ccc([nH]4)c(-c4c(F)c(F)c(F)c(F)c4F)c4nc(c(-c5c(F)c(F)c(F)c(F)c5F)c5ccc2[nH]5)C=C4)C=C3)cc1
REMARK SMILES IDX 23 1 22 2 21 3 19 4 20 5 18 7 1 8 2 9 3 10 4 11 17 12 16 13
REMARK SMILES IDX 5 14 6 15 7 17 8 18 9 20 10 21 11 22 14 23 12 24 13 25 15 26
REMARK SMILES IDX 24 27 25 28 26 29 27 30 28 32 29 33 30 34 91 35 31 36 90 37
REMARK SMILES IDX 32 38 33 39 34 40 84 41 35 42 89 43 83 44 85 45 36 46 88 47
REMARK SMILES IDX 82 48 81 49 37 51 69 52 49 53 68 54 50 55 53 56 67 57 86 58
REMARK SMILES IDX 51 59 52 60 66 62 87 63 54 64 38 65 39 66 47 67 40 68 41 69
REMARK SMILES IDX 45 70 48 71 42 72 43 73 46 74 44 75 70 76 71 77 79 78 72 79
REMARK SMILES IDX 73 80 77 81 80 82 74 83 75 84 78 85 76 86 55 87 56 88 64 89
REMARK SMILES IDX 57 90 58 91 62 92 65 93 59 94 60 95 63 96 61 97
REMARK H PARENT 21 6 5 16 8 19 26 31 85 50 53 61
REMARK Flexibility Score: inf
ROOT
ATOM      1  C   UNL     1       4.085   1.365  -1.334  1.00  0.00     0.023 C 
ENDROOT
BRANCH   1   2
ATOM      2  C   UNL     1       3.152   1.631  -0.140  1.00  0.00     0.116 C 
BRANCH   2   3
ATOM      3  N   UNL     1       2.090   2.565  -0.477  1.00  0.00    -0.352 N 
ATOM      4  C   UNL     1       0.745   2.424  -0.709  1.00  0.00     0.251 C 
ATOM      5  O   UNL     1       0.093   3.453  -0.898  1.00  0.00    -0.269 OA
ATOM      6  H   UNL     1       2.402   3.496  -0.555  1.00  0.00     0.163 HD
BRANCH   4   7
ATOM      7  C   UNL     1       0.006   1.133  -0.645  1.00  0.00     0.042 A 
ATOM      8  C   UNL     1       1.407  -0.192  -2.349  1.00  0.00     0.045 C 
ATOM      9  C   UNL     1       0.271  -0.022  -1.399  1.00  0.00    -0.036 A 
ATOM     10  C   UNL     1      -0.527  -1.164  -1.201  1.00  0.00     0.030 A 
ATOM     11  C   UNL     1      -1.521  -1.188  -0.228  1.00  0.00     0.043 A 
ATOM     12  C   UNL     1      -1.139   1.149   0.179  1.00  0.00     0.016 A 
ATOM     13  C   UNL     1      -1.910  -0.001   0.379  1.00  0.00     0.027 A 
BRANCH  11  14
ATOM     14  N   UNL     1      -2.080  -2.390   0.210  1.00  0.00    -0.308 N 
ATOM     15  C   UNL     1      -1.530  -3.614   0.401  1.00  0.00     0.319 C 
ATOM     16  H   UNL     1      -3.042  -2.340   0.414  1.00  0.00     0.171 HD
ATOM     17  O   UNL     1      -2.280  -4.589   0.497  1.00  0.00    -0.248 OA
ATOM     18  N   UNL     1      -0.210  -3.819   0.600  1.00  0.00    -0.333 N 
ATOM     19  H   UNL     1       0.025  -4.769   0.711  1.00  0.00     0.165 HD
BRANCH  18  20
ATOM     20  C   UNL     1       0.932  -2.932   0.684  1.00  0.00     0.165 C 
BRANCH  20  21
ATOM     21  C   UNL     1       1.731  -3.083   1.941  1.00  0.00     0.027 A 
ATOM     22  S   UNL     1       1.888  -1.687   2.944  1.00  0.00    -0.147 S 
ATOM     23  C   UNL     1       2.492  -4.142   2.411  1.00  0.00    -0.035 A 
ATOM     24  C   UNL     1       2.996  -2.462   3.970  1.00  0.00     0.065 A 
ATOM     25  C   UNL     1       3.216  -3.765   3.593  1.00  0.00     0.015 A 
ATOM     26  C   UNL     1       2.604  -5.494   1.790  1.00  0.00     0.045 C 
ENDBRANCH  20  21
ENDBRANCH  18  20
ENDBRANCH  11  14
ENDBRANCH   4   7
ENDBRANCH   2   3
ENDBRANCH   1   2
BRANCH   1  27
ATOM     27  C   UNL     1       4.907   2.554  -1.819  1.00  0.00     0.023 C 
BRANCH  27  28
ATOM     28  C   UNL     1       6.251   2.676  -1.129  1.00  0.00     0.116 C 
BRANCH  28  29
ATOM     29  N   UNL     1       7.302   1.827  -1.689  1.00  0.00    -0.352 N 
ATOM     30  C   UNL     1       8.619   1.675  -1.284  1.00  0.00     0.251 C 
ATOM     31  H   UNL     1       7.036   1.286  -2.467  1.00  0.00     0.163 HD
ATOM     32  O   UNL     1       9.376   0.934  -1.906  1.00  0.00    -0.269 OA
BRANCH  30  33
ATOM     33  C   UNL     1       9.062   2.276  -0.001  1.00  0.00     0.039 A 
ATOM     34  C   UNL     1       9.723   1.444   0.910  1.00  0.00     0.014 A 
ATOM     35  C   UNL     1       8.534   3.488   0.419  1.00  0.00     0.014 A 
ATOM     36  C   UNL     1       9.554   1.669   2.272  1.00  0.00     0.010 A 
ATOM     37  C   UNL     1       8.222   3.621   1.753  1.00  0.00     0.010 A 
ATOM     38  C   UNL     1       8.665   2.663   2.670  1.00  0.00    -0.014 A 
BRANCH  38  39
ATOM     39  C   UNL     1       8.021   2.689   3.978  1.00  0.00     0.031 A 
ATOM     40  C   UNL     1       8.270   3.812   4.904  1.00  0.00     0.074 A 
ATOM     41  C   UNL     1       7.073   1.764   4.258  1.00  0.00     0.049 A 
ATOM     42  N   UNL     1       7.994   3.798   6.163  1.00  0.00    -0.248 NA
ATOM     43  C   UNL     1       8.916   5.046   4.479  1.00  0.00     0.031 C 
ATOM     44  C   UNL     1       6.079   1.807   5.327  1.00  0.00     0.029 A 
ATOM     45  N   UNL     1       6.938   0.472   3.714  1.00  0.00    -0.354 N 
ATOM     46  C   UNL     1       8.139   5.082   6.644  1.00  0.00     0.074 A 
ATOM     47  C   UNL     1       8.807   5.790   5.582  1.00  0.00     0.031 C 
ATOM     48  C   UNL     1       5.651   0.558   5.573  1.00  0.00     0.029 A 
ATOM     49  C   UNL     1       6.470  -0.337   4.776  1.00  0.00     0.049 A 
ATOM     50  H   UNL     1       7.130   0.191   2.790  1.00  0.00     0.167 HD
ATOM     51  C   UNL     1       7.543   5.404   7.830  1.00  0.00     0.037 A 
ATOM     52  C   UNL     1       7.231  -1.350   5.284  1.00  0.00     0.037 A 
ATOM     53  C   UNL     1       7.034   4.197   8.491  1.00  0.00     0.049 A 
ATOM     54  C   UNL     1       7.570  -1.184   6.747  1.00  0.00     0.074 A 
ATOM     55  C   UNL     1       5.767   3.649   8.615  1.00  0.00     0.029 A 
ATOM     56  N   UNL     1       7.929   3.201   8.878  1.00  0.00    -0.354 N 
ATOM     57  N   UNL     1       7.488  -0.051   7.387  1.00  0.00    -0.248 NA
ATOM     58  C   UNL     1       8.057  -2.269   7.596  1.00  0.00     0.031 C 
ATOM     59  C   UNL     1       5.910   2.294   9.010  1.00  0.00     0.029 A 
ATOM     60  C   UNL     1       7.260   2.024   9.152  1.00  0.00     0.049 A 
ATOM     61  H   UNL     1       8.904   3.321   8.948  1.00  0.00     0.167 HD
ATOM     62  C   UNL     1       7.918  -0.218   8.676  1.00  0.00     0.074 A 
ATOM     63  C   UNL     1       8.244  -1.629   8.764  1.00  0.00     0.031 C 
ATOM     64  C   UNL     1       7.984   0.826   9.554  1.00  0.00     0.037 A 
BRANCH  51  65
ATOM     65  C   UNL     1       7.151   6.815   8.259  1.00  0.00     0.064 A 
ATOM     66  C   UNL     1       6.147   7.011   9.237  1.00  0.00     0.173 A 
ATOM     67  C   UNL     1       7.632   8.013   7.694  1.00  0.00     0.173 A 
ATOM     68  F   UNL     1       5.661   5.991   9.956  1.00  0.00    -0.203 F 
ATOM     69  C   UNL     1       5.596   8.267   9.521  1.00  0.00     0.198 A 
ATOM     70  C   UNL     1       7.062   9.265   7.953  1.00  0.00     0.198 A 
ATOM     71  F   UNL     1       8.711   8.047   6.912  1.00  0.00    -0.203 F 
ATOM     72  F   UNL     1       4.627   8.376  10.441  1.00  0.00    -0.200 F 
ATOM     73  C   UNL     1       6.031   9.391   8.854  1.00  0.00     0.200 A 
ATOM     74  F   UNL     1       7.531  10.348   7.315  1.00  0.00    -0.200 F 
ATOM     75  F   UNL     1       5.484  10.589   9.098  1.00  0.00    -0.200 F 
ENDBRANCH  51  65
BRANCH  52  76
ATOM     76  C   UNL     1       8.103  -1.994   4.267  1.00  0.00     0.064 A 
ATOM     77  C   UNL     1       7.486  -2.688   3.209  1.00  0.00     0.173 A 
ATOM     78  C   UNL     1       9.439  -1.617   4.097  1.00  0.00     0.173 A 
ATOM     79  F   UNL     1       6.209  -3.083   3.327  1.00  0.00    -0.203 F 
ATOM     80  C   UNL     1       8.131  -2.881   1.990  1.00  0.00     0.198 A 
ATOM     81  C   UNL     1      10.090  -1.828   2.878  1.00  0.00     0.198 A 
ATOM     82  F   UNL     1      10.078  -0.935   5.058  1.00  0.00    -0.203 F 
ATOM     83  F   UNL     1       7.471  -3.442   0.966  1.00  0.00    -0.200 F 
ATOM     84  C   UNL     1       9.425  -2.424   1.816  1.00  0.00     0.200 A 
ATOM     85  F   UNL     1      11.333  -1.357   2.698  1.00  0.00    -0.200 F 
ATOM     86  F   UNL     1      10.015  -2.517   0.617  1.00  0.00    -0.200 F 
ENDBRANCH  52  76
BRANCH  64  87
ATOM     87  C   UNL     1       8.660   0.802  10.903  1.00  0.00     0.064 A 
ATOM     88  C   UNL     1       9.772   0.001  11.208  1.00  0.00     0.173 A 
ATOM     89  C   UNL     1       8.286   1.732  11.903  1.00  0.00     0.173 A 
ATOM     90  F   UNL     1      10.294  -0.840  10.304  1.00  0.00    -0.203 F 
ATOM     91  C   UNL     1      10.426   0.083  12.441  1.00  0.00     0.198 A 
ATOM     92  C   UNL     1       8.977   1.852  13.108  1.00  0.00     0.198 A 
ATOM     93  F   UNL     1       7.255   2.572  11.728  1.00  0.00    -0.203 F 
ATOM     94  F   UNL     1      11.460  -0.732  12.698  1.00  0.00    -0.200 F 
ATOM     95  C   UNL     1      10.038   1.016  13.383  1.00  0.00     0.200 A 
ATOM     96  F   UNL     1       8.621   2.797  13.989  1.00  0.00    -0.200 F 
ATOM     97  F   UNL     1      10.700   1.125  14.543  1.00  0.00    -0.200 F 
ENDBRANCH  64  87
ENDBRANCH  38  39
ENDBRANCH  30  33
ENDBRANCH  28  29
ENDBRANCH  27  28
ENDBRANCH   1  27
TORSDOF 14
