REMARK SMILES CC(C)(C)[C@H]1CCC[C@H]([NH+]2CCC(CC(=O)NCCCCNC(=O)c3ccc(-c4c5nc(c(-c6c(F)c(F)c(F)c(F)c6F)c6ccc([nH]6)c(-c6c(F)c(F)c(F)c(F)c6F)c6nc(c(-c7c(F)c(F)c(F)c(F)c7F)c7ccc4[nH]7)C=C6)C=C5)cc3)CC2)CC1
REMARK SMILES IDX 15 1 16 2 17 3 14 5 13 6 10 7 11 8 89 9 12 11 88 12 9 13
REMARK SMILES IDX 90 14 91 15 5 16 2 17 1 18 3 19 4 20 6 21 8 23 7 24 18 26
REMARK SMILES IDX 19 27 20 28 21 29 22 30 23 31 24 33 25 34 26 35 87 36 27 37
REMARK SMILES IDX 86 38 28 39 29 40 30 41 80 42 31 43 85 44 79 45 81 46 32 47
REMARK SMILES IDX 84 48 78 49 77 50 33 52 65 53 45 54 64 55 46 56 49 57 63 58
REMARK SMILES IDX 82 59 47 60 48 61 62 63 83 64 50 65 34 66 35 67 43 68 36 69
REMARK SMILES IDX 37 70 41 71 44 72 38 73 39 74 42 75 40 76 66 77 67 78 75 79
REMARK SMILES IDX 68 80 69 81 73 82 76 83 70 84 71 85 74 86 72 87 51 88 52 89
REMARK SMILES IDX 60 90 53 91 54 92 58 93 61 94 55 95 56 96 59 97 57 98
REMARK H PARENT 17 4 10 10 22 32 81 51 49 62
REMARK Flexibility Score: 80.00
ROOT
ATOM      1  C   UNL     1      -1.141  -7.500   8.607  1.00  0.00     0.220 C 
ATOM      2  O   UNL     1      -1.471  -8.689   8.657  1.00  0.00    -0.275 OA
ATOM      3  N   UNL     1      -2.147  -6.573   8.658  1.00  0.00    -0.356 N 
ATOM      4  H   UNL     1      -3.045  -6.964   8.753  1.00  0.00     0.163 HD
ENDROOT
BRANCH   1   5
ATOM      5  C   UNL     1       0.340  -7.119   8.462  1.00  0.00     0.104 C 
BRANCH   5   6
ATOM      6  C   UNL     1       0.777  -6.965   6.990  1.00  0.00     0.009 C 
ATOM      7  N   UNL     1       1.845  -5.202   4.845  1.00  0.00    -0.332 N 
ATOM      8  C   UNL     1       0.410  -5.401   5.013  1.00  0.00     0.262 C 
ATOM      9  C   UNL     1       2.577  -6.412   5.268  1.00  0.00     0.262 C 
ATOM     10  H   UNL     1       2.164  -4.450   5.456  1.00  0.00     0.348 HD
ATOM     11  C   UNL     1       0.079  -5.752   6.430  1.00  0.00     0.066 C 
ATOM     12  C   UNL     1       2.281  -6.795   6.744  1.00  0.00     0.066 C 
BRANCH   7  13
ATOM     13  C   UNL     1       2.165  -4.736   3.462  1.00  0.00     0.184 C 
BRANCH  13  14
ATOM     14  C   UNL     1       1.729  -3.240   3.333  1.00  0.00     0.065 C 
BRANCH  14  15
ATOM     15  C   UNL     1       2.125  -2.533   2.026  1.00  0.00     0.010 C 
BRANCH  15  16
ATOM     16  C   UNL     1       1.113  -2.699   0.860  1.00  0.00    -0.005 C 
BRANCH  16  17
ATOM     17  C   UNL     1       1.657  -2.219  -0.551  1.00  0.00    -0.035 C 
ATOM     18  C   UNL     1       0.632  -2.511  -1.673  1.00  0.00     0.011 C 
ATOM     19  C   UNL     1       2.988  -2.870  -0.977  1.00  0.00     0.011 C 
ATOM     20  C   UNL     1       1.874  -0.690  -0.524  1.00  0.00     0.011 C 
ENDBRANCH  16  17
BRANCH  16  21
ATOM     21  C   UNL     1       0.488  -4.104   0.862  1.00  0.00     0.004 CG0
ATOM     22  G   UNL     1       1.519  -5.220   0.963  1.00  0.00     0.000 G0
ENDBRANCH  16  21
ENDBRANCH  15  16
ENDBRANCH  14  15
ENDBRANCH  13  14
BRANCH  13  23
ATOM     23  C   UNL     1       1.659  -5.731   2.384  1.00  0.00     0.065 C 
BRANCH  23  24
ATOM     24  C   UNL     1       1.519  -5.220   0.963  1.00  0.00     0.006 CG0
ATOM     25  G   UNL     1       0.488  -4.104   0.862  1.00  0.00     0.000 G0
ENDBRANCH  23  24
ENDBRANCH  13  23
ENDBRANCH   7  13
ENDBRANCH   5   6
ENDBRANCH   1   5
BRANCH   3  26
ATOM     26  C   UNL     1      -2.141  -5.115   8.599  1.00  0.00     0.116 C 
BRANCH  26  27
ATOM     27  C   UNL     1      -2.661  -4.576   7.250  1.00  0.00     0.023 C 
BRANCH  27  28
ATOM     28  C   UNL     1      -4.120  -4.181   7.178  1.00  0.00     0.023 C 
BRANCH  28  29
ATOM     29  C   UNL     1      -4.479  -2.961   7.990  1.00  0.00     0.116 C 
BRANCH  29  30
ATOM     30  N   UNL     1      -3.806  -1.739   7.568  1.00  0.00    -0.352 N 
ATOM     31  C   UNL     1      -4.342  -0.473   7.443  1.00  0.00     0.251 C 
ATOM     32  H   UNL     1      -2.851  -1.827   7.346  1.00  0.00     0.163 HD
ATOM     33  O   UNL     1      -3.678   0.458   7.018  1.00  0.00    -0.269 OA
BRANCH  31  34
ATOM     34  C   UNL     1      -5.769  -0.286   7.782  1.00  0.00     0.039 A 
ATOM     35  C   UNL     1      -6.612   0.330   6.856  1.00  0.00     0.014 A 
ATOM     36  C   UNL     1      -6.284  -0.845   8.953  1.00  0.00     0.014 A 
ATOM     37  C   UNL     1      -7.992   0.295   7.062  1.00  0.00     0.010 A 
ATOM     38  C   UNL     1      -7.654  -0.992   9.088  1.00  0.00     0.010 A 
ATOM     39  C   UNL     1      -8.524  -0.413   8.152  1.00  0.00    -0.014 A 
BRANCH  39  40
ATOM     40  C   UNL     1      -9.986  -0.540   8.364  1.00  0.00     0.031 A 
ATOM     41  C   UNL     1     -10.594  -0.007   9.631  1.00  0.00     0.074 A 
ATOM     42  C   UNL     1     -10.742  -1.212   7.476  1.00  0.00     0.049 A 
ATOM     43  N   UNL     1     -11.822  -0.109  10.069  1.00  0.00    -0.248 NA
ATOM     44  C   UNL     1      -9.685   0.692  10.554  1.00  0.00     0.031 C 
ATOM     45  C   UNL     1     -10.253  -1.846   6.250  1.00  0.00     0.029 A 
ATOM     46  N   UNL     1     -12.086  -1.487   7.477  1.00  0.00    -0.354 N 
ATOM     47  C   UNL     1     -11.820   0.482  11.325  1.00  0.00     0.074 A 
ATOM     48  C   UNL     1     -10.458   0.870  11.612  1.00  0.00     0.031 C 
ATOM     49  C   UNL     1     -11.286  -2.411   5.604  1.00  0.00     0.029 A 
ATOM     50  C   UNL     1     -12.503  -2.208   6.385  1.00  0.00     0.049 A 
ATOM     51  H   UNL     1     -12.695  -1.196   8.194  1.00  0.00     0.167 HD
ATOM     52  C   UNL     1     -12.866   0.717  12.151  1.00  0.00     0.037 A 
ATOM     53  C   UNL     1     -13.730  -2.652   6.054  1.00  0.00     0.037 A 
ATOM     54  C   UNL     1     -14.226   0.372  11.837  1.00  0.00     0.049 A 
ATOM     55  C   UNL     1     -14.888  -2.339   6.961  1.00  0.00     0.074 A 
ATOM     56  C   UNL     1     -15.373   0.633  12.563  1.00  0.00     0.029 A 
ATOM     57  N   UNL     1     -14.618  -0.306  10.692  1.00  0.00    -0.354 N 
ATOM     58  N   UNL     1     -14.890  -1.710   8.111  1.00  0.00    -0.248 NA
ATOM     59  C   UNL     1     -16.216  -2.788   6.520  1.00  0.00     0.031 C 
ATOM     60  C   UNL     1     -16.458   0.082  11.872  1.00  0.00     0.029 A 
ATOM     61  C   UNL     1     -15.991  -0.485  10.696  1.00  0.00     0.049 A 
ATOM     62  H   UNL     1     -14.011  -0.614   9.981  1.00  0.00     0.167 HD
ATOM     63  C   UNL     1     -16.215  -1.668   8.523  1.00  0.00     0.074 A 
ATOM     64  C   UNL     1     -16.992  -2.323   7.489  1.00  0.00     0.031 C 
ATOM     65  C   UNL     1     -16.741  -1.138   9.654  1.00  0.00     0.037 A 
BRANCH  52  66
ATOM     66  C   UNL     1     -12.568   1.390  13.459  1.00  0.00     0.064 A 
ATOM     67  C   UNL     1     -12.136   2.725  13.518  1.00  0.00     0.173 A 
ATOM     68  C   UNL     1     -12.700   0.690  14.668  1.00  0.00     0.173 A 
ATOM     69  F   UNL     1     -11.976   3.433  12.390  1.00  0.00    -0.203 F 
ATOM     70  C   UNL     1     -11.803   3.318  14.732  1.00  0.00     0.198 A 
ATOM     71  C   UNL     1     -12.399   1.299  15.884  1.00  0.00     0.198 A 
ATOM     72  F   UNL     1     -13.112  -0.586  14.669  1.00  0.00    -0.203 F 
ATOM     73  F   UNL     1     -11.323   4.569  14.755  1.00  0.00    -0.200 F 
ATOM     74  C   UNL     1     -11.939   2.607  15.914  1.00  0.00     0.200 A 
ATOM     75  F   UNL     1     -12.540   0.613  17.027  1.00  0.00    -0.200 F 
ATOM     76  F   UNL     1     -11.613   3.177  17.082  1.00  0.00    -0.200 F 
ENDBRANCH  52  66
BRANCH  53  77
ATOM     77  C   UNL     1     -13.925  -3.397   4.784  1.00  0.00     0.064 A 
ATOM     78  C   UNL     1     -14.571  -2.799   3.693  1.00  0.00     0.173 A 
ATOM     79  C   UNL     1     -13.450  -4.706   4.623  1.00  0.00     0.173 A 
ATOM     80  F   UNL     1     -15.058  -1.554   3.804  1.00  0.00    -0.203 F 
ATOM     81  C   UNL     1     -14.744  -3.486   2.493  1.00  0.00     0.198 A 
ATOM     82  C   UNL     1     -13.602  -5.384   3.415  1.00  0.00     0.198 A 
ATOM     83  F   UNL     1     -12.818  -5.320   5.635  1.00  0.00    -0.203 F 
ATOM     84  F   UNL     1     -15.392  -2.901   1.476  1.00  0.00    -0.200 F 
ATOM     85  C   UNL     1     -14.253  -4.775   2.353  1.00  0.00     0.200 A 
ATOM     86  F   UNL     1     -13.114  -6.625   3.279  1.00  0.00    -0.200 F 
ATOM     87  F   UNL     1     -14.410  -5.432   1.195  1.00  0.00    -0.200 F 
ENDBRANCH  53  77
BRANCH  65  88
ATOM     88  C   UNL     1     -18.229  -1.224   9.823  1.00  0.00     0.064 A 
ATOM     89  C   UNL     1     -18.862  -2.434  10.138  1.00  0.00     0.173 A 
ATOM     90  C   UNL     1     -19.022  -0.071   9.720  1.00  0.00     0.173 A 
ATOM     91  F   UNL     1     -18.147  -3.565  10.233  1.00  0.00    -0.203 F 
ATOM     92  C   UNL     1     -20.240  -2.492  10.323  1.00  0.00     0.198 A 
ATOM     93  C   UNL     1     -20.396  -0.127   9.932  1.00  0.00     0.198 A 
ATOM     94  F   UNL     1     -18.461   1.112   9.427  1.00  0.00    -0.203 F 
ATOM     95  F   UNL     1     -20.831  -3.666  10.584  1.00  0.00    -0.200 F 
ATOM     96  C   UNL     1     -21.004  -1.338  10.228  1.00  0.00     0.200 A 
ATOM     97  F   UNL     1     -21.131   0.990   9.853  1.00  0.00    -0.200 F 
ATOM     98  F   UNL     1     -22.330  -1.394  10.416  1.00  0.00    -0.200 F 
ENDBRANCH  65  88
ENDBRANCH  39  40
ENDBRANCH  31  34
ENDBRANCH  29  30
ENDBRANCH  28  29
ENDBRANCH  27  28
ENDBRANCH  26  27
ENDBRANCH   3  26
TORSDOF 14
