REMARK SMILES CCCC1C[NH+]([C@H](CC(=O)NCCCCNC(=O)c2ccc(-c3c4nc(c(-c5c(F)c(F)c(F)c(F)c5F)c5ccc([nH]5)c(-c5c(F)c(F)c(F)c(F)c5F)c5nc(c(-c6c(F)c(F)c(F)c(F)c6F)c6ccc3[nH]6)C=C5)C=C4)cc2)c2ccccc2)C1
REMARK SMILES IDX 12 1 11 2 9 3 10 4 8 6 7 7 6 8 4 9 5 10 88 11 3 13 2 14 1 15
REMARK SMILES IDX 82 16 83 17 87 18 84 19 86 20 85 21 13 22 14 23 15 24 16 25
REMARK SMILES IDX 17 26 18 28 19 29 20 30 81 31 21 32 80 33 22 34 23 35 24 36
REMARK SMILES IDX 74 37 25 38 79 39 73 40 75 41 26 42 78 43 72 44 71 45 27 47
REMARK SMILES IDX 59 48 39 49 58 50 40 51 43 52 57 53 76 54 41 55 42 56 56 58
REMARK SMILES IDX 77 59 44 60 28 61 29 62 37 63 30 64 31 65 35 66 38 67 32 68
REMARK SMILES IDX 33 69 36 70 34 71 60 72 61 73 69 74 62 75 63 76 67 77 70 78
REMARK SMILES IDX 64 79 65 80 68 81 66 82 45 83 46 84 54 85 47 86 48 87 52 88
REMARK SMILES IDX 55 89 49 90 50 91 53 92 51 93
REMARK H PARENT 11 5 6 12 16 27 75 46 43 57
REMARK Flexibility Score: inf
ROOT
ATOM      1  C   UNL     1       1.699   4.454  -1.377  1.00  0.00     0.116 C 
ENDROOT
BRANCH   1   2
ATOM      2  N   UNL     1       0.436   5.156  -1.259  1.00  0.00    -0.356 N 
ATOM      3  C   UNL     1      -0.816   4.738  -1.606  1.00  0.00     0.226 C 
ATOM      4  O   UNL     1      -1.736   5.558  -1.552  1.00  0.00    -0.275 OA
ATOM      5  H   UNL     1       0.489   6.061  -0.875  1.00  0.00     0.163 HD
BRANCH   3   6
ATOM      6  C   UNL     1      -1.082   3.304  -2.034  1.00  0.00     0.170 C 
BRANCH   6   7
ATOM      7  C   UNL     1      -0.914   3.115  -3.565  1.00  0.00     0.224 C 
BRANCH   7   8
ATOM      8  N   UNL     1       0.496   2.789  -3.809  1.00  0.00    -0.327 N 
ATOM      9  C   UNL     1       1.915   1.611  -4.782  1.00  0.00     0.099 C 
ATOM     10  C   UNL     1       0.935   2.747  -5.198  1.00  0.00     0.272 C 
ATOM     11  C   UNL     1       0.999   1.447  -3.528  1.00  0.00     0.272 C 
ATOM     12  H   UNL     1       0.820   3.536  -3.196  1.00  0.00     0.348 HD
BRANCH   9  13
ATOM     13  C   UNL     1       2.078   0.412  -5.704  1.00  0.00     0.015 C 
BRANCH  13  14
ATOM     14  C   UNL     1       2.415   0.833  -7.136  1.00  0.00    -0.003 C 
ATOM     15  C   UNL     1       3.687   1.658  -7.253  1.00  0.00     0.004 C 
ENDBRANCH  13  14
ENDBRANCH   9  13
ENDBRANCH   7   8
BRANCH   7  16
ATOM     16  C   UNL     1      -2.049   2.287  -4.193  1.00  0.00     0.010 A 
ATOM     17  C   UNL     1      -1.887   1.135  -4.979  1.00  0.00     0.010 A 
ATOM     18  C   UNL     1      -3.371   2.756  -4.036  1.00  0.00     0.010 A 
ATOM     19  C   UNL     1      -2.974   0.466  -5.551  1.00  0.00     0.001 A 
ATOM     20  C   UNL     1      -4.463   2.087  -4.601  1.00  0.00     0.001 A 
ATOM     21  C   UNL     1      -4.264   0.939  -5.357  1.00  0.00     0.000 A 
ENDBRANCH   7  16
ENDBRANCH   6   7
ENDBRANCH   3   6
ENDBRANCH   1   2
BRANCH   1  22
ATOM     22  C   UNL     1       2.407   4.806  -2.689  1.00  0.00     0.023 C 
BRANCH  22  23
ATOM     23  C   UNL     1       3.403   5.956  -2.611  1.00  0.00     0.023 C 
BRANCH  23  24
ATOM     24  C   UNL     1       4.623   5.675  -1.747  1.00  0.00     0.116 C 
BRANCH  24  25
ATOM     25  N   UNL     1       5.408   4.524  -2.172  1.00  0.00    -0.352 N 
ATOM     26  C   UNL     1       6.758   4.311  -2.019  1.00  0.00     0.251 C 
ATOM     27  H   UNL     1       4.908   3.808  -2.627  1.00  0.00     0.163 HD
ATOM     28  O   UNL     1       7.293   3.313  -2.492  1.00  0.00    -0.269 OA
BRANCH  26  29
ATOM     29  C   UNL     1       7.571   5.332  -1.325  1.00  0.00     0.039 A 
ATOM     30  C   UNL     1       8.746   5.781  -1.931  1.00  0.00     0.014 A 
ATOM     31  C   UNL     1       7.137   5.894  -0.122  1.00  0.00     0.014 A 
ATOM     32  C   UNL     1       9.442   6.852  -1.369  1.00  0.00     0.010 A 
ATOM     33  C   UNL     1       7.777   7.020   0.382  1.00  0.00     0.010 A 
ATOM     34  C   UNL     1       8.937   7.509  -0.234  1.00  0.00    -0.014 A 
BRANCH  34  35
ATOM     35  C   UNL     1       9.611   8.711   0.315  1.00  0.00     0.031 A 
ATOM     36  C   UNL     1      10.190   8.687   1.702  1.00  0.00     0.074 A 
ATOM     37  C   UNL     1       9.647   9.843  -0.414  1.00  0.00     0.049 A 
ATOM     38  N   UNL     1      10.807   9.637   2.357  1.00  0.00    -0.248 NA
ATOM     39  C   UNL     1      10.023   7.443   2.470  1.00  0.00     0.031 C 
ATOM     40  C   UNL     1       9.046  10.016  -1.738  1.00  0.00     0.029 A 
ATOM     41  N   UNL     1      10.211  11.064  -0.144  1.00  0.00    -0.354 N 
ATOM     42  C   UNL     1      11.087   9.111   3.611  1.00  0.00     0.074 A 
ATOM     43  C   UNL     1      10.515   7.783   3.651  1.00  0.00     0.031 C 
ATOM     44  C   UNL     1       9.306  11.257  -2.181  1.00  0.00     0.029 A 
ATOM     45  C   UNL     1      10.069  11.974  -1.164  1.00  0.00     0.049 A 
ATOM     46  H   UNL     1      10.673  11.269   0.700  1.00  0.00     0.167 HD
ATOM     47  C   UNL     1      11.785   9.671   4.627  1.00  0.00     0.037 A 
ATOM     48  C   UNL     1      10.517  13.239  -1.270  1.00  0.00     0.037 A 
ATOM     49  C   UNL     1      12.381  10.979   4.569  1.00  0.00     0.049 A 
ATOM     50  C   UNL     1      11.332  13.822  -0.147  1.00  0.00     0.074 A 
ATOM     51  C   UNL     1      13.166  11.614   5.516  1.00  0.00     0.029 A 
ATOM     52  N   UNL     1      12.258  11.853   3.499  1.00  0.00    -0.354 N 
ATOM     53  N   UNL     1      11.669  13.281   0.998  1.00  0.00    -0.248 NA
ATOM     54  C   UNL     1      11.843  15.185  -0.341  1.00  0.00     0.031 C 
ATOM     55  C   UNL     1      13.487  12.887   5.034  1.00  0.00     0.029 A 
ATOM     56  C   UNL     1      12.943  13.027   3.767  1.00  0.00     0.049 A 
ATOM     57  H   UNL     1      11.759  11.667   2.672  1.00  0.00     0.167 HD
ATOM     58  C   UNL     1      12.457  14.221   1.647  1.00  0.00     0.074 A 
ATOM     59  C   UNL     1      12.559  15.362   0.760  1.00  0.00     0.031 C 
ATOM     60  C   UNL     1      13.045  14.146   2.866  1.00  0.00     0.037 A 
BRANCH  47  61
ATOM     61  C   UNL     1      11.954   8.862   5.880  1.00  0.00     0.064 A 
ATOM     62  C   UNL     1      12.760   7.713   5.909  1.00  0.00     0.173 A 
ATOM     63  C   UNL     1      11.325   9.251   7.071  1.00  0.00     0.173 A 
ATOM     64  F   UNL     1      13.373   7.290   4.793  1.00  0.00    -0.203 F 
ATOM     65  C   UNL     1      12.903   6.966   7.075  1.00  0.00     0.198 A 
ATOM     66  C   UNL     1      11.495   8.519   8.244  1.00  0.00     0.198 A 
ATOM     67  F   UNL     1      10.546  10.343   7.100  1.00  0.00    -0.203 F 
ATOM     68  F   UNL     1      13.634   5.843   7.064  1.00  0.00    -0.200 F 
ATOM     69  C   UNL     1      12.277   7.374   8.243  1.00  0.00     0.200 A 
ATOM     70  F   UNL     1      10.899   8.920   9.375  1.00  0.00    -0.200 F 
ATOM     71  F   UNL     1      12.420   6.657   9.366  1.00  0.00    -0.200 F 
ENDBRANCH  47  61
BRANCH  48  72
ATOM     72  C   UNL     1      10.257  14.016  -2.509  1.00  0.00     0.064 A 
ATOM     73  C   UNL     1      11.296  14.307  -3.405  1.00  0.00     0.173 A 
ATOM     74  C   UNL     1       8.973  14.479  -2.827  1.00  0.00     0.173 A 
ATOM     75  F   UNL     1      12.545  13.900  -3.135  1.00  0.00    -0.203 F 
ATOM     76  C   UNL     1      11.064  15.051  -4.560  1.00  0.00     0.198 A 
ATOM     77  C   UNL     1       8.737  15.200  -3.996  1.00  0.00     0.198 A 
ATOM     78  F   UNL     1       7.943  14.219  -2.007  1.00  0.00    -0.203 F 
ATOM     79  F   UNL     1      12.084  15.352  -5.375  1.00  0.00    -0.200 F 
ATOM     80  C   UNL     1       9.784  15.492  -4.857  1.00  0.00     0.200 A 
ATOM     81  F   UNL     1       7.496  15.612  -4.288  1.00  0.00    -0.200 F 
ATOM     82  F   UNL     1       9.560  16.204  -5.970  1.00  0.00    -0.200 F 
ENDBRANCH  48  72
BRANCH  60  83
ATOM     83  C   UNL     1      13.887  15.312   3.294  1.00  0.00     0.064 A 
ATOM     84  C   UNL     1      13.317  16.539   3.659  1.00  0.00     0.173 A 
ATOM     85  C   UNL     1      15.283  15.184   3.372  1.00  0.00     0.173 A 
ATOM     86  F   UNL     1      11.989  16.715   3.588  1.00  0.00    -0.203 F 
ATOM     87  C   UNL     1      14.116  17.607   4.059  1.00  0.00     0.198 A 
ATOM     88  C   UNL     1      16.076  16.244   3.800  1.00  0.00     0.198 A 
ATOM     89  F   UNL     1      15.876  14.027   3.041  1.00  0.00    -0.203 F 
ATOM     90  F   UNL     1      13.554  18.787   4.355  1.00  0.00    -0.200 F 
ATOM     91  C   UNL     1      15.493  17.457   4.135  1.00  0.00     0.200 A 
ATOM     92  F   UNL     1      17.405  16.093   3.886  1.00  0.00    -0.200 F 
ATOM     93  F   UNL     1      16.259  18.485   4.525  1.00  0.00    -0.200 F 
ENDBRANCH  60  83
ENDBRANCH  34  35
ENDBRANCH  26  29
ENDBRANCH  24  25
ENDBRANCH  23  24
ENDBRANCH  22  23
ENDBRANCH   1  22
TORSDOF 16
