REMARK SMILES CC(=O)Nc1ccc2c(C(=O)NCCCCNC(=O)c3ccc(-c4c5nc(c(-c6c(F)c(F)c(F)c(F)c6F)c6ccc([nH]6)c(-c6c(F)c(F)c(F)c(F)c6F)c6nc(c(-c7c(F)c(F)c(F)c(F)c7F)c7ccc4[nH]7)C=C6)C=C5)cc3)c(C)c(O)nc2n1
REMARK SMILES IDX 15 1 14 2 13 3 12 4 10 5 11 6 9 8 5 9 6 10 89 11 7 12 88 13
REMARK SMILES IDX 8 14 87 15 85 16 83 17 84 18 4 19 1 20 2 21 3 22 86 24 16 26
REMARK SMILES IDX 17 27 18 28 19 30 20 31 21 32 82 33 22 34 81 35 23 36 24 37
REMARK SMILES IDX 25 38 75 39 26 40 80 41 74 42 76 43 27 44 79 45 73 46 72 47
REMARK SMILES IDX 28 49 60 50 40 51 59 52 41 53 44 54 58 55 77 56 42 57 43 58
REMARK SMILES IDX 57 60 78 61 45 62 29 63 30 64 38 65 31 66 32 67 36 68 39 69
REMARK SMILES IDX 33 70 34 71 37 72 35 73 61 74 62 75 70 76 63 77 64 78 68 79
REMARK SMILES IDX 71 80 65 81 66 82 69 83 67 84 46 85 47 86 55 87 48 88 49 89
REMARK SMILES IDX 53 90 56 91 50 92 51 93 54 94 52 95
REMARK H PARENT 12 7 4 23 86 25 17 29 76 48 44 59
REMARK Flexibility Score: inf
ROOT
ATOM      1  C   UNL     1       7.337  -0.665  -8.459  1.00  0.00     0.023 C 
ENDROOT
BRANCH   1   2
ATOM      2  C   UNL     1       6.138  -1.341  -7.806  1.00  0.00     0.023 C 
BRANCH   2   3
ATOM      3  C   UNL     1       6.521  -2.211  -6.610  1.00  0.00     0.116 C 
BRANCH   3   4
ATOM      4  N   UNL     1       5.689  -1.887  -5.465  1.00  0.00    -0.352 N 
ATOM      5  C   UNL     1       5.339  -2.861  -4.563  1.00  0.00     0.252 C 
ATOM      6  O   UNL     1       6.124  -3.293  -3.731  1.00  0.00    -0.269 OA
ATOM      7  H   UNL     1       5.375  -0.964  -5.335  1.00  0.00     0.163 HD
BRANCH   5   8
ATOM      8  C   UNL     1       3.897  -3.203  -4.515  1.00  0.00     0.059 A 
ATOM      9  C   UNL     1       1.530  -2.275  -1.208  1.00  0.00     0.135 A 
ATOM     10  C   UNL     1       2.807  -1.751  -1.202  1.00  0.00     0.048 A 
ATOM     11  N   UNL     1       1.070  -3.039  -2.209  1.00  0.00    -0.211 NA
ATOM     12  C   UNL     1       3.638  -2.054  -2.276  1.00  0.00     0.017 A 
ATOM     13  C   UNL     1       1.827  -3.263  -3.279  1.00  0.00     0.166 A 
ATOM     14  C   UNL     1       3.158  -2.832  -3.355  1.00  0.00     0.033 A 
ATOM     15  N   UNL     1       1.233  -3.893  -4.282  1.00  0.00    -0.193 NA
ATOM     16  C   UNL     1       1.947  -4.165  -5.377  1.00  0.00     0.216 A 
ATOM     17  C   UNL     1       3.286  -3.904  -5.560  1.00  0.00     0.025 A 
ATOM     18  C   UNL     1       3.973  -4.342  -6.811  1.00  0.00     0.051 C 
BRANCH   9  19
ATOM     19  N   UNL     1       0.633  -2.128  -0.155  1.00  0.00    -0.311 N 
ATOM     20  C   UNL     1       1.055   0.226   0.479  1.00  0.00     0.114 C 
ATOM     21  C   UNL     1       0.456  -1.128   0.749  1.00  0.00     0.222 C 
ATOM     22  O   UNL     1      -0.257  -1.314   1.736  1.00  0.00    -0.275 OA
ATOM     23  H   UNL     1       0.013  -2.886  -0.045  1.00  0.00     0.171 HD
ENDBRANCH   9  19
BRANCH  16  24
ATOM     24  O   UNL     1       1.198  -4.731  -6.356  1.00  0.00    -0.493 OA
ATOM     25  H   UNL     1       1.593  -4.965  -7.172  1.00  0.00     0.295 HD
ENDBRANCH  16  24
ENDBRANCH   5   8
ENDBRANCH   3   4
ENDBRANCH   2   3
ENDBRANCH   1   2
BRANCH   1  26
ATOM     26  C   UNL     1       8.404  -1.622  -8.969  1.00  0.00     0.116 C 
BRANCH  26  27
ATOM     27  N   UNL     1       7.942  -2.500 -10.031  1.00  0.00    -0.352 N 
ATOM     28  C   UNL     1       8.672  -2.939 -11.115  1.00  0.00     0.251 C 
ATOM     29  H   UNL     1       7.011  -2.814  -9.971  1.00  0.00     0.163 HD
ATOM     30  O   UNL     1       8.188  -3.648 -11.979  1.00  0.00    -0.269 OA
BRANCH  28  31
ATOM     31  C   UNL     1      10.068  -2.473 -11.214  1.00  0.00     0.039 A 
ATOM     32  C   UNL     1      10.406  -1.588 -12.239  1.00  0.00     0.014 A 
ATOM     33  C   UNL     1      10.972  -2.786 -10.195  1.00  0.00     0.014 A 
ATOM     34  C   UNL     1      11.649  -0.959 -12.208  1.00  0.00     0.010 A 
ATOM     35  C   UNL     1      12.187  -2.115 -10.137  1.00  0.00     0.010 A 
ATOM     36  C   UNL     1      12.532  -1.195 -11.141  1.00  0.00    -0.014 A 
BRANCH  36  37
ATOM     37  C   UNL     1      13.843  -0.512 -11.076  1.00  0.00     0.031 A 
ATOM     38  C   UNL     1      15.095  -1.309 -11.288  1.00  0.00     0.074 A 
ATOM     39  C   UNL     1      13.908   0.800 -10.780  1.00  0.00     0.049 A 
ATOM     40  N   UNL     1      16.342  -0.921 -11.232  1.00  0.00    -0.248 NA
ATOM     41  C   UNL     1      14.920  -2.741 -11.578  1.00  0.00     0.031 C 
ATOM     42  C   UNL     1      12.759   1.666 -10.514  1.00  0.00     0.029 A 
ATOM     43  N   UNL     1      14.991   1.632 -10.645  1.00  0.00    -0.354 N 
ATOM     44  C   UNL     1      17.097  -2.059 -11.473  1.00  0.00     0.074 A 
ATOM     45  C   UNL     1      16.175  -3.163 -11.619  1.00  0.00     0.031 C 
ATOM     46  C   UNL     1      13.197   2.912 -10.266  1.00  0.00     0.029 A 
ATOM     47  C   UNL     1      14.656   2.927 -10.335  1.00  0.00     0.049 A 
ATOM     48  H   UNL     1      15.920   1.329 -10.761  1.00  0.00     0.167 HD
ATOM     49  C   UNL     1      18.440  -2.167 -11.594  1.00  0.00     0.037 A 
ATOM     50  C   UNL     1      15.442   4.002 -10.133  1.00  0.00     0.037 A 
ATOM     51  C   UNL     1      19.351  -1.062 -11.476  1.00  0.00     0.049 A 
ATOM     52  C   UNL     1      16.934   3.855 -10.263  1.00  0.00     0.074 A 
ATOM     53  C   UNL     1      20.724  -1.056 -11.640  1.00  0.00     0.029 A 
ATOM     54  N   UNL     1      18.975   0.236 -11.166  1.00  0.00    -0.354 N 
ATOM     55  N   UNL     1      17.636   2.787 -10.556  1.00  0.00    -0.248 NA
ATOM     56  C   UNL     1      17.744   5.061 -10.039  1.00  0.00     0.031 C 
ATOM     57  C   UNL     1      21.184   0.242 -11.396  1.00  0.00     0.029 A 
ATOM     58  C   UNL     1      20.093   1.050 -11.115  1.00  0.00     0.049 A 
ATOM     59  H   UNL     1      18.051   0.535 -11.005  1.00  0.00     0.167 HD
ATOM     60  C   UNL     1      18.963   3.194 -10.573  1.00  0.00     0.074 A 
ATOM     61  C   UNL     1      18.970   4.610 -10.271  1.00  0.00     0.031 C 
ATOM     62  C   UNL     1      20.075   2.460 -10.817  1.00  0.00     0.037 A 
BRANCH  49  63
ATOM     63  C   UNL     1      18.997  -3.526 -11.884  1.00  0.00     0.064 A 
ATOM     64  C   UNL     1      18.837  -4.125 -13.143  1.00  0.00     0.173 A 
ATOM     65  C   UNL     1      19.716  -4.228 -10.906  1.00  0.00     0.173 A 
ATOM     66  F   UNL     1      18.142  -3.500 -14.105  1.00  0.00    -0.203 F 
ATOM     67  C   UNL     1      19.358  -5.389 -13.405  1.00  0.00     0.198 A 
ATOM     68  C   UNL     1      20.257  -5.481 -11.180  1.00  0.00     0.198 A 
ATOM     69  F   UNL     1      19.895  -3.697  -9.687  1.00  0.00    -0.203 F 
ATOM     70  F   UNL     1      19.154  -5.961 -14.599  1.00  0.00    -0.200 F 
ATOM     71  C   UNL     1      20.072  -6.063 -12.426  1.00  0.00     0.200 A 
ATOM     72  F   UNL     1      20.954  -6.129 -10.236  1.00  0.00    -0.200 F 
ATOM     73  F   UNL     1      20.577  -7.278 -12.680  1.00  0.00    -0.200 F 
ENDBRANCH  49  63
BRANCH  50  74
ATOM     74  C   UNL     1      14.829   5.319  -9.827  1.00  0.00     0.064 A 
ATOM     75  C   UNL     1      14.812   6.341 -10.787  1.00  0.00     0.173 A 
ATOM     76  C   UNL     1      14.238   5.581  -8.583  1.00  0.00     0.173 A 
ATOM     77  F   UNL     1      15.382   6.143 -11.984  1.00  0.00    -0.203 F 
ATOM     78  C   UNL     1      14.234   7.578 -10.510  1.00  0.00     0.198 A 
ATOM     79  C   UNL     1      13.643   6.812  -8.315  1.00  0.00     0.198 A 
ATOM     80  F   UNL     1      14.226   4.635  -7.633  1.00  0.00    -0.203 F 
ATOM     81  F   UNL     1      14.257   8.547 -11.436  1.00  0.00    -0.200 F 
ATOM     82  C   UNL     1      13.645   7.811  -9.277  1.00  0.00     0.200 A 
ATOM     83  F   UNL     1      13.064   7.030  -7.126  1.00  0.00    -0.200 F 
ATOM     84  F   UNL     1      13.083   8.999  -9.014  1.00  0.00    -0.200 F 
ENDBRANCH  50  74
BRANCH  62  85
ATOM     85  C   UNL     1      21.395   3.168 -10.782  1.00  0.00     0.064 A 
ATOM     86  C   UNL     1      21.994   3.532  -9.568  1.00  0.00     0.173 A 
ATOM     87  C   UNL     1      22.106   3.405 -11.968  1.00  0.00     0.173 A 
ATOM     88  F   UNL     1      21.346   3.336  -8.410  1.00  0.00    -0.203 F 
ATOM     89  C   UNL     1      23.259   4.114  -9.543  1.00  0.00     0.198 A 
ATOM     90  C   UNL     1      23.380   3.966 -11.937  1.00  0.00     0.198 A 
ATOM     91  F   UNL     1      21.576   3.067 -13.153  1.00  0.00    -0.203 F 
ATOM     92  F   UNL     1      23.804   4.475  -8.374  1.00  0.00    -0.200 F 
ATOM     93  C   UNL     1      23.954   4.320 -10.726  1.00  0.00     0.200 A 
ATOM     94  F   UNL     1      24.056   4.152 -13.079  1.00  0.00    -0.200 F 
ATOM     95  F   UNL     1      25.179   4.864 -10.698  1.00  0.00    -0.200 F 
ENDBRANCH  62  85
ENDBRANCH  36  37
ENDBRANCH  28  31
ENDBRANCH  26  27
ENDBRANCH   1  26
TORSDOF 13
