REMARK SMILES Cc1cc(N2CC[C@H](CC(=O)NCCCCNC(=O)c3ccc(-c4c5nc(c(-c6c(F)c(F)c(F)c(F)c6F)c6ccc([nH]6)c(-c6c(F)c(F)c(F)c(F)c6F)c6nc(c(-c7c(F)c(F)c(F)c(F)c7F)c7ccc4[nH]7)C=C6)C=C5)cc3)C2)ncc1[N+](=O)[O-]
REMARK SMILES IDX 14 1 13 2 12 3 10 4 11 5 9 7 8 8 5 9 6 10 83 11 7 12 4 13
REMARK SMILES IDX 1 14 2 15 3 16 86 17 85 18 84 19 87 20 88 21 89 22 15 23
REMARK SMILES IDX 16 24 17 25 18 26 19 28 20 29 21 30 82 31 22 32 81 33 23 34
REMARK SMILES IDX 24 35 25 36 75 37 26 38 80 39 74 40 76 41 27 42 79 43 73 44
REMARK SMILES IDX 72 45 28 47 60 48 40 49 59 50 41 51 44 52 58 53 77 54 42 55
REMARK SMILES IDX 43 56 57 58 78 59 45 60 29 61 30 62 38 63 31 64 32 65 36 66
REMARK SMILES IDX 39 67 33 68 34 69 37 70 35 71 61 72 62 73 70 74 63 75 64 76
REMARK SMILES IDX 68 77 71 78 65 79 66 80 69 81 67 82 46 83 47 84 55 85 48 86
REMARK SMILES IDX 49 87 53 88 56 89 50 90 51 91 54 92 52 93
REMARK H PARENT 12 6 17 27 76 46 44 57
REMARK Flexibility Score: inf
ROOT
ATOM      1  C   UNL     1       6.117   3.899  -1.176  1.00  0.00     0.023 C 
ENDROOT
BRANCH   1   2
ATOM      2  C   UNL     1       6.249   4.066   0.338  1.00  0.00     0.116 C 
BRANCH   2   3
ATOM      3  N   UNL     1       5.724   5.351   0.764  1.00  0.00    -0.356 N 
ATOM      4  C   UNL     1       4.524   5.660   1.331  1.00  0.00     0.220 C 
ATOM      5  O   UNL     1       4.242   6.848   1.495  1.00  0.00    -0.275 OA
ATOM      6  H   UNL     1       6.328   6.115   0.623  1.00  0.00     0.163 HD
BRANCH   4   7
ATOM      7  C   UNL     1       3.563   4.566   1.756  1.00  0.00     0.105 C 
BRANCH   7   8
ATOM      8  C   UNL     1       2.450   4.308   0.741  1.00  0.00     0.019 C 
ATOM      9  N   UNL     1       0.881   2.691   0.026  1.00  0.00    -0.356 N 
ATOM     10  C   UNL     1       1.703   2.986  -1.137  1.00  0.00     0.118 C 
ATOM     11  C   UNL     1       1.442   3.268   1.245  1.00  0.00     0.122 C 
ATOM     12  C   UNL     1       2.925   3.679  -0.563  1.00  0.00     0.027 C 
BRANCH   9  13
ATOM     13  C   UNL     1       0.420   1.390   0.114  1.00  0.00     0.129 A 
ATOM     14  C   UNL     1      -2.978  -0.250   0.069  1.00  0.00     0.052 C 
ATOM     15  C   UNL     1      -1.485  -0.119   0.114  1.00  0.00     0.032 A 
ATOM     16  C   UNL     1      -0.956   1.180   0.123  1.00  0.00     0.057 A 
ATOM     17  C   UNL     1      -0.568  -1.174   0.150  1.00  0.00     0.290 A 
ATOM     18  C   UNL     1       0.793  -0.891   0.150  1.00  0.00     0.199 A 
ATOM     19  N   UNL     1       1.299   0.367   0.129  1.00  0.00    -0.232 NA
BRANCH  17  20
ATOM     20  N   UNL     1      -0.956  -2.573   0.192  1.00  0.00     0.064 N 
ATOM     21  O   UNL     1      -0.255  -3.375  -0.441  1.00  0.00    -0.258 OA
ATOM     22  O   UNL     1      -1.937  -2.882   0.881  1.00  0.00    -0.258 OA
ENDBRANCH  17  20
ENDBRANCH   9  13
ENDBRANCH   7   8
ENDBRANCH   4   7
ENDBRANCH   2   3
ENDBRANCH   1   2
BRANCH   1  23
ATOM     23  C   UNL     1       7.295   4.405  -1.990  1.00  0.00     0.023 C 
BRANCH  23  24
ATOM     24  C   UNL     1       8.572   3.611  -1.800  1.00  0.00     0.116 C 
BRANCH  24  25
ATOM     25  N   UNL     1       8.456   2.207  -2.174  1.00  0.00    -0.352 N 
ATOM     26  C   UNL     1       9.359   1.431  -2.863  1.00  0.00     0.251 C 
ATOM     27  H   UNL     1       7.625   1.756  -1.897  1.00  0.00     0.163 HD
ATOM     28  O   UNL     1       9.095   0.278  -3.176  1.00  0.00    -0.269 OA
BRANCH  26  29
ATOM     29  C   UNL     1      10.642   2.041  -3.267  1.00  0.00     0.039 A 
ATOM     30  C   UNL     1      11.039   1.964  -4.603  1.00  0.00     0.014 A 
ATOM     31  C   UNL     1      11.383   2.780  -2.343  1.00  0.00     0.014 A 
ATOM     32  C   UNL     1      12.138   2.709  -5.032  1.00  0.00     0.010 A 
ATOM     33  C   UNL     1      12.405   3.601  -2.793  1.00  0.00     0.010 A 
ATOM     34  C   UNL     1      12.797   3.570  -4.141  1.00  0.00    -0.014 A 
BRANCH  34  35
ATOM     35  C   UNL     1      13.923   4.433  -4.573  1.00  0.00     0.031 A 
ATOM     36  C   UNL     1      15.274   4.251  -3.941  1.00  0.00     0.074 A 
ATOM     37  C   UNL     1      13.712   5.429  -5.455  1.00  0.00     0.049 A 
ATOM     38  N   UNL     1      16.356   4.974  -4.071  1.00  0.00    -0.248 NA
ATOM     39  C   UNL     1      15.411   3.130  -2.998  1.00  0.00     0.031 C 
ATOM     40  C   UNL     1      12.433   5.743  -6.094  1.00  0.00     0.029 A 
ATOM     41  N   UNL     1      14.574   6.371  -5.957  1.00  0.00    -0.354 N 
ATOM     42  C   UNL     1      17.283   4.417  -3.202  1.00  0.00     0.074 A 
ATOM     43  C   UNL     1      16.621   3.338  -2.505  1.00  0.00     0.031 C 
ATOM     44  C   UNL     1      12.603   6.779  -6.931  1.00  0.00     0.029 A 
ATOM     45  C   UNL     1      13.991   7.226  -6.859  1.00  0.00     0.049 A 
ATOM     46  H   UNL     1      15.521   6.428  -5.696  1.00  0.00     0.167 HD
ATOM     47  C   UNL     1      18.582   4.754  -3.023  1.00  0.00     0.037 A 
ATOM     48  C   UNL     1      14.522   8.253  -7.550  1.00  0.00     0.037 A 
ATOM     49  C   UNL     1      19.251   5.791  -3.759  1.00  0.00     0.049 A 
ATOM     50  C   UNL     1      15.976   8.588  -7.359  1.00  0.00     0.074 A 
ATOM     51  C   UNL     1      20.581   6.169  -3.707  1.00  0.00     0.029 A 
ATOM     52  N   UNL     1      18.636   6.610  -4.695  1.00  0.00    -0.354 N 
ATOM     53  N   UNL     1      16.860   8.022  -6.575  1.00  0.00    -0.248 NA
ATOM     54  C   UNL     1      16.506   9.705  -8.154  1.00  0.00     0.031 C 
ATOM     55  C   UNL     1      20.765   7.235  -4.594  1.00  0.00     0.029 A 
ATOM     56  C   UNL     1      19.558   7.498  -5.223  1.00  0.00     0.049 A 
ATOM     57  H   UNL     1      17.685   6.567  -4.946  1.00  0.00     0.167 HD
ATOM     58  C   UNL     1      18.055   8.690  -6.801  1.00  0.00     0.074 A 
ATOM     59  C   UNL     1      17.784   9.701  -7.803  1.00  0.00     0.031 C 
ATOM     60  C   UNL     1      19.267   8.485  -6.231  1.00  0.00     0.037 A 
BRANCH  47  61
ATOM     61  C   UNL     1      19.355   3.977  -1.999  1.00  0.00     0.064 A 
ATOM     62  C   UNL     1      19.686   2.627  -2.196  1.00  0.00     0.173 A 
ATOM     63  C   UNL     1      19.759   4.583  -0.800  1.00  0.00     0.173 A 
ATOM     64  F   UNL     1      19.306   1.996  -3.318  1.00  0.00    -0.203 F 
ATOM     65  C   UNL     1      20.353   1.901  -1.214  1.00  0.00     0.198 A 
ATOM     66  C   UNL     1      20.456   3.862   0.167  1.00  0.00     0.198 A 
ATOM     67  F   UNL     1      19.471   5.871  -0.562  1.00  0.00    -0.203 F 
ATOM     68  F   UNL     1      20.597   0.596  -1.397  1.00  0.00    -0.200 F 
ATOM     69  C   UNL     1      20.741   2.520  -0.035  1.00  0.00     0.200 A 
ATOM     70  F   UNL     1      20.838   4.463   1.302  1.00  0.00    -0.200 F 
ATOM     71  F   UNL     1      21.380   1.819   0.912  1.00  0.00    -0.200 F 
ENDBRANCH  47  61
BRANCH  48  72
ATOM     72  C   UNL     1      13.688   8.999  -8.525  1.00  0.00     0.064 A 
ATOM     73  C   UNL     1      13.884   8.829  -9.903  1.00  0.00     0.173 A 
ATOM     74  C   UNL     1      12.678   9.879  -8.112  1.00  0.00     0.173 A 
ATOM     75  F   UNL     1      14.851   8.012 -10.345  1.00  0.00    -0.203 F 
ATOM     76  C   UNL     1      13.110   9.523 -10.831  1.00  0.00     0.198 A 
ATOM     77  C   UNL     1      11.890  10.555  -9.041  1.00  0.00     0.198 A 
ATOM     78  F   UNL     1      12.448  10.070  -6.805  1.00  0.00    -0.203 F 
ATOM     79  F   UNL     1      13.341   9.367 -12.142  1.00  0.00    -0.200 F 
ATOM     80  C   UNL     1      12.110  10.381 -10.400  1.00  0.00     0.200 A 
ATOM     81  F   UNL     1      10.917  11.376  -8.621  1.00  0.00    -0.200 F 
ATOM     82  F   UNL     1      11.363  11.043 -11.293  1.00  0.00    -0.200 F 
ENDBRANCH  48  72
BRANCH  60  83
ATOM     83  C   UNL     1      20.401   9.342  -6.706  1.00  0.00     0.064 A 
ATOM     84  C   UNL     1      20.515  10.686  -6.322  1.00  0.00     0.173 A 
ATOM     85  C   UNL     1      21.411   8.797  -7.513  1.00  0.00     0.173 A 
ATOM     86  F   UNL     1      19.566  11.254  -5.564  1.00  0.00    -0.203 F 
ATOM     87  C   UNL     1      21.593  11.458  -6.745  1.00  0.00     0.198 A 
ATOM     88  C   UNL     1      22.499   9.565  -7.913  1.00  0.00     0.198 A 
ATOM     89  F   UNL     1      21.347   7.514  -7.901  1.00  0.00    -0.203 F 
ATOM     90  F   UNL     1      21.666  12.751  -6.397  1.00  0.00    -0.200 F 
ATOM     91  C   UNL     1      22.587  10.896  -7.532  1.00  0.00     0.200 A 
ATOM     92  F   UNL     1      23.464   9.018  -8.665  1.00  0.00    -0.200 F 
ATOM     93  F   UNL     1      23.629  11.640  -7.931  1.00  0.00    -0.200 F 
ENDBRANCH  60  83
ENDBRANCH  34  35
ENDBRANCH  26  29
ENDBRANCH  24  25
ENDBRANCH  23  24
ENDBRANCH   1  23
TORSDOF 14
