REMARK SMILES CC[C@@H]1CCC[C@@](CC[NH+]2CCOCC2)(C(=O)NCCCCNC(=O)c2ccc(-c3c4nc(c(-c5c(F)c(F)c(F)c(F)c5F)c5ccc([nH]5)c(-c5c(F)c(F)c(F)c(F)c5F)c5nc(c(-c6c(F)c(F)c(F)c(F)c6F)c6ccc3[nH]6)C=C5)C=C4)cc2)C1
REMARK SMILES IDX 20 1 19 2 18 3 16 4 17 5 7 7 3 8 4 9 89 10 5 11 6 12 2 13
REMARK SMILES IDX 1 14 8 15 9 16 10 17 11 18 15 19 12 21 14 22 13 23 21 24
REMARK SMILES IDX 22 25 23 26 24 27 25 29 26 30 27 31 88 32 28 33 87 34 29 35
REMARK SMILES IDX 30 36 31 37 81 38 32 39 86 40 80 41 82 42 33 43 85 44 79 45
REMARK SMILES IDX 78 46 34 48 66 49 46 50 65 51 47 52 50 53 64 54 83 55 48 56
REMARK SMILES IDX 49 57 63 59 84 60 51 61 35 62 36 63 44 64 37 65 38 66 42 67
REMARK SMILES IDX 45 68 39 69 40 70 43 71 41 72 67 73 68 74 76 75 69 76 70 77
REMARK SMILES IDX 74 78 77 79 71 80 72 81 75 82 73 83 52 84 53 85 61 86 54 87
REMARK SMILES IDX 55 88 59 89 62 90 56 91 57 92 60 93 58 94
REMARK H PARENT 18 6 10 20 23 28 82 47 50 58
REMARK Flexibility Score: inf
ROOT
ATOM      1  C   UNL     1       1.560  -6.786   5.743  1.00  0.00     0.023 C 
ENDROOT
BRANCH   1   2
ATOM      2  C   UNL     1       0.795  -5.520   5.323  1.00  0.00     0.116 C 
BRANCH   2   3
ATOM      3  N   UNL     1       1.578  -4.692   4.419  1.00  0.00    -0.356 N 
ATOM      4  C   UNL     1       1.352  -3.663   3.565  1.00  0.00     0.226 C 
ATOM      5  O   UNL     1       2.369  -3.286   2.966  1.00  0.00    -0.274 OA
ATOM      6  H   UNL     1       2.528  -4.948   4.430  1.00  0.00     0.163 HD
BRANCH   4   7
ATOM      7  C   UNL     1      -0.023  -3.024   3.270  1.00  0.00     0.055 C 
ATOM      8  C   UNL     1       0.581  -2.398   0.748  1.00  0.00    -0.010 C 
ATOM      9  C   UNL     1      -0.071  -3.717   0.297  1.00  0.00     0.003 C 
ATOM     10  C   UNL     1       0.109  -1.925   2.143  1.00  0.00     0.020 C 
ATOM     11  C   UNL     1      -0.318  -4.733   1.405  1.00  0.00     0.001 C 
ATOM     12  C   UNL     1      -0.950  -4.096   2.649  1.00  0.00     0.017 C 
BRANCH   8  13
ATOM     13  C   UNL     1       0.322  -1.337  -0.354  1.00  0.00     0.000 C 
ATOM     14  C   UNL     1       0.926   0.035  -0.092  1.00  0.00     0.004 C 
ENDBRANCH   8  13
BRANCH   7  15
ATOM     15  C   UNL     1      -0.681  -2.296   4.512  1.00  0.00     0.078 C 
BRANCH  15  16
ATOM     16  C   UNL     1       0.093  -2.117   5.845  1.00  0.00     0.263 C 
BRANCH  16  17
ATOM     17  N   UNL     1       1.488  -1.809   5.642  1.00  0.00    -0.331 N 
ATOM     18  C   UNL     1       1.858  -0.420   5.388  1.00  0.00     0.291 C 
ATOM     19  C   UNL     1       2.455  -2.399   6.565  1.00  0.00     0.291 C 
ATOM     20  H   UNL     1       1.563  -2.305   4.754  1.00  0.00     0.348 HD
ATOM     21  C   UNL     1       3.227  -0.447   4.685  1.00  0.00     0.221 C 
ATOM     22  C   UNL     1       3.845  -2.383   5.895  1.00  0.00     0.221 C 
ATOM     23  O   UNL     1       4.230  -1.051   5.526  1.00  0.00    -0.370 OA
ENDBRANCH  16  17
ENDBRANCH  15  16
ENDBRANCH   7  15
ENDBRANCH   4   7
ENDBRANCH   2   3
ENDBRANCH   1   2
BRANCH   1  24
ATOM     24  C   UNL     1       2.988  -6.630   6.297  1.00  0.00     0.023 C 
BRANCH  24  25
ATOM     25  C   UNL     1       3.204  -6.027   7.684  1.00  0.00     0.116 C 
BRANCH  25  26
ATOM     26  N   UNL     1       2.403  -6.604   8.741  1.00  0.00    -0.352 N 
ATOM     27  C   UNL     1       2.772  -6.891  10.038  1.00  0.00     0.251 C 
ATOM     28  H   UNL     1       1.473  -6.820   8.504  1.00  0.00     0.163 HD
ATOM     29  O   UNL     1       1.971  -7.388  10.812  1.00  0.00    -0.269 OA
BRANCH  27  30
ATOM     30  C   UNL     1       4.163  -6.636  10.485  1.00  0.00     0.039 A 
ATOM     31  C   UNL     1       4.885  -7.700  11.030  1.00  0.00     0.014 A 
ATOM     32  C   UNL     1       4.748  -5.370  10.383  1.00  0.00     0.014 A 
ATOM     33  C   UNL     1       6.212  -7.511  11.426  1.00  0.00     0.010 A 
ATOM     34  C   UNL     1       6.091  -5.195  10.737  1.00  0.00     0.010 A 
ATOM     35  C   UNL     1       6.838  -6.264  11.260  1.00  0.00    -0.014 A 
BRANCH  35  36
ATOM     36  C   UNL     1       8.273  -6.089  11.619  1.00  0.00     0.031 A 
ATOM     37  C   UNL     1       8.679  -5.207  12.767  1.00  0.00     0.074 A 
ATOM     38  C   UNL     1       9.222  -6.713  10.895  1.00  0.00     0.049 A 
ATOM     39  N   UNL     1       9.876  -4.961  13.242  1.00  0.00    -0.248 NA
ATOM     40  C   UNL     1       7.599  -4.494  13.462  1.00  0.00     0.031 C 
ATOM     41  C   UNL     1       8.970  -7.571   9.738  1.00  0.00     0.029 A 
ATOM     42  N   UNL     1      10.590  -6.727  11.028  1.00  0.00    -0.354 N 
ATOM     43  C   UNL     1       9.694  -4.063  14.286  1.00  0.00     0.074 A 
ATOM     44  C   UNL     1       8.277  -3.765  14.336  1.00  0.00     0.031 C 
ATOM     45  C   UNL     1      10.137  -8.059   9.291  1.00  0.00     0.029 A 
ATOM     46  C   UNL     1      11.225  -7.521  10.104  1.00  0.00     0.049 A 
ATOM     47  H   UNL     1      11.069  -6.216  11.720  1.00  0.00     0.167 HD
ATOM     48  C   UNL     1      10.616  -3.550  15.138  1.00  0.00     0.037 A 
ATOM     49  C   UNL     1      12.534  -7.790   9.932  1.00  0.00     0.037 A 
ATOM     50  C   UNL     1      12.026  -3.846  15.085  1.00  0.00     0.049 A 
ATOM     51  C   UNL     1      13.545  -7.174  10.861  1.00  0.00     0.074 A 
ATOM     52  C   UNL     1      13.031  -3.421  15.937  1.00  0.00     0.029 A 
ATOM     53  N   UNL     1      12.635  -4.628  14.113  1.00  0.00    -0.354 N 
ATOM     54  N   UNL     1      13.353  -6.393  11.896  1.00  0.00    -0.248 NA
ATOM     55  C   UNL     1      14.957  -7.483  10.598  1.00  0.00     0.031 C 
ATOM     56  C   UNL     1      14.254  -3.889  15.443  1.00  0.00     0.029 A 
ATOM     57  C   UNL     1      14.007  -4.665  14.322  1.00  0.00     0.049 A 
ATOM     58  H   UNL     1      12.163  -5.088  13.382  1.00  0.00     0.167 HD
ATOM     59  C   UNL     1      14.612  -6.143  12.426  1.00  0.00     0.074 A 
ATOM     60  C   UNL     1      15.560  -6.866  11.604  1.00  0.00     0.031 C 
ATOM     61  C   UNL     1      14.948  -5.385  13.500  1.00  0.00     0.037 A 
BRANCH  48  62
ATOM     62  C   UNL     1      10.123  -2.593  16.189  1.00  0.00     0.064 A 
ATOM     63  C   UNL     1       9.277  -3.008  17.230  1.00  0.00     0.173 A 
ATOM     64  C   UNL     1      10.500  -1.242  16.157  1.00  0.00     0.173 A 
ATOM     65  F   UNL     1       8.881  -4.288  17.310  1.00  0.00    -0.203 F 
ATOM     66  C   UNL     1       8.783  -2.098  18.162  1.00  0.00     0.198 A 
ATOM     67  C   UNL     1      10.035  -0.342  17.113  1.00  0.00     0.198 A 
ATOM     68  F   UNL     1      11.319  -0.790  15.195  1.00  0.00    -0.203 F 
ATOM     69  F   UNL     1       7.916  -2.505  19.099  1.00  0.00    -0.200 F 
ATOM     70  C   UNL     1       9.165  -0.766  18.104  1.00  0.00     0.200 A 
ATOM     71  F   UNL     1      10.421   0.941  17.066  1.00  0.00    -0.200 F 
ATOM     72  F   UNL     1       8.684   0.110  18.997  1.00  0.00    -0.200 F 
ENDBRANCH  48  62
BRANCH  49  73
ATOM     73  C   UNL     1      12.958  -8.728   8.860  1.00  0.00     0.064 A 
ATOM     74  C   UNL     1      13.468  -9.995   9.178  1.00  0.00     0.173 A 
ATOM     75  C   UNL     1      12.850  -8.390   7.503  1.00  0.00     0.173 A 
ATOM     76  F   UNL     1      13.612 -10.355  10.462  1.00  0.00    -0.203 F 
ATOM     77  C   UNL     1      13.860 -10.884   8.180  1.00  0.00     0.198 A 
ATOM     78  C   UNL     1      13.216  -9.291   6.506  1.00  0.00     0.198 A 
ATOM     79  F   UNL     1      12.367  -7.191   7.146  1.00  0.00    -0.203 F 
ATOM     80  F   UNL     1      14.376 -12.075   8.513  1.00  0.00    -0.200 F 
ATOM     81  C   UNL     1      13.726 -10.535   6.845  1.00  0.00     0.200 A 
ATOM     82  F   UNL     1      13.071  -8.956   5.216  1.00  0.00    -0.200 F 
ATOM     83  F   UNL     1      14.091 -11.396   5.886  1.00  0.00    -0.200 F 
ENDBRANCH  49  73
BRANCH  61  84
ATOM     84  C   UNL     1      16.403  -5.324  13.876  1.00  0.00     0.064 A 
ATOM     85  C   UNL     1      17.346  -4.651  13.085  1.00  0.00     0.173 A 
ATOM     86  C   UNL     1      16.854  -5.920  15.065  1.00  0.00     0.173 A 
ATOM     87  F   UNL     1      16.973  -4.078  11.930  1.00  0.00    -0.203 F 
ATOM     88  C   UNL     1      18.688  -4.600  13.455  1.00  0.00     0.198 A 
ATOM     89  C   UNL     1      18.190  -5.838  15.449  1.00  0.00     0.198 A 
ATOM     90  F   UNL     1      15.995  -6.572  15.862  1.00  0.00    -0.203 F 
ATOM     91  F   UNL     1      19.579  -3.997  12.656  1.00  0.00    -0.200 F 
ATOM     92  C   UNL     1      19.107  -5.186  14.640  1.00  0.00     0.200 A 
ATOM     93  F   UNL     1      18.589  -6.391  16.603  1.00  0.00    -0.200 F 
ATOM     94  F   UNL     1      20.397  -5.129  14.999  1.00  0.00    -0.200 F 
ENDBRANCH  61  84
ENDBRANCH  35  36
ENDBRANCH  27  30
ENDBRANCH  25  26
ENDBRANCH  24  25
ENDBRANCH   1  24
TORSDOF 15
