REMARK SMILES CC[C@](C)(NC(=O)N[C@@H]1C=CS(=O)(=O)C1)C(=O)NCCCCNC(=O)c1ccc(-c2c3nc(c(-c4c(F)c(F)c(F)c(F)c4F)c4ccc([nH]4)c(-c4c(F)c(F)c(F)c(F)c4F)c4nc(c(-c5c(F)c(F)c(F)c(F)c5F)c5ccc2[nH]5)C=C4)C=C3)cc1
REMARK SMILES IDX 20 1 19 2 18 3 16 4 17 5 3 7 4 8 2 9 1 10 5 11 6 12 7 14
REMARK SMILES IDX 8 15 9 17 10 18 15 19 11 20 12 21 13 22 14 23 21 24 22 25
REMARK SMILES IDX 23 26 24 27 25 29 26 30 27 31 88 32 28 33 87 34 29 35 30 36
REMARK SMILES IDX 31 37 81 38 32 39 86 40 80 41 82 42 33 43 85 44 79 45 78 46
REMARK SMILES IDX 34 48 66 49 46 50 65 51 47 52 50 53 64 54 83 55 48 56 49 57
REMARK SMILES IDX 63 59 84 60 51 61 35 62 36 63 44 64 37 65 38 66 42 67 45 68
REMARK SMILES IDX 39 69 40 70 43 71 41 72 67 73 68 74 76 75 69 76 70 77 74 78
REMARK SMILES IDX 77 79 71 80 72 81 75 82 73 83 52 84 53 85 61 86 54 87 55 88
REMARK SMILES IDX 59 89 62 90 56 91 57 92 60 93 58 94
REMARK H PARENT 18 6 5 13 8 16 23 28 82 47 50 58
REMARK Flexibility Score: inf
ROOT
ATOM      1  C   UNL     1       5.644   4.484  -3.667  1.00  0.00     0.023 C 
ENDROOT
BRANCH   1   2
ATOM      2  C   UNL     1       4.146   4.820  -3.793  1.00  0.00     0.116 C 
BRANCH   2   3
ATOM      3  N   UNL     1       3.371   4.094  -2.799  1.00  0.00    -0.354 N 
ATOM      4  C   UNL     1       2.211   4.491  -2.159  1.00  0.00     0.245 C 
ATOM      5  O   UNL     1       1.135   3.955  -2.404  1.00  0.00    -0.272 OA
ATOM      6  H   UNL     1       3.717   3.206  -2.550  1.00  0.00     0.163 HD
BRANCH   4   7
ATOM      7  C   UNL     1       2.393   5.612  -1.094  1.00  0.00     0.117 C 
ATOM      8  C   UNL     1       1.546   5.581   0.182  1.00  0.00     0.045 C 
BRANCH   7   9
ATOM      9  C   UNL     1       2.020   6.920  -1.875  1.00  0.00     0.035 C 
ATOM     10  C   UNL     1       0.520   7.066  -2.181  1.00  0.00     0.007 C 
ENDBRANCH   7   9
BRANCH   7  11
ATOM     11  N   UNL     1       3.820   5.596  -0.683  1.00  0.00    -0.324 N 
ATOM     12  C   UNL     1       4.646   4.674  -0.158  1.00  0.00     0.316 C 
ATOM     13  H   UNL     1       4.265   6.462  -0.828  1.00  0.00     0.166 HD
ATOM     14  O   UNL     1       5.783   5.045   0.137  1.00  0.00    -0.249 OA
ATOM     15  N   UNL     1       4.396   3.351  -0.077  1.00  0.00    -0.331 N 
ATOM     16  H   UNL     1       5.238   2.844  -0.020  1.00  0.00     0.166 HD
BRANCH  15  17
ATOM     17  C   UNL     1       3.237   2.436  -0.047  1.00  0.00     0.123 C 
ATOM     18  C   UNL     1       3.467   1.502   1.114  1.00  0.00     0.011 C 
ATOM     19  C   UNL     1       3.015   1.541  -1.279  1.00  0.00     0.170 C 
ATOM     20  C   UNL     1       3.649   0.205   0.831  1.00  0.00     0.104 C 
ATOM     21  S   UNL     1       3.584  -0.086  -0.866  1.00  0.00     0.173 S 
ATOM     22  O   UNL     1       2.544  -1.038  -1.173  1.00  0.00    -0.224 OA
ATOM     23  O   UNL     1       4.934  -0.225  -1.387  1.00  0.00    -0.224 OA
ENDBRANCH  15  17
ENDBRANCH   7  11
ENDBRANCH   4   7
ENDBRANCH   2   3
ENDBRANCH   1   2
BRANCH   1  24
ATOM     24  C   UNL     1       5.995   2.990  -3.599  1.00  0.00     0.023 C 
BRANCH  24  25
ATOM     25  C   UNL     1       5.377   2.143  -4.702  1.00  0.00     0.116 C 
BRANCH  25  26
ATOM     26  N   UNL     1       5.841   2.577  -6.007  1.00  0.00    -0.352 N 
ATOM     27  C   UNL     1       6.488   1.863  -6.979  1.00  0.00     0.251 C 
ATOM     28  H   UNL     1       5.667   3.521  -6.223  1.00  0.00     0.163 HD
ATOM     29  O   UNL     1       7.050   2.457  -7.895  1.00  0.00    -0.269 OA
BRANCH  27  30
ATOM     30  C   UNL     1       6.513   0.386  -6.934  1.00  0.00     0.039 A 
ATOM     31  C   UNL     1       7.685  -0.273  -7.312  1.00  0.00     0.014 A 
ATOM     32  C   UNL     1       5.377  -0.351  -6.584  1.00  0.00     0.014 A 
ATOM     33  C   UNL     1       7.728  -1.668  -7.314  1.00  0.00     0.010 A 
ATOM     34  C   UNL     1       5.441  -1.742  -6.520  1.00  0.00     0.010 A 
ATOM     35  C   UNL     1       6.612  -2.414  -6.899  1.00  0.00    -0.014 A 
BRANCH  35  36
ATOM     36  C   UNL     1       6.660  -3.898  -6.869  1.00  0.00     0.031 A 
ATOM     37  C   UNL     1       5.782  -4.706  -7.783  1.00  0.00     0.074 A 
ATOM     38  C   UNL     1       7.471  -4.516  -5.990  1.00  0.00     0.049 A 
ATOM     39  N   UNL     1       5.658  -6.007  -7.877  1.00  0.00    -0.248 NA
ATOM     40  C   UNL     1       4.914  -3.955  -8.702  1.00  0.00     0.031 C 
ATOM     41  C   UNL     1       8.340  -3.840  -5.026  1.00  0.00     0.029 A 
ATOM     42  N   UNL     1       7.690  -5.851  -5.758  1.00  0.00    -0.354 N 
ATOM     43  C   UNL     1       4.698  -6.227  -8.855  1.00  0.00     0.074 A 
ATOM     44  C   UNL     1       4.231  -4.927  -9.288  1.00  0.00     0.031 C 
ATOM     45  C   UNL     1       9.012  -4.762  -4.319  1.00  0.00     0.029 A 
ATOM     46  C   UNL     1       8.590  -6.092  -4.749  1.00  0.00     0.049 A 
ATOM     47  H   UNL     1       7.245  -6.567  -6.266  1.00  0.00     0.167 HD
ATOM     48  C   UNL     1       4.263  -7.405  -9.363  1.00  0.00     0.037 A 
ATOM     49  C   UNL     1       9.015  -7.255  -4.219  1.00  0.00     0.037 A 
ATOM     50  C   UNL     1       4.734  -8.696  -8.931  1.00  0.00     0.049 A 
ATOM     51  C   UNL     1       8.492  -8.550  -4.780  1.00  0.00     0.074 A 
ATOM     52  C   UNL     1       4.387  -9.947  -9.410  1.00  0.00     0.029 A 
ATOM     53  N   UNL     1       5.649  -8.901  -7.907  1.00  0.00    -0.354 N 
ATOM     54  N   UNL     1       7.636  -8.747  -5.753  1.00  0.00    -0.248 NA
ATOM     55  C   UNL     1       9.003  -9.787  -4.173  1.00  0.00     0.031 C 
ATOM     56  C   UNL     1       5.047 -10.910  -8.640  1.00  0.00     0.029 A 
ATOM     57  C   UNL     1       5.857 -10.259  -7.724  1.00  0.00     0.049 A 
ATOM     58  H   UNL     1       6.085  -8.187  -7.388  1.00  0.00     0.167 HD
ATOM     59  C   UNL     1       7.526 -10.123  -5.894  1.00  0.00     0.074 A 
ATOM     60  C   UNL     1       8.420 -10.714  -4.920  1.00  0.00     0.031 C 
ATOM     61  C   UNL     1       6.755 -10.834  -6.753  1.00  0.00     0.037 A 
BRANCH  48  62
ATOM     62  C   UNL     1       3.219  -7.355 -10.443  1.00  0.00     0.064 A 
ATOM     63  C   UNL     1       3.507  -6.858 -11.724  1.00  0.00     0.173 A 
ATOM     64  C   UNL     1       1.925  -7.847 -10.210  1.00  0.00     0.173 A 
ATOM     65  F   UNL     1       4.726  -6.369 -12.000  1.00  0.00    -0.203 F 
ATOM     66  C   UNL     1       2.533  -6.826 -12.719  1.00  0.00     0.198 A 
ATOM     67  C   UNL     1       0.963  -7.845 -11.217  1.00  0.00     0.198 A 
ATOM     68  F   UNL     1       1.595  -8.342  -9.008  1.00  0.00    -0.203 F 
ATOM     69  F   UNL     1       2.819  -6.300 -13.918  1.00  0.00    -0.200 F 
ATOM     70  C   UNL     1       1.265  -7.327 -12.467  1.00  0.00     0.200 A 
ATOM     71  F   UNL     1      -0.257  -8.345 -10.978  1.00  0.00    -0.200 F 
ATOM     72  F   UNL     1       0.331  -7.305 -13.429  1.00  0.00    -0.200 F 
ENDBRANCH  48  62
BRANCH  49  73
ATOM     73  C   UNL     1       9.995  -7.246  -3.101  1.00  0.00     0.064 A 
ATOM     74  C   UNL     1      11.300  -7.728  -3.279  1.00  0.00     0.173 A 
ATOM     75  C   UNL     1       9.646  -6.764  -1.831  1.00  0.00     0.173 A 
ATOM     76  F   UNL     1      11.676  -8.218  -4.469  1.00  0.00    -0.203 F 
ATOM     77  C   UNL     1      12.209  -7.751  -2.223  1.00  0.00     0.198 A 
ATOM     78  C   UNL     1      10.566  -6.757  -0.785  1.00  0.00     0.198 A 
ATOM     79  F   UNL     1       8.412  -6.289  -1.607  1.00  0.00    -0.203 F 
ATOM     80  F   UNL     1      13.432  -8.267  -2.407  1.00  0.00    -0.200 F 
ATOM     81  C   UNL     1      11.844  -7.260  -0.979  1.00  0.00     0.200 A 
ATOM     82  F   UNL     1      10.214  -6.266   0.411  1.00  0.00    -0.200 F 
ATOM     83  F   UNL     1      12.719  -7.280   0.035  1.00  0.00    -0.200 F 
ENDBRANCH  49  73
BRANCH  61  84
ATOM     84  C   UNL     1       6.872 -12.332  -6.709  1.00  0.00     0.064 A 
ATOM     85  C   UNL     1       6.386 -13.081  -5.627  1.00  0.00     0.173 A 
ATOM     86  C   UNL     1       7.447 -13.029  -7.783  1.00  0.00     0.173 A 
ATOM     87  F   UNL     1       5.842 -12.463  -4.568  1.00  0.00    -0.203 F 
ATOM     88  C   UNL     1       6.499 -14.469  -5.609  1.00  0.00     0.198 A 
ATOM     89  C   UNL     1       7.525 -14.419  -7.777  1.00  0.00     0.198 A 
ATOM     90  F   UNL     1       7.921 -12.363  -8.847  1.00  0.00    -0.203 F 
ATOM     91  F   UNL     1       6.078 -15.159  -4.540  1.00  0.00    -0.200 F 
ATOM     92  C   UNL     1       7.060 -15.137  -6.687  1.00  0.00     0.200 A 
ATOM     93  F   UNL     1       8.052 -15.063  -8.828  1.00  0.00    -0.200 F 
ATOM     94  F   UNL     1       7.159 -16.473  -6.671  1.00  0.00    -0.200 F 
ENDBRANCH  61  84
ENDBRANCH  35  36
ENDBRANCH  27  30
ENDBRANCH  25  26
ENDBRANCH  24  25
ENDBRANCH   1  24
TORSDOF 14
