REMARK SMILES COc1ccccc1[C@@H]1C[N@@H+](Cc2cc3c(cc2C)OCO3)C[C@H]1C(=O)NCCCCNC(=O)c1ccc(-c2c3nc(c(-c4c(F)c(F)c(F)c(F)c4F)c4ccc([nH]4)c(-c4c(F)c(F)c(F)c(F)c4F)c4nc(c(-c5c(F)c(F)c(F)c(F)c5F)c5ccc2[nH]5)C=C4)C=C3)cc1
REMARK SMILES IDX 29 1 28 2 27 3 25 4 26 5 24 7 9 8 10 9 11 10 23 11 8 13 3 14
REMARK SMILES IDX 4 15 5 16 7 17 6 18 2 19 1 20 12 21 13 22 14 23 18 24 15 25
REMARK SMILES IDX 17 26 19 27 16 28 22 29 20 30 21 31 30 32 31 33 32 34 33 35
REMARK SMILES IDX 34 37 35 38 36 39 97 40 37 41 96 42 38 43 39 44 40 45 90 46
REMARK SMILES IDX 41 47 95 48 89 49 91 50 42 51 94 52 88 53 87 54 43 56 75 57
REMARK SMILES IDX 55 58 74 59 56 60 59 61 73 62 92 63 57 64 58 65 72 67 93 68
REMARK SMILES IDX 60 69 44 70 45 71 53 72 46 73 47 74 51 75 54 76 48 77 49 78
REMARK SMILES IDX 52 79 50 80 76 81 77 82 85 83 78 84 79 85 83 86 86 87 80 88
REMARK SMILES IDX 81 89 84 90 82 91 61 92 62 93 70 94 63 95 64 96 68 97 71 98
REMARK SMILES IDX 65 99 66 100 69 101 67 102
REMARK H PARENT 27 6 11 12 32 36 91 55 59 66
REMARK Flexibility Score: inf
ROOT
ATOM      1  C   UNL     1       5.832  -1.232  -4.535  1.00  0.00     0.023 C 
ENDROOT
BRANCH   1   2
ATOM      2  C   UNL     1       4.922   0.013  -4.328  1.00  0.00     0.116 C 
BRANCH   2   3
ATOM      3  N   UNL     1       3.540  -0.208  -3.710  1.00  0.00    -0.356 N 
ATOM      4  C   UNL     1       2.680  -0.286  -2.663  1.00  0.00     0.229 C 
ATOM      5  O   UNL     1       1.520  -0.342  -3.147  1.00  0.00    -0.275 OA
ATOM      6  H   UNL     1       2.968  -0.394  -4.489  1.00  0.00     0.163 HD
BRANCH   4   7
ATOM      7  C   UNL     1       2.674  -0.364  -1.065  1.00  0.00     0.146 C 
ATOM      8  C   UNL     1       2.540  -1.757  -0.379  1.00  0.00     0.096 C 
ATOM      9  C   UNL     1       2.918  -1.530   1.100  1.00  0.00     0.272 C 
ATOM     10  N   UNL     1       3.888  -0.428   1.114  1.00  0.00    -0.330 N 
ATOM     11  C   UNL     1       3.491   0.445  -0.022  1.00  0.00     0.276 C 
ATOM     12  H   UNL     1       3.862   0.164   1.944  1.00  0.00     0.348 HD
BRANCH   8  13
ATOM     13  C   UNL     1       1.327  -2.659  -0.545  1.00  0.00     0.004 A 
ATOM     14  C   UNL     1       0.070  -2.499   0.061  1.00  0.00     0.122 A 
ATOM     15  C   UNL     1      -0.906  -3.505  -0.041  1.00  0.00     0.047 A 
ATOM     16  C   UNL     1      -0.644  -4.696  -0.718  1.00  0.00     0.004 A 
ATOM     17  C   UNL     1       1.558  -3.877  -1.232  1.00  0.00     0.008 A 
ATOM     18  C   UNL     1       0.598  -4.888  -1.302  1.00  0.00     0.001 A 
BRANCH  14  19
ATOM     19  O   UNL     1      -0.222  -1.518   0.972  1.00  0.00    -0.496 OA
ATOM     20  C   UNL     1      -0.466  -0.242   0.398  1.00  0.00     0.278 C 
ENDBRANCH  14  19
ENDBRANCH   8  13
BRANCH  10  21
ATOM     21  C   UNL     1       5.302  -0.860   1.323  1.00  0.00     0.299 C 
BRANCH  21  22
ATOM     22  C   UNL     1       5.879  -1.784   0.265  1.00  0.00     0.013 A 
ATOM     23  C   UNL     1       6.285  -3.124   0.476  1.00  0.00     0.060 A 
ATOM     24  C   UNL     1       5.780  -1.341  -1.039  1.00  0.00    -0.038 A 
ATOM     25  C   UNL     1       6.302  -3.980  -0.617  1.00  0.00     0.166 A 
ATOM     26  C   UNL     1       5.330  -2.294  -1.933  1.00  0.00     0.054 A 
ATOM     27  C   UNL     1       6.123   0.069  -1.408  1.00  0.00     0.045 C 
ATOM     28  C   UNL     1       5.708  -3.585  -1.771  1.00  0.00     0.166 A 
ATOM     29  O   UNL     1       6.732  -5.265  -0.725  1.00  0.00    -0.454 OA
ATOM     30  O   UNL     1       5.589  -4.550  -2.711  1.00  0.00    -0.454 OA
ATOM     31  C   UNL     1       6.493  -5.506  -2.140  1.00  0.00     0.468 C 
ENDBRANCH  21  22
ENDBRANCH  10  21
ENDBRANCH   4   7
ENDBRANCH   2   3
ENDBRANCH   1   2
BRANCH   1  32
ATOM     32  C   UNL     1       7.016  -1.240  -5.490  1.00  0.00     0.023 C 
BRANCH  32  33
ATOM     33  C   UNL     1       8.101  -0.244  -5.090  1.00  0.00     0.116 C 
BRANCH  33  34
ATOM     34  N   UNL     1       9.134  -0.765  -4.175  1.00  0.00    -0.352 N 
ATOM     35  C   UNL     1      10.399  -1.281  -4.402  1.00  0.00     0.251 C 
ATOM     36  H   UNL     1       8.877  -0.742  -3.225  1.00  0.00     0.163 HD
ATOM     37  O   UNL     1      11.098  -1.669  -3.468  1.00  0.00    -0.269 OA
BRANCH  35  38
ATOM     38  C   UNL     1      10.885  -1.433  -5.786  1.00  0.00     0.039 A 
ATOM     39  C   UNL     1      11.458  -2.633  -6.216  1.00  0.00     0.014 A 
ATOM     40  C   UNL     1      10.643  -0.419  -6.695  1.00  0.00     0.014 A 
ATOM     41  C   UNL     1      11.619  -2.860  -7.588  1.00  0.00     0.010 A 
ATOM     42  C   UNL     1      10.583  -0.731  -8.037  1.00  0.00     0.010 A 
ATOM     43  C   UNL     1      11.098  -1.944  -8.515  1.00  0.00    -0.014 A 
BRANCH  43  44
ATOM     44  C   UNL     1      11.111  -2.165  -9.987  1.00  0.00     0.031 A 
ATOM     45  C   UNL     1      11.642  -1.071 -10.886  1.00  0.00     0.074 A 
ATOM     46  C   UNL     1      10.538  -3.260 -10.527  1.00  0.00     0.049 A 
ATOM     47  N   UNL     1      11.532  -0.930 -12.182  1.00  0.00    -0.248 NA
ATOM     48  C   UNL     1      12.301   0.069 -10.223  1.00  0.00     0.031 C 
ATOM     49  C   UNL     1       9.899  -4.350  -9.784  1.00  0.00     0.029 A 
ATOM     50  N   UNL     1      10.391  -3.632 -11.841  1.00  0.00    -0.354 N 
ATOM     51  C   UNL     1      12.033   0.336 -12.460  1.00  0.00     0.074 A 
ATOM     52  C   UNL     1      12.338   0.962 -11.196  1.00  0.00     0.031 C 
ATOM     53  C   UNL     1       9.486  -5.292 -10.648  1.00  0.00     0.029 A 
ATOM     54  C   UNL     1       9.784  -4.855 -12.006  1.00  0.00     0.049 A 
ATOM     55  H   UNL     1      10.693  -3.075 -12.594  1.00  0.00     0.167 HD
ATOM     56  C   UNL     1      12.284   0.906 -13.662  1.00  0.00     0.037 A 
ATOM     57  C   UNL     1       9.511  -5.542 -13.132  1.00  0.00     0.037 A 
ATOM     58  C   UNL     1      12.104   0.222 -14.910  1.00  0.00     0.049 A 
ATOM     59  C   UNL     1       9.890  -4.935 -14.458  1.00  0.00     0.074 A 
ATOM     60  C   UNL     1      12.433   0.644 -16.184  1.00  0.00     0.029 A 
ATOM     61  N   UNL     1      11.573  -1.055 -15.030  1.00  0.00    -0.354 N 
ATOM     62  N   UNL     1      10.430  -3.767 -14.710  1.00  0.00    -0.248 NA
ATOM     63  C   UNL     1       9.629  -5.745 -15.656  1.00  0.00     0.031 C 
ATOM     64  C   UNL     1      12.079  -0.369 -17.080  1.00  0.00     0.029 A 
ATOM     65  C   UNL     1      11.565  -1.437 -16.359  1.00  0.00     0.049 A 
ATOM     66  H   UNL     1      11.250  -1.606 -14.281  1.00  0.00     0.167 HD
ATOM     67  C   UNL     1      10.601  -3.712 -16.086  1.00  0.00     0.074 A 
ATOM     68  C   UNL     1      10.121  -4.973 -16.615  1.00  0.00     0.031 C 
ATOM     69  C   UNL     1      11.103  -2.710 -16.849  1.00  0.00     0.037 A 
BRANCH  56  70
ATOM     70  C   UNL     1      12.829   2.307 -13.669  1.00  0.00     0.064 A 
ATOM     71  C   UNL     1      14.101   2.608 -13.152  1.00  0.00     0.173 A 
ATOM     72  C   UNL     1      12.072   3.365 -14.193  1.00  0.00     0.173 A 
ATOM     73  F   UNL     1      14.864   1.638 -12.626  1.00  0.00    -0.203 F 
ATOM     74  C   UNL     1      14.567   3.919 -13.107  1.00  0.00     0.198 A 
ATOM     75  C   UNL     1      12.560   4.670 -14.185  1.00  0.00     0.198 A 
ATOM     76  F   UNL     1      10.854   3.136 -14.707  1.00  0.00    -0.203 F 
ATOM     77  F   UNL     1      15.748   4.188 -12.532  1.00  0.00    -0.200 F 
ATOM     78  C   UNL     1      13.800   4.948 -13.630  1.00  0.00     0.200 A 
ATOM     79  F   UNL     1      11.823   5.662 -14.703  1.00  0.00    -0.200 F 
ATOM     80  F   UNL     1      14.250   6.209 -13.586  1.00  0.00    -0.200 F 
ENDBRANCH  56  70
BRANCH  57  81
ATOM     81  C   UNL     1       8.912  -6.902 -13.056  1.00  0.00     0.064 A 
ATOM     82  C   UNL     1       9.670  -8.035 -13.387  1.00  0.00     0.173 A 
ATOM     83  C   UNL     1       7.583  -7.104 -12.655  1.00  0.00     0.173 A 
ATOM     84  F   UNL     1      10.941  -7.894 -13.792  1.00  0.00    -0.203 F 
ATOM     85  C   UNL     1       9.117  -9.313 -13.344  1.00  0.00     0.198 A 
ATOM     86  C   UNL     1       7.039  -8.387 -12.586  1.00  0.00     0.198 A 
ATOM     87  F   UNL     1       6.816  -6.058 -12.318  1.00  0.00    -0.203 F 
ATOM     88  F   UNL     1       9.852 -10.372 -13.711  1.00  0.00    -0.200 F 
ATOM     89  C   UNL     1       7.803  -9.489 -12.939  1.00  0.00     0.200 A 
ATOM     90  F   UNL     1       5.773  -8.554 -12.180  1.00  0.00    -0.200 F 
ATOM     91  F   UNL     1       7.272 -10.719 -12.895  1.00  0.00    -0.200 F 
ENDBRANCH  57  81
BRANCH  69  92
ATOM     92  C   UNL     1      11.197  -2.949 -18.325  1.00  0.00     0.064 A 
ATOM     93  C   UNL     1      10.058  -2.947 -19.141  1.00  0.00     0.173 A 
ATOM     94  C   UNL     1      12.450  -3.110 -18.936  1.00  0.00     0.173 A 
ATOM     95  F   UNL     1       8.839  -2.808 -18.599  1.00  0.00    -0.203 F 
ATOM     96  C   UNL     1      10.169  -3.118 -20.518  1.00  0.00     0.198 A 
ATOM     97  C   UNL     1      12.559  -3.250 -20.315  1.00  0.00     0.198 A 
ATOM     98  F   UNL     1      13.569  -3.107 -18.196  1.00  0.00    -0.203 F 
ATOM     99  F   UNL     1       9.065  -3.152 -21.276  1.00  0.00    -0.200 F 
ATOM    100  C   UNL     1      11.418  -3.259 -21.104  1.00  0.00     0.200 A 
ATOM    101  F   UNL     1      13.767  -3.369 -20.882  1.00  0.00    -0.200 F 
ATOM    102  F   UNL     1      11.523  -3.408 -22.432  1.00  0.00    -0.200 F 
ENDBRANCH  69  92
ENDBRANCH  43  44
ENDBRANCH  35  38
ENDBRANCH  33  34
ENDBRANCH  32  33
ENDBRANCH   1  32
TORSDOF 15
