REMARK SMILES C=C1c2ccccc2C(=O)N1[C@](C)(CC)C(=O)NCCCCNC(=O)c1ccc(-c2c3nc(c(-c4c(F)c(F)c(F)c(F)c4F)c4ccc([nH]4)c(-c4c(F)c(F)c(F)c(F)c4F)c4nc(c(-c5c(F)c(F)c(F)c(F)c5F)c5ccc2[nH]5)C=C4)C=C3)cc1
REMARK SMILES IDX 21 1 20 2 19 3 18 4 16 5 17 6 12 8 13 9 11 10 1 11 2 12 3 13
REMARK SMILES IDX 4 14 8 15 9 16 5 17 7 18 10 19 6 20 14 21 15 22 22 23 23 24
REMARK SMILES IDX 24 25 25 27 26 28 27 29 88 30 28 31 87 32 29 33 30 34 31 35
REMARK SMILES IDX 81 36 32 37 86 38 80 39 82 40 33 41 85 42 79 43 78 44 34 46
REMARK SMILES IDX 66 47 46 48 65 49 47 50 50 51 64 52 83 53 48 54 49 55 63 57
REMARK SMILES IDX 84 58 51 59 35 60 36 61 44 62 37 63 38 64 42 65 45 66 39 67
REMARK SMILES IDX 40 68 43 69 41 70 67 71 68 72 76 73 69 74 70 75 74 76 77 77
REMARK SMILES IDX 71 78 72 79 75 80 73 81 52 82 53 83 61 84 54 85 55 86 59 87
REMARK SMILES IDX 62 88 56 89 57 90 60 91 58 92
REMARK H PARENT 18 7 23 26 82 45 50 56
REMARK Flexibility Score: inf
ROOT
ATOM      1  C   UNL     1       7.912   1.308  -2.302  1.00  0.00     0.023 C 
ENDROOT
BRANCH   1   2
ATOM      2  C   UNL     1       7.036   0.082  -2.046  1.00  0.00     0.023 C 
BRANCH   2   3
ATOM      3  C   UNL     1       6.290   0.125  -0.718  1.00  0.00     0.116 C 
BRANCH   3   4
ATOM      4  N   UNL     1       5.278   1.165  -0.725  1.00  0.00    -0.354 N 
ATOM      5  C   UNL     1       3.933   1.087  -0.492  1.00  0.00     0.246 C 
ATOM      6  O   UNL     1       3.307   2.150  -0.561  1.00  0.00    -0.272 OA
ATOM      7  H   UNL     1       5.613   2.068  -0.929  1.00  0.00     0.163 HD
BRANCH   5   8
ATOM      8  C   UNL     1       3.228  -0.281  -0.237  1.00  0.00     0.123 C 
ATOM      9  C   UNL     1       1.734  -0.042   0.071  1.00  0.00     0.046 C 
BRANCH   8  10
ATOM     10  N   UNL     1       3.821  -1.024   0.923  1.00  0.00    -0.293 N 
ATOM     11  C   UNL     1       4.667   0.782   2.403  1.00  0.00     0.038 C 
ATOM     12  C   UNL     1       4.473  -0.490   2.043  1.00  0.00     0.046 C 
ATOM     13  C   UNL     1       4.886  -1.616   2.885  1.00  0.00     0.010 A 
ATOM     14  C   UNL     1       5.669  -1.701   4.027  1.00  0.00     0.011 A 
ATOM     15  C   UNL     1       4.332  -2.767   2.340  1.00  0.00     0.049 A 
ATOM     16  C   UNL     1       3.628  -2.401   1.105  1.00  0.00     0.259 C 
ATOM     17  C   UNL     1       5.848  -2.957   4.621  1.00  0.00     0.001 A 
ATOM     18  C   UNL     1       4.479  -4.018   2.915  1.00  0.00     0.014 A 
ATOM     19  O   UNL     1       3.020  -3.204   0.426  1.00  0.00    -0.269 OA
ATOM     20  C   UNL     1       5.247  -4.105   4.076  1.00  0.00     0.001 A 
ENDBRANCH   8  10
BRANCH   8  21
ATOM     21  C   UNL     1       3.322  -1.087  -1.585  1.00  0.00     0.035 C 
ATOM     22  C   UNL     1       2.889  -0.335  -2.844  1.00  0.00     0.007 C 
ENDBRANCH   8  21
ENDBRANCH   5   8
ENDBRANCH   3   4
ENDBRANCH   2   3
ENDBRANCH   1   2
BRANCH   1  23
ATOM     23  C   UNL     1       8.954   1.580  -1.223  1.00  0.00     0.116 C 
BRANCH  23  24
ATOM     24  N   UNL     1       9.884   0.473  -1.051  1.00  0.00    -0.352 N 
ATOM     25  C   UNL     1      11.256   0.498  -1.032  1.00  0.00     0.251 C 
ATOM     26  H   UNL     1       9.473  -0.414  -0.933  1.00  0.00     0.163 HD
ATOM     27  O   UNL     1      11.900  -0.545  -1.048  1.00  0.00    -0.269 OA
BRANCH  25  28
ATOM     28  C   UNL     1      11.953   1.800  -1.020  1.00  0.00     0.039 A 
ATOM     29  C   UNL     1      13.003   2.013  -1.914  1.00  0.00     0.014 A 
ATOM     30  C   UNL     1      11.543   2.816  -0.151  1.00  0.00     0.014 A 
ATOM     31  C   UNL     1      13.601   3.272  -1.982  1.00  0.00     0.010 A 
ATOM     32  C   UNL     1      12.081   4.091  -0.281  1.00  0.00     0.010 A 
ATOM     33  C   UNL     1      13.118   4.332  -1.195  1.00  0.00    -0.014 A 
BRANCH  33  34
ATOM     34  C   UNL     1      13.686   5.698  -1.316  1.00  0.00     0.031 A 
ATOM     35  C   UNL     1      14.371   6.338  -0.141  1.00  0.00     0.074 A 
ATOM     36  C   UNL     1      13.533   6.384  -2.466  1.00  0.00     0.049 A 
ATOM     37  N   UNL     1      14.881   7.539  -0.033  1.00  0.00    -0.248 NA
ATOM     38  C   UNL     1      14.473   5.531   1.085  1.00  0.00     0.031 C 
ATOM     39  C   UNL     1      12.847   5.890  -3.660  1.00  0.00     0.029 A 
ATOM     40  N   UNL     1      13.939   7.648  -2.816  1.00  0.00    -0.354 N 
ATOM     41  C   UNL     1      15.353   7.633   1.270  1.00  0.00     0.074 A 
ATOM     42  C   UNL     1      15.012   6.393   1.933  1.00  0.00     0.031 C 
ATOM     43  C   UNL     1      12.903   6.827  -4.620  1.00  0.00     0.029 A 
ATOM     44  C   UNL     1      13.588   8.004  -4.095  1.00  0.00     0.049 A 
ATOM     45  H   UNL     1      14.435   8.242  -2.208  1.00  0.00     0.167 HD
ATOM     46  C   UNL     1      16.032   8.650   1.852  1.00  0.00     0.037 A 
ATOM     47  C   UNL     1      13.787   9.155  -4.766  1.00  0.00     0.037 A 
ATOM     48  C   UNL     1      16.380   9.876   1.182  1.00  0.00     0.049 A 
ATOM     49  C   UNL     1      14.520  10.281  -4.086  1.00  0.00     0.074 A 
ATOM     50  C   UNL     1      17.113  10.944   1.666  1.00  0.00     0.029 A 
ATOM     51  N   UNL     1      16.009  10.200  -0.115  1.00  0.00    -0.354 N 
ATOM     52  N   UNL     1      15.028  10.330  -2.878  1.00  0.00    -0.248 NA
ATOM     53  C   UNL     1      14.712  11.511  -4.866  1.00  0.00     0.031 C 
ATOM     54  C   UNL     1      17.132  11.941   0.686  1.00  0.00     0.029 A 
ATOM     55  C   UNL     1      16.471  11.467  -0.436  1.00  0.00     0.049 A 
ATOM     56  H   UNL     1      15.493   9.617  -0.718  1.00  0.00     0.167 HD
ATOM     57  C   UNL     1      15.626  11.579  -2.765  1.00  0.00     0.074 A 
ATOM     58  C   UNL     1      15.432  12.249  -4.034  1.00  0.00     0.031 C 
ATOM     59  C   UNL     1      16.276  12.121  -1.706  1.00  0.00     0.037 A 
BRANCH  46  60
ATOM     60  C   UNL     1      16.440   8.482   3.288  1.00  0.00     0.064 A 
ATOM     61  C   UNL     1      17.407   7.541   3.676  1.00  0.00     0.173 A 
ATOM     62  C   UNL     1      15.882   9.294   4.287  1.00  0.00     0.173 A 
ATOM     63  F   UNL     1      17.966   6.730   2.765  1.00  0.00    -0.203 F 
ATOM     64  C   UNL     1      17.774   7.398   5.012  1.00  0.00     0.198 A 
ATOM     65  C   UNL     1      16.278   9.174   5.616  1.00  0.00     0.198 A 
ATOM     66  F   UNL     1      14.957  10.214   3.973  1.00  0.00    -0.203 F 
ATOM     67  F   UNL     1      18.657   6.453   5.365  1.00  0.00    -0.200 F 
ATOM     68  C   UNL     1      17.216   8.219   5.979  1.00  0.00     0.200 A 
ATOM     69  F   UNL     1      15.749   9.979   6.547  1.00  0.00    -0.200 F 
ATOM     70  F   UNL     1      17.576   8.086   7.263  1.00  0.00    -0.200 F 
ENDBRANCH  46  60
BRANCH  47  71
ATOM     71  C   UNL     1      13.299   9.297  -6.164  1.00  0.00     0.064 A 
ATOM     72  C   UNL     1      14.198   9.412  -7.234  1.00  0.00     0.173 A 
ATOM     73  C   UNL     1      11.929   9.335  -6.459  1.00  0.00     0.173 A 
ATOM     74  F   UNL     1      15.519   9.401  -7.002  1.00  0.00    -0.203 F 
ATOM     75  C   UNL     1      13.746   9.585  -8.540  1.00  0.00     0.198 A 
ATOM     76  C   UNL     1      11.477   9.474  -7.770  1.00  0.00     0.198 A 
ATOM     77  F   UNL     1      11.025   9.225  -5.474  1.00  0.00    -0.203 F 
ATOM     78  F   UNL     1      14.628   9.746  -9.536  1.00  0.00    -0.200 F 
ATOM     79  C   UNL     1      12.386   9.610  -8.808  1.00  0.00     0.200 A 
ATOM     80  F   UNL     1      10.162   9.480  -8.026  1.00  0.00    -0.200 F 
ATOM     81  F   UNL     1      11.951   9.773 -10.065  1.00  0.00    -0.200 F 
ENDBRANCH  47  71
BRANCH  59  82
ATOM     82  C   UNL     1      16.861  13.494  -1.884  1.00  0.00     0.064 A 
ATOM     83  C   UNL     1      16.053  14.634  -2.001  1.00  0.00     0.173 A 
ATOM     84  C   UNL     1      18.253  13.673  -1.898  1.00  0.00     0.173 A 
ATOM     85  F   UNL     1      14.716  14.518  -2.007  1.00  0.00    -0.203 F 
ATOM     86  C   UNL     1      16.616  15.898  -2.158  1.00  0.00     0.198 A 
ATOM     87  C   UNL     1      18.813  14.942  -2.018  1.00  0.00     0.198 A 
ATOM     88  F   UNL     1      19.073  12.618  -1.781  1.00  0.00    -0.203 F 
ATOM     89  F   UNL     1      15.824  16.966  -2.325  1.00  0.00    -0.200 F 
ATOM     90  C   UNL     1      17.994  16.052  -2.157  1.00  0.00     0.200 A 
ATOM     91  F   UNL     1      20.145  15.090  -1.998  1.00  0.00    -0.200 F 
ATOM     92  F   UNL     1      18.534  17.271  -2.298  1.00  0.00    -0.200 F 
ENDBRANCH  59  82
ENDBRANCH  33  34
ENDBRANCH  25  28
ENDBRANCH  23  24
ENDBRANCH   1  23
TORSDOF 13
