REMARK SMILES Cc1cn2c(=O)cc(CSc3ccccc3C(=O)NCCCCNC(=O)c3ccc(-c4c5nc(c(-c6c(F)c(F)c(F)c(F)c6F)c6ccc([nH]6)c(-c6c(F)c(F)c(F)c(F)c6F)c6nc(c(-c7c(F)c(F)c(F)c(F)c7F)c7ccc4[nH]7)C=C6)C=C5)cc3)nc2s1
REMARK SMILES IDX 21 1 20 2 19 3 17 4 18 5 16 7 11 8 12 9 13 10 15 11 14 12
REMARK SMILES IDX 10 13 9 14 8 15 1 16 2 17 3 18 92 19 4 20 91 21 5 22 90 23
REMARK SMILES IDX 6 24 7 25 22 26 23 27 24 28 25 29 26 31 27 32 28 33 89 34
REMARK SMILES IDX 29 35 88 36 30 37 31 38 32 39 82 40 33 41 87 42 81 43 83 44
REMARK SMILES IDX 34 45 86 46 80 47 79 48 35 50 67 51 47 52 66 53 48 54 51 55
REMARK SMILES IDX 65 56 84 57 49 58 50 59 64 61 85 62 52 63 36 64 37 65 45 66
REMARK SMILES IDX 38 67 39 68 43 69 46 70 40 71 41 72 44 73 42 74 68 75 69 76
REMARK SMILES IDX 77 77 70 78 71 79 75 80 78 81 72 82 73 83 76 84 74 85 53 86
REMARK SMILES IDX 54 87 62 88 55 89 56 90 60 91 63 92 57 93 58 94 61 95 59 96
REMARK H PARENT 19 6 24 30 83 49 51 60
REMARK Flexibility Score: inf
ROOT
ATOM      1  C   UNL     1      -0.165  10.441  -2.682  1.00  0.00     0.023 C 
ENDROOT
BRANCH   1   2
ATOM      2  C   UNL     1      -0.695   9.712  -1.456  1.00  0.00     0.116 C 
BRANCH   2   3
ATOM      3  N   UNL     1      -1.719  10.306  -0.650  1.00  0.00    -0.352 N 
ATOM      4  C   UNL     1      -2.743   9.681   0.042  1.00  0.00     0.252 C 
ATOM      5  O   UNL     1      -3.423  10.417   0.766  1.00  0.00    -0.269 OA
ATOM      6  H   UNL     1      -1.692  11.287  -0.579  1.00  0.00     0.163 HD
BRANCH   4   7
ATOM      7  C   UNL     1      -3.168   8.232  -0.088  1.00  0.00     0.053 A 
ATOM      8  C   UNL     1      -2.393   7.053  -0.189  1.00  0.00     0.020 A 
ATOM      9  C   UNL     1      -3.043   5.793  -0.213  1.00  0.00     0.016 A 
ATOM     10  C   UNL     1      -4.428   5.673  -0.138  1.00  0.00     0.001 A 
ATOM     11  C   UNL     1      -4.576   8.069   0.002  1.00  0.00     0.015 A 
ATOM     12  C   UNL     1      -5.198   6.816  -0.021  1.00  0.00     0.001 A 
BRANCH   8  13
ATOM     13  S   UNL     1      -0.608   6.909  -0.143  1.00  0.00    -0.119 SA
BRANCH  13  14
ATOM     14  C   UNL     1      -0.256   6.560  -1.936  1.00  0.00     0.131 C 
BRANCH  14  15
ATOM     15  C   UNL     1      -0.160   5.083  -2.182  1.00  0.00     0.059 A 
ATOM     16  C   UNL     1       0.869  -0.578  -0.188  1.00  0.00     0.058 C 
ATOM     17  C   UNL     1       0.678   0.739  -0.843  1.00  0.00     0.022 A 
ATOM     18  C   UNL     1      -0.195   1.057  -1.810  1.00  0.00     0.111 A 
ATOM     19  S   UNL     1       1.617   2.125  -0.344  1.00  0.00    -0.102 S 
ATOM     20  N   UNL     1      -0.205   2.397  -2.126  1.00  0.00    -0.258 N 
ATOM     21  C   UNL     1       0.677   3.154  -1.395  1.00  0.00     0.197 A 
ATOM     22  C   UNL     1      -1.030   2.987  -3.051  1.00  0.00     0.258 A 
ATOM     23  N   UNL     1       0.780   4.433  -1.422  1.00  0.00    -0.224 NA
ATOM     24  O   UNL     1      -1.798   2.404  -3.811  1.00  0.00    -0.269 OA
ATOM     25  C   UNL     1      -1.000   4.465  -3.029  1.00  0.00     0.097 A 
ENDBRANCH  14  15
ENDBRANCH  13  14
ENDBRANCH   8  13
ENDBRANCH   4   7
ENDBRANCH   2   3
ENDBRANCH   1   2
BRANCH   1  26
ATOM     26  C   UNL     1       0.796  11.606  -2.465  1.00  0.00     0.023 C 
BRANCH  26  27
ATOM     27  C   UNL     1       2.016  11.309  -1.602  1.00  0.00     0.116 C 
BRANCH  27  28
ATOM     28  N   UNL     1       2.921  10.305  -2.153  1.00  0.00    -0.352 N 
ATOM     29  C   UNL     1       4.197   9.998  -1.700  1.00  0.00     0.251 C 
ATOM     30  H   UNL     1       2.593   9.793  -2.927  1.00  0.00     0.163 HD
ATOM     31  O   UNL     1       4.982   9.369  -2.378  1.00  0.00    -0.269 OA
BRANCH  29  32
ATOM     32  C   UNL     1       4.579  10.470  -0.353  1.00  0.00     0.039 A 
ATOM     33  C   UNL     1       5.790  11.136  -0.142  1.00  0.00     0.014 A 
ATOM     34  C   UNL     1       3.675  10.270   0.689  1.00  0.00     0.014 A 
ATOM     35  C   UNL     1       6.052  11.677   1.115  1.00  0.00     0.010 A 
ATOM     36  C   UNL     1       3.886  10.889   1.897  1.00  0.00     0.010 A 
ATOM     37  C   UNL     1       5.087  11.562   2.124  1.00  0.00    -0.014 A 
BRANCH  37  38
ATOM     38  C   UNL     1       5.275  12.222   3.412  1.00  0.00     0.031 A 
ATOM     39  C   UNL     1       5.304  13.713   3.380  1.00  0.00     0.074 A 
ATOM     40  C   UNL     1       5.145  11.545   4.573  1.00  0.00     0.049 A 
ATOM     41  N   UNL     1       6.229  14.512   3.807  1.00  0.00    -0.248 NA
ATOM     42  C   UNL     1       4.178  14.405   2.728  1.00  0.00     0.031 C 
ATOM     43  C   UNL     1       4.762  10.139   4.753  1.00  0.00     0.029 A 
ATOM     44  N   UNL     1       5.200  12.009   5.850  1.00  0.00    -0.354 N 
ATOM     45  C   UNL     1       5.733  15.803   3.635  1.00  0.00     0.074 A 
ATOM     46  C   UNL     1       4.539  15.684   2.839  1.00  0.00     0.031 C 
ATOM     47  C   UNL     1       4.402   9.932   6.038  1.00  0.00     0.029 A 
ATOM     48  C   UNL     1       4.681  11.135   6.797  1.00  0.00     0.049 A 
ATOM     49  H   UNL     1       5.575  12.889   6.084  1.00  0.00     0.167 HD
ATOM     50  C   UNL     1       6.212  16.859   4.351  1.00  0.00     0.037 A 
ATOM     51  C   UNL     1       4.455  11.403   8.105  1.00  0.00     0.037 A 
ATOM     52  C   UNL     1       7.488  16.568   4.942  1.00  0.00     0.049 A 
ATOM     53  C   UNL     1       5.267  12.593   8.455  1.00  0.00     0.074 A 
ATOM     54  C   UNL     1       8.735  16.238   4.450  1.00  0.00     0.029 A 
ATOM     55  N   UNL     1       7.514  16.234   6.272  1.00  0.00    -0.354 N 
ATOM     56  N   UNL     1       6.571  12.611   8.483  1.00  0.00    -0.248 NA
ATOM     57  C   UNL     1       4.626  13.896   8.390  1.00  0.00     0.031 C 
ATOM     58  C   UNL     1       9.259  15.289   5.377  1.00  0.00     0.029 A 
ATOM     59  C   UNL     1       8.327  15.138   6.406  1.00  0.00     0.049 A 
ATOM     60  H   UNL     1       7.036  16.696   6.998  1.00  0.00     0.167 HD
ATOM     61  C   UNL     1       6.914  13.869   8.014  1.00  0.00     0.074 A 
ATOM     62  C   UNL     1       5.685  14.650   8.090  1.00  0.00     0.031 C 
ATOM     63  C   UNL     1       8.088  14.069   7.348  1.00  0.00     0.037 A 
BRANCH  50  64
ATOM     64  C   UNL     1       5.364  18.023   4.798  1.00  0.00     0.064 A 
ATOM     65  C   UNL     1       5.973  19.190   5.298  1.00  0.00     0.173 A 
ATOM     66  C   UNL     1       3.972  17.922   5.013  1.00  0.00     0.173 A 
ATOM     67  F   UNL     1       7.300  19.364   5.197  1.00  0.00    -0.203 F 
ATOM     68  C   UNL     1       5.245  20.166   5.987  1.00  0.00     0.198 A 
ATOM     69  C   UNL     1       3.239  18.922   5.649  1.00  0.00     0.198 A 
ATOM     70  F   UNL     1       3.292  16.806   4.720  1.00  0.00    -0.203 F 
ATOM     71  F   UNL     1       5.881  21.207   6.540  1.00  0.00    -0.200 F 
ATOM     72  C   UNL     1       3.878  20.033   6.158  1.00  0.00     0.200 A 
ATOM     73  F   UNL     1       1.921  18.759   5.830  1.00  0.00    -0.200 F 
ATOM     74  F   UNL     1       3.186  20.943   6.855  1.00  0.00    -0.200 F 
ENDBRANCH  50  64
BRANCH  51  75
ATOM     75  C   UNL     1       3.371  10.900   8.981  1.00  0.00     0.064 A 
ATOM     76  C   UNL     1       3.452  11.045  10.376  1.00  0.00     0.173 A 
ATOM     77  C   UNL     1       2.114  10.538   8.460  1.00  0.00     0.173 A 
ATOM     78  F   UNL     1       4.604  11.422  10.948  1.00  0.00    -0.203 F 
ATOM     79  C   UNL     1       2.331  10.883  11.196  1.00  0.00     0.198 A 
ATOM     80  C   UNL     1       0.998  10.367   9.281  1.00  0.00     0.198 A 
ATOM     81  F   UNL     1       1.918  10.442   7.137  1.00  0.00    -0.203 F 
ATOM     82  F   UNL     1       2.430  11.106  12.514  1.00  0.00    -0.200 F 
ATOM     83  C   UNL     1       1.102  10.558  10.646  1.00  0.00     0.200 A 
ATOM     84  F   UNL     1      -0.193  10.085   8.733  1.00  0.00    -0.200 F 
ATOM     85  F   UNL     1       0.013  10.473  11.422  1.00  0.00    -0.200 F 
ENDBRANCH  51  75
BRANCH  63  86
ATOM     86  C   UNL     1       9.119  12.974   7.403  1.00  0.00     0.064 A 
ATOM     87  C   UNL     1       8.941  11.693   6.851  1.00  0.00     0.173 A 
ATOM     88  C   UNL     1      10.390  13.285   7.903  1.00  0.00     0.173 A 
ATOM     89  F   UNL     1       7.789  11.347   6.266  1.00  0.00    -0.203 F 
ATOM     90  C   UNL     1       9.975  10.758   6.838  1.00  0.00     0.198 A 
ATOM     91  C   UNL     1      11.432  12.363   7.855  1.00  0.00     0.198 A 
ATOM     92  F   UNL     1      10.637  14.510   8.394  1.00  0.00    -0.203 F 
ATOM     93  F   UNL     1       9.774   9.539   6.314  1.00  0.00    -0.200 F 
ATOM     94  C   UNL     1      11.222  11.097   7.332  1.00  0.00     0.200 A 
ATOM     95  F   UNL     1      12.651  12.713   8.289  1.00  0.00    -0.200 F 
ATOM     96  F   UNL     1      12.231  10.216   7.277  1.00  0.00    -0.200 F 
ENDBRANCH  63  86
ENDBRANCH  37  38
ENDBRANCH  29  32
ENDBRANCH  27  28
ENDBRANCH  26  27
ENDBRANCH   1  26
TORSDOF 14
