REMARK SMILES O=C(NCCCCNC(=O)c1cc(S(=O)(=O)C/C(Cl)=C/Cl)ccc1Cl)c1ccc(-c2c3nc(c(-c4c(F)c(F)c(F)c(F)c4F)c4ccc([nH]4)c(-c4c(F)c(F)c(F)c(F)c4F)c4nc(c(-c5c(F)c(F)c(F)c(F)c5F)c5ccc2[nH]5)C=C4)C=C3)cc1
REMARK SMILES IDX 6 1 5 2 4 3 3 4 1 5 2 6 26 8 27 9 88 10 28 11 87 12 29 13
REMARK SMILES IDX 30 14 31 15 81 16 32 17 86 18 80 19 82 20 33 21 85 22 79 23
REMARK SMILES IDX 78 24 34 26 66 27 46 28 65 29 47 30 50 31 64 32 83 33 48 34
REMARK SMILES IDX 49 35 63 37 84 38 51 39 35 40 36 41 44 42 37 43 38 44 42 45
REMARK SMILES IDX 45 46 39 47 40 48 43 49 41 50 67 51 68 52 76 53 69 54 70 55
REMARK SMILES IDX 74 56 77 57 71 58 72 59 75 60 73 61 52 62 53 63 61 64 54 65
REMARK SMILES IDX 55 66 59 67 62 68 56 69 57 70 60 71 58 72 7 73 8 74 9 75
REMARK SMILES IDX 10 77 11 78 12 79 24 80 13 81 23 82 25 83 22 84 14 85 15 86
REMARK SMILES IDX 16 87 17 88 18 89 19 90 20 91 21 92
REMARK H PARENT 3 7 82 25 50 36 8 76
REMARK Flexibility Score: inf
ROOT
ATOM      1  C   UNL     1       4.410  -1.972  -3.296  1.00  0.00     0.023 C 
ENDROOT
BRANCH   1   2
ATOM      2  C   UNL     1       4.906  -1.831  -1.858  1.00  0.00     0.023 C 
BRANCH   2   3
ATOM      3  C   UNL     1       4.586  -0.504  -1.182  1.00  0.00     0.116 C 
BRANCH   3   4
ATOM      4  N   UNL     1       3.157  -0.264  -1.045  1.00  0.00    -0.352 N 
ATOM      5  O   UNL     1       1.188   0.013   0.022  1.00  0.00    -0.269 OA
ATOM      6  C   UNL     1       2.413  -0.034   0.088  1.00  0.00     0.251 C 
ATOM      7  H   UNL     1       2.649  -0.267  -1.888  1.00  0.00     0.163 HD
BRANCH   6   8
ATOM      8  C   UNL     1       3.086   0.128   1.394  1.00  0.00     0.039 A 
ATOM      9  C   UNL     1       4.216   0.938   1.520  1.00  0.00     0.014 A 
ATOM     10  C   UNL     1       2.575  -0.540   2.511  1.00  0.00     0.014 A 
ATOM     11  C   UNL     1       4.924   0.954   2.717  1.00  0.00     0.010 A 
ATOM     12  C   UNL     1       3.238  -0.451   3.739  1.00  0.00     0.010 A 
ATOM     13  C   UNL     1       4.438   0.269   3.843  1.00  0.00    -0.014 A 
BRANCH  13  14
ATOM     14  C   UNL     1       5.174   0.371   5.128  1.00  0.00     0.031 A 
ATOM     15  C   UNL     1       5.822  -0.831   5.755  1.00  0.00     0.074 A 
ATOM     16  C   UNL     1       5.277   1.579   5.716  1.00  0.00     0.049 A 
ATOM     17  N   UNL     1       6.518  -0.908   6.862  1.00  0.00    -0.248 NA
ATOM     18  C   UNL     1       5.664  -2.116   5.058  1.00  0.00     0.031 C 
ATOM     19  C   UNL     1       4.674   2.813   5.209  1.00  0.00     0.029 A 
ATOM     20  N   UNL     1       5.935   1.972   6.852  1.00  0.00    -0.354 N 
ATOM     21  C   UNL     1       6.862  -2.245   7.005  1.00  0.00     0.074 A 
ATOM     22  C   UNL     1       6.281  -2.951   5.883  1.00  0.00     0.031 C 
ATOM     23  C   UNL     1       5.024   3.833   6.005  1.00  0.00     0.029 A 
ATOM     24  C   UNL     1       5.826   3.317   7.108  1.00  0.00     0.049 A 
ATOM     25  H   UNL     1       6.437   1.352   7.428  1.00  0.00     0.167 HD
ATOM     26  C   UNL     1       7.602  -2.825   7.982  1.00  0.00     0.037 A 
ATOM     27  C   UNL     1       6.305   4.054   8.127  1.00  0.00     0.037 A 
ATOM     28  C   UNL     1       8.198  -2.113   9.084  1.00  0.00     0.049 A 
ATOM     29  C   UNL     1       7.118   3.382   9.195  1.00  0.00     0.074 A 
ATOM     30  C   UNL     1       9.005  -2.606  10.095  1.00  0.00     0.029 A 
ATOM     31  N   UNL     1       8.049  -0.754   9.320  1.00  0.00    -0.354 N 
ATOM     32  N   UNL     1       7.467   2.124   9.297  1.00  0.00    -0.248 NA
ATOM     33  C   UNL     1       7.603   4.234  10.289  1.00  0.00     0.031 C 
ATOM     34  C   UNL     1       9.307  -1.555  10.968  1.00  0.00     0.029 A 
ATOM     35  C   UNL     1       8.729  -0.397  10.475  1.00  0.00     0.049 A 
ATOM     36  H   UNL     1       7.537  -0.135   8.752  1.00  0.00     0.167 HD
ATOM     37  C   UNL     1       8.220   2.031  10.459  1.00  0.00     0.074 A 
ATOM     38  C   UNL     1       8.297   3.367  11.014  1.00  0.00     0.031 C 
ATOM     39  C   UNL     1       8.791   0.936  11.017  1.00  0.00     0.037 A 
BRANCH  26  40
ATOM     40  C   UNL     1       7.802  -4.312   7.919  1.00  0.00     0.064 A 
ATOM     41  C   UNL     1       8.653  -4.904   6.973  1.00  0.00     0.173 A 
ATOM     42  C   UNL     1       7.182  -5.151   8.858  1.00  0.00     0.173 A 
ATOM     43  F   UNL     1       9.262  -4.148   6.048  1.00  0.00    -0.203 F 
ATOM     44  C   UNL     1       8.861  -6.281   6.960  1.00  0.00     0.198 A 
ATOM     45  C   UNL     1       7.412  -6.524   8.857  1.00  0.00     0.198 A 
ATOM     46  F   UNL     1       6.365  -4.636   9.789  1.00  0.00    -0.203 F 
ATOM     47  F   UNL     1       9.652  -6.828   6.026  1.00  0.00    -0.200 F 
ATOM     48  C   UNL     1       8.248  -7.089   7.906  1.00  0.00     0.200 A 
ATOM     49  F   UNL     1       6.828  -7.301   9.780  1.00  0.00    -0.200 F 
ATOM     50  F   UNL     1       8.458  -8.412   7.897  1.00  0.00    -0.200 F 
ENDBRANCH  26  40
BRANCH  27  51
ATOM     51  C   UNL     1       6.017   5.509   8.175  1.00  0.00     0.064 A 
ATOM     52  C   UNL     1       7.029   6.453   7.959  1.00  0.00     0.173 A 
ATOM     53  C   UNL     1       4.717   5.983   8.409  1.00  0.00     0.173 A 
ATOM     54  F   UNL     1       8.290   6.048   7.750  1.00  0.00    -0.203 F 
ATOM     55  C   UNL     1       6.753   7.819   7.984  1.00  0.00     0.198 A 
ATOM     56  C   UNL     1       4.438   7.347   8.405  1.00  0.00     0.198 A 
ATOM     57  F   UNL     1       3.714   5.117   8.614  1.00  0.00    -0.203 F 
ATOM     58  F   UNL     1       7.744   8.703   7.808  1.00  0.00    -0.200 F 
ATOM     59  C   UNL     1       5.457   8.264   8.198  1.00  0.00     0.200 A 
ATOM     60  F   UNL     1       3.181   7.771   8.594  1.00  0.00    -0.200 F 
ATOM     61  F   UNL     1       5.191   9.577   8.210  1.00  0.00    -0.200 F 
ENDBRANCH  27  51
BRANCH  39  62
ATOM     62  C   UNL     1       9.562   1.144  12.286  1.00  0.00     0.064 A 
ATOM     63  C   UNL     1       8.914   1.402  13.503  1.00  0.00     0.173 A 
ATOM     64  C   UNL     1      10.962   1.060  12.290  1.00  0.00     0.173 A 
ATOM     65  F   UNL     1       7.577   1.509  13.546  1.00  0.00    -0.203 F 
ATOM     66  C   UNL     1       9.642   1.594  14.674  1.00  0.00     0.198 A 
ATOM     67  C   UNL     1      11.685   1.225  13.468  1.00  0.00     0.198 A 
ATOM     68  F   UNL     1      11.628   0.811  11.152  1.00  0.00    -0.203 F 
ATOM     69  F   UNL     1       9.005   1.887  15.816  1.00  0.00    -0.200 F 
ATOM     70  C   UNL     1      11.026   1.499  14.656  1.00  0.00     0.200 A 
ATOM     71  F   UNL     1      13.021   1.123  13.451  1.00  0.00    -0.200 F 
ATOM     72  F   UNL     1      11.725   1.681  15.785  1.00  0.00    -0.200 F 
ENDBRANCH  39  62
ENDBRANCH  13  14
ENDBRANCH   6   8
ENDBRANCH   3   4
ENDBRANCH   2   3
ENDBRANCH   1   2
BRANCH   1  73
ATOM     73  C   UNL     1       4.800  -0.834  -4.234  1.00  0.00     0.116 C 
BRANCH  73  74
ATOM     74  N   UNL     1       6.237  -0.660  -4.340  1.00  0.00    -0.352 N 
ATOM     75  C   UNL     1       6.994  -0.470  -5.468  1.00  0.00     0.252 C 
ATOM     76  H   UNL     1       6.734  -0.681  -3.491  1.00  0.00     0.163 HD
ATOM     77  O   UNL     1       8.213  -0.361  -5.397  1.00  0.00    -0.269 OA
BRANCH  75  78
ATOM     78  C   UNL     1       6.343  -0.466  -6.787  1.00  0.00     0.059 A 
ATOM     79  C   UNL     1       6.635  -1.535  -7.644  1.00  0.00     0.035 A 
ATOM     80  C   UNL     1       5.500   0.566  -7.209  1.00  0.00     0.053 A 
ATOM     81  C   UNL     1       6.058  -1.584  -8.918  1.00  0.00     0.068 A 
ATOM     82  C   UNL     1       4.910   0.495  -8.475  1.00  0.00     0.022 A 
ATOM     83  Cl  UNL     1       5.171   1.959  -6.245  1.00  0.00    -0.083 Cl
ATOM     84  C   UNL     1       5.193  -0.573  -9.336  1.00  0.00     0.022 A 
BRANCH  81  85
ATOM     85  S   UNL     1       6.530  -2.941  -9.965  1.00  0.00     0.183 S 
ATOM     86  O   UNL     1       7.806  -2.546 -10.537  1.00  0.00    -0.223 OA
ATOM     87  O   UNL     1       6.439  -4.135  -9.147  1.00  0.00    -0.223 OA
BRANCH  85  88
ATOM     88  C   UNL     1       5.387  -3.098 -11.316  1.00  0.00     0.191 C 
BRANCH  88  89
ATOM     89  C   UNL     1       3.998  -3.461 -10.876  1.00  0.00     0.045 C 
ATOM     90  Cl  UNL     1       2.772  -2.338 -11.390  1.00  0.00    -0.087 Cl
ATOM     91  C   UNL     1       3.669  -4.605 -10.258  1.00  0.00     0.097 C 
ATOM     92  Cl  UNL     1       2.084  -5.082  -9.810  1.00  0.00    -0.092 Cl
ENDBRANCH  88  89
ENDBRANCH  85  88
ENDBRANCH  81  85
ENDBRANCH  75  78
ENDBRANCH  73  74
ENDBRANCH   1  73
TORSDOF 14
