REMARK SMILES CN(CCS(C)(=O)=O)S(=O)(=O)c1cc(C(=O)NCCCCNC(=O)c2ccc(-c3c4nc(c(-c5c(F)c(F)c(F)c(F)c5F)c5ccc([nH]5)c(-c5c(F)c(F)c(F)c(F)c5F)c5nc(c(-c6c(F)c(F)c(F)c(F)c6F)c6ccc3[nH]6)C=C5)C=C4)cc2)ccc1F
REMARK SMILES IDX 18 1 17 2 15 3 16 4 14 6 12 7 13 8 90 9 89 10 91 11 88 12
REMARK SMILES IDX 9 13 10 14 11 15 2 16 1 17 3 18 4 19 5 20 6 21 7 22 8 23
REMARK SMILES IDX 19 24 20 25 21 26 22 27 23 28 24 30 25 31 26 32 87 33 27 34
REMARK SMILES IDX 86 35 28 36 29 37 30 38 80 39 31 40 85 41 79 42 81 43 32 44
REMARK SMILES IDX 84 45 78 46 77 47 33 49 65 50 45 51 64 52 46 53 49 54 63 55
REMARK SMILES IDX 82 56 47 57 48 58 62 60 83 61 50 62 34 63 35 64 43 65 36 66
REMARK SMILES IDX 37 67 41 68 44 69 38 70 39 71 42 72 40 73 66 74 67 75 75 76
REMARK SMILES IDX 68 77 69 78 73 79 76 80 70 81 71 82 74 83 72 84 51 85 52 86
REMARK SMILES IDX 60 87 53 88 54 89 58 90 61 91 55 92 56 93 59 94 57 95
REMARK H PARENT 17 5 22 29 81 48 49 59
REMARK Flexibility Score: inf
ROOT
ATOM      1  C   UNL     1      -0.992  -2.009  -8.640  1.00  0.00     0.116 C 
ENDROOT
BRANCH   1   2
ATOM      2  N   UNL     1      -0.545  -2.720  -7.461  1.00  0.00    -0.352 N 
ATOM      3  C   UNL     1      -0.079  -2.367  -6.223  1.00  0.00     0.251 C 
ATOM      4  O   UNL     1       0.117  -3.301  -5.441  1.00  0.00    -0.269 OA
ATOM      5  H   UNL     1      -0.585  -3.697  -7.578  1.00  0.00     0.163 HD
BRANCH   3   6
ATOM      6  C   UNL     1       0.219  -0.978  -5.746  1.00  0.00     0.041 A 
ATOM      7  C   UNL     1       1.162   0.380  -3.930  1.00  0.00     0.119 A 
ATOM      8  C   UNL     1       0.823  -0.872  -4.473  1.00  0.00     0.038 A 
ATOM      9  C   UNL     1       0.967   1.528  -4.673  1.00  0.00     0.143 A 
ATOM     10  C   UNL     1       0.332   1.451  -5.904  1.00  0.00     0.041 A 
ATOM     11  F   UNL     1       1.365   2.732  -4.253  1.00  0.00    -0.206 F 
ATOM     12  C   UNL     1      -0.048   0.210  -6.431  1.00  0.00     0.017 A 
BRANCH   7  13
ATOM     13  S   UNL     1       1.803   0.467  -2.293  1.00  0.00     0.245 S 
ATOM     14  O   UNL     1       1.906   1.839  -1.849  1.00  0.00    -0.207 OA
ATOM     15  O   UNL     1       2.953  -0.407  -2.252  1.00  0.00    -0.207 OA
BRANCH  13  16
ATOM     16  N   UNL     1       0.590  -0.248  -1.324  1.00  0.00    -0.200 NA
ATOM     17  C   UNL     1       0.993  -0.405   0.094  1.00  0.00     0.124 C 
BRANCH  16  18
ATOM     18  C   UNL     1      -0.856   0.049  -1.526  1.00  0.00     0.118 C 
BRANCH  18  19
ATOM     19  C   UNL     1      -1.437   1.309  -0.911  1.00  0.00     0.153 C 
BRANCH  19  20
ATOM     20  S   UNL     1      -1.793   2.675  -2.007  1.00  0.00     0.148 S 
ATOM     21  C   UNL     1      -2.517   2.019  -3.494  1.00  0.00     0.158 C 
ATOM     22  O   UNL     1      -2.830   3.467  -1.369  1.00  0.00    -0.229 OA
ATOM     23  O   UNL     1      -0.547   3.299  -2.389  1.00  0.00    -0.229 OA
ENDBRANCH  19  20
ENDBRANCH  18  19
ENDBRANCH  16  18
ENDBRANCH  13  16
ENDBRANCH   7  13
ENDBRANCH   3   6
ENDBRANCH   1   2
BRANCH   1  24
ATOM     24  C   UNL     1       0.092  -1.915  -9.712  1.00  0.00     0.023 C 
BRANCH  24  25
ATOM     25  C   UNL     1       0.234  -3.177 -10.571  1.00  0.00     0.023 C 
BRANCH  25  26
ATOM     26  C   UNL     1      -1.052  -3.666 -11.235  1.00  0.00     0.116 C 
BRANCH  26  27
ATOM     27  N   UNL     1      -1.727  -2.644 -12.024  1.00  0.00    -0.352 N 
ATOM     28  C   UNL     1      -2.394  -2.787 -13.217  1.00  0.00     0.251 C 
ATOM     29  H   UNL     1      -1.702  -1.732 -11.654  1.00  0.00     0.163 HD
ATOM     30  O   UNL     1      -2.824  -1.807 -13.815  1.00  0.00    -0.269 OA
BRANCH  28  31
ATOM     31  C   UNL     1      -2.547  -4.137 -13.792  1.00  0.00     0.039 A 
ATOM     32  C   UNL     1      -2.159  -4.357 -15.114  1.00  0.00     0.014 A 
ATOM     33  C   UNL     1      -3.011  -5.192 -13.002  1.00  0.00     0.014 A 
ATOM     34  C   UNL     1      -2.160  -5.657 -15.621  1.00  0.00     0.010 A 
ATOM     35  C   UNL     1      -2.934  -6.494 -13.482  1.00  0.00     0.010 A 
ATOM     36  C   UNL     1      -2.502  -6.741 -14.794  1.00  0.00    -0.014 A 
BRANCH  36  37
ATOM     37  C   UNL     1      -2.400  -8.141 -15.276  1.00  0.00     0.031 A 
ATOM     38  C   UNL     1      -3.630  -9.000 -15.361  1.00  0.00     0.074 A 
ATOM     39  C   UNL     1      -1.192  -8.657 -15.574  1.00  0.00     0.049 A 
ATOM     40  N   UNL     1      -3.734 -10.263 -15.685  1.00  0.00    -0.248 NA
ATOM     41  C   UNL     1      -4.910  -8.363 -15.012  1.00  0.00     0.031 C 
ATOM     42  C   UNL     1       0.078  -7.934 -15.491  1.00  0.00     0.029 A 
ATOM     43  N   UNL     1      -0.830  -9.911 -16.000  1.00  0.00    -0.354 N 
ATOM     44  C   UNL     1      -5.082 -10.571 -15.572  1.00  0.00     0.074 A 
ATOM     45  C   UNL     1      -5.752  -9.383 -15.092  1.00  0.00     0.031 C 
ATOM     46  C   UNL     1       1.073  -8.744 -15.884  1.00  0.00     0.029 A 
ATOM     47  C   UNL     1       0.521 -10.058 -16.201  1.00  0.00     0.049 A 
ATOM     48  H   UNL     1      -1.479 -10.637 -16.148  1.00  0.00     0.167 HD
ATOM     49  C   UNL     1      -5.707 -11.734 -15.871  1.00  0.00     0.037 A 
ATOM     50  C   UNL     1       1.237 -11.133 -16.588  1.00  0.00     0.037 A 
ATOM     51  C   UNL     1      -5.037 -12.904 -16.372  1.00  0.00     0.049 A 
ATOM     52  C   UNL     1       0.521 -12.423 -16.884  1.00  0.00     0.074 A 
ATOM     53  C   UNL     1      -5.592 -14.113 -16.754  1.00  0.00     0.029 A 
ATOM     54  N   UNL     1      -3.667 -13.015 -16.557  1.00  0.00    -0.354 N 
ATOM     55  N   UNL     1      -0.762 -12.685 -16.830  1.00  0.00    -0.248 NA
ATOM     56  C   UNL     1       1.348 -13.565 -17.297  1.00  0.00     0.031 C 
ATOM     57  C   UNL     1      -4.554 -14.975 -17.112  1.00  0.00     0.029 A 
ATOM     58  C   UNL     1      -3.357 -14.283 -17.020  1.00  0.00     0.049 A 
ATOM     59  H   UNL     1      -3.013 -12.299 -16.385  1.00  0.00     0.167 HD
ATOM     60  C   UNL     1      -0.900 -14.008 -17.227  1.00  0.00     0.074 A 
ATOM     61  C   UNL     1       0.430 -14.494 -17.529  1.00  0.00     0.031 C 
ATOM     62  C   UNL     1      -2.029 -14.751 -17.330  1.00  0.00     0.037 A 
BRANCH  49  63
ATOM     63  C   UNL     1      -7.195 -11.802 -15.683  1.00  0.00     0.064 A 
ATOM     64  C   UNL     1      -7.752 -12.650 -14.713  1.00  0.00     0.173 A 
ATOM     65  C   UNL     1      -8.073 -11.095 -16.517  1.00  0.00     0.173 A 
ATOM     66  F   UNL     1      -6.957 -13.353 -13.892  1.00  0.00    -0.203 F 
ATOM     67  C   UNL     1      -9.131 -12.801 -14.599  1.00  0.00     0.198 A 
ATOM     68  C   UNL     1      -9.453 -11.222 -16.378  1.00  0.00     0.198 A 
ATOM     69  F   UNL     1      -7.593 -10.261 -17.452  1.00  0.00    -0.203 F 
ATOM     70  F   UNL     1      -9.638 -13.647 -13.692  1.00  0.00    -0.200 F 
ATOM     71  C   UNL     1      -9.980 -12.084 -15.429  1.00  0.00     0.200 A 
ATOM     72  F   UNL     1     -10.272 -10.509 -17.163  1.00  0.00    -0.200 F 
ATOM     73  F   UNL     1     -11.308 -12.224 -15.313  1.00  0.00    -0.200 F 
ENDBRANCH  49  63
BRANCH  50  74
ATOM     74  C   UNL     1       2.711 -11.016 -16.744  1.00  0.00     0.064 A 
ATOM     75  C   UNL     1       3.552 -10.821 -15.638  1.00  0.00     0.173 A 
ATOM     76  C   UNL     1       3.305 -11.064 -18.012  1.00  0.00     0.173 A 
ATOM     77  F   UNL     1       3.034 -10.762 -14.402  1.00  0.00    -0.203 F 
ATOM     78  C   UNL     1       4.926 -10.653 -15.798  1.00  0.00     0.198 A 
ATOM     79  C   UNL     1       4.683 -10.927 -18.169  1.00  0.00     0.198 A 
ATOM     80  F   UNL     1       2.547 -11.269 -19.099  1.00  0.00    -0.203 F 
ATOM     81  F   UNL     1       5.700 -10.427 -14.728  1.00  0.00    -0.200 F 
ATOM     82  C   UNL     1       5.491 -10.711 -17.062  1.00  0.00     0.200 A 
ATOM     83  F   UNL     1       5.228 -11.008 -19.390  1.00  0.00    -0.200 F 
ATOM     84  F   UNL     1       6.814 -10.561 -17.215  1.00  0.00    -0.200 F 
ENDBRANCH  50  74
BRANCH  62  85
ATOM     85  C   UNL     1      -1.900 -16.165 -17.817  1.00  0.00     0.064 A 
ATOM     86  C   UNL     1      -2.430 -16.535 -19.063  1.00  0.00     0.173 A 
ATOM     87  C   UNL     1      -1.356 -17.174 -17.009  1.00  0.00     0.173 A 
ATOM     88  F   UNL     1      -2.971 -15.610 -19.870  1.00  0.00    -0.203 F 
ATOM     89  C   UNL     1      -2.444 -17.866 -19.470  1.00  0.00     0.198 A 
ATOM     90  C   UNL     1      -1.343 -18.500 -17.433  1.00  0.00     0.198 A 
ATOM     91  F   UNL     1      -0.827 -16.870 -15.814  1.00  0.00    -0.203 F 
ATOM     92  F   UNL     1      -3.002 -18.201 -20.642  1.00  0.00    -0.200 F 
ATOM     93  C   UNL     1      -1.899 -18.847 -18.656  1.00  0.00     0.200 A 
ATOM     94  F   UNL     1      -0.795 -19.444 -16.656  1.00  0.00    -0.200 F 
ATOM     95  F   UNL     1      -1.912 -20.128 -19.049  1.00  0.00    -0.200 F 
ENDBRANCH  62  85
ENDBRANCH  36  37
ENDBRANCH  28  31
ENDBRANCH  26  27
ENDBRANCH  25  26
ENDBRANCH  24  25
ENDBRANCH   1  24
TORSDOF 16
