REMARK SMILES Cc1ccc(C(=O)NCCCCNC(=O)c2ccc(-c3c4nc(c(-c5c(F)c(F)c(F)c(F)c5F)c5ccc([nH]5)c(-c5c(F)c(F)c(F)c(F)c5F)c5nc(c(-c6c(F)c(F)c(F)c(F)c6F)c6ccc3[nH]6)C=C5)C=C4)cc2)c(Oc2cccc(F)c2C(N)=O)c1
REMARK SMILES IDX 10 1 9 2 8 3 6 4 7 5 5 7 1 8 2 9 3 10 91 11 4 12 79 13 80 14
REMARK SMILES IDX 81 15 82 16 87 17 83 18 85 19 84 20 86 21 88 22 89 23 90 24
REMARK SMILES IDX 11 27 12 28 13 29 14 30 15 32 16 33 17 34 78 35 18 36 77 37
REMARK SMILES IDX 19 38 20 39 21 40 71 41 22 42 76 43 70 44 72 45 23 46 75 47
REMARK SMILES IDX 69 48 68 49 24 51 56 52 36 53 55 54 37 55 40 56 54 57 73 58
REMARK SMILES IDX 38 59 39 60 53 62 74 63 41 64 25 65 26 66 34 67 27 68 28 69
REMARK SMILES IDX 32 70 35 71 29 72 30 73 33 74 31 75 57 76 58 77 66 78 59 79
REMARK SMILES IDX 60 80 64 81 67 82 61 83 62 84 65 85 63 86 42 87 43 88 51 89
REMARK SMILES IDX 44 90 45 91 49 92 52 93 46 94 47 95 50 96 48 97
REMARK H PARENT 8 6 89 25 89 26 13 31 72 50 40 61
REMARK Flexibility Score: inf
ROOT
ATOM      1  C   UNL     1      -3.877   3.026  -2.142  1.00  0.00     0.023 C 
ENDROOT
BRANCH   1   2
ATOM      2  C   UNL     1      -3.493   2.624  -0.719  1.00  0.00     0.116 C 
BRANCH   2   3
ATOM      3  N   UNL     1      -3.769   1.252  -0.351  1.00  0.00    -0.352 N 
ATOM      4  C   UNL     1      -2.992   0.206   0.100  1.00  0.00     0.255 C 
ATOM      5  O   UNL     1      -3.614  -0.799   0.461  1.00  0.00    -0.269 OA
ATOM      6  H   UNL     1      -4.719   1.013  -0.444  1.00  0.00     0.163 HD
BRANCH   4   7
ATOM      7  C   UNL     1      -1.494   0.131   0.106  1.00  0.00     0.082 A 
ATOM      8  C   UNL     1       2.788  -0.611   0.033  1.00  0.00     0.044 C 
ATOM      9  C   UNL     1       1.308  -0.375   0.080  1.00  0.00    -0.047 A 
ATOM     10  C   UNL     1       0.407  -1.391  -0.230  1.00  0.00     0.004 A 
ATOM     11  C   UNL     1       0.806   0.866   0.474  1.00  0.00     0.051 A 
ATOM     12  C   UNL     1      -0.971  -1.142  -0.206  1.00  0.00     0.018 A 
ATOM     13  C   UNL     1      -0.575   1.135   0.452  1.00  0.00     0.140 A 
BRANCH  13  14
ATOM     14  O   UNL     1      -1.017   2.352   0.882  1.00  0.00    -0.456 OA
BRANCH  14  15
ATOM     15  C   UNL     1      -0.414   3.525   0.461  1.00  0.00     0.143 A 
ATOM     16  C   UNL     1      -0.568   4.535   1.432  1.00  0.00     0.048 A 
ATOM     17  C   UNL     1       0.182   3.837  -0.778  1.00  0.00     0.117 A 
ATOM     18  C   UNL     1      -0.127   5.835   1.202  1.00  0.00     0.007 A 
ATOM     19  C   UNL     1       0.598   5.162  -0.992  1.00  0.00     0.139 A 
ATOM     20  C   UNL     1       0.449   6.150  -0.020  1.00  0.00     0.040 A 
ATOM     21  F   UNL     1       1.122   5.537  -2.169  1.00  0.00    -0.206 F 
BRANCH  17  22
ATOM     22  C   UNL     1       0.501   2.918  -1.902  1.00  0.00     0.255 C 
ATOM     23  N   UNL     1      -0.458   2.096  -2.416  1.00  0.00    -0.365 N 
ATOM     24  O   UNL     1       1.625   2.904  -2.392  1.00  0.00    -0.269 OA
ATOM     25  H   UNL     1      -1.365   2.098  -2.032  1.00  0.00     0.159 HD
ATOM     26  H   UNL     1      -0.245   1.502  -3.171  1.00  0.00     0.159 HD
ENDBRANCH  17  22
ENDBRANCH  14  15
ENDBRANCH  13  14
ENDBRANCH   4   7
ENDBRANCH   2   3
ENDBRANCH   1   2
BRANCH   1  27
ATOM     27  C   UNL     1      -5.352   3.300  -2.400  1.00  0.00     0.023 C 
BRANCH  27  28
ATOM     28  C   UNL     1      -5.981   4.354  -1.503  1.00  0.00     0.116 C 
BRANCH  28  29
ATOM     29  N   UNL     1      -5.604   5.734  -1.753  1.00  0.00    -0.352 N 
ATOM     30  C   UNL     1      -5.994   6.897  -1.096  1.00  0.00     0.251 C 
ATOM     31  H   UNL     1      -4.977   5.866  -2.500  1.00  0.00     0.163 HD
ATOM     32  O   UNL     1      -5.671   7.974  -1.562  1.00  0.00    -0.269 OA
BRANCH  30  33
ATOM     33  C   UNL     1      -6.665   6.846   0.240  1.00  0.00     0.039 A 
ATOM     34  C   UNL     1      -6.466   7.920   1.126  1.00  0.00     0.014 A 
ATOM     35  C   UNL     1      -7.309   5.709   0.706  1.00  0.00     0.014 A 
ATOM     36  C   UNL     1      -6.665   7.741   2.496  1.00  0.00     0.010 A 
ATOM     37  C   UNL     1      -7.367   5.473   2.058  1.00  0.00     0.010 A 
ATOM     38  C   UNL     1      -6.984   6.471   2.954  1.00  0.00    -0.014 A 
BRANCH  38  39
ATOM     39  C   UNL     1      -6.899   6.015   4.331  1.00  0.00     0.031 A 
ATOM     40  C   UNL     1      -8.139   5.703   5.067  1.00  0.00     0.074 A 
ATOM     41  C   UNL     1      -5.690   5.584   4.758  1.00  0.00     0.049 A 
ATOM     42  N   UNL     1      -8.172   5.334   6.299  1.00  0.00    -0.248 NA
ATOM     43  C   UNL     1      -9.472   5.823   4.472  1.00  0.00     0.031 C 
ATOM     44  C   UNL     1      -5.396   4.639   5.833  1.00  0.00     0.029 A 
ATOM     45  N   UNL     1      -4.429   6.093   4.394  1.00  0.00    -0.354 N 
ATOM     46  C   UNL     1      -9.438   4.862   6.550  1.00  0.00     0.074 A 
ATOM     47  C   UNL     1     -10.238   5.318   5.444  1.00  0.00     0.031 C 
ATOM     48  C   UNL     1      -4.134   4.838   6.252  1.00  0.00     0.029 A 
ATOM     49  C   UNL     1      -3.665   6.042   5.587  1.00  0.00     0.049 A 
ATOM     50  H   UNL     1      -4.142   6.413   3.509  1.00  0.00     0.167 HD
ATOM     51  C   UNL     1      -9.610   4.006   7.594  1.00  0.00     0.037 A 
ATOM     52  C   UNL     1      -3.319   7.191   6.242  1.00  0.00     0.037 A 
ATOM     53  C   UNL     1      -8.445   4.042   8.477  1.00  0.00     0.049 A 
ATOM     54  C   UNL     1      -3.845   7.266   7.658  1.00  0.00     0.074 A 
ATOM     55  C   UNL     1      -7.404   3.166   8.722  1.00  0.00     0.029 A 
ATOM     56  N   UNL     1      -8.084   5.259   9.054  1.00  0.00    -0.354 N 
ATOM     57  N   UNL     1      -4.888   6.607   8.086  1.00  0.00    -0.248 NA
ATOM     58  C   UNL     1      -3.246   8.102   8.693  1.00  0.00     0.031 C 
ATOM     59  C   UNL     1      -6.355   3.908   9.334  1.00  0.00     0.029 A 
ATOM     60  C   UNL     1      -6.785   5.214   9.514  1.00  0.00     0.049 A 
ATOM     61  H   UNL     1      -8.676   6.043   9.123  1.00  0.00     0.167 HD
ATOM     62  C   UNL     1      -5.114   6.917   9.400  1.00  0.00     0.074 A 
ATOM     63  C   UNL     1      -4.051   7.847   9.738  1.00  0.00     0.031 C 
ATOM     64  C   UNL     1      -6.163   6.394  10.101  1.00  0.00     0.037 A 
BRANCH  51  65
ATOM     65  C   UNL     1     -10.729   2.994   7.726  1.00  0.00     0.064 A 
ATOM     66  C   UNL     1     -10.830   2.204   8.893  1.00  0.00     0.173 A 
ATOM     67  C   UNL     1     -11.640   2.647   6.703  1.00  0.00     0.173 A 
ATOM     68  F   UNL     1     -10.018   2.410   9.939  1.00  0.00    -0.203 F 
ATOM     69  C   UNL     1     -11.753   1.158   9.016  1.00  0.00     0.198 A 
ATOM     70  C   UNL     1     -12.598   1.639   6.849  1.00  0.00     0.198 A 
ATOM     71  F   UNL     1     -11.608   3.215   5.493  1.00  0.00    -0.203 F 
ATOM     72  F   UNL     1     -11.760   0.403  10.124  1.00  0.00    -0.200 F 
ATOM     73  C   UNL     1     -12.645   0.883   7.999  1.00  0.00     0.200 A 
ATOM     74  F   UNL     1     -13.450   1.385   5.845  1.00  0.00    -0.200 F 
ATOM     75  F   UNL     1     -13.530  -0.116   8.116  1.00  0.00    -0.200 F 
ENDBRANCH  51  65
BRANCH  52  76
ATOM     76  C   UNL     1      -3.189   8.360   5.325  1.00  0.00     0.064 A 
ATOM     77  C   UNL     1      -2.222   8.301   4.301  1.00  0.00     0.173 A 
ATOM     78  C   UNL     1      -4.224   9.292   5.183  1.00  0.00     0.173 A 
ATOM     79  F   UNL     1      -1.209   7.423   4.383  1.00  0.00    -0.203 F 
ATOM     80  C   UNL     1      -2.362   9.041   3.129  1.00  0.00     0.198 A 
ATOM     81  C   UNL     1      -4.348  10.048   4.015  1.00  0.00     0.198 A 
ATOM     82  F   UNL     1      -5.184   9.389   6.114  1.00  0.00    -0.203 F 
ATOM     83  F   UNL     1      -1.495   8.866   2.121  1.00  0.00    -0.200 F 
ATOM     84  C   UNL     1      -3.443   9.890   2.974  1.00  0.00     0.200 A 
ATOM     85  F   UNL     1      -5.410  10.850   3.850  1.00  0.00    -0.200 F 
ATOM     86  F   UNL     1      -3.643  10.520   1.807  1.00  0.00    -0.200 F 
ENDBRANCH  52  76
BRANCH  64  87
ATOM     87  C   UNL     1      -6.655   6.895  11.438  1.00  0.00     0.064 A 
ATOM     88  C   UNL     1      -6.510   8.222  11.879  1.00  0.00     0.173 A 
ATOM     89  C   UNL     1      -7.442   6.062  12.270  1.00  0.00     0.173 A 
ATOM     90  F   UNL     1      -5.904   9.147  11.122  1.00  0.00    -0.203 F 
ATOM     91  C   UNL     1      -7.040   8.661  13.095  1.00  0.00     0.198 A 
ATOM     92  C   UNL     1      -8.022   6.521  13.452  1.00  0.00     0.198 A 
ATOM     93  F   UNL     1      -7.695   4.786  11.945  1.00  0.00    -0.203 F 
ATOM     94  F   UNL     1      -6.830   9.924  13.492  1.00  0.00    -0.200 F 
ATOM     95  C   UNL     1      -7.804   7.815  13.876  1.00  0.00     0.200 A 
ATOM     96  F   UNL     1      -8.810   5.705  14.167  1.00  0.00    -0.200 F 
ATOM     97  F   UNL     1      -8.348   8.253  15.019  1.00  0.00    -0.200 F 
ENDBRANCH  64  87
ENDBRANCH  38  39
ENDBRANCH  30  33
ENDBRANCH  28  29
ENDBRANCH  27  28
ENDBRANCH   1  27
TORSDOF 14
