REMARK SMILES O=C(CNS(=O)(=O)c1ccccc1)N[C@@H](CO)C(=O)NCCCCNC(=O)c1ccc(-c2c3nc(c(-c4c(F)c(F)c(F)c(F)c4F)c4ccc([nH]4)c(-c4c(F)c(F)c(F)c(F)c4F)c4nc(c(-c5c(F)c(F)c(F)c(F)c5F)c5ccc2[nH]5)C=C4)C=C3)cc1
REMARK SMILES IDX 21 1 20 2 18 3 19 4 15 6 14 7 1 8 2 9 3 11 4 12 5 14 6 15
REMARK SMILES IDX 7 16 8 17 9 18 13 19 10 20 12 21 11 22 16 23 17 24 22 26
REMARK SMILES IDX 23 27 24 28 25 29 26 30 27 32 28 33 29 34 90 35 30 36 89 37
REMARK SMILES IDX 31 38 32 39 33 40 83 41 34 42 88 43 82 44 84 45 35 46 87 47
REMARK SMILES IDX 81 48 80 49 36 51 68 52 48 53 67 54 49 55 52 56 66 57 85 58
REMARK SMILES IDX 50 59 51 60 65 62 86 63 53 64 37 65 38 66 46 67 39 68 40 69
REMARK SMILES IDX 44 70 47 71 41 72 42 73 45 74 43 75 69 76 70 77 78 78 71 79
REMARK SMILES IDX 72 80 76 81 79 82 73 83 74 84 77 85 75 86 54 87 55 88 63 89
REMARK SMILES IDX 56 90 57 91 61 92 64 93 58 94 59 95 62 96 60 97
REMARK H PARENT 20 5 14 10 4 13 17 25 25 31 84 50 52 61
REMARK Flexibility Score: inf
ROOT
ATOM      1  C   UNL     1       5.191   2.948   0.863  1.00  0.00     0.116 C 
ENDROOT
BRANCH   1   2
ATOM      2  N   UNL     1       4.060   3.683   0.333  1.00  0.00    -0.354 N 
ATOM      3  C   UNL     1       2.721   3.454   0.434  1.00  0.00     0.244 C 
ATOM      4  O   UNL     1       1.974   4.384   0.112  1.00  0.00    -0.273 OA
ATOM      5  H   UNL     1       4.300   4.483  -0.189  1.00  0.00     0.163 HD
BRANCH   3   6
ATOM      6  C   UNL     1       2.140   2.148   1.000  1.00  0.00     0.197 C 
BRANCH   6   7
ATOM      7  N   UNL     1       2.735   0.953   0.401  1.00  0.00    -0.341 N 
ATOM      8  O   UNL     1       0.869  -0.350   0.616  1.00  0.00    -0.274 OA
ATOM      9  C   UNL     1       2.005  -0.192   0.180  1.00  0.00     0.235 C 
ATOM     10  H   UNL     1       3.687   0.969   0.148  1.00  0.00     0.164 HD
BRANCH   9  11
ATOM     11  C   UNL     1       2.736  -1.269  -0.614  1.00  0.00     0.198 C 
BRANCH  11  12
ATOM     12  N   UNL     1       3.815  -0.672  -1.444  1.00  0.00    -0.202 NA
ATOM     13  H   UNL     1       4.451  -0.173  -0.823  1.00  0.00     0.141 HD
BRANCH  12  14
ATOM     14  S   UNL     1       4.726  -1.779  -2.350  1.00  0.00     0.241 S 
ATOM     15  O   UNL     1       3.792  -2.715  -2.933  1.00  0.00    -0.207 OA
ATOM     16  O   UNL     1       5.624  -0.987  -3.159  1.00  0.00    -0.207 OA
BRANCH  14  17
ATOM     17  C   UNL     1       5.687  -2.603  -1.115  1.00  0.00     0.082 A 
ATOM     18  C   UNL     1       5.595  -3.991  -0.974  1.00  0.00     0.022 A 
ATOM     19  C   UNL     1       6.505  -1.848  -0.270  1.00  0.00     0.022 A 
ATOM     20  C   UNL     1       6.321  -4.625   0.034  1.00  0.00     0.001 A 
ATOM     21  C   UNL     1       7.223  -2.489   0.738  1.00  0.00     0.001 A 
ATOM     22  C   UNL     1       7.128  -3.874   0.891  1.00  0.00     0.000 A 
ENDBRANCH  14  17
ENDBRANCH  12  14
ENDBRANCH  11  12
ENDBRANCH   9  11
ENDBRANCH   6   7
BRANCH   6  23
ATOM     23  C   UNL     1       2.123   2.152   2.537  1.00  0.00     0.191 C 
BRANCH  23  24
ATOM     24  O   UNL     1       3.383   1.816   3.119  1.00  0.00    -0.394 OA
ATOM     25  H   UNL     1       3.630   0.915   2.858  1.00  0.00     0.210 HD
ENDBRANCH  23  24
ENDBRANCH   6  23
ENDBRANCH   3   6
ENDBRANCH   1   2
BRANCH   1  26
ATOM     26  C   UNL     1       6.205   2.591  -0.220  1.00  0.00     0.023 C 
BRANCH  26  27
ATOM     27  C   UNL     1       6.864   3.785  -0.910  1.00  0.00     0.023 C 
BRANCH  27  28
ATOM     28  C   UNL     1       7.525   4.795   0.021  1.00  0.00     0.116 C 
BRANCH  28  29
ATOM     29  N   UNL     1       8.572   4.214   0.850  1.00  0.00    -0.352 N 
ATOM     30  C   UNL     1       9.839   4.691   1.094  1.00  0.00     0.251 C 
ATOM     31  H   UNL     1       8.342   3.367   1.296  1.00  0.00     0.163 HD
ATOM     32  O   UNL     1      10.647   4.029   1.733  1.00  0.00    -0.269 OA
BRANCH  30  33
ATOM     33  C   UNL     1      10.226   6.003   0.539  1.00  0.00     0.039 A 
ATOM     34  C   UNL     1      11.382   6.097  -0.241  1.00  0.00     0.014 A 
ATOM     35  C   UNL     1       9.408   7.118   0.736  1.00  0.00     0.014 A 
ATOM     36  C   UNL     1      11.670   7.293  -0.901  1.00  0.00     0.010 A 
ATOM     37  C   UNL     1       9.659   8.284   0.024  1.00  0.00     0.010 A 
ATOM     38  C   UNL     1      10.785   8.379  -0.811  1.00  0.00    -0.014 A 
BRANCH  38  39
ATOM     39  C   UNL     1      10.992   9.627  -1.586  1.00  0.00     0.031 A 
ATOM     40  C   UNL     1      11.214  10.923  -0.864  1.00  0.00     0.074 A 
ATOM     41  C   UNL     1      10.859   9.612  -2.926  1.00  0.00     0.049 A 
ATOM     42  N   UNL     1      11.233  12.143  -1.335  1.00  0.00    -0.248 NA
ATOM     43  C   UNL     1      11.400  10.835   0.592  1.00  0.00     0.031 C 
ATOM     44  C   UNL     1      10.595   8.425  -3.739  1.00  0.00     0.029 A 
ATOM     45  N   UNL     1      10.897  10.638  -3.838  1.00  0.00    -0.354 N 
ATOM     46  C   UNL     1      11.400  12.968  -0.232  1.00  0.00     0.074 A 
ATOM     47  C   UNL     1      11.435  12.113   0.936  1.00  0.00     0.031 C 
ATOM     48  C   UNL     1      10.496   8.788  -5.028  1.00  0.00     0.029 A 
ATOM     49  C   UNL     1      10.650  10.236  -5.127  1.00  0.00     0.049 A 
ATOM     50  H   UNL     1      11.084  11.573  -3.591  1.00  0.00     0.167 HD
ATOM     51  C   UNL     1      11.527  14.316  -0.197  1.00  0.00     0.037 A 
ATOM     52  C   UNL     1      10.539  10.957  -6.259  1.00  0.00     0.037 A 
ATOM     53  C   UNL     1      11.524  15.159  -1.363  1.00  0.00     0.049 A 
ATOM     54  C   UNL     1      10.710  12.450  -6.202  1.00  0.00     0.074 A 
ATOM     55  C   UNL     1      11.709  16.528  -1.441  1.00  0.00     0.029 A 
ATOM     56  N   UNL     1      11.330  14.707  -2.661  1.00  0.00    -0.354 N 
ATOM     57  N   UNL     1      10.916  13.217  -5.160  1.00  0.00    -0.248 NA
ATOM     58  C   UNL     1      10.637  13.175  -7.477  1.00  0.00     0.031 C 
ATOM     59  C   UNL     1      11.595  16.909  -2.783  1.00  0.00     0.029 A 
ATOM     60  C   UNL     1      11.380  15.772  -3.545  1.00  0.00     0.049 A 
ATOM     61  H   UNL     1      11.180  13.768  -2.915  1.00  0.00     0.167 HD
ATOM     62  C   UNL     1      11.022  14.510  -5.652  1.00  0.00     0.074 A 
ATOM     63  C   UNL     1      10.865  14.423  -7.090  1.00  0.00     0.031 C 
ATOM     64  C   UNL     1      11.231  15.665  -4.974  1.00  0.00     0.037 A 
BRANCH  51  65
ATOM     65  C   UNL     1      11.675  14.956   1.152  1.00  0.00     0.064 A 
ATOM     66  C   UNL     1      12.840  14.797   1.917  1.00  0.00     0.173 A 
ATOM     67  C   UNL     1      10.639  15.738   1.686  1.00  0.00     0.173 A 
ATOM     68  F   UNL     1      13.852  14.047   1.457  1.00  0.00    -0.203 F 
ATOM     69  C   UNL     1      12.947  15.363   3.185  1.00  0.00     0.198 A 
ATOM     70  C   UNL     1      10.762  16.328   2.942  1.00  0.00     0.198 A 
ATOM     71  F   UNL     1       9.506  15.925   0.994  1.00  0.00    -0.203 F 
ATOM     72  F   UNL     1      14.044  15.145   3.923  1.00  0.00    -0.200 F 
ATOM     73  C   UNL     1      11.911  16.131   3.694  1.00  0.00     0.200 A 
ATOM     74  F   UNL     1       9.764  17.078   3.429  1.00  0.00    -0.200 F 
ATOM     75  F   UNL     1      12.014  16.672   4.916  1.00  0.00    -0.200 F 
ENDBRANCH  51  65
BRANCH  52  76
ATOM     76  C   UNL     1      10.272  10.266  -7.545  1.00  0.00     0.064 A 
ATOM     77  C   UNL     1      11.281  10.126  -8.507  1.00  0.00     0.173 A 
ATOM     78  C   UNL     1       9.016   9.710  -7.829  1.00  0.00     0.173 A 
ATOM     79  F   UNL     1      12.492  10.659  -8.288  1.00  0.00    -0.203 F 
ATOM     80  C   UNL     1      11.042   9.463  -9.709  1.00  0.00     0.198 A 
ATOM     81  C   UNL     1       8.785   9.027  -9.021  1.00  0.00     0.198 A 
ATOM     82  F   UNL     1       8.020   9.812  -6.937  1.00  0.00    -0.203 F 
ATOM     83  F   UNL     1      12.016   9.369 -10.624  1.00  0.00    -0.200 F 
ATOM     84  C   UNL     1       9.797   8.909  -9.962  1.00  0.00     0.200 A 
ATOM     85  F   UNL     1       7.584   8.481  -9.257  1.00  0.00    -0.200 F 
ATOM     86  F   UNL     1       9.571   8.262 -11.114  1.00  0.00    -0.200 F 
ENDBRANCH  52  76
BRANCH  64  87
ATOM     87  C   UNL     1      11.341  16.925  -5.780  1.00  0.00     0.064 A 
ATOM     88  C   UNL     1      10.213  17.535  -6.347  1.00  0.00     0.173 A 
ATOM     89  C   UNL     1      12.583  17.556  -5.940  1.00  0.00     0.173 A 
ATOM     90  F   UNL     1       9.006  16.960  -6.234  1.00  0.00    -0.203 F 
ATOM     91  C   UNL     1      10.328  18.725  -7.061  1.00  0.00     0.198 A 
ATOM     92  C   UNL     1      12.691  18.758  -6.633  1.00  0.00     0.198 A 
ATOM     93  F   UNL     1      13.690  17.014  -5.411  1.00  0.00    -0.203 F 
ATOM     94  F   UNL     1       9.244  19.273  -7.626  1.00  0.00    -0.200 F 
ATOM     95  C   UNL     1      11.565  19.339  -7.196  1.00  0.00     0.200 A 
ATOM     96  F   UNL     1      13.885  19.356  -6.754  1.00  0.00    -0.200 F 
ATOM     97  F   UNL     1      11.672  20.489  -7.875  1.00  0.00    -0.200 F 
ENDBRANCH  64  87
ENDBRANCH  38  39
ENDBRANCH  30  33
ENDBRANCH  28  29
ENDBRANCH  27  28
ENDBRANCH  26  27
ENDBRANCH   1  26
TORSDOF 18
