REMARK SMILES CN(CC(=O)NCCCCNC(=O)c1ccc(-c2c3nc(c(-c4c(F)c(F)c(F)c(F)c4F)c4ccc([nH]4)c(-c4c(F)c(F)c(F)c(F)c4F)c4nc(c(-c5c(F)c(F)c(F)c(F)c5F)c5ccc2[nH]5)C=C4)C=C3)cc1)c1nc2cc(N)ccc2[nH]1
REMARK SMILES IDX 8 1 7 2 6 3 4 4 5 5 3 7 2 8 1 9 77 10 78 11 86 12 79 13
REMARK SMILES IDX 85 14 80 16 84 17 81 18 83 19 82 20 9 23 10 24 11 25 12 26
REMARK SMILES IDX 13 28 14 29 15 30 76 31 16 32 75 33 17 34 18 35 19 36 69 37
REMARK SMILES IDX 20 38 74 39 68 40 70 41 21 42 73 43 67 44 66 45 22 47 54 48
REMARK SMILES IDX 34 49 53 50 35 51 38 52 52 53 71 54 36 55 37 56 51 58 72 59
REMARK SMILES IDX 39 60 23 61 24 62 32 63 25 64 26 65 30 66 33 67 27 68 28 69
REMARK SMILES IDX 31 70 29 71 55 72 56 73 64 74 57 75 58 76 62 77 65 78 59 79
REMARK SMILES IDX 60 80 63 81 61 82 40 83 41 84 49 85 42 86 43 87 47 88 50 89
REMARK SMILES IDX 44 90 45 91 48 92 46 93
REMARK H PARENT 6 6 86 15 82 21 82 22 11 27 70 46 38 57
REMARK Flexibility Score: inf
ROOT
ATOM      1  C   UNL     1      -1.963  -0.664   1.587  1.00  0.00     0.023 C 
ENDROOT
BRANCH   1   2
ATOM      2  C   UNL     1      -2.138  -0.163   0.156  1.00  0.00     0.116 C 
BRANCH   2   3
ATOM      3  N   UNL     1      -2.524   1.226   0.084  1.00  0.00    -0.355 N 
ATOM      4  C   UNL     1      -1.759   2.294  -0.305  1.00  0.00     0.239 C 
ATOM      5  O   UNL     1      -2.330   3.372  -0.495  1.00  0.00    -0.273 OA
ATOM      6  H   UNL     1      -3.450   1.431   0.346  1.00  0.00     0.163 HD
BRANCH   4   7
ATOM      7  C   UNL     1      -0.266   2.094  -0.619  1.00  0.00     0.219 C 
BRANCH   7   8
ATOM      8  N   UNL     1       0.541   1.595   0.515  1.00  0.00    -0.336 N 
ATOM      9  C   UNL     1       1.423   0.466   0.309  1.00  0.00     0.147 C 
BRANCH   8  10
ATOM     10  C   UNL     1       0.564   2.360   1.634  1.00  0.00     0.204 A 
ATOM     11  N   UNL     1      -0.357   3.215   2.009  1.00  0.00    -0.213 NA
ATOM     12  N   UNL     1       1.622   2.382   2.511  1.00  0.00    -0.324 N 
ATOM     13  C   UNL     1       0.142   3.860   3.105  1.00  0.00     0.093 A 
ATOM     14  C   UNL     1       1.402   3.381   3.429  1.00  0.00     0.067 A 
ATOM     15  H   UNL     1       2.404   1.785   2.486  1.00  0.00     0.170 HD
ATOM     16  C   UNL     1      -0.426   4.894   3.860  1.00  0.00     0.056 A 
ATOM     17  C   UNL     1       2.162   3.902   4.476  1.00  0.00     0.030 A 
ATOM     18  C   UNL     1       0.321   5.477   4.888  1.00  0.00     0.034 A 
ATOM     19  C   UNL     1       1.586   4.961   5.198  1.00  0.00     0.028 A 
BRANCH  18  20
ATOM     20  N   UNL     1      -0.241   6.480   5.668  1.00  0.00    -0.399 N 
ATOM     21  H   UNL     1      -1.131   6.838   5.443  1.00  0.00     0.156 HD
ATOM     22  H   UNL     1       0.250   6.834   6.444  1.00  0.00     0.156 HD
ENDBRANCH  18  20
ENDBRANCH   8  10
ENDBRANCH   7   8
ENDBRANCH   4   7
ENDBRANCH   2   3
ENDBRANCH   1   2
BRANCH   1  23
ATOM     23  C   UNL     1      -3.238  -0.670   2.431  1.00  0.00     0.023 C 
BRANCH  23  24
ATOM     24  C   UNL     1      -4.432  -1.392   1.814  1.00  0.00     0.116 C 
BRANCH  24  25
ATOM     25  N   UNL     1      -4.162  -2.787   1.500  1.00  0.00    -0.352 N 
ATOM     26  C   UNL     1      -4.949  -3.896   1.710  1.00  0.00     0.251 C 
ATOM     27  H   UNL     1      -3.292  -2.962   1.075  1.00  0.00     0.163 HD
ATOM     28  O   UNL     1      -4.510  -5.014   1.484  1.00  0.00    -0.269 OA
BRANCH  26  29
ATOM     29  C   UNL     1      -6.317  -3.734   2.250  1.00  0.00     0.039 A 
ATOM     30  C   UNL     1      -6.729  -4.568   3.294  1.00  0.00     0.014 A 
ATOM     31  C   UNL     1      -7.185  -2.762   1.746  1.00  0.00     0.014 A 
ATOM     32  C   UNL     1      -7.983  -4.377   3.879  1.00  0.00     0.010 A 
ATOM     33  C   UNL     1      -8.402  -2.525   2.378  1.00  0.00     0.010 A 
ATOM     34  C   UNL     1      -8.813  -3.327   3.454  1.00  0.00    -0.014 A 
BRANCH  34  35
ATOM     35  C   UNL     1     -10.106  -3.047   4.131  1.00  0.00     0.031 A 
ATOM     36  C   UNL     1     -11.401  -3.174   3.378  1.00  0.00     0.074 A 
ATOM     37  C   UNL     1     -10.108  -2.617   5.409  1.00  0.00     0.049 A 
ATOM     38  N   UNL     1     -12.621  -2.912   3.778  1.00  0.00    -0.248 NA
ATOM     39  C   UNL     1     -11.314  -3.631   1.983  1.00  0.00     0.031 C 
ATOM     40  C   UNL     1      -8.917  -2.405   6.232  1.00  0.00     0.029 A 
ATOM     41  N   UNL     1     -11.148  -2.268   6.236  1.00  0.00    -0.354 N 
ATOM     42  C   UNL     1     -13.439  -3.159   2.684  1.00  0.00     0.074 A 
ATOM     43  C   UNL     1     -12.575  -3.541   1.587  1.00  0.00     0.031 C 
ATOM     44  C   UNL     1      -9.292  -1.983   7.450  1.00  0.00     0.029 A 
ATOM     45  C   UNL     1     -10.745  -1.855   7.483  1.00  0.00     0.049 A 
ATOM     46  H   UNL     1     -12.092  -2.309   5.961  1.00  0.00     0.167 HD
ATOM     47  C   UNL     1     -14.790  -3.095   2.607  1.00  0.00     0.037 A 
ATOM     48  C   UNL     1     -11.466  -1.413   8.531  1.00  0.00     0.037 A 
ATOM     49  C   UNL     1     -15.648  -2.737   3.706  1.00  0.00     0.049 A 
ATOM     50  C   UNL     1     -12.966  -1.343   8.414  1.00  0.00     0.074 A 
ATOM     51  C   UNL     1     -17.031  -2.705   3.744  1.00  0.00     0.029 A 
ATOM     52  N   UNL     1     -15.205  -2.343   4.960  1.00  0.00    -0.354 N 
ATOM     53  N   UNL     1     -13.733  -1.655   7.398  1.00  0.00    -0.248 NA
ATOM     54  C   UNL     1     -13.701  -0.866   9.595  1.00  0.00     0.031 C 
ATOM     55  C   UNL     1     -17.424  -2.240   5.003  1.00  0.00     0.029 A 
ATOM     56  C   UNL     1     -16.288  -2.041   5.770  1.00  0.00     0.049 A 
ATOM     57  H   UNL     1     -14.261  -2.286   5.233  1.00  0.00     0.167 HD
ATOM     58  C   UNL     1     -15.037  -1.443   7.825  1.00  0.00     0.074 A 
ATOM     59  C   UNL     1     -14.959  -0.993   9.199  1.00  0.00     0.031 C 
ATOM     60  C   UNL     1     -16.196  -1.605   7.141  1.00  0.00     0.037 A 
BRANCH  47  61
ATOM     61  C   UNL     1     -15.431  -3.425   1.290  1.00  0.00     0.064 A 
ATOM     62  C   UNL     1     -15.442  -4.734   0.783  1.00  0.00     0.173 A 
ATOM     63  C   UNL     1     -16.092  -2.432   0.551  1.00  0.00     0.173 A 
ATOM     64  F   UNL     1     -14.817  -5.720   1.445  1.00  0.00    -0.203 F 
ATOM     65  C   UNL     1     -16.069  -5.030  -0.424  1.00  0.00     0.198 A 
ATOM     66  C   UNL     1     -16.745  -2.738  -0.640  1.00  0.00     0.198 A 
ATOM     67  F   UNL     1     -16.118  -1.165   0.992  1.00  0.00    -0.203 F 
ATOM     68  F   UNL     1     -16.028  -6.279  -0.909  1.00  0.00    -0.200 F 
ATOM     69  C   UNL     1     -16.727  -4.035  -1.130  1.00  0.00     0.200 A 
ATOM     70  F   UNL     1     -17.394  -1.778  -1.313  1.00  0.00    -0.200 F 
ATOM     71  F   UNL     1     -17.342  -4.325  -2.285  1.00  0.00    -0.200 F 
ENDBRANCH  47  61
BRANCH  48  72
ATOM     72  C   UNL     1     -10.785  -1.013   9.792  1.00  0.00     0.064 A 
ATOM     73  C   UNL     1     -10.949  -1.758  10.968  1.00  0.00     0.173 A 
ATOM     74  C   UNL     1      -9.978   0.132   9.854  1.00  0.00     0.173 A 
ATOM     75  F   UNL     1     -11.729  -2.849  10.966  1.00  0.00    -0.203 F 
ATOM     76  C   UNL     1     -10.357  -1.357  12.164  1.00  0.00     0.198 A 
ATOM     77  C   UNL     1      -9.359   0.514  11.043  1.00  0.00     0.198 A 
ATOM     78  F   UNL     1      -9.784   0.879   8.757  1.00  0.00    -0.203 F 
ATOM     79  F   UNL     1     -10.578  -2.056  13.286  1.00  0.00    -0.200 F 
ATOM     80  C   UNL     1      -9.558  -0.225  12.199  1.00  0.00     0.200 A 
ATOM     81  F   UNL     1      -8.576   1.601  11.069  1.00  0.00    -0.200 F 
ATOM     82  F   UNL     1      -8.989   0.161  13.350  1.00  0.00    -0.200 F 
ENDBRANCH  48  72
BRANCH  60  83
ATOM     83  C   UNL     1     -17.477  -1.338   7.878  1.00  0.00     0.064 A 
ATOM     84  C   UNL     1     -17.865  -0.039   8.239  1.00  0.00     0.173 A 
ATOM     85  C   UNL     1     -18.346  -2.394   8.193  1.00  0.00     0.173 A 
ATOM     86  F   UNL     1     -17.063   1.004   7.973  1.00  0.00    -0.203 F 
ATOM     87  C   UNL     1     -19.061   0.189   8.915  1.00  0.00     0.198 A 
ATOM     88  C   UNL     1     -19.557  -2.158   8.838  1.00  0.00     0.198 A 
ATOM     89  F   UNL     1     -18.027  -3.654   7.863  1.00  0.00    -0.203 F 
ATOM     90  F   UNL     1     -19.385   1.432   9.297  1.00  0.00    -0.200 F 
ATOM     91  C   UNL     1     -19.909  -0.869   9.206  1.00  0.00     0.200 A 
ATOM     92  F   UNL     1     -20.383  -3.180   9.105  1.00  0.00    -0.200 F 
ATOM     93  F   UNL     1     -21.064  -0.646   9.849  1.00  0.00    -0.200 F 
ENDBRANCH  60  83
ENDBRANCH  34  35
ENDBRANCH  26  29
ENDBRANCH  24  25
ENDBRANCH  23  24
ENDBRANCH   1  23
TORSDOF 14
