REMARK SMILES O=C(NCCCCNC(=O)c1cc(NC(=S)NC(=O)c2ccccc2F)ccc1Cl)c1ccc(-c2c3nc(c(-c4c(F)c(F)c(F)c(F)c4F)c4ccc([nH]4)c(-c4c(F)c(F)c(F)c(F)c4F)c4nc(c(-c5c(F)c(F)c(F)c(F)c5F)c5ccc2[nH]5)C=C4)C=C3)cc1
REMARK SMILES IDX 6 1 5 2 4 3 3 4 1 5 2 6 31 8 32 9 93 10 33 11 92 12 34 13
REMARK SMILES IDX 35 14 36 15 86 16 37 17 91 18 85 19 87 20 38 21 90 22 84 23
REMARK SMILES IDX 83 24 39 26 71 27 51 28 70 29 52 30 55 31 69 32 88 33 53 34
REMARK SMILES IDX 54 35 68 37 89 38 56 39 40 40 41 41 49 42 42 43 43 44 47 45
REMARK SMILES IDX 50 46 44 47 45 48 48 49 46 50 72 51 73 52 81 53 74 54 75 55
REMARK SMILES IDX 79 56 82 57 76 58 77 59 80 60 78 61 57 62 58 63 66 64 59 65
REMARK SMILES IDX 60 66 64 67 67 68 61 69 62 70 65 71 63 72 7 73 8 74 9 75
REMARK SMILES IDX 10 77 11 78 12 79 29 80 13 81 28 82 30 83 27 84 14 85 15 87
REMARK SMILES IDX 16 88 17 89 18 90 19 92 20 93 21 94 25 95 22 96 24 97 26 98
REMARK SMILES IDX 23 99
REMARK H PARENT 3 7 87 25 55 36 8 76 14 86 17 91
REMARK Flexibility Score: inf
ROOT
ATOM      1  C   UNL     1       4.202  -0.306  -3.698  1.00  0.00     0.023 C 
ENDROOT
BRANCH   1   2
ATOM      2  C   UNL     1       4.803  -0.809  -2.388  1.00  0.00     0.023 C 
BRANCH   2   3
ATOM      3  C   UNL     1       4.504   0.075  -1.191  1.00  0.00     0.116 C 
BRANCH   3   4
ATOM      4  N   UNL     1       3.076   0.297  -0.997  1.00  0.00    -0.352 N 
ATOM      5  O   UNL     1       1.101   0.182   0.103  1.00  0.00    -0.269 OA
ATOM      6  C   UNL     1       2.322   0.084   0.129  1.00  0.00     0.251 C 
ATOM      7  H   UNL     1       2.588   0.645  -1.778  1.00  0.00     0.163 HD
BRANCH   6   8
ATOM      8  C   UNL     1       3.024  -0.303   1.363  1.00  0.00     0.039 A 
ATOM      9  C   UNL     1       4.164   0.403   1.749  1.00  0.00     0.014 A 
ATOM     10  C   UNL     1       2.603  -1.431   2.068  1.00  0.00     0.014 A 
ATOM     11  C   UNL     1       4.988  -0.130   2.724  1.00  0.00     0.010 A 
ATOM     12  C   UNL     1       3.365  -1.883   3.145  1.00  0.00     0.010 A 
ATOM     13  C   UNL     1       4.579  -1.253   3.462  1.00  0.00    -0.014 A 
BRANCH  13  14
ATOM     14  C   UNL     1       5.399  -1.673   4.623  1.00  0.00     0.031 A 
ATOM     15  C   UNL     1       6.032  -3.032   4.694  1.00  0.00     0.074 A 
ATOM     16  C   UNL     1       5.597  -0.771   5.606  1.00  0.00     0.049 A 
ATOM     17  N   UNL     1       6.788  -3.532   5.640  1.00  0.00    -0.248 NA
ATOM     18  C   UNL     1       5.789  -3.955   3.575  1.00  0.00     0.031 C 
ATOM     19  C   UNL     1       5.026   0.579   5.634  1.00  0.00     0.029 A 
ATOM     20  N   UNL     1       6.351  -0.831   6.748  1.00  0.00    -0.354 N 
ATOM     21  C   UNL     1       7.103  -4.822   5.236  1.00  0.00     0.074 A 
ATOM     22  C   UNL     1       6.429  -5.047   3.976  1.00  0.00     0.031 C 
ATOM     23  C   UNL     1       5.507   1.242   6.692  1.00  0.00     0.029 A 
ATOM     24  C   UNL     1       6.339   0.337   7.472  1.00  0.00     0.049 A 
ATOM     25  H   UNL     1       6.852  -1.632   7.024  1.00  0.00     0.167 HD
ATOM     26  C   UNL     1       7.897  -5.723   5.861  1.00  0.00     0.037 A 
ATOM     27  C   UNL     1       6.913   0.643   8.649  1.00  0.00     0.037 A 
ATOM     28  C   UNL     1       8.572  -5.479   7.112  1.00  0.00     0.049 A 
ATOM     29  C   UNL     1       7.730  -0.407   9.343  1.00  0.00     0.074 A 
ATOM     30  C   UNL     1       9.411  -6.327   7.814  1.00  0.00     0.029 A 
ATOM     31  N   UNL     1       8.488  -4.304   7.846  1.00  0.00    -0.354 N 
ATOM     32  N   UNL     1       8.039  -1.614   8.938  1.00  0.00    -0.248 NA
ATOM     33  C   UNL     1       8.276  -0.054  10.659  1.00  0.00     0.031 C 
ATOM     34  C   UNL     1       9.781  -5.693   9.001  1.00  0.00     0.029 A 
ATOM     35  C   UNL     1       9.237  -4.419   9.006  1.00  0.00     0.049 A 
ATOM     36  H   UNL     1       7.972  -3.508   7.582  1.00  0.00     0.167 HD
ATOM     37  C   UNL     1       8.838  -2.155   9.934  1.00  0.00     0.074 A 
ATOM     38  C   UNL     1       8.986  -1.134  10.950  1.00  0.00     0.031 C 
ATOM     39  C   UNL     1       9.391  -3.389  10.003  1.00  0.00     0.037 A 
BRANCH  26  40
ATOM     40  C   UNL     1       8.103  -7.066   5.220  1.00  0.00     0.064 A 
ATOM     41  C   UNL     1       7.618  -8.230   5.838  1.00  0.00     0.173 A 
ATOM     42  C   UNL     1       8.899  -7.216   4.075  1.00  0.00     0.173 A 
ATOM     43  F   UNL     1       6.859  -8.144   6.941  1.00  0.00    -0.203 F 
ATOM     44  C   UNL     1       7.954  -9.492   5.356  1.00  0.00     0.198 A 
ATOM     45  C   UNL     1       9.208  -8.480   3.578  1.00  0.00     0.198 A 
ATOM     46  F   UNL     1       9.380  -6.136   3.441  1.00  0.00    -0.203 F 
ATOM     47  F   UNL     1       7.527 -10.589   5.998  1.00  0.00    -0.200 F 
ATOM     48  C   UNL     1       8.749  -9.616   4.228  1.00  0.00     0.200 A 
ATOM     49  F   UNL     1       9.962  -8.598   2.476  1.00  0.00    -0.200 F 
ATOM     50  F   UNL     1       9.080 -10.832   3.770  1.00  0.00    -0.200 F 
ENDBRANCH  26  40
BRANCH  27  51
ATOM     51  C   UNL     1       6.725   1.994   9.238  1.00  0.00     0.064 A 
ATOM     52  C   UNL     1       5.459   2.451   9.638  1.00  0.00     0.173 A 
ATOM     53  C   UNL     1       7.812   2.862   9.409  1.00  0.00     0.173 A 
ATOM     54  F   UNL     1       4.382   1.665   9.489  1.00  0.00    -0.203 F 
ATOM     55  C   UNL     1       5.286   3.726  10.169  1.00  0.00     0.198 A 
ATOM     56  C   UNL     1       7.645   4.122   9.980  1.00  0.00     0.198 A 
ATOM     57  F   UNL     1       9.045   2.469   9.055  1.00  0.00    -0.203 F 
ATOM     58  F   UNL     1       4.060   4.150  10.502  1.00  0.00    -0.200 F 
ATOM     59  C   UNL     1       6.381   4.556  10.351  1.00  0.00     0.200 A 
ATOM     60  F   UNL     1       8.710   4.908  10.183  1.00  0.00    -0.200 F 
ATOM     61  F   UNL     1       6.220   5.771  10.892  1.00  0.00    -0.200 F 
ENDBRANCH  27  51
BRANCH  39  62
ATOM     62  C   UNL     1      10.247  -3.700  11.197  1.00  0.00     0.064 A 
ATOM     63  C   UNL     1      11.626  -3.918  11.044  1.00  0.00     0.173 A 
ATOM     64  C   UNL     1       9.699  -3.846  12.480  1.00  0.00     0.173 A 
ATOM     65  F   UNL     1      12.200  -3.799   9.837  1.00  0.00    -0.203 F 
ATOM     66  C   UNL     1      12.418  -4.288  12.126  1.00  0.00     0.198 A 
ATOM     67  C   UNL     1      10.502  -4.176  13.568  1.00  0.00     0.198 A 
ATOM     68  F   UNL     1       8.389  -3.635  12.683  1.00  0.00    -0.203 F 
ATOM     69  F   UNL     1      13.723  -4.534  11.945  1.00  0.00    -0.200 F 
ATOM     70  C   UNL     1      11.857  -4.409  13.388  1.00  0.00     0.200 A 
ATOM     71  F   UNL     1       9.965  -4.261  14.792  1.00  0.00    -0.200 F 
ATOM     72  F   UNL     1      12.625  -4.747  14.433  1.00  0.00    -0.200 F 
ENDBRANCH  39  62
ENDBRANCH  13  14
ENDBRANCH   6   8
ENDBRANCH   3   4
ENDBRANCH   2   3
ENDBRANCH   1   2
BRANCH   1  73
ATOM     73  C   UNL     1       4.401   1.190  -3.933  1.00  0.00     0.116 C 
BRANCH  73  74
ATOM     74  N   UNL     1       5.804   1.537  -3.917  1.00  0.00    -0.352 N 
ATOM     75  C   UNL     1       6.607   2.050  -4.891  1.00  0.00     0.252 C 
ATOM     76  H   UNL     1       6.255   1.375  -3.058  1.00  0.00     0.163 HD
ATOM     77  O   UNL     1       7.760   2.344  -4.587  1.00  0.00    -0.269 OA
BRANCH  75  78
ATOM     78  C   UNL     1       6.066   2.340  -6.286  1.00  0.00     0.060 A 
ATOM     79  C   UNL     1       6.326   1.593  -8.140  1.00  0.00     0.041 A 
ATOM     80  C   UNL     1       5.136   3.898  -6.210  1.00  0.00     0.053 A 
ATOM     81  C   UNL     1       5.853   2.414  -9.551  1.00  0.00     0.041 A 
ATOM     82  C   UNL     1       4.581   4.620  -7.748  1.00  0.00     0.023 A 
ATOM     83  Cl  UNL     1       4.779   4.710  -4.739  1.00  0.00    -0.083 Cl
ATOM     84  C   UNL     1       4.946   3.900  -9.358  1.00  0.00     0.028 A 
BRANCH  81  85
ATOM     85  N   UNL     1       6.623   1.954 -10.631  1.00  0.00    -0.332 N 
ATOM     86  H   UNL     1       6.362   2.312 -11.511  1.00  0.00     0.169 HD
BRANCH  85  87
ATOM     87  C   UNL     1       7.694   1.074 -10.650  1.00  0.00     0.177 C 
ATOM     88  S   UNL     1       8.214   0.581 -12.173  1.00  0.00    -0.040 S 
BRANCH  87  89
ATOM     89  N   UNL     1       8.438   0.528  -9.540  1.00  0.00    -0.299 N 
ATOM     90  C   UNL     1       8.767   0.304  -8.085  1.00  0.00     0.260 C 
ATOM     91  H   UNL     1       9.130  -0.005  -9.995  1.00  0.00     0.172 HD
ATOM     92  O   UNL     1       9.694  -0.445  -7.790  1.00  0.00    -0.269 OA
BRANCH  90  93
ATOM     93  C   UNL     1       7.965   0.963  -6.972  1.00  0.00     0.075 A 
ATOM     94  C   UNL     1       7.995   2.661  -7.399  1.00  0.00     0.017 A 
ATOM     95  C   UNL     1       6.445   0.051  -6.647  1.00  0.00     0.135 A 
ATOM     96  C   UNL     1       6.453   3.445  -7.788  1.00  0.00     0.001 A 
ATOM     97  C   UNL     1       4.823   0.704  -7.010  1.00  0.00     0.040 A 
ATOM     98  F   UNL     1       6.527  -1.286  -6.551  1.00  0.00    -0.206 F 
ATOM     99  C   UNL     1       4.725   2.400  -7.644  1.00  0.00     0.003 A 
ENDBRANCH  90  93
ENDBRANCH  87  89
ENDBRANCH  85  87
ENDBRANCH  81  85
ENDBRANCH  75  78
ENDBRANCH  73  74
ENDBRANCH   1  73
TORSDOF 15
