REMARK SMILES C[C@H](O)[C@H](C)[N@H+](CCC(=O)NCCCCNC(=O)c1ccc(-c2c3nc(c(-c4c(F)c(F)c(F)c(F)c4F)c4ccc([nH]4)c(-c4c(F)c(F)c(F)c(F)c4F)c4nc(c(-c5c(F)c(F)c(F)c(F)c5F)c5ccc2[nH]5)C=C4)C=C3)cc1)C1CC1
REMARK SMILES IDX 12 1 11 2 9 3 10 4 8 6 7 7 6 8 4 10 5 11 2 12 1 13 3 14
REMARK SMILES IDX 82 16 83 17 84 18 13 19 14 20 15 21 16 22 17 23 18 25 19 26
REMARK SMILES IDX 20 27 81 28 21 29 80 30 22 31 23 32 24 33 74 34 25 35 79 36
REMARK SMILES IDX 73 37 75 38 26 39 78 40 72 41 71 42 27 44 59 45 39 46 58 47
REMARK SMILES IDX 40 48 43 49 57 50 76 51 41 52 42 53 56 55 77 56 44 57 28 58
REMARK SMILES IDX 29 59 37 60 30 61 31 62 35 63 38 64 32 65 33 66 36 67 34 68
REMARK SMILES IDX 60 69 61 70 69 71 62 72 63 73 67 74 70 75 64 76 65 77 68 78
REMARK SMILES IDX 66 79 45 80 46 81 54 82 47 83 48 84 52 85 55 86 49 87 50 88
REMARK SMILES IDX 53 89 51 90
REMARK H PARENT 11 5 6 9 3 15 16 24 75 43 43 54
REMARK Flexibility Score: inf
ROOT
ATOM      1  C   UNL     1      -1.107   1.690   3.820  1.00  0.00     0.116 C 
ENDROOT
BRANCH   1   2
ATOM      2  N   UNL     1      -1.866   2.912   4.010  1.00  0.00    -0.356 N 
ATOM      3  C   UNL     1      -3.006   3.357   3.407  1.00  0.00     0.225 C 
ATOM      4  O   UNL     1      -3.482   4.427   3.794  1.00  0.00    -0.275 OA
ATOM      5  H   UNL     1      -1.496   3.523   4.688  1.00  0.00     0.163 HD
BRANCH   3   6
ATOM      6  C   UNL     1      -3.689   2.542   2.338  1.00  0.00     0.161 C 
BRANCH   6   7
ATOM      7  C   UNL     1      -3.270   2.829   0.889  1.00  0.00     0.272 C 
BRANCH   7   8
ATOM      8  N   UNL     1      -1.853   2.711   0.528  1.00  0.00    -0.328 N 
ATOM      9  H   UNL     1      -0.988   2.245   0.801  1.00  0.00     0.348 HD
BRANCH   8  10
ATOM     10  C   UNL     1      -1.437   1.528  -0.259  1.00  0.00     0.209 C 
ATOM     11  C   UNL     1       0.020   1.577  -0.765  1.00  0.00     0.078 C 
BRANCH  10  12
ATOM     12  C   UNL     1      -1.626   0.108   0.413  1.00  0.00     0.169 C 
ATOM     13  C   UNL     1      -1.785  -1.011  -0.618  1.00  0.00     0.045 C 
BRANCH  12  14
ATOM     14  O   UNL     1      -2.792  -0.003   1.223  1.00  0.00    -0.387 OA
ATOM     15  H   UNL     1      -3.582   0.089   0.667  1.00  0.00     0.211 HD
ENDBRANCH  12  14
ENDBRANCH  10  12
ENDBRANCH   8  10
BRANCH   8  16
ATOM     16  C   UNL     1      -1.009   3.850   0.895  1.00  0.00     0.184 C 
ATOM     17  C   UNL     1      -0.051   4.602   0.018  1.00  0.00     0.071 C 
ATOM     18  C   UNL     1      -1.344   5.240   0.407  1.00  0.00     0.071 C 
ENDBRANCH   8  16
ENDBRANCH   7   8
ENDBRANCH   6   7
ENDBRANCH   3   6
ENDBRANCH   1   2
BRANCH   1  19
ATOM     19  C   UNL     1       0.320   1.881   3.292  1.00  0.00     0.023 C 
BRANCH  19  20
ATOM     20  C   UNL     1       1.067   3.095   3.853  1.00  0.00     0.023 C 
BRANCH  20  21
ATOM     21  C   UNL     1       2.524   2.785   4.121  1.00  0.00     0.116 C 
BRANCH  21  22
ATOM     22  N   UNL     1       3.299   2.348   2.969  1.00  0.00    -0.352 N 
ATOM     23  C   UNL     1       4.663   2.129   2.934  1.00  0.00     0.251 C 
ATOM     24  H   UNL     1       2.803   2.194   2.132  1.00  0.00     0.163 HD
ATOM     25  O   UNL     1       5.242   1.849   1.891  1.00  0.00    -0.269 OA
BRANCH  23  26
ATOM     26  C   UNL     1       5.426   2.317   4.189  1.00  0.00     0.039 A 
ATOM     27  C   UNL     1       6.521   3.182   4.209  1.00  0.00     0.014 A 
ATOM     28  C   UNL     1       4.959   1.748   5.373  1.00  0.00     0.014 A 
ATOM     29  C   UNL     1       7.075   3.555   5.436  1.00  0.00     0.010 A 
ATOM     30  C   UNL     1       5.402   2.241   6.589  1.00  0.00     0.010 A 
ATOM     31  C   UNL     1       6.481   3.133   6.638  1.00  0.00    -0.014 A 
BRANCH  31  32
ATOM     32  C   UNL     1       6.992   3.566   7.963  1.00  0.00     0.031 A 
ATOM     33  C   UNL     1       7.438   2.526   8.958  1.00  0.00     0.074 A 
ATOM     34  C   UNL     1       6.978   4.870   8.300  1.00  0.00     0.049 A 
ATOM     35  N   UNL     1       7.833   2.675  10.197  1.00  0.00    -0.248 NA
ATOM     36  C   UNL     1       7.375   1.120   8.521  1.00  0.00     0.031 C 
ATOM     37  C   UNL     1       6.487   5.962   7.457  1.00  0.00     0.029 A 
ATOM     38  N   UNL     1       7.390   5.501   9.447  1.00  0.00    -0.354 N 
ATOM     39  C   UNL     1       8.020   1.388  10.687  1.00  0.00     0.074 A 
ATOM     40  C   UNL     1       7.614   0.472   9.648  1.00  0.00     0.031 C 
ATOM     41  C   UNL     1       6.678   7.130   8.090  1.00  0.00     0.029 A 
ATOM     42  C   UNL     1       7.274   6.870   9.396  1.00  0.00     0.049 A 
ATOM     43  H   UNL     1       7.737   5.019  10.232  1.00  0.00     0.167 HD
ATOM     44  C   UNL     1       8.530   1.002  11.880  1.00  0.00     0.037 A 
ATOM     45  C   UNL     1       7.628   7.803  10.300  1.00  0.00     0.037 A 
ATOM     46  C   UNL     1       9.004   1.924  12.876  1.00  0.00     0.049 A 
ATOM     47  C   UNL     1       8.257   7.355  11.592  1.00  0.00     0.074 A 
ATOM     48  C   UNL     1       9.622   1.653  14.082  1.00  0.00     0.029 A 
ATOM     49  N   UNL     1       8.922   3.305  12.764  1.00  0.00    -0.354 N 
ATOM     50  N   UNL     1       8.507   6.138  12.013  1.00  0.00    -0.248 NA
ATOM     51  C   UNL     1       8.664   8.410  12.529  1.00  0.00     0.031 C 
ATOM     52  C   UNL     1       9.887   2.872  14.715  1.00  0.00     0.029 A 
ATOM     53  C   UNL     1       9.472   3.902  13.884  1.00  0.00     0.049 A 
ATOM     54  H   UNL     1       8.531   3.788  12.001  1.00  0.00     0.167 HD
ATOM     55  C   UNL     1       9.129   6.280  13.246  1.00  0.00     0.074 A 
ATOM     56  C   UNL     1       9.230   7.704  13.497  1.00  0.00     0.031 C 
ATOM     57  C   UNL     1       9.574   5.323  14.096  1.00  0.00     0.037 A 
BRANCH  44  58
ATOM     58  C   UNL     1       8.619  -0.473  12.149  1.00  0.00     0.064 A 
ATOM     59  C   UNL     1       9.487  -1.306  11.424  1.00  0.00     0.173 A 
ATOM     60  C   UNL     1       7.818  -1.067  13.136  1.00  0.00     0.173 A 
ATOM     61  F   UNL     1      10.264  -0.793  10.457  1.00  0.00    -0.203 F 
ATOM     62  C   UNL     1       9.513  -2.681  11.641  1.00  0.00     0.198 A 
ATOM     63  C   UNL     1       7.873  -2.438  13.376  1.00  0.00     0.198 A 
ATOM     64  F   UNL     1       6.973  -0.321  13.862  1.00  0.00    -0.203 F 
ATOM     65  F   UNL     1      10.293  -3.462  10.882  1.00  0.00    -0.200 F 
ATOM     66  C   UNL     1       8.710  -3.245  12.619  1.00  0.00     0.200 A 
ATOM     67  F   UNL     1       7.105  -2.982  14.329  1.00  0.00    -0.200 F 
ATOM     68  F   UNL     1       8.733  -4.570  12.825  1.00  0.00    -0.200 F 
ENDBRANCH  44  58
BRANCH  45  69
ATOM     69  C   UNL     1       7.468   9.248   9.986  1.00  0.00     0.064 A 
ATOM     70  C   UNL     1       8.591  10.055   9.749  1.00  0.00     0.173 A 
ATOM     71  C   UNL     1       6.206   9.853   9.914  1.00  0.00     0.173 A 
ATOM     72  F   UNL     1       9.822   9.527   9.823  1.00  0.00    -0.203 F 
ATOM     73  C   UNL     1       8.458  11.415   9.475  1.00  0.00     0.198 A 
ATOM     74  C   UNL     1       6.073  11.208   9.613  1.00  0.00     0.198 A 
ATOM     75  F   UNL     1       5.099   9.125  10.124  1.00  0.00    -0.203 F 
ATOM     76  F   UNL     1       9.551  12.170   9.296  1.00  0.00    -0.200 F 
ATOM     77  C   UNL     1       7.199  11.990   9.402  1.00  0.00     0.200 A 
ATOM     78  F   UNL     1       4.853  11.758   9.530  1.00  0.00    -0.200 F 
ATOM     79  F   UNL     1       7.071  13.296   9.135  1.00  0.00    -0.200 F 
ENDBRANCH  45  69
BRANCH  57  80
ATOM     80  C   UNL     1      10.248   5.786  15.353  1.00  0.00     0.064 A 
ATOM     81  C   UNL     1       9.522   6.357  16.408  1.00  0.00     0.173 A 
ATOM     82  C   UNL     1      11.630   5.616  15.517  1.00  0.00     0.173 A 
ATOM     83  F   UNL     1       8.200   6.552  16.291  1.00  0.00    -0.203 F 
ATOM     84  C   UNL     1      10.162   6.766  17.574  1.00  0.00     0.198 A 
ATOM     85  C   UNL     1      12.262   5.998  16.696  1.00  0.00     0.198 A 
ATOM     86  F   UNL     1      12.366   5.066  14.539  1.00  0.00    -0.203 F 
ATOM     87  F   UNL     1       9.458   7.354  18.551  1.00  0.00    -0.200 F 
ATOM     88  C   UNL     1      11.529   6.580  17.720  1.00  0.00     0.200 A 
ATOM     89  F   UNL     1      13.580   5.805  16.842  1.00  0.00    -0.200 F 
ATOM     90  F   UNL     1      12.142   6.969  18.846  1.00  0.00    -0.200 F 
ENDBRANCH  57  80
ENDBRANCH  31  32
ENDBRANCH  23  26
ENDBRANCH  21  22
ENDBRANCH  20  21
ENDBRANCH  19  20
ENDBRANCH   1  19
TORSDOF 17
