REMARK SMILES O=C(C[C@H]1CN(S(=O)(=O)c2cc(F)cc(F)c2)CCO1)NCCCCNC(=O)c1ccc(-c2c3nc(c(-c4c(F)c(F)c(F)c(F)c4F)c4ccc([nH]4)c(-c4c(F)c(F)c(F)c(F)c4F)c4nc(c(-c5c(F)c(F)c(F)c(F)c5F)c5ccc2[nH]5)C=C4)C=C3)cc1
REMARK SMILES IDX 23 1 22 2 21 3 1 4 2 5 3 7 4 8 5 9 20 10 6 11 19 12 18 13
REMARK SMILES IDX 7 14 8 15 9 16 10 17 11 18 17 19 12 20 15 21 13 22 14 23
REMARK SMILES IDX 16 24 24 25 25 26 26 27 27 28 28 30 29 31 30 32 91 33 31 34
REMARK SMILES IDX 90 35 32 36 33 37 34 38 84 39 35 40 89 41 83 42 85 43 36 44
REMARK SMILES IDX 88 45 82 46 81 47 37 49 69 50 49 51 68 52 50 53 53 54 67 55
REMARK SMILES IDX 86 56 51 57 52 58 66 60 87 61 54 62 38 63 39 64 47 65 40 66
REMARK SMILES IDX 41 67 45 68 48 69 42 70 43 71 46 72 44 73 70 74 71 75 79 76
REMARK SMILES IDX 72 77 73 78 77 79 80 80 74 81 75 82 78 83 76 84 55 85 56 86
REMARK SMILES IDX 64 87 57 88 58 89 62 90 65 91 59 92 60 93 63 94 61 95
REMARK H PARENT 21 6 26 29 85 48 53 59
REMARK Flexibility Score: inf
ROOT
ATOM      1  C   UNL     1       7.013   1.346  -3.434  1.00  0.00     0.023 C 
ENDROOT
BRANCH   1   2
ATOM      2  C   UNL     1       7.185   0.030  -2.676  1.00  0.00     0.116 C 
BRANCH   2   3
ATOM      3  N   UNL     1       6.127  -0.266  -1.735  1.00  0.00    -0.356 N 
ATOM      4  O   UNL     1       4.481  -0.518  -3.298  1.00  0.00    -0.275 OA
ATOM      5  C   UNL     1       4.863  -0.619  -2.135  1.00  0.00     0.222 C 
ATOM      6  H   UNL     1       6.322  -0.213  -0.772  1.00  0.00     0.163 HD
BRANCH   5   7
ATOM      7  C   UNL     1       3.901  -0.977  -1.017  1.00  0.00     0.133 C 
BRANCH   7   8
ATOM      8  C   UNL     1       4.372  -1.801   0.198  1.00  0.00     0.142 C 
ATOM      9  C   UNL     1       3.585  -3.112   0.466  1.00  0.00     0.135 C 
ATOM     10  O   UNL     1       5.793  -1.938   0.356  1.00  0.00    -0.375 OA
ATOM     11  N   UNL     1       4.173  -4.334  -0.157  1.00  0.00    -0.193 NA
ATOM     12  C   UNL     1       6.339  -3.115  -0.264  1.00  0.00     0.177 C 
ATOM     13  C   UNL     1       5.631  -4.388   0.203  1.00  0.00     0.131 C 
BRANCH  11  14
ATOM     14  S   UNL     1       3.866  -4.705  -1.792  1.00  0.00     0.243 S 
ATOM     15  O   UNL     1       4.104  -3.503  -2.570  1.00  0.00    -0.207 OA
ATOM     16  O   UNL     1       4.582  -5.917  -2.088  1.00  0.00    -0.207 OA
BRANCH  14  17
ATOM     17  C   UNL     1       2.133  -5.068  -1.928  1.00  0.00     0.088 A 
ATOM     18  C   UNL     1       1.179  -4.058  -1.794  1.00  0.00     0.061 A 
ATOM     19  C   UNL     1       1.738  -6.345  -2.343  1.00  0.00     0.061 A 
ATOM     20  C   UNL     1      -0.165  -4.350  -2.002  1.00  0.00     0.127 A 
ATOM     21  C   UNL     1       0.390  -6.596  -2.585  1.00  0.00     0.127 A 
ATOM     22  F   UNL     1      -1.077  -3.384  -1.831  1.00  0.00    -0.207 F 
ATOM     23  C   UNL     1      -0.572  -5.613  -2.403  1.00  0.00     0.078 A 
ATOM     24  F   UNL     1       0.017  -7.805  -3.025  1.00  0.00    -0.207 F 
ENDBRANCH  14  17
ENDBRANCH  11  14
ENDBRANCH   7   8
ENDBRANCH   5   7
ENDBRANCH   2   3
ENDBRANCH   1   2
BRANCH   1  25
ATOM     25  C   UNL     1       6.700   2.569  -2.571  1.00  0.00     0.023 C 
BRANCH  25  26
ATOM     26  C   UNL     1       7.614   2.789  -1.372  1.00  0.00     0.116 C 
BRANCH  26  27
ATOM     27  N   UNL     1       9.006   2.987  -1.739  1.00  0.00    -0.352 N 
ATOM     28  C   UNL     1       9.903   3.922  -1.282  1.00  0.00     0.251 C 
ATOM     29  H   UNL     1       9.357   2.361  -2.412  1.00  0.00     0.163 HD
ATOM     30  O   UNL     1      11.022   3.998  -1.780  1.00  0.00    -0.269 OA
BRANCH  28  31
ATOM     31  C   UNL     1       9.513   4.870  -0.214  1.00  0.00     0.039 A 
ATOM     32  C   UNL     1       9.801   6.227  -0.390  1.00  0.00     0.014 A 
ATOM     33  C   UNL     1       8.876   4.434   0.951  1.00  0.00     0.014 A 
ATOM     34  C   UNL     1       9.387   7.156   0.567  1.00  0.00     0.010 A 
ATOM     35  C   UNL     1       8.417   5.367   1.880  1.00  0.00     0.010 A 
ATOM     36  C   UNL     1       8.661   6.736   1.693  1.00  0.00    -0.014 A 
BRANCH  36  37
ATOM     37  C   UNL     1       8.134   7.717   2.674  1.00  0.00     0.031 A 
ATOM     38  C   UNL     1       8.681   7.763   4.071  1.00  0.00     0.074 A 
ATOM     39  C   UNL     1       7.119   8.529   2.322  1.00  0.00     0.049 A 
ATOM     40  N   UNL     1       8.294   8.492   5.087  1.00  0.00    -0.248 NA
ATOM     41  C   UNL     1       9.798   6.854   4.372  1.00  0.00     0.031 C 
ATOM     42  C   UNL     1       6.478   8.558   1.007  1.00  0.00     0.029 A 
ATOM     43  N   UNL     1       6.442   9.480   3.044  1.00  0.00    -0.354 N 
ATOM     44  C   UNL     1       9.104   8.119   6.149  1.00  0.00     0.074 A 
ATOM     45  C   UNL     1       9.984   7.076   5.666  1.00  0.00     0.031 C 
ATOM     46  C   UNL     1       5.516   9.495   1.008  1.00  0.00     0.029 A 
ATOM     47  C   UNL     1       5.451  10.109   2.332  1.00  0.00     0.049 A 
ATOM     48  H   UNL     1       6.647   9.691   3.983  1.00  0.00     0.167 HD
ATOM     49  C   UNL     1       9.122   8.613   7.410  1.00  0.00     0.037 A 
ATOM     50  C   UNL     1       4.584  11.070   2.704  1.00  0.00     0.037 A 
ATOM     51  C   UNL     1       8.273   9.674   7.882  1.00  0.00     0.049 A 
ATOM     52  C   UNL     1       4.632  11.609   4.106  1.00  0.00     0.074 A 
ATOM     53  C   UNL     1       8.260  10.278   9.128  1.00  0.00     0.029 A 
ATOM     54  N   UNL     1       7.290  10.294   7.126  1.00  0.00    -0.354 N 
ATOM     55  N   UNL     1       5.426  11.272   5.092  1.00  0.00    -0.248 NA
ATOM     56  C   UNL     1       3.663  12.661   4.447  1.00  0.00     0.031 C 
ATOM     57  C   UNL     1       7.250  11.246   9.135  1.00  0.00     0.029 A 
ATOM     58  C   UNL     1       6.656  11.266   7.883  1.00  0.00     0.049 A 
ATOM     59  H   UNL     1       7.075  10.077   6.191  1.00  0.00     0.167 HD
ATOM     60  C   UNL     1       5.067  12.078   6.162  1.00  0.00     0.074 A 
ATOM     61  C   UNL     1       3.988  12.929   5.704  1.00  0.00     0.031 C 
ATOM     62  C   UNL     1       5.587  12.107   7.413  1.00  0.00     0.037 A 
BRANCH  49  63
ATOM     63  C   UNL     1      10.101   8.015   8.374  1.00  0.00     0.064 A 
ATOM     64  C   UNL     1       9.658   7.188   9.416  1.00  0.00     0.173 A 
ATOM     65  C   UNL     1      11.471   8.302   8.296  1.00  0.00     0.173 A 
ATOM     66  F   UNL     1       8.356   6.887   9.535  1.00  0.00    -0.203 F 
ATOM     67  C   UNL     1      10.553   6.673  10.350  1.00  0.00     0.198 A 
ATOM     68  C   UNL     1      12.367   7.768   9.218  1.00  0.00     0.198 A 
ATOM     69  F   UNL     1      11.943   9.079   7.309  1.00  0.00    -0.203 F 
ATOM     70  F   UNL     1      10.107   5.900  11.349  1.00  0.00    -0.200 F 
ATOM     71  C   UNL     1      11.907   6.960  10.248  1.00  0.00     0.200 A 
ATOM     72  F   UNL     1      13.677   8.028   9.106  1.00  0.00    -0.200 F 
ATOM     73  F   UNL     1      12.769   6.453  11.139  1.00  0.00    -0.200 F 
ENDBRANCH  49  63
BRANCH  50  74
ATOM     74  C   UNL     1       3.618  11.606   1.714  1.00  0.00     0.064 A 
ATOM     75  C   UNL     1       2.507  10.859   1.298  1.00  0.00     0.173 A 
ATOM     76  C   UNL     1       3.809  12.871   1.144  1.00  0.00     0.173 A 
ATOM     77  F   UNL     1       2.285   9.641   1.815  1.00  0.00    -0.203 F 
ATOM     78  C   UNL     1       1.630  11.354   0.336  1.00  0.00     0.198 A 
ATOM     79  C   UNL     1       2.920  13.373   0.196  1.00  0.00     0.198 A 
ATOM     80  F   UNL     1       4.847  13.628   1.529  1.00  0.00    -0.203 F 
ATOM     81  F   UNL     1       0.588  10.612  -0.063  1.00  0.00    -0.200 F 
ATOM     82  C   UNL     1       1.835  12.611  -0.212  1.00  0.00     0.200 A 
ATOM     83  F   UNL     1       3.111  14.597  -0.316  1.00  0.00    -0.200 F 
ATOM     84  F   UNL     1       0.986  13.091  -1.131  1.00  0.00    -0.200 F 
ENDBRANCH  50  74
BRANCH  62  85
ATOM     85  C   UNL     1       5.012  13.100   8.377  1.00  0.00     0.064 A 
ATOM     86  C   UNL     1       5.734  14.249   8.728  1.00  0.00     0.173 A 
ATOM     87  C   UNL     1       3.778  12.876   9.003  1.00  0.00     0.173 A 
ATOM     88  F   UNL     1       6.922  14.502   8.158  1.00  0.00    -0.203 F 
ATOM     89  C   UNL     1       5.245  15.135   9.684  1.00  0.00     0.198 A 
ATOM     90  C   UNL     1       3.284  13.774   9.944  1.00  0.00     0.198 A 
ATOM     91  F   UNL     1       3.047  11.796   8.688  1.00  0.00    -0.203 F 
ATOM     92  F   UNL     1       5.962  16.216  10.023  1.00  0.00    -0.200 F 
ATOM     93  C   UNL     1       4.020  14.898  10.289  1.00  0.00     0.200 A 
ATOM     94  F   UNL     1       2.091  13.555  10.516  1.00  0.00    -0.200 F 
ATOM     95  F   UNL     1       3.548  15.755  11.205  1.00  0.00    -0.200 F 
ENDBRANCH  62  85
ENDBRANCH  36  37
ENDBRANCH  28  31
ENDBRANCH  26  27
ENDBRANCH  25  26
ENDBRANCH   1  25
TORSDOF 14
