REMARK SMILES CC(C)C[C@H](CNC(=O)[C@H]1CCCCC[C@H]1[NH3+])CC(=O)NCCCCNC(=O)c1ccc(-c2c3nc(c(-c4c(F)c(F)c(F)c(F)c4F)c4ccc([nH]4)c(-c4c(F)c(F)c(F)c(F)c4F)c4nc(c(-c5c(F)c(F)c(F)c(F)c5F)c5ccc2[nH]5)C=C4)C=C3)cc1
REMARK SMILES IDX 19 1 20 2 21 3 18 5 5 6 4 7 2 8 1 9 3 10 6 11 7 12 8 13 9 15
REMARK SMILES IDX 10 16 11 17 12 18 13 19 16 21 15 22 14 23 17 25 22 29 23 30
REMARK SMILES IDX 24 31 25 32 26 33 27 34 28 36 29 37 30 38 91 39 31 40 90 41
REMARK SMILES IDX 32 42 33 43 34 44 84 45 35 46 89 47 83 48 85 49 36 50 88 51
REMARK SMILES IDX 82 52 81 53 37 55 69 56 49 57 68 58 50 59 53 60 67 61 86 62
REMARK SMILES IDX 51 63 52 64 66 66 87 67 54 68 38 69 39 70 47 71 40 72 41 73
REMARK SMILES IDX 45 74 48 75 42 76 43 77 46 78 44 79 70 80 71 81 79 82 72 83
REMARK SMILES IDX 73 84 77 85 80 86 74 87 75 88 78 89 76 90 55 91 56 92 64 93
REMARK SMILES IDX 57 94 58 95 62 96 65 97 59 98 60 99 63 100 61 101
REMARK H PARENT 21 4 7 14 17 26 17 27 17 28 26 35 85 54 53 65
REMARK Flexibility Score: 90.00
ROOT
ATOM      1  C   UNL     1       0.662  -4.538   5.475  1.00  0.00     0.220 C 
ATOM      2  O   UNL     1       1.577  -4.329   6.282  1.00  0.00    -0.275 OA
ATOM      3  N   UNL     1       0.941  -5.472   4.507  1.00  0.00    -0.356 N 
ATOM      4  H   UNL     1       1.766  -5.960   4.729  1.00  0.00     0.163 HD
ENDROOT
BRANCH   1   5
ATOM      5  C   UNL     1      -0.690  -3.807   5.671  1.00  0.00     0.105 C 
BRANCH   5   6
ATOM      6  C   UNL     1      -0.568  -2.243   6.083  1.00  0.00     0.018 C 
BRANCH   6   7
ATOM      7  C   UNL     1      -1.032  -2.035   7.554  1.00  0.00     0.009 C 
BRANCH   7   8
ATOM      8  C   UNL     1      -0.435  -0.852   8.370  1.00  0.00    -0.017 C 
ATOM      9  C   UNL     1       0.116   0.343   7.600  1.00  0.00     0.007 C 
ATOM     10  C   UNL     1      -1.470  -0.336   9.378  1.00  0.00     0.007 C 
ENDBRANCH   7   8
ENDBRANCH   6   7
BRANCH   6  11
ATOM     11  C   UNL     1      -1.413  -1.265   5.139  1.00  0.00     0.120 C 
BRANCH  11  12
ATOM     12  N   UNL     1      -0.619  -0.174   4.469  1.00  0.00    -0.355 N 
ATOM     13  C   UNL     1      -0.744   0.527   3.296  1.00  0.00     0.229 C 
ATOM     14  H   UNL     1       0.170   0.098   4.991  1.00  0.00     0.163 HD
ATOM     15  O   UNL     1      -0.970   1.737   3.458  1.00  0.00    -0.275 OA
BRANCH  13  16
ATOM     16  C   UNL     1      -0.392   0.046   1.849  1.00  0.00     0.136 C 
BRANCH  16  17
ATOM     17  C   UNL     1       1.032  -0.493   1.656  1.00  0.00     0.020 C 
BRANCH  17  18
ATOM     18  C   UNL     1       1.404  -1.692   2.472  1.00  0.00     0.001 C 
BRANCH  18  19
ATOM     19  C   UNL     1       0.283  -2.596   2.906  1.00  0.00     0.000 CG0
ATOM     20  G   UNL     1      -0.987  -2.962   2.129  1.00  0.00     0.000 G0
ENDBRANCH  18  19
ENDBRANCH  17  18
ENDBRANCH  16  17
BRANCH  16  21
ATOM     21  C   UNL     1      -1.386  -0.779   1.012  1.00  0.00     0.193 C 
BRANCH  21  22
ATOM     22  C   UNL     1      -2.021  -1.905   1.780  1.00  0.00     0.066 C 
BRANCH  22  23
ATOM     23  C   UNL     1      -0.987  -2.962   2.129  1.00  0.00     0.006 CG0
ATOM     24  G   UNL     1       0.283  -2.596   2.906  1.00  0.00     0.000 G0
ENDBRANCH  22  23
ENDBRANCH  21  22
BRANCH  21  25
ATOM     25  N   UNL     1      -2.413   0.046   0.374  1.00  0.00    -0.354 N 
ATOM     26  H   UNL     1      -2.997   0.477   1.091  1.00  0.00     0.344 HD
ATOM     27  H   UNL     1      -2.991  -0.537  -0.230  1.00  0.00     0.344 HD
ATOM     28  H   UNL     1      -1.966   0.775  -0.183  1.00  0.00     0.344 HD
ENDBRANCH  21  25
ENDBRANCH  16  21
ENDBRANCH  13  16
ENDBRANCH  11  12
ENDBRANCH   6  11
ENDBRANCH   5   6
ENDBRANCH   1   5
BRANCH   3  29
ATOM     29  C   UNL     1       0.371  -5.972   3.218  1.00  0.00     0.116 C 
BRANCH  29  30
ATOM     30  C   UNL     1       1.218  -5.481   2.012  1.00  0.00     0.023 C 
BRANCH  30  31
ATOM     31  C   UNL     1       1.284  -6.196   0.678  1.00  0.00     0.023 C 
BRANCH  31  32
ATOM     32  C   UNL     1       0.027  -6.688  -0.014  1.00  0.00     0.116 C 
BRANCH  32  33
ATOM     33  N   UNL     1      -1.067  -5.768  -0.310  1.00  0.00    -0.352 N 
ATOM     34  C   UNL     1      -1.863  -5.664  -1.458  1.00  0.00     0.251 C 
ATOM     35  H   UNL     1      -1.278  -5.125   0.405  1.00  0.00     0.163 HD
ATOM     36  O   UNL     1      -2.808  -4.906  -1.487  1.00  0.00    -0.269 OA
BRANCH  34  37
ATOM     37  C   UNL     1      -1.486  -6.436  -2.678  1.00  0.00     0.039 A 
ATOM     38  C   UNL     1      -1.439  -5.805  -3.924  1.00  0.00     0.014 A 
ATOM     39  C   UNL     1      -0.997  -7.725  -2.550  1.00  0.00     0.014 A 
ATOM     40  C   UNL     1      -0.710  -6.395  -4.968  1.00  0.00     0.010 A 
ATOM     41  C   UNL     1      -0.088  -8.182  -3.489  1.00  0.00     0.010 A 
ATOM     42  C   UNL     1       0.071  -7.536  -4.724  1.00  0.00    -0.014 A 
BRANCH  42  43
ATOM     43  C   UNL     1       1.051  -8.091  -5.707  1.00  0.00     0.031 A 
ATOM     44  C   UNL     1       1.073  -9.580  -5.984  1.00  0.00     0.074 A 
ATOM     45  C   UNL     1       2.012  -7.309  -6.247  1.00  0.00     0.049 A 
ATOM     46  N   UNL     1       1.964 -10.297  -6.623  1.00  0.00    -0.248 NA
ATOM     47  C   UNL     1      -0.001 -10.386  -5.378  1.00  0.00     0.031 C 
ATOM     48  C   UNL     1       2.213  -5.882  -5.979  1.00  0.00     0.029 A 
ATOM     49  N   UNL     1       3.017  -7.612  -7.136  1.00  0.00    -0.354 N 
ATOM     50  C   UNL     1       1.597 -11.622  -6.415  1.00  0.00     0.074 A 
ATOM     51  C   UNL     1       0.474 -11.614  -5.509  1.00  0.00     0.031 C 
ATOM     52  C   UNL     1       3.226  -5.424  -6.733  1.00  0.00     0.029 A 
ATOM     53  C   UNL     1       3.777  -6.528  -7.510  1.00  0.00     0.049 A 
ATOM     54  H   UNL     1       3.178  -8.523  -7.474  1.00  0.00     0.167 HD
ATOM     55  C   UNL     1       2.100 -12.747  -6.976  1.00  0.00     0.037 A 
ATOM     56  C   UNL     1       4.790  -6.436  -8.393  1.00  0.00     0.037 A 
ATOM     57  C   UNL     1       3.115 -12.742  -7.992  1.00  0.00     0.049 A 
ATOM     58  C   UNL     1       5.226  -7.674  -9.131  1.00  0.00     0.074 A 
ATOM     59  C   UNL     1       3.610 -13.804  -8.727  1.00  0.00     0.029 A 
ATOM     60  N   UNL     1       3.760 -11.602  -8.444  1.00  0.00    -0.354 N 
ATOM     61  N   UNL     1       4.813  -8.910  -8.990  1.00  0.00    -0.248 NA
ATOM     62  C   UNL     1       6.255  -7.502 -10.167  1.00  0.00     0.031 C 
ATOM     63  C   UNL     1       4.565 -13.306  -9.620  1.00  0.00     0.029 A 
ATOM     64  C   UNL     1       4.639 -11.931  -9.461  1.00  0.00     0.049 A 
ATOM     65  H   UNL     1       3.615 -10.693  -8.095  1.00  0.00     0.167 HD
ATOM     66  C   UNL     1       5.502  -9.654  -9.938  1.00  0.00     0.074 A 
ATOM     67  C   UNL     1       6.348  -8.728 -10.661  1.00  0.00     0.031 C 
ATOM     68  C   UNL     1       5.445 -10.985 -10.187  1.00  0.00     0.037 A 
BRANCH  55  69
ATOM     69  C   UNL     1       1.511 -14.063  -6.550  1.00  0.00     0.064 A 
ATOM     70  C   UNL     1       0.183 -14.409  -6.848  1.00  0.00     0.173 A 
ATOM     71  C   UNL     1       2.282 -14.991  -5.834  1.00  0.00     0.173 A 
ATOM     72  F   UNL     1      -0.603 -13.554  -7.520  1.00  0.00    -0.203 F 
ATOM     73  C   UNL     1      -0.366 -15.607  -6.401  1.00  0.00     0.198 A 
ATOM     74  C   UNL     1       1.741 -16.207  -5.422  1.00  0.00     0.198 A 
ATOM     75  F   UNL     1       3.559 -14.719  -5.527  1.00  0.00    -0.203 F 
ATOM     76  F   UNL     1      -1.659 -15.876  -6.630  1.00  0.00    -0.200 F 
ATOM     77  C   UNL     1       0.415 -16.508  -5.694  1.00  0.00     0.200 A 
ATOM     78  F   UNL     1       2.500 -17.084  -4.750  1.00  0.00    -0.200 F 
ATOM     79  F   UNL     1      -0.116 -17.661  -5.263  1.00  0.00    -0.200 F 
ENDBRANCH  55  69
BRANCH  56  80
ATOM     80  C   UNL     1       5.410  -5.117  -8.695  1.00  0.00     0.064 A 
ATOM     81  C   UNL     1       5.189  -4.491  -9.932  1.00  0.00     0.173 A 
ATOM     82  C   UNL     1       6.247  -4.465  -7.779  1.00  0.00     0.173 A 
ATOM     83  F   UNL     1       4.411  -5.083 -10.851  1.00  0.00    -0.203 F 
ATOM     84  C   UNL     1       5.807  -3.284 -10.254  1.00  0.00     0.198 A 
ATOM     85  C   UNL     1       6.843  -3.242  -8.092  1.00  0.00     0.198 A 
ATOM     86  F   UNL     1       6.484  -5.012  -6.579  1.00  0.00    -0.203 F 
ATOM     87  F   UNL     1       5.622  -2.741 -11.466  1.00  0.00    -0.200 F 
ATOM     88  C   UNL     1       6.631  -2.659  -9.332  1.00  0.00     0.200 A 
ATOM     89  F   UNL     1       7.629  -2.634  -7.194  1.00  0.00    -0.200 F 
ATOM     90  F   UNL     1       7.229  -1.501  -9.643  1.00  0.00    -0.200 F 
ENDBRANCH  56  80
BRANCH  68  91
ATOM     91  C   UNL     1       6.275 -11.510 -11.319  1.00  0.00     0.064 A 
ATOM     92  C   UNL     1       7.669 -11.615 -11.221  1.00  0.00     0.173 A 
ATOM     93  C   UNL     1       5.659 -11.954 -12.498  1.00  0.00     0.173 A 
ATOM     94  F   UNL     1       8.303 -11.192 -10.117  1.00  0.00    -0.203 F 
ATOM     95  C   UNL     1       8.421 -12.121 -12.277  1.00  0.00     0.198 A 
ATOM     96  C   UNL     1       6.411 -12.486 -13.540  1.00  0.00     0.198 A 
ATOM     97  F   UNL     1       4.326 -11.882 -12.634  1.00  0.00    -0.203 F 
ATOM     98  F   UNL     1       9.757 -12.170 -12.182  1.00  0.00    -0.200 F 
ATOM     99  C   UNL     1       7.792 -12.562 -13.432  1.00  0.00     0.200 A 
ATOM    100  F   UNL     1       5.801 -12.925 -14.649  1.00  0.00    -0.200 F 
ATOM    101  F   UNL     1       8.517 -13.055 -14.445  1.00  0.00    -0.200 F 
ENDBRANCH  68  91
ENDBRANCH  42  43
ENDBRANCH  34  37
ENDBRANCH  32  33
ENDBRANCH  31  32
ENDBRANCH  30  31
ENDBRANCH  29  30
ENDBRANCH   3  29
TORSDOF 18
