REMARK SMILES COc1ccc(CSc2ncccc2C(=O)NCCCCNC(=O)c2ccc(-c3c4nc(c(-c5c(F)c(F)c(F)c(F)c5F)c5ccc([nH]5)c(-c5c(F)c(F)c(F)c(F)c5F)c5nc(c(-c6c(F)c(F)c(F)c(F)c6F)c6ccc3[nH]6)C=C5)C=C4)cc2)cc1
REMARK SMILES IDX 18 1 17 2 15 3 16 4 14 6 9 7 10 8 11 9 13 10 12 11 8 12 7 13
REMARK SMILES IDX 6 14 3 15 4 16 89 17 5 18 88 19 2 20 1 21 19 22 20 23 21 24
REMARK SMILES IDX 22 25 23 26 24 28 25 29 26 30 87 31 27 32 86 33 28 34 29 35
REMARK SMILES IDX 30 36 80 37 31 38 85 39 79 40 81 41 32 42 84 43 78 44 77 45
REMARK SMILES IDX 33 47 65 48 45 49 64 50 46 51 49 52 63 53 82 54 47 55 48 56
REMARK SMILES IDX 62 58 83 59 50 60 34 61 35 62 43 63 36 64 37 65 41 66 44 67
REMARK SMILES IDX 38 68 39 69 42 70 40 71 66 72 67 73 75 74 68 75 69 76 73 77
REMARK SMILES IDX 76 78 70 79 71 80 74 81 72 82 51 83 52 84 60 85 53 86 54 87
REMARK SMILES IDX 58 88 61 89 55 90 56 91 59 92 57 93
REMARK H PARENT 17 5 22 27 81 46 49 57
REMARK Flexibility Score: inf
ROOT
ATOM      1  C   UNL     1       1.743   0.306  -5.559  1.00  0.00     0.116 C 
ENDROOT
BRANCH   1   2
ATOM      2  N   UNL     1       1.093   1.559  -5.228  1.00  0.00    -0.352 N 
ATOM      3  C   UNL     1       1.276   2.868  -5.616  1.00  0.00     0.254 C 
ATOM      4  O   UNL     1       0.267   3.572  -5.581  1.00  0.00    -0.269 OA
ATOM      5  H   UNL     1       0.357   1.450  -4.583  1.00  0.00     0.163 HD
BRANCH   3   6
ATOM      6  C   UNL     1       2.584   3.462  -6.019  1.00  0.00     0.072 A 
ATOM      7  C   UNL     1       2.922   4.784  -5.672  1.00  0.00     0.109 A 
ATOM      8  N   UNL     1       4.103   5.366  -6.037  1.00  0.00    -0.249 NA
ATOM      9  C   UNL     1       4.962   4.659  -6.791  1.00  0.00     0.112 A 
ATOM     10  C   UNL     1       3.506   2.779  -6.823  1.00  0.00     0.018 A 
ATOM     11  C   UNL     1       4.711   3.370  -7.203  1.00  0.00     0.021 A 
BRANCH   7  12
ATOM     12  S   UNL     1       1.881   5.947  -4.806  1.00  0.00    -0.101 SA
BRANCH  12  13
ATOM     13  C   UNL     1       2.455   5.669  -3.110  1.00  0.00     0.112 C 
BRANCH  13  14
ATOM     14  C   UNL     1       1.903   4.418  -2.468  1.00  0.00    -0.037 A 
ATOM     15  C   UNL     1       0.882   2.111  -1.205  1.00  0.00     0.118 A 
ATOM     16  C   UNL     1       0.019   3.053  -1.762  1.00  0.00     0.047 A 
ATOM     17  C   UNL     1       2.259   2.319  -1.286  1.00  0.00     0.047 A 
ATOM     18  C   UNL     1       0.521   4.204  -2.372  1.00  0.00     0.008 A 
ATOM     19  C   UNL     1       2.766   3.463  -1.916  1.00  0.00     0.008 A 
BRANCH  15  20
ATOM     20  O   UNL     1       0.263   1.022  -0.657  1.00  0.00    -0.497 OA
ATOM     21  C   UNL     1       1.040   0.213   0.216  1.00  0.00     0.278 C 
ENDBRANCH  15  20
ENDBRANCH  13  14
ENDBRANCH  12  13
ENDBRANCH   7  12
ENDBRANCH   3   6
ENDBRANCH   1   2
BRANCH   1  22
ATOM     22  C   UNL     1       2.412  -0.396  -4.386  1.00  0.00     0.023 C 
BRANCH  22  23
ATOM     23  C   UNL     1       1.460  -1.018  -3.366  1.00  0.00     0.023 C 
BRANCH  23  24
ATOM     24  C   UNL     1       0.351  -1.908  -3.916  1.00  0.00     0.116 C 
BRANCH  24  25
ATOM     25  N   UNL     1       0.823  -2.983  -4.772  1.00  0.00    -0.352 N 
ATOM     26  C   UNL     1       0.336  -4.264  -4.895  1.00  0.00     0.251 C 
ATOM     27  H   UNL     1       1.597  -2.765  -5.341  1.00  0.00     0.163 HD
ATOM     28  O   UNL     1       0.898  -5.073  -5.619  1.00  0.00    -0.269 OA
BRANCH  26  29
ATOM     29  C   UNL     1      -0.848  -4.673  -4.106  1.00  0.00     0.039 A 
ATOM     30  C   UNL     1      -0.790  -5.868  -3.385  1.00  0.00     0.014 A 
ATOM     31  C   UNL     1      -1.991  -3.872  -4.052  1.00  0.00     0.014 A 
ATOM     32  C   UNL     1      -1.854  -6.227  -2.555  1.00  0.00     0.010 A 
ATOM     33  C   UNL     1      -3.018  -4.193  -3.168  1.00  0.00     0.010 A 
ATOM     34  C   UNL     1      -2.961  -5.373  -2.412  1.00  0.00    -0.014 A 
BRANCH  34  35
ATOM     35  C   UNL     1      -4.067  -5.703  -1.478  1.00  0.00     0.031 A 
ATOM     36  C   UNL     1      -5.449  -5.965  -2.009  1.00  0.00     0.074 A 
ATOM     37  C   UNL     1      -3.841  -5.709  -0.150  1.00  0.00     0.049 A 
ATOM     38  N   UNL     1      -6.554  -6.217  -1.355  1.00  0.00    -0.248 NA
ATOM     39  C   UNL     1      -5.617  -5.908  -3.470  1.00  0.00     0.031 C 
ATOM     40  C   UNL     1      -2.557  -5.419   0.490  1.00  0.00     0.029 A 
ATOM     41  N   UNL     1      -4.687  -5.960   0.901  1.00  0.00    -0.354 N 
ATOM     42  C   UNL     1      -7.546  -6.333  -2.319  1.00  0.00     0.074 A 
ATOM     43  C   UNL     1      -6.925  -6.069  -3.599  1.00  0.00     0.031 C 
ATOM     44  C   UNL     1      -2.694  -5.532   1.821  1.00  0.00     0.029 A 
ATOM     45  C   UNL     1      -4.081  -5.867   2.131  1.00  0.00     0.049 A 
ATOM     46  H   UNL     1      -5.638  -6.185   0.786  1.00  0.00     0.167 HD
ATOM     47  C   UNL     1      -8.851  -6.657  -2.155  1.00  0.00     0.037 A 
ATOM     48  C   UNL     1      -4.589  -6.031   3.367  1.00  0.00     0.037 A 
ATOM     49  C   UNL     1      -9.459  -6.944  -0.883  1.00  0.00     0.049 A 
ATOM     50  C   UNL     1      -6.041  -6.394   3.521  1.00  0.00     0.074 A 
ATOM     51  C   UNL     1     -10.758  -7.341  -0.617  1.00  0.00     0.029 A 
ATOM     52  N   UNL     1      -8.807  -6.863   0.339  1.00  0.00    -0.354 N 
ATOM     53  N   UNL     1      -6.952  -6.576   2.596  1.00  0.00    -0.248 NA
ATOM     54  C   UNL     1      -6.534  -6.583   4.893  1.00  0.00     0.031 C 
ATOM     55  C   UNL     1     -10.905  -7.456   0.769  1.00  0.00     0.029 A 
ATOM     56  C   UNL     1      -9.683  -7.183   1.364  1.00  0.00     0.049 A 
ATOM     57  H   UNL     1      -7.862  -6.614   0.460  1.00  0.00     0.167 HD
ATOM     58  C   UNL     1      -8.114  -6.930   3.268  1.00  0.00     0.074 A 
ATOM     59  C   UNL     1      -7.789  -6.952   4.679  1.00  0.00     0.031 C 
ATOM     60  C   UNL     1      -9.340  -7.211   2.763  1.00  0.00     0.037 A 
BRANCH  47  61
ATOM     61  C   UNL     1      -9.708  -6.725  -3.386  1.00  0.00     0.064 A 
ATOM     62  C   UNL     1      -9.543  -7.739  -4.343  1.00  0.00     0.173 A 
ATOM     63  C   UNL     1     -10.729  -5.785  -3.597  1.00  0.00     0.173 A 
ATOM     64  F   UNL     1      -8.575  -8.655  -4.195  1.00  0.00    -0.203 F 
ATOM     65  C   UNL     1     -10.347  -7.791  -5.479  1.00  0.00     0.198 A 
ATOM     66  C   UNL     1     -11.551  -5.859  -4.718  1.00  0.00     0.198 A 
ATOM     67  F   UNL     1     -10.934  -4.799  -2.712  1.00  0.00    -0.203 F 
ATOM     68  F   UNL     1     -10.136  -8.739  -6.403  1.00  0.00    -0.200 F 
ATOM     69  C   UNL     1     -11.355  -6.857  -5.662  1.00  0.00     0.200 A 
ATOM     70  F   UNL     1     -12.534  -4.964  -4.887  1.00  0.00    -0.200 F 
ATOM     71  F   UNL     1     -12.132  -6.913  -6.752  1.00  0.00    -0.200 F 
ENDBRANCH  47  61
BRANCH  48  72
ATOM     72  C   UNL     1      -3.711  -5.885   4.558  1.00  0.00     0.064 A 
ATOM     73  C   UNL     1      -3.370  -6.996   5.341  1.00  0.00     0.173 A 
ATOM     74  C   UNL     1      -3.202  -4.636   4.942  1.00  0.00     0.173 A 
ATOM     75  F   UNL     1      -3.848  -8.209   5.026  1.00  0.00    -0.203 F 
ATOM     76  C   UNL     1      -2.574  -6.861   6.477  1.00  0.00     0.198 A 
ATOM     77  C   UNL     1      -2.382  -4.506   6.062  1.00  0.00     0.198 A 
ATOM     78  F   UNL     1      -3.492  -3.542   4.224  1.00  0.00    -0.203 F 
ATOM     79  F   UNL     1      -2.304  -7.933   7.234  1.00  0.00    -0.200 F 
ATOM     80  C   UNL     1      -2.076  -5.617   6.833  1.00  0.00     0.200 A 
ATOM     81  F   UNL     1      -1.889  -3.305   6.393  1.00  0.00    -0.200 F 
ATOM     82  F   UNL     1      -1.307  -5.488   7.923  1.00  0.00    -0.200 F 
ENDBRANCH  48  72
BRANCH  60  83
ATOM     83  C   UNL     1     -10.412  -7.608   3.736  1.00  0.00     0.064 A 
ATOM     84  C   UNL     1     -10.994  -6.680   4.612  1.00  0.00     0.173 A 
ATOM     85  C   UNL     1     -10.888  -8.928   3.766  1.00  0.00     0.173 A 
ATOM     86  F   UNL     1     -10.563  -5.410   4.633  1.00  0.00    -0.203 F 
ATOM     87  C   UNL     1     -11.995  -7.065   5.500  1.00  0.00     0.198 A 
ATOM     88  C   UNL     1     -11.911  -9.302   4.633  1.00  0.00     0.198 A 
ATOM     89  F   UNL     1     -10.370  -9.853   2.944  1.00  0.00    -0.203 F 
ATOM     90  F   UNL     1     -12.502  -6.173   6.362  1.00  0.00    -0.200 F 
ATOM     91  C   UNL     1     -12.457  -8.373   5.504  1.00  0.00     0.200 A 
ATOM     92  F   UNL     1     -12.366 -10.562   4.625  1.00  0.00    -0.200 F 
ATOM     93  F   UNL     1     -13.425  -8.739   6.355  1.00  0.00    -0.200 F 
ENDBRANCH  60  83
ENDBRANCH  34  35
ENDBRANCH  26  29
ENDBRANCH  24  25
ENDBRANCH  23  24
ENDBRANCH  22  23
ENDBRANCH   1  22
TORSDOF 15
