REMARK SMILES Cn1cc(S(=O)(=O)N2CCCc3cc(C(=O)NCCCCNC(=O)c4ccc(-c5c6nc(c(-c7c(F)c(F)c(F)c(F)c7F)c7ccc([nH]7)c(-c7c(F)c(F)c(F)c(F)c7F)c7nc(c(-c8c(F)c(F)c(F)c(F)c8F)c8ccc5[nH]8)C=C7)C=C6)cc4)ccc32)cc1C(N)=O
REMARK SMILES IDX 19 1 18 2 17 3 15 4 16 5 14 7 8 8 9 9 90 10 10 11 12 12
REMARK SMILES IDX 89 13 11 14 13 15 88 16 5 17 6 18 7 19 4 20 1 21 2 22 3 23
REMARK SMILES IDX 92 24 91 25 93 26 94 27 95 28 20 31 21 32 22 33 23 34 24 36
REMARK SMILES IDX 25 37 26 38 87 39 27 40 86 41 28 42 29 43 30 44 80 45 31 46
REMARK SMILES IDX 85 47 79 48 81 49 32 50 84 51 78 52 77 53 33 55 65 56 45 57
REMARK SMILES IDX 64 58 46 59 49 60 63 61 82 62 47 63 48 64 62 66 83 67 50 68
REMARK SMILES IDX 34 69 35 70 43 71 36 72 37 73 41 74 44 75 38 76 39 77 42 78
REMARK SMILES IDX 40 79 66 80 67 81 75 82 68 83 69 84 73 85 76 86 70 87 71 88
REMARK SMILES IDX 74 89 72 90 51 91 52 92 60 93 53 94 54 95 58 96 61 97 55 98
REMARK SMILES IDX 56 99 59 100 57 101
REMARK H PARENT 17 6 94 29 94 30 22 35 81 54 49 65
REMARK Flexibility Score: inf
ROOT
ATOM      1  C   UNL     1      -6.012   1.130  -6.742  1.00  0.00     0.023 C 
ENDROOT
BRANCH   1   2
ATOM      2  C   UNL     1      -6.824   2.036  -5.813  1.00  0.00     0.116 C 
BRANCH   2   3
ATOM      3  N   UNL     1      -7.935   1.307  -5.237  1.00  0.00    -0.352 N 
ATOM      4  C   UNL     1      -8.076   0.643  -4.045  1.00  0.00     0.251 C 
ATOM      5  O   UNL     1      -9.168   0.120  -3.817  1.00  0.00    -0.269 OA
ATOM      6  H   UNL     1      -8.739   1.285  -5.806  1.00  0.00     0.163 HD
BRANCH   4   7
ATOM      7  C   UNL     1      -7.005   0.562  -3.009  1.00  0.00     0.040 A 
ATOM      8  N   UNL     1      -4.195   0.425   0.191  1.00  0.00    -0.266 N 
ATOM      9  C   UNL     1      -4.585  -0.292   1.418  1.00  0.00     0.136 C 
ATOM     10  C   UNL     1      -5.127   0.455  -0.896  1.00  0.00     0.055 A 
ATOM     11  C   UNL     1      -5.965   0.179   1.846  1.00  0.00     0.028 C 
ATOM     12  C   UNL     1      -6.492   0.271  -0.630  1.00  0.00    -0.023 A 
ATOM     13  C   UNL     1      -4.707   0.588  -2.218  1.00  0.00     0.028 A 
ATOM     14  C   UNL     1      -6.984  -0.102   0.746  1.00  0.00     0.039 C 
ATOM     15  C   UNL     1      -7.419   0.344  -1.685  1.00  0.00     0.019 A 
ATOM     16  C   UNL     1      -5.636   0.624  -3.263  1.00  0.00     0.016 A 
BRANCH   8  17
ATOM     17  S   UNL     1      -2.897   1.516   0.277  1.00  0.00     0.265 S 
ATOM     18  O   UNL     1      -2.810   2.041   1.627  1.00  0.00    -0.201 OA
ATOM     19  O   UNL     1      -2.840   2.377  -0.880  1.00  0.00    -0.201 OA
BRANCH  17  20
ATOM     20  C   UNL     1      -1.452   0.566   0.135  1.00  0.00     0.106 A 
ATOM     21  C   UNL     1       2.124   0.114  -0.013  1.00  0.00     0.150 C 
ATOM     22  N   UNL     1       0.684  -0.045   0.022  1.00  0.00    -0.345 N 
ATOM     23  C   UNL     1      -0.161   1.037   0.120  1.00  0.00     0.108 A 
ATOM     24  C   UNL     1      -0.046  -1.224  -0.032  1.00  0.00     0.107 A 
ATOM     25  C   UNL     1      -1.385  -0.841   0.013  1.00  0.00     0.056 A 
BRANCH  24  26
ATOM     26  C   UNL     1       0.506  -2.566  -0.116  1.00  0.00     0.265 C 
ATOM     27  N   UNL     1      -0.398  -3.589  -0.082  1.00  0.00    -0.364 N 
ATOM     28  O   UNL     1       1.698  -2.840  -0.207  1.00  0.00    -0.268 OA
ATOM     29  H   UNL     1      -1.360  -3.393  -0.009  1.00  0.00     0.160 HD
ATOM     30  H   UNL     1      -0.087  -4.522  -0.130  1.00  0.00     0.160 HD
ENDBRANCH  24  26
ENDBRANCH  17  20
ENDBRANCH   8  17
ENDBRANCH   4   7
ENDBRANCH   2   3
ENDBRANCH   1   2
BRANCH   1  31
ATOM     31  C   UNL     1      -6.642   0.911  -8.119  1.00  0.00     0.023 C 
BRANCH  31  32
ATOM     32  C   UNL     1      -6.777   2.170  -8.967  1.00  0.00     0.116 C 
BRANCH  32  33
ATOM     33  N   UNL     1      -5.512   2.849  -9.197  1.00  0.00    -0.352 N 
ATOM     34  C   UNL     1      -5.128   3.587 -10.290  1.00  0.00     0.251 C 
ATOM     35  H   UNL     1      -4.845   2.770  -8.477  1.00  0.00     0.163 HD
ATOM     36  O   UNL     1      -3.984   4.018 -10.385  1.00  0.00    -0.269 OA
BRANCH  34  37
ATOM     37  C   UNL     1      -6.100   3.817 -11.377  1.00  0.00     0.039 A 
ATOM     38  C   UNL     1      -5.721   3.527 -12.689  1.00  0.00     0.014 A 
ATOM     39  C   UNL     1      -7.391   4.270 -11.093  1.00  0.00     0.014 A 
ATOM     40  C   UNL     1      -6.663   3.626 -13.713  1.00  0.00     0.010 A 
ATOM     41  C   UNL     1      -8.346   4.301 -12.103  1.00  0.00     0.010 A 
ATOM     42  C   UNL     1      -7.991   3.977 -13.421  1.00  0.00    -0.014 A 
BRANCH  42  43
ATOM     43  C   UNL     1      -9.028   4.005 -14.482  1.00  0.00     0.031 A 
ATOM     44  C   UNL     1      -9.688   5.302 -14.853  1.00  0.00     0.074 A 
ATOM     45  C   UNL     1      -9.423   2.853 -15.056  1.00  0.00     0.049 A 
ATOM     46  N   UNL     1     -10.661   5.524 -15.699  1.00  0.00    -0.248 NA
ATOM     47  C   UNL     1      -9.210   6.508 -14.158  1.00  0.00     0.031 C 
ATOM     48  C   UNL     1      -8.893   1.525 -14.740  1.00  0.00     0.029 A 
ATOM     49  N   UNL     1     -10.370   2.612 -16.018  1.00  0.00    -0.354 N 
ATOM     50  C   UNL     1     -10.920   6.885 -15.627  1.00  0.00     0.074 A 
ATOM     51  C   UNL     1     -10.041   7.432 -14.616  1.00  0.00     0.031 C 
ATOM     52  C   UNL     1      -9.507   0.613 -15.510  1.00  0.00     0.029 A 
ATOM     53  C   UNL     1     -10.497   1.285 -16.347  1.00  0.00     0.049 A 
ATOM     54  H   UNL     1     -10.909   3.324 -16.434  1.00  0.00     0.167 HD
ATOM     55  C   UNL     1     -11.796   7.617 -16.355  1.00  0.00     0.037 A 
ATOM     56  C   UNL     1     -11.322   0.679 -17.221  1.00  0.00     0.037 A 
ATOM     57  C   UNL     1     -12.649   7.072 -17.379  1.00  0.00     0.049 A 
ATOM     58  C   UNL     1     -12.284   1.516 -18.021  1.00  0.00     0.074 A 
ATOM     59  C   UNL     1     -13.523   7.739 -18.219  1.00  0.00     0.029 A 
ATOM     60  N   UNL     1     -12.732   5.725 -17.701  1.00  0.00    -0.354 N 
ATOM     61  N   UNL     1     -12.469   2.814 -17.997  1.00  0.00    -0.248 NA
ATOM     62  C   UNL     1     -13.146   0.804 -18.974  1.00  0.00     0.031 C 
ATOM     63  C   UNL     1     -14.168   6.790 -19.020  1.00  0.00     0.029 A 
ATOM     64  C   UNL     1     -13.659   5.538 -18.713  1.00  0.00     0.049 A 
ATOM     65  H   UNL     1     -12.210   5.009 -17.273  1.00  0.00     0.167 HD
ATOM     66  C   UNL     1     -13.445   3.077 -18.948  1.00  0.00     0.074 A 
ATOM     67  C   UNL     1     -13.804   1.806 -19.541  1.00  0.00     0.031 C 
ATOM     68  C   UNL     1     -13.996   4.265 -19.298  1.00  0.00     0.037 A 
BRANCH  55  69
ATOM     69  C   UNL     1     -11.872   9.089 -16.073  1.00  0.00     0.064 A 
ATOM     70  C   UNL     1     -10.824   9.958 -16.415  1.00  0.00     0.173 A 
ATOM     71  C   UNL     1     -13.017   9.644 -15.483  1.00  0.00     0.173 A 
ATOM     72  F   UNL     1      -9.702   9.476 -16.970  1.00  0.00    -0.203 F 
ATOM     73  C   UNL     1     -10.907  11.322 -16.148  1.00  0.00     0.198 A 
ATOM     74  C   UNL     1     -13.110  11.013 -15.246  1.00  0.00     0.198 A 
ATOM     75  F   UNL     1     -14.050   8.859 -15.141  1.00  0.00    -0.203 F 
ATOM     76  F   UNL     1      -9.873  12.123 -16.437  1.00  0.00    -0.200 F 
ATOM     77  C   UNL     1     -12.052  11.849 -15.571  1.00  0.00     0.200 A 
ATOM     78  F   UNL     1     -14.222  11.523 -14.699  1.00  0.00    -0.200 F 
ATOM     79  F   UNL     1     -12.134  13.163 -15.320  1.00  0.00    -0.200 F 
ENDBRANCH  55  69
BRANCH  56  80
ATOM     80  C   UNL     1     -11.254  -0.793 -17.411  1.00  0.00     0.064 A 
ATOM     81  C   UNL     1     -10.754  -1.341 -18.600  1.00  0.00     0.173 A 
ATOM     82  C   UNL     1     -11.689  -1.679 -16.415  1.00  0.00     0.173 A 
ATOM     83  F   UNL     1     -10.345  -0.533 -19.589  1.00  0.00    -0.203 F 
ATOM     84  C   UNL     1     -10.711  -2.720 -18.795  1.00  0.00     0.198 A 
ATOM     85  C   UNL     1     -11.620  -3.059 -16.601  1.00  0.00     0.198 A 
ATOM     86  F   UNL     1     -12.171  -1.206 -15.257  1.00  0.00    -0.203 F 
ATOM     87  F   UNL     1     -10.270  -3.216 -19.959  1.00  0.00    -0.200 F 
ATOM     88  C   UNL     1     -11.139  -3.578 -17.793  1.00  0.00     0.200 A 
ATOM     89  F   UNL     1     -12.022  -3.885 -15.625  1.00  0.00    -0.200 F 
ATOM     90  F   UNL     1     -11.095  -4.904 -17.980  1.00  0.00    -0.200 F 
ENDBRANCH  56  80
BRANCH  68  91
ATOM     91  C   UNL     1     -15.017   4.252 -20.398  1.00  0.00     0.064 A 
ATOM     92  C   UNL     1     -16.306   3.737 -20.198  1.00  0.00     0.173 A 
ATOM     93  C   UNL     1     -14.714   4.800 -21.653  1.00  0.00     0.173 A 
ATOM     94  F   UNL     1     -16.639   3.188 -19.020  1.00  0.00    -0.203 F 
ATOM     95  C   UNL     1     -17.247   3.750 -21.224  1.00  0.00     0.198 A 
ATOM     96  C   UNL     1     -15.667   4.838 -22.667  1.00  0.00     0.198 A 
ATOM     97  F   UNL     1     -13.497   5.311 -21.892  1.00  0.00    -0.203 F 
ATOM     98  F   UNL     1     -18.458   3.211 -21.026  1.00  0.00    -0.200 F 
ATOM     99  C   UNL     1     -16.930   4.307 -22.454  1.00  0.00     0.200 A 
ATOM    100  F   UNL     1     -15.362   5.389 -23.850  1.00  0.00    -0.200 F 
ATOM    101  F   UNL     1     -17.840   4.326 -23.438  1.00  0.00    -0.200 F 
ENDBRANCH  68  91
ENDBRANCH  42  43
ENDBRANCH  34  37
ENDBRANCH  32  33
ENDBRANCH  31  32
ENDBRANCH   1  31
TORSDOF 14
