REMARK SMILES CCNC(=O)NC(=O)[C@@H](C)[NH2+][C@](C)(C(=O)NCCCCNC(=O)c1ccc(-c2c3nc(c(-c4c(F)c(F)c(F)c(F)c4F)c4ccc([nH]4)c(-c4c(F)c(F)c(F)c(F)c4F)c4nc(c(-c5c(F)c(F)c(F)c(F)c5F)c5ccc2[nH]5)C=C4)C=C3)cc1)C(F)(F)F
REMARK SMILES IDX 17 1 16 2 14 3 15 4 12 6 13 7 11 8 9 11 10 12 7 13 3 14 4 15
REMARK SMILES IDX 5 17 6 18 8 20 2 21 1 22 87 23 88 24 89 25 90 26 18 27 19 28
REMARK SMILES IDX 20 29 21 30 22 31 23 33 24 34 25 35 86 36 26 37 85 38 27 39
REMARK SMILES IDX 28 40 29 41 79 42 30 43 84 44 78 45 80 46 31 47 83 48 77 49
REMARK SMILES IDX 76 50 32 52 64 53 44 54 63 55 45 56 48 57 62 58 81 59 46 60
REMARK SMILES IDX 47 61 61 63 82 64 49 65 33 66 34 67 42 68 35 69 36 70 40 71
REMARK SMILES IDX 43 72 37 73 38 74 41 75 39 76 65 77 66 78 74 79 67 80 68 81
REMARK SMILES IDX 72 82 75 83 69 84 70 85 73 86 71 87 50 88 51 89 59 90 52 91
REMARK SMILES IDX 53 92 57 93 60 94 54 95 55 96 58 97 56 98
REMARK H PARENT 16 5 11 9 11 10 3 16 6 19 21 32 80 51 48 62
REMARK Flexibility Score: inf
ROOT
ATOM      1  C   UNL     1       2.501   3.645   2.003  1.00  0.00     0.116 C 
ENDROOT
BRANCH   1   2
ATOM      2  N   UNL     1       2.658   2.877   3.208  1.00  0.00    -0.350 N 
ATOM      3  C   UNL     1       2.237   1.599   3.471  1.00  0.00     0.290 C 
ATOM      4  O   UNL     1       2.836   1.036   4.391  1.00  0.00    -0.267 OA
ATOM      5  H   UNL     1       3.131   3.329   3.944  1.00  0.00     0.163 HD
BRANCH   3   6
ATOM      6  C   UNL     1       1.089   0.914   2.680  1.00  0.00     0.269 C 
ATOM      7  C   UNL     1      -0.144   1.827   2.552  1.00  0.00     0.101 C 
BRANCH   6   8
ATOM      8  N   UNL     1       1.546   0.242   1.409  1.00  0.00    -0.316 N 
ATOM      9  H   UNL     1       2.229  -0.453   1.710  1.00  0.00     0.348 HD
ATOM     10  H   UNL     1       0.637   0.004   1.012  1.00  0.00     0.348 HD
BRANCH   8  11
ATOM     11  C   UNL     1       2.154   0.890   0.238  1.00  0.00     0.271 C 
ATOM     12  C   UNL     1       1.440   1.914  -0.663  1.00  0.00     0.086 C 
BRANCH  11  13
ATOM     13  C   UNL     1       2.598  -0.238  -0.703  1.00  0.00     0.285 C 
ATOM     14  N   UNL     1      -0.715  -0.971  -1.238  1.00  0.00    -0.338 N 
ATOM     15  C   UNL     1       0.436  -1.469  -1.683  1.00  0.00     0.321 C 
ATOM     16  H   UNL     1      -1.481  -1.383  -1.697  1.00  0.00     0.165 HD
ATOM     17  O   UNL     1       0.339  -2.395  -2.501  1.00  0.00    -0.248 OA
ATOM     18  N   UNL     1       1.710  -1.083  -1.371  1.00  0.00    -0.273 N 
ATOM     19  H   UNL     1       2.287  -1.713  -1.860  1.00  0.00     0.175 HD
ATOM     20  O   UNL     1       3.807  -0.428  -0.892  1.00  0.00    -0.268 OA
BRANCH  14  21
ATOM     21  C   UNL     1      -1.151   0.003  -0.270  1.00  0.00     0.114 C 
ATOM     22  C   UNL     1      -2.069   1.050  -0.875  1.00  0.00     0.027 C 
ENDBRANCH  14  21
ENDBRANCH  11  13
ENDBRANCH   8  11
ENDBRANCH   6   8
BRANCH   6  23
ATOM     23  C   UNL     1       0.613  -0.241   3.647  1.00  0.00     0.453 C 
ATOM     24  F   UNL     1       0.209   0.210   4.854  1.00  0.00    -0.164 F 
ATOM     25  F   UNL     1      -0.455  -0.893   3.104  1.00  0.00    -0.164 F 
ATOM     26  F   UNL     1       1.565  -1.187   3.829  1.00  0.00    -0.164 F 
ENDBRANCH   6  23
ENDBRANCH   3   6
ENDBRANCH   1   2
BRANCH   1  27
ATOM     27  C   UNL     1       1.918   5.036   2.172  1.00  0.00     0.023 C 
BRANCH  27  28
ATOM     28  C   UNL     1       2.866   6.074   2.752  1.00  0.00     0.023 C 
BRANCH  28  29
ATOM     29  C   UNL     1       4.269   6.084   2.163  1.00  0.00     0.116 C 
BRANCH  29  30
ATOM     30  N   UNL     1       4.317   6.220   0.713  1.00  0.00    -0.352 N 
ATOM     31  C   UNL     1       5.271   6.869  -0.037  1.00  0.00     0.251 C 
ATOM     32  H   UNL     1       3.582   5.797   0.212  1.00  0.00     0.163 HD
ATOM     33  O   UNL     1       5.171   6.949  -1.257  1.00  0.00    -0.269 OA
BRANCH  31  34
ATOM     34  C   UNL     1       6.391   7.523   0.668  1.00  0.00     0.039 A 
ATOM     35  C   UNL     1       6.612   8.886   0.465  1.00  0.00     0.014 A 
ATOM     36  C   UNL     1       7.135   6.811   1.612  1.00  0.00     0.014 A 
ATOM     37  C   UNL     1       7.529   9.557   1.273  1.00  0.00     0.010 A 
ATOM     38  C   UNL     1       7.981   7.498   2.473  1.00  0.00     0.010 A 
ATOM     39  C   UNL     1       8.188   8.877   2.311  1.00  0.00    -0.014 A 
BRANCH  39  40
ATOM     40  C   UNL     1       9.120   9.582   3.226  1.00  0.00     0.031 A 
ATOM     41  C   UNL     1      10.572   9.194   3.249  1.00  0.00     0.074 A 
ATOM     42  C   UNL     1       8.654  10.519   4.075  1.00  0.00     0.049 A 
ATOM     43  N   UNL     1      11.535   9.629   4.021  1.00  0.00    -0.248 NA
ATOM     44  C   UNL     1      10.989   8.148   2.301  1.00  0.00     0.031 C 
ATOM     45  C   UNL     1       7.257  10.943   4.189  1.00  0.00     0.029 A 
ATOM     46  N   UNL     1       9.308  11.280   5.011  1.00  0.00    -0.354 N 
ATOM     47  C   UNL     1      12.660   8.899   3.664  1.00  0.00     0.074 A 
ATOM     48  C   UNL     1      12.249   7.948   2.655  1.00  0.00     0.031 C 
ATOM     49  C   UNL     1       7.165  11.909   5.118  1.00  0.00     0.029 A 
ATOM     50  C   UNL     1       8.488  12.151   5.686  1.00  0.00     0.049 A 
ATOM     51  H   UNL     1      10.275  11.208   5.184  1.00  0.00     0.167 HD
ATOM     52  C   UNL     1      13.930   9.030   4.114  1.00  0.00     0.037 A 
ATOM     53  C   UNL     1       8.776  13.047   6.649  1.00  0.00     0.037 A 
ATOM     54  C   UNL     1      14.345  10.002   5.088  1.00  0.00     0.049 A 
ATOM     55  C   UNL     1      10.202  13.191   7.112  1.00  0.00     0.074 A 
ATOM     56  C   UNL     1      15.615  10.247   5.578  1.00  0.00     0.029 A 
ATOM     57  N   UNL     1      13.492  10.898   5.715  1.00  0.00    -0.354 N 
ATOM     58  N   UNL     1      11.269  12.537   6.724  1.00  0.00    -0.248 NA
ATOM     59  C   UNL     1      10.464  14.210   8.139  1.00  0.00     0.031 C 
ATOM     60  C   UNL     1      15.527  11.276   6.522  1.00  0.00     0.029 A 
ATOM     61  C   UNL     1      14.209  11.698   6.589  1.00  0.00     0.049 A 
ATOM     62  H   UNL     1      12.521  10.958   5.561  1.00  0.00     0.167 HD
ATOM     63  C   UNL     1      12.331  13.087   7.428  1.00  0.00     0.074 A 
ATOM     64  C   UNL     1      11.781  14.136   8.261  1.00  0.00     0.031 C 
ATOM     65  C   UNL     1      13.645  12.754   7.389  1.00  0.00     0.037 A 
BRANCH  52  66
ATOM     66  C   UNL     1      14.963   8.108   3.535  1.00  0.00     0.064 A 
ATOM     67  C   UNL     1      15.387   8.229   2.202  1.00  0.00     0.173 A 
ATOM     68  C   UNL     1      15.547   7.104   4.321  1.00  0.00     0.173 A 
ATOM     69  F   UNL     1      14.847   9.162   1.404  1.00  0.00    -0.203 F 
ATOM     70  C   UNL     1      16.334   7.359   1.670  1.00  0.00     0.198 A 
ATOM     71  C   UNL     1      16.517   6.256   3.794  1.00  0.00     0.198 A 
ATOM     72  F   UNL     1      15.179   6.947   5.602  1.00  0.00    -0.203 F 
ATOM     73  F   UNL     1      16.682   7.459   0.380  1.00  0.00    -0.200 F 
ATOM     74  C   UNL     1      16.903   6.378   2.467  1.00  0.00     0.200 A 
ATOM     75  F   UNL     1      17.074   5.314   4.568  1.00  0.00    -0.200 F 
ATOM     76  F   UNL     1      17.818   5.543   1.955  1.00  0.00    -0.200 F 
ENDBRANCH  52  66
BRANCH  53  77
ATOM     77  C   UNL     1       7.708  13.916   7.207  1.00  0.00     0.064 A 
ATOM     78  C   UNL     1       7.680  15.289   6.923  1.00  0.00     0.173 A 
ATOM     79  C   UNL     1       6.708  13.403   8.045  1.00  0.00     0.173 A 
ATOM     80  F   UNL     1       8.628  15.829   6.142  1.00  0.00    -0.203 F 
ATOM     81  C   UNL     1       6.709  16.121   7.477  1.00  0.00     0.198 A 
ATOM     82  C   UNL     1       5.721  14.232   8.577  1.00  0.00     0.198 A 
ATOM     83  F   UNL     1       6.686  12.096   8.342  1.00  0.00    -0.203 F 
ATOM     84  F   UNL     1       6.736  17.437   7.228  1.00  0.00    -0.200 F 
ATOM     85  C   UNL     1       5.728  15.591   8.300  1.00  0.00     0.200 A 
ATOM     86  F   UNL     1       4.767  13.714   9.363  1.00  0.00    -0.200 F 
ATOM     87  F   UNL     1       4.795  16.390   8.834  1.00  0.00    -0.200 F 
ENDBRANCH  53  77
BRANCH  65  88
ATOM     88  C   UNL     1      14.585  13.568   8.228  1.00  0.00     0.064 A 
ATOM     89  C   UNL     1      14.627  13.441   9.623  1.00  0.00     0.173 A 
ATOM     90  C   UNL     1      15.483  14.458   7.619  1.00  0.00     0.173 A 
ATOM     91  F   UNL     1      13.778  12.613  10.252  1.00  0.00    -0.203 F 
ATOM     92  C   UNL     1      15.517  14.196  10.382  1.00  0.00     0.198 A 
ATOM     93  C   UNL     1      16.390  15.190   8.379  1.00  0.00     0.198 A 
ATOM     94  F   UNL     1      15.486  14.609   6.286  1.00  0.00    -0.203 F 
ATOM     95  F   UNL     1      15.508  14.094  11.719  1.00  0.00    -0.200 F 
ATOM     96  C   UNL     1      16.401  15.064   9.759  1.00  0.00     0.200 A 
ATOM     97  F   UNL     1      17.252  16.019   7.774  1.00  0.00    -0.200 F 
ATOM     98  F   UNL     1      17.261  15.786  10.492  1.00  0.00    -0.200 F 
ENDBRANCH  65  88
ENDBRANCH  39  40
ENDBRANCH  31  34
ENDBRANCH  29  30
ENDBRANCH  28  29
ENDBRANCH  27  28
ENDBRANCH   1  27
TORSDOF 16
