REMARK SMILES COc1ccccc1-c1ccc(C(=O)NCCCCNC(=O)c2ccc(-c3c4nc(c(-c5c(F)c(F)c(F)c(F)c5F)c5ccc([nH]5)c(-c5c(F)c(F)c(F)c(F)c5F)c5nc(c(-c6c(F)c(F)c(F)c(F)c6F)c6ccc3[nH]6)C=C5)C=C4)cc2)c(O)c1
REMARK SMILES IDX 17 1 16 2 15 3 13 4 14 5 12 7 9 8 10 9 88 10 11 11 86 12
REMARK SMILES IDX 8 13 3 14 4 15 5 16 7 17 6 18 2 19 1 20 87 21 18 23 19 24
REMARK SMILES IDX 20 25 21 26 22 28 23 29 24 30 85 31 25 32 84 33 26 34 27 35
REMARK SMILES IDX 28 36 78 37 29 38 83 39 77 40 79 41 30 42 82 43 76 44 75 45
REMARK SMILES IDX 31 47 63 48 43 49 62 50 44 51 47 52 61 53 80 54 45 55 46 56
REMARK SMILES IDX 60 58 81 59 48 60 32 61 33 62 41 63 34 64 35 65 39 66 42 67
REMARK SMILES IDX 36 68 37 69 40 70 38 71 64 72 65 73 73 74 66 75 67 76 71 77
REMARK SMILES IDX 74 78 68 79 69 80 72 81 70 82 49 83 50 84 58 85 51 86 52 87
REMARK SMILES IDX 56 88 59 89 53 90 54 91 57 92 55 93
REMARK H PARENT 15 6 87 22 20 27 79 46 47 57
REMARK Flexibility Score: inf
ROOT
ATOM      1  C   UNL     1       6.347   2.782   2.531  1.00  0.00     0.023 C 
ENDROOT
BRANCH   1   2
ATOM      2  C   UNL     1       5.582   2.868   1.207  1.00  0.00     0.116 C 
BRANCH   2   3
ATOM      3  N   UNL     1       6.339   2.244   0.143  1.00  0.00    -0.352 N 
ATOM      4  C   UNL     1       6.254   0.989  -0.407  1.00  0.00     0.255 C 
ATOM      5  O   UNL     1       7.060   0.708  -1.298  1.00  0.00    -0.269 OA
ATOM      6  H   UNL     1       7.034   2.817  -0.254  1.00  0.00     0.163 HD
BRANCH   4   7
ATOM      7  C   UNL     1       5.187   0.002  -0.075  1.00  0.00     0.081 A 
ATOM      8  C   UNL     1       3.136  -1.927   0.258  1.00  0.00    -0.011 A 
ATOM      9  C   UNL     1       3.677  -1.683  -1.008  1.00  0.00     0.010 A 
ATOM     10  C   UNL     1       3.665  -1.239   1.355  1.00  0.00     0.055 A 
ATOM     11  C   UNL     1       4.681  -0.722  -1.171  1.00  0.00     0.018 A 
ATOM     12  C   UNL     1       4.696  -0.310   1.196  1.00  0.00     0.128 A 
BRANCH   8  13
ATOM     13  C   UNL     1       2.042  -2.877   0.470  1.00  0.00     0.024 A 
ATOM     14  C   UNL     1       0.745  -2.467   0.838  1.00  0.00     0.126 A 
ATOM     15  C   UNL     1      -0.227  -3.409   1.187  1.00  0.00     0.047 A 
ATOM     16  C   UNL     1       0.066  -4.771   1.140  1.00  0.00     0.004 A 
ATOM     17  C   UNL     1       2.313  -4.256   0.418  1.00  0.00     0.012 A 
ATOM     18  C   UNL     1       1.334  -5.195   0.751  1.00  0.00     0.001 A 
BRANCH  14  19
ATOM     19  O   UNL     1       0.370  -1.154   0.989  1.00  0.00    -0.496 OA
ATOM     20  C   UNL     1       0.451  -0.406  -0.224  1.00  0.00     0.278 C 
ENDBRANCH  14  19
ENDBRANCH   8  13
BRANCH  12  21
ATOM     21  O   UNL     1       5.217   0.227   2.334  1.00  0.00    -0.507 OA
ATOM     22  H   UNL     1       5.910   0.855   2.281  1.00  0.00     0.293 HD
ENDBRANCH  12  21
ENDBRANCH   4   7
ENDBRANCH   2   3
ENDBRANCH   1   2
BRANCH   1  23
ATOM     23  C   UNL     1       7.445   3.825   2.714  1.00  0.00     0.023 C 
BRANCH  23  24
ATOM     24  C   UNL     1       6.946   5.253   2.839  1.00  0.00     0.116 C 
BRANCH  24  25
ATOM     25  N   UNL     1       6.034   5.456   3.956  1.00  0.00    -0.352 N 
ATOM     26  C   UNL     1       5.881   6.580   4.733  1.00  0.00     0.251 C 
ATOM     27  H   UNL     1       5.454   4.693   4.183  1.00  0.00     0.163 HD
ATOM     28  O   UNL     1       5.129   6.583   5.698  1.00  0.00    -0.269 OA
BRANCH  26  29
ATOM     29  C   UNL     1       6.684   7.775   4.409  1.00  0.00     0.039 A 
ATOM     30  C   UNL     1       7.448   8.367   5.417  1.00  0.00     0.014 A 
ATOM     31  C   UNL     1       6.733   8.258   3.099  1.00  0.00     0.014 A 
ATOM     32  C   UNL     1       8.322   9.405   5.093  1.00  0.00     0.010 A 
ATOM     33  C   UNL     1       7.657   9.239   2.765  1.00  0.00     0.010 A 
ATOM     34  C   UNL     1       8.458   9.822   3.760  1.00  0.00    -0.014 A 
BRANCH  34  35
ATOM     35  C   UNL     1       9.415  10.884   3.375  1.00  0.00     0.031 A 
ATOM     36  C   UNL     1       8.896  12.182   2.826  1.00  0.00     0.074 A 
ATOM     37  C   UNL     1      10.739  10.651   3.439  1.00  0.00     0.049 A 
ATOM     38  N   UNL     1       9.556  13.191   2.320  1.00  0.00    -0.248 NA
ATOM     39  C   UNL     1       7.434  12.351   2.812  1.00  0.00     0.031 C 
ATOM     40  C   UNL     1      11.360   9.412   3.910  1.00  0.00     0.029 A 
ATOM     41  N   UNL     1      11.803  11.444   3.090  1.00  0.00    -0.354 N 
ATOM     42  C   UNL     1       8.592  14.099   1.906  1.00  0.00     0.074 A 
ATOM     43  C   UNL     1       7.301  13.505   2.175  1.00  0.00     0.031 C 
ATOM     44  C   UNL     1      12.695   9.535   3.838  1.00  0.00     0.029 A 
ATOM     45  C   UNL     1      13.023  10.845   3.285  1.00  0.00     0.049 A 
ATOM     46  H   UNL     1      11.700  12.356   2.734  1.00  0.00     0.167 HD
ATOM     47  C   UNL     1       8.768  15.329   1.368  1.00  0.00     0.037 A 
ATOM     48  C   UNL     1      14.264  11.306   3.040  1.00  0.00     0.037 A 
ATOM     49  C   UNL     1      10.053  15.933   1.141  1.00  0.00     0.049 A 
ATOM     50  C   UNL     1      14.433  12.687   2.468  1.00  0.00     0.074 A 
ATOM     51  C   UNL     1      10.341  17.195   0.654  1.00  0.00     0.029 A 
ATOM     52  N   UNL     1      11.268  15.314   1.397  1.00  0.00    -0.354 N 
ATOM     53  N   UNL     1      13.516  13.559   2.128  1.00  0.00    -0.248 NA
ATOM     54  C   UNL     1      15.811  13.150   2.252  1.00  0.00     0.031 C 
ATOM     55  C   UNL     1      11.732  17.331   0.591  1.00  0.00     0.029 A 
ATOM     56  C   UNL     1      12.309  16.167   1.073  1.00  0.00     0.049 A 
ATOM     57  H   UNL     1      11.374  14.403   1.757  1.00  0.00     0.167 HD
ATOM     58  C   UNL     1      14.201  14.683   1.689  1.00  0.00     0.074 A 
ATOM     59  C   UNL     1      15.614  14.385   1.811  1.00  0.00     0.031 C 
ATOM     60  C   UNL     1      13.707  15.856   1.225  1.00  0.00     0.037 A 
BRANCH  47  61
ATOM     61  C   UNL     1       7.538  16.103   1.001  1.00  0.00     0.064 A 
ATOM     62  C   UNL     1       6.695  16.647   1.981  1.00  0.00     0.173 A 
ATOM     63  C   UNL     1       7.209  16.320  -0.345  1.00  0.00     0.173 A 
ATOM     64  F   UNL     1       6.959  16.452   3.282  1.00  0.00    -0.203 F 
ATOM     65  C   UNL     1       5.550  17.355   1.627  1.00  0.00     0.198 A 
ATOM     66  C   UNL     1       6.078  17.053  -0.695  1.00  0.00     0.198 A 
ATOM     67  F   UNL     1       7.983  15.823  -1.321  1.00  0.00    -0.203 F 
ATOM     68  F   UNL     1       4.732  17.823   2.581  1.00  0.00    -0.200 F 
ATOM     69  C   UNL     1       5.246  17.563   0.290  1.00  0.00     0.200 A 
ATOM     70  F   UNL     1       5.789  17.260  -1.987  1.00  0.00    -0.200 F 
ATOM     71  F   UNL     1       4.145  18.248  -0.049  1.00  0.00    -0.200 F 
ENDBRANCH  47  61
BRANCH  48  72
ATOM     72  C   UNL     1      15.445  10.468   3.368  1.00  0.00     0.064 A 
ATOM     73  C   UNL     1      16.273  10.793   4.451  1.00  0.00     0.173 A 
ATOM     74  C   UNL     1      15.772   9.334   2.611  1.00  0.00     0.173 A 
ATOM     75  F   UNL     1      16.010  11.881   5.191  1.00  0.00    -0.203 F 
ATOM     76  C   UNL     1      17.395  10.026   4.755  1.00  0.00     0.198 A 
ATOM     77  C   UNL     1      16.882   8.554   2.930  1.00  0.00     0.198 A 
ATOM     78  F   UNL     1      15.009   8.979   1.568  1.00  0.00    -0.203 F 
ATOM     79  F   UNL     1      18.192  10.383   5.771  1.00  0.00    -0.200 F 
ATOM     80  C   UNL     1      17.697   8.905   3.997  1.00  0.00     0.200 A 
ATOM     81  F   UNL     1      17.165   7.465   2.202  1.00  0.00    -0.200 F 
ATOM     82  F   UNL     1      18.776   8.166   4.290  1.00  0.00    -0.200 F 
ENDBRANCH  48  72
BRANCH  60  83
ATOM     83  C   UNL     1      14.695  16.922   0.862  1.00  0.00     0.064 A 
ATOM     84  C   UNL     1      15.447  16.854  -0.319  1.00  0.00     0.173 A 
ATOM     85  C   UNL     1      14.849  18.051   1.680  1.00  0.00     0.173 A 
ATOM     86  F   UNL     1      15.343  15.786  -1.124  1.00  0.00    -0.203 F 
ATOM     87  C   UNL     1      16.333  17.872  -0.659  1.00  0.00     0.198 A 
ATOM     88  C   UNL     1      15.718  19.078   1.325  1.00  0.00     0.198 A 
ATOM     89  F   UNL     1      14.146  18.163   2.817  1.00  0.00    -0.203 F 
ATOM     90  F   UNL     1      17.069  17.772  -1.775  1.00  0.00    -0.200 F 
ATOM     91  C   UNL     1      16.462  18.986   0.158  1.00  0.00     0.200 A 
ATOM     92  F   UNL     1      15.834  20.157   2.110  1.00  0.00    -0.200 F 
ATOM     93  F   UNL     1      17.309  19.969  -0.176  1.00  0.00    -0.200 F 
ENDBRANCH  60  83
ENDBRANCH  34  35
ENDBRANCH  26  29
ENDBRANCH  24  25
ENDBRANCH  23  24
ENDBRANCH   1  23
TORSDOF 14
