REMARK SMILES CC1(C)[C@@]2(CC[C@@H]2C(=O)NCc2ccco2)[C@]1(C)C(=O)NCCCCNC(=O)c1ccc(-c2c3nc(c(-c4c(F)c(F)c(F)c(F)c4F)c4ccc([nH]4)c(-c4c(F)c(F)c(F)c(F)c4F)c4nc(c(-c5c(F)c(F)c(F)c(F)c5F)c5ccc2[nH]5)C=C4)C=C3)cc1
REMARK SMILES IDX 23 1 22 2 21 3 19 4 20 5 17 7 1 8 2 9 3 10 4 11 18 12 5 13
REMARK SMILES IDX 7 14 6 15 8 16 9 17 10 18 11 20 12 21 13 22 16 23 14 24
REMARK SMILES IDX 15 25 24 26 25 27 26 28 27 29 28 31 29 32 30 33 91 34 31 35
REMARK SMILES IDX 90 36 32 37 33 38 34 39 84 40 35 41 89 42 83 43 85 44 36 45
REMARK SMILES IDX 88 46 82 47 81 48 37 50 69 51 49 52 68 53 50 54 53 55 67 56
REMARK SMILES IDX 86 57 51 58 52 59 66 61 87 62 54 63 38 64 39 65 47 66 40 67
REMARK SMILES IDX 41 68 45 69 48 70 42 71 43 72 46 73 44 74 70 75 71 76 79 77
REMARK SMILES IDX 72 78 73 79 77 80 80 81 74 82 75 83 78 84 76 85 55 86 56 87
REMARK SMILES IDX 64 88 57 89 58 90 62 91 65 92 59 93 60 94 63 95 61 96
REMARK H PARENT 21 6 10 19 26 30 85 49 53 60
REMARK Flexibility Score: inf
ROOT
ATOM      1  C   UNL     1      -2.850   1.716  -4.929  1.00  0.00     0.023 C 
ENDROOT
BRANCH   1   2
ATOM      2  C   UNL     1      -1.773   1.426  -3.896  1.00  0.00     0.116 C 
BRANCH   2   3
ATOM      3  N   UNL     1      -2.221   1.228  -2.540  1.00  0.00    -0.356 N 
ATOM      4  C   UNL     1      -1.686   0.398  -1.585  1.00  0.00     0.227 C 
ATOM      5  O   UNL     1      -2.087   0.483  -0.431  1.00  0.00    -0.274 OA
ATOM      6  H   UNL     1      -3.007   1.753  -2.265  1.00  0.00     0.163 HD
BRANCH   4   7
ATOM      7  C   UNL     1      -0.761  -0.732  -1.982  1.00  0.00     0.059 C 
ATOM      8  C   UNL     1       0.839   0.041  -0.055  1.00  0.00     0.013 C 
ATOM      9  C   UNL     1       0.539  -0.951  -1.166  1.00  0.00    -0.013 C 
ATOM     10  C   UNL     1       1.021  -2.339  -0.809  1.00  0.00     0.013 C 
ATOM     11  C   UNL     1       0.638  -0.519  -2.607  1.00  0.00     0.003 C 
ATOM     12  C   UNL     1      -1.553  -1.995  -2.315  1.00  0.00     0.023 C 
ATOM     13  C   UNL     1       0.986  -1.279  -3.846  1.00  0.00     0.010 C 
ATOM     14  C   UNL     1       1.364   0.714  -3.072  1.00  0.00     0.086 C 
ATOM     15  C   UNL     1       1.461   0.044  -4.445  1.00  0.00     0.015 C 
BRANCH  14  16
ATOM     16  C   UNL     1       2.616   1.237  -2.345  1.00  0.00     0.224 C 
ATOM     17  O   UNL     1       2.612   2.353  -1.796  1.00  0.00    -0.275 OA
ATOM     18  N   UNL     1       3.818   0.582  -2.281  1.00  0.00    -0.349 N 
ATOM     19  H   UNL     1       4.527   1.093  -1.827  1.00  0.00     0.163 HD
BRANCH  18  20
ATOM     20  C   UNL     1       4.243  -0.714  -2.753  1.00  0.00     0.191 C 
BRANCH  20  21
ATOM     21  C   UNL     1       4.906  -0.608  -4.077  1.00  0.00     0.122 A 
ATOM     22  C   UNL     1       5.328   0.439  -4.875  1.00  0.00     0.047 A 
ATOM     23  O   UNL     1       5.189  -1.794  -4.693  1.00  0.00    -0.467 OA
ATOM     24  C   UNL     1       5.896  -0.140  -6.036  1.00  0.00     0.042 A 
ATOM     25  C   UNL     1       5.791  -1.501  -5.874  1.00  0.00     0.195 A 
ENDBRANCH  20  21
ENDBRANCH  18  20
ENDBRANCH  14  16
ENDBRANCH   4   7
ENDBRANCH   2   3
ENDBRANCH   1   2
BRANCH   1  26
ATOM     26  C   UNL     1      -3.768   2.899  -4.646  1.00  0.00     0.023 C 
BRANCH  26  27
ATOM     27  C   UNL     1      -3.111   4.167  -4.113  1.00  0.00     0.116 C 
BRANCH  27  28
ATOM     28  N   UNL     1      -2.145   4.769  -5.020  1.00  0.00    -0.352 N 
ATOM     29  C   UNL     1      -2.131   6.019  -5.601  1.00  0.00     0.251 C 
ATOM     30  H   UNL     1      -1.382   4.193  -5.255  1.00  0.00     0.163 HD
ATOM     31  O   UNL     1      -1.254   6.320  -6.395  1.00  0.00    -0.269 OA
BRANCH  29  32
ATOM     32  C   UNL     1      -3.217   6.981  -5.304  1.00  0.00     0.039 A 
ATOM     33  C   UNL     1      -3.849   7.631  -6.368  1.00  0.00     0.014 A 
ATOM     34  C   UNL     1      -3.638   7.212  -3.994  1.00  0.00     0.014 A 
ATOM     35  C   UNL     1      -4.973   8.425  -6.126  1.00  0.00     0.010 A 
ATOM     36  C   UNL     1      -4.811   7.924  -3.764  1.00  0.00     0.010 A 
ATOM     37  C   UNL     1      -5.497   8.530  -4.828  1.00  0.00    -0.014 A 
BRANCH  37  38
ATOM     38  C   UNL     1      -6.761   9.262  -4.551  1.00  0.00     0.031 A 
ATOM     39  C   UNL     1      -6.753  10.448  -3.629  1.00  0.00     0.074 A 
ATOM     40  C   UNL     1      -7.927   8.803  -5.048  1.00  0.00     0.049 A 
ATOM     41  N   UNL     1      -7.760  11.134  -3.150  1.00  0.00    -0.248 NA
ATOM     42  C   UNL     1      -5.437  10.901  -3.152  1.00  0.00     0.031 C 
ATOM     43  C   UNL     1      -8.080   7.633  -5.915  1.00  0.00     0.029 A 
ATOM     44  N   UNL     1      -9.212   9.258  -4.879  1.00  0.00    -0.354 N 
ATOM     45  C   UNL     1      -7.201  12.074  -2.294  1.00  0.00     0.074 A 
ATOM     46  C   UNL     1      -5.774  11.840  -2.281  1.00  0.00     0.031 C 
ATOM     47  C   UNL     1      -9.379   7.474  -6.216  1.00  0.00     0.029 A 
ATOM     48  C   UNL     1     -10.156   8.504  -5.533  1.00  0.00     0.049 A 
ATOM     49  H   UNL     1      -9.436  10.050  -4.339  1.00  0.00     0.167 HD
ATOM     50  C   UNL     1      -7.820  13.059  -1.599  1.00  0.00     0.037 A 
ATOM     51  C   UNL     1     -11.497   8.623  -5.570  1.00  0.00     0.037 A 
ATOM     52  C   UNL     1      -9.234  13.318  -1.646  1.00  0.00     0.049 A 
ATOM     53  C   UNL     1     -12.158   9.736  -4.804  1.00  0.00     0.074 A 
ATOM     54  C   UNL     1      -9.947  14.332  -1.031  1.00  0.00     0.029 A 
ATOM     55  N   UNL     1     -10.151  12.556  -2.355  1.00  0.00    -0.354 N 
ATOM     56  N   UNL     1     -11.614  10.655  -4.044  1.00  0.00    -0.248 NA
ATOM     57  C   UNL     1     -13.622   9.831  -4.904  1.00  0.00     0.031 C 
ATOM     58  C   UNL     1     -11.301  14.164  -1.341  1.00  0.00     0.029 A 
ATOM     59  C   UNL     1     -11.425  13.071  -2.183  1.00  0.00     0.049 A 
ATOM     60  H   UNL     1      -9.929  11.767  -2.900  1.00  0.00     0.167 HD
ATOM     61  C   UNL     1     -12.660  11.454  -3.602  1.00  0.00     0.074 A 
ATOM     62  C   UNL     1     -13.871  10.917  -4.185  1.00  0.00     0.031 C 
ATOM     63  C   UNL     1     -12.619  12.535  -2.786  1.00  0.00     0.037 A 
BRANCH  50  64
ATOM     64  C   UNL     1      -6.963  13.934  -0.732  1.00  0.00     0.064 A 
ATOM     65  C   UNL     1      -6.060  14.857  -1.284  1.00  0.00     0.173 A 
ATOM     66  C   UNL     1      -7.058  13.865   0.666  1.00  0.00     0.173 A 
ATOM     67  F   UNL     1      -5.922  14.952  -2.615  1.00  0.00    -0.203 F 
ATOM     68  C   UNL     1      -5.261  15.653  -0.468  1.00  0.00     0.198 A 
ATOM     69  C   UNL     1      -6.280  14.685   1.478  1.00  0.00     0.198 A 
ATOM     70  F   UNL     1      -7.910  13.004   1.244  1.00  0.00    -0.203 F 
ATOM     71  F   UNL     1      -4.368  16.487  -1.017  1.00  0.00    -0.200 F 
ATOM     72  C   UNL     1      -5.376  15.571   0.912  1.00  0.00     0.200 A 
ATOM     73  F   UNL     1      -6.400  14.614   2.811  1.00  0.00    -0.200 F 
ATOM     74  F   UNL     1      -4.609  16.341   1.696  1.00  0.00    -0.200 F 
ENDBRANCH  50  64
BRANCH  51  75
ATOM     75  C   UNL     1     -12.304   7.679  -6.386  1.00  0.00     0.064 A 
ATOM     76  C   UNL     1     -12.929   8.108  -7.566  1.00  0.00     0.173 A 
ATOM     77  C   UNL     1     -12.471   6.340  -6.007  1.00  0.00     0.173 A 
ATOM     78  F   UNL     1     -12.815   9.386  -7.956  1.00  0.00    -0.203 F 
ATOM     79  C   UNL     1     -13.704   7.237  -8.327  1.00  0.00     0.198 A 
ATOM     80  C   UNL     1     -13.227   5.463  -6.783  1.00  0.00     0.198 A 
ATOM     81  F   UNL     1     -11.891   5.880  -4.889  1.00  0.00    -0.203 F 
ATOM     82  F   UNL     1     -14.324   7.683  -9.428  1.00  0.00    -0.200 F 
ATOM     83  C   UNL     1     -13.849   5.913  -7.938  1.00  0.00     0.200 A 
ATOM     84  F   UNL     1     -13.354   4.182  -6.411  1.00  0.00    -0.200 F 
ATOM     85  F   UNL     1     -14.592   5.075  -8.673  1.00  0.00    -0.200 F 
ENDBRANCH  51  75
BRANCH  63  86
ATOM     86  C   UNL     1     -13.913  13.240  -2.511  1.00  0.00     0.064 A 
ATOM     87  C   UNL     1     -14.884  12.692  -1.661  1.00  0.00     0.173 A 
ATOM     88  C   UNL     1     -14.162  14.504  -3.067  1.00  0.00     0.173 A 
ATOM     89  F   UNL     1     -14.699  11.479  -1.118  1.00  0.00    -0.203 F 
ATOM     90  C   UNL     1     -16.067  13.376  -1.393  1.00  0.00     0.198 A 
ATOM     91  C   UNL     1     -15.334  15.196  -2.776  1.00  0.00     0.198 A 
ATOM     92  F   UNL     1     -13.262  15.073  -3.882  1.00  0.00    -0.203 F 
ATOM     93  F   UNL     1     -16.999  12.816  -0.609  1.00  0.00    -0.200 F 
ATOM     94  C   UNL     1     -16.287  14.630  -1.944  1.00  0.00     0.200 A 
ATOM     95  F   UNL     1     -15.540  16.413  -3.300  1.00  0.00    -0.200 F 
ATOM     96  F   UNL     1     -17.422  15.290  -1.677  1.00  0.00    -0.200 F 
ENDBRANCH  63  86
ENDBRANCH  37  38
ENDBRANCH  29  32
ENDBRANCH  27  28
ENDBRANCH  26  27
ENDBRANCH   1  26
TORSDOF 14
