REMARK SMILES CC(C)C[C@@H](CNC(=O)N(C)CCC#N)C(=O)NCCCCNC(=O)c1ccc(-c2c3nc(c(-c4c(F)c(F)c(F)c(F)c4F)c4ccc([nH]4)c(-c4c(F)c(F)c(F)c(F)c4F)c4nc(c(-c5c(F)c(F)c(F)c(F)c5F)c5ccc2[nH]5)C=C4)C=C3)cc1
REMARK SMILES IDX 16 1 17 2 18 3 5 5 4 6 2 7 1 8 3 9 6 10 7 11 8 12 9 14 10 15
REMARK SMILES IDX 11 16 12 17 13 18 14 19 15 20 19 21 20 22 21 23 22 24 23 25
REMARK SMILES IDX 24 26 25 28 26 29 27 30 88 31 28 32 87 33 29 34 30 35 31 36
REMARK SMILES IDX 81 37 32 38 86 39 80 40 82 41 33 42 85 43 79 44 78 45 34 47
REMARK SMILES IDX 66 48 46 49 65 50 47 51 50 52 64 53 83 54 48 55 49 56 63 58
REMARK SMILES IDX 84 59 51 60 35 61 36 62 44 63 37 64 38 65 42 66 45 67 39 68
REMARK SMILES IDX 40 69 43 70 41 71 67 72 68 73 76 74 69 75 70 76 74 77 77 78
REMARK SMILES IDX 71 79 72 80 75 81 73 82 52 83 53 84 61 85 54 86 55 87 59 88
REMARK SMILES IDX 62 89 56 90 57 91 60 92 58 93
REMARK H PARENT 18 4 7 13 23 27 82 46 50 57
REMARK Flexibility Score: inf
ROOT
ATOM      1  C   UNL     1      -2.964   0.431   1.123  1.00  0.00     0.224 C 
ATOM      2  O   UNL     1      -3.612  -0.622   1.112  1.00  0.00    -0.275 OA
ATOM      3  N   UNL     1      -3.675   1.592   1.151  1.00  0.00    -0.356 N 
ATOM      4  H   UNL     1      -4.611   1.505   0.858  1.00  0.00     0.163 HD
ENDROOT
BRANCH   1   5
ATOM      5  C   UNL     1      -1.435   0.369   1.110  1.00  0.00     0.098 C 
BRANCH   5   6
ATOM      6  C   UNL     1      -0.777   1.368   0.136  1.00  0.00     0.018 C 
BRANCH   6   7
ATOM      7  C   UNL     1       0.760   1.384   0.054  1.00  0.00    -0.017 C 
ATOM      8  C   UNL     1       1.354   0.027  -0.315  1.00  0.00     0.007 C 
ATOM      9  C   UNL     1       1.194   2.431  -0.981  1.00  0.00     0.007 C 
ENDBRANCH   6   7
ENDBRANCH   5   6
BRANCH   5  10
ATOM     10  C   UNL     1      -0.849   0.182   2.524  1.00  0.00     0.131 C 
BRANCH  10  11
ATOM     11  N   UNL     1      -1.085   1.264   3.455  1.00  0.00    -0.337 N 
ATOM     12  C   UNL     1      -2.078   1.563   4.300  1.00  0.00     0.317 C 
ATOM     13  H   UNL     1      -0.355   1.924   3.470  1.00  0.00     0.165 HD
ATOM     14  O   UNL     1      -2.427   2.740   4.228  1.00  0.00    -0.249 OA
BRANCH  12  15
ATOM     15  N   UNL     1      -2.608   0.734   5.241  1.00  0.00    -0.327 N 
ATOM     16  C   UNL     1      -2.346  -0.682   5.423  1.00  0.00     0.148 C 
BRANCH  15  17
ATOM     17  C   UNL     1      -3.535   1.336   6.242  1.00  0.00     0.136 C 
BRANCH  17  18
ATOM     18  C   UNL     1      -2.911   2.329   7.263  1.00  0.00     0.141 C 
BRANCH  18  19
ATOM     19  C   UNL     1      -2.696   3.673   6.585  1.00  0.00     0.064 C 
ATOM     20  N   UNL     1      -2.517   4.787   6.023  1.00  0.00    -0.198 NA
ENDBRANCH  18  19
ENDBRANCH  17  18
ENDBRANCH  15  17
ENDBRANCH  12  15
ENDBRANCH  10  11
ENDBRANCH   5  10
ENDBRANCH   1   5
BRANCH   3  21
ATOM     21  C   UNL     1      -3.286   2.936   1.540  1.00  0.00     0.116 C 
BRANCH  21  22
ATOM     22  C   UNL     1      -3.662   4.009   0.526  1.00  0.00     0.023 C 
BRANCH  22  23
ATOM     23  C   UNL     1      -5.131   4.430   0.583  1.00  0.00     0.023 C 
BRANCH  23  24
ATOM     24  C   UNL     1      -5.644   4.891   1.948  1.00  0.00     0.116 C 
BRANCH  24  25
ATOM     25  N   UNL     1      -4.903   6.006   2.518  1.00  0.00    -0.352 N 
ATOM     26  C   UNL     1      -5.391   7.152   3.110  1.00  0.00     0.251 C 
ATOM     27  H   UNL     1      -3.922   5.933   2.474  1.00  0.00     0.163 HD
ATOM     28  O   UNL     1      -4.653   8.071   3.423  1.00  0.00    -0.269 OA
BRANCH  26  29
ATOM     29  C   UNL     1      -6.850   7.276   3.323  1.00  0.00     0.039 A 
ATOM     30  C   UNL     1      -7.499   8.431   2.881  1.00  0.00     0.014 A 
ATOM     31  C   UNL     1      -7.575   6.234   3.905  1.00  0.00     0.014 A 
ATOM     32  C   UNL     1      -8.892   8.501   2.940  1.00  0.00     0.010 A 
ATOM     33  C   UNL     1      -8.966   6.273   3.892  1.00  0.00     0.010 A 
ATOM     34  C   UNL     1      -9.639   7.402   3.398  1.00  0.00    -0.014 A 
BRANCH  34  35
ATOM     35  C   UNL     1     -11.123   7.406   3.347  1.00  0.00     0.031 A 
ATOM     36  C   UNL     1     -11.924   7.324   4.615  1.00  0.00     0.074 A 
ATOM     37  C   UNL     1     -11.747   7.407   2.153  1.00  0.00     0.049 A 
ATOM     38  N   UNL     1     -13.222   7.244   4.771  1.00  0.00    -0.248 NA
ATOM     39  C   UNL     1     -11.166   7.300   5.875  1.00  0.00     0.031 C 
ATOM     40  C   UNL     1     -11.081   7.427   0.850  1.00  0.00     0.029 A 
ATOM     41  N   UNL     1     -13.084   7.380   1.840  1.00  0.00    -0.354 N 
ATOM     42  C   UNL     1     -13.432   7.146   6.139  1.00  0.00     0.074 A 
ATOM     43  C   UNL     1     -12.128   7.119   6.766  1.00  0.00     0.031 C 
ATOM     44  C   UNL     1     -12.009   7.436  -0.120  1.00  0.00     0.029 A 
ATOM     45  C   UNL     1     -13.335   7.385   0.490  1.00  0.00     0.049 A 
ATOM     46  H   UNL     1     -13.796   7.359   2.520  1.00  0.00     0.167 HD
ATOM     47  C   UNL     1     -14.606   7.106   6.813  1.00  0.00     0.037 A 
ATOM     48  C   UNL     1     -14.502   7.346  -0.181  1.00  0.00     0.037 A 
ATOM     49  C   UNL     1     -15.901   7.159   6.188  1.00  0.00     0.049 A 
ATOM     50  C   UNL     1     -15.792   7.305   0.592  1.00  0.00     0.074 A 
ATOM     51  C   UNL     1     -17.148   7.190   6.787  1.00  0.00     0.029 A 
ATOM     52  N   UNL     1     -16.115   7.187   4.817  1.00  0.00    -0.354 N 
ATOM     53  N   UNL     1     -15.980   7.286   1.889  1.00  0.00    -0.248 NA
ATOM     54  C   UNL     1     -17.034   7.286  -0.194  1.00  0.00     0.031 C 
ATOM     55  C   UNL     1     -18.118   7.190   5.779  1.00  0.00     0.029 A 
ATOM     56  C   UNL     1     -17.476   7.212   4.552  1.00  0.00     0.049 A 
ATOM     57  H   UNL     1     -15.406   7.189   4.134  1.00  0.00     0.167 HD
ATOM     58  C   UNL     1     -17.356   7.282   2.075  1.00  0.00     0.074 A 
ATOM     59  C   UNL     1     -17.956   7.314   0.758  1.00  0.00     0.031 C 
ATOM     60  C   UNL     1     -18.058   7.253   3.235  1.00  0.00     0.037 A 
BRANCH  47  61
ATOM     61  C   UNL     1     -14.542   7.005   8.310  1.00  0.00     0.064 A 
ATOM     62  C   UNL     1     -14.088   8.073   9.100  1.00  0.00     0.173 A 
ATOM     63  C   UNL     1     -14.967   5.840   8.965  1.00  0.00     0.173 A 
ATOM     64  F   UNL     1     -13.659   9.205   8.523  1.00  0.00    -0.203 F 
ATOM     65  C   UNL     1     -14.032   7.965  10.487  1.00  0.00     0.198 A 
ATOM     66  C   UNL     1     -14.940   5.748  10.354  1.00  0.00     0.198 A 
ATOM     67  F   UNL     1     -15.416   4.792   8.258  1.00  0.00    -0.203 F 
ATOM     68  F   UNL     1     -13.545   8.979  11.216  1.00  0.00    -0.200 F 
ATOM     69  C   UNL     1     -14.464   6.806  11.113  1.00  0.00     0.200 A 
ATOM     70  F   UNL     1     -15.370   4.632  10.959  1.00  0.00    -0.200 F 
ATOM     71  F   UNL     1     -14.415   6.706  12.448  1.00  0.00    -0.200 F 
ENDBRANCH  47  61
BRANCH  48  72
ATOM     72  C   UNL     1     -14.505   7.374  -1.667  1.00  0.00     0.064 A 
ATOM     73  C   UNL     1     -14.968   8.500  -2.364  1.00  0.00     0.173 A 
ATOM     74  C   UNL     1     -14.052   6.282  -2.421  1.00  0.00     0.173 A 
ATOM     75  F   UNL     1     -15.432   9.561  -1.687  1.00  0.00    -0.203 F 
ATOM     76  C   UNL     1     -14.996   8.524  -3.756  1.00  0.00     0.198 A 
ATOM     77  C   UNL     1     -14.054   6.318  -3.813  1.00  0.00     0.198 A 
ATOM     78  F   UNL     1     -13.596   5.183  -1.802  1.00  0.00    -0.203 F 
ATOM     79  F   UNL     1     -15.486   9.594  -4.396  1.00  0.00    -0.200 F 
ATOM     80  C   UNL     1     -14.534   7.435  -4.480  1.00  0.00     0.200 A 
ATOM     81  F   UNL     1     -13.595   5.269  -4.509  1.00  0.00    -0.200 F 
ATOM     82  F   UNL     1     -14.558   7.460  -5.820  1.00  0.00    -0.200 F 
ENDBRANCH  48  72
BRANCH  60  83
ATOM     83  C   UNL     1     -19.555   7.291   3.134  1.00  0.00     0.064 A 
ATOM     84  C   UNL     1     -20.291   6.189   2.676  1.00  0.00     0.173 A 
ATOM     85  C   UNL     1     -20.264   8.432   3.539  1.00  0.00     0.173 A 
ATOM     86  F   UNL     1     -19.660   5.080   2.262  1.00  0.00    -0.203 F 
ATOM     87  C   UNL     1     -21.681   6.236   2.606  1.00  0.00     0.198 A 
ATOM     88  C   UNL     1     -21.654   8.465   3.497  1.00  0.00     0.198 A 
ATOM     89  F   UNL     1     -19.607   9.511   3.991  1.00  0.00    -0.203 F 
ATOM     90  F   UNL     1     -22.362   5.188   2.122  1.00  0.00    -0.200 F 
ATOM     91  C   UNL     1     -22.361   7.370   3.023  1.00  0.00     0.200 A 
ATOM     92  F   UNL     1     -22.311   9.557   3.914  1.00  0.00    -0.200 F 
ATOM     93  F   UNL     1     -23.700   7.411   2.963  1.00  0.00    -0.200 F 
ENDBRANCH  60  83
ENDBRANCH  34  35
ENDBRANCH  26  29
ENDBRANCH  24  25
ENDBRANCH  23  24
ENDBRANCH  22  23
ENDBRANCH  21  22
ENDBRANCH   3  21
TORSDOF 19
