REMARK SMILES COc1ccccc1N1C(=O)[C@@H]2[C@@H](C1=O)[C@@](Cc1ccccc1)(C(=O)NCCCCNC(=O)c1ccc(-c3c4nc(c(-c5c(F)c(F)c(F)c(F)c5F)c5ccc([nH]5)c(-c5c(F)c(F)c(F)c(F)c5F)c5nc(c(-c6c(F)c(F)c(F)c(F)c6F)c6ccc3[nH]6)C=C5)C=C4)cc1)[NH2+][C@H]2c1ccc(C)cc1
REMARK SMILES IDX 28 1 27 2 26 3 24 4 25 5 16 7 9 8 10 9 14 10 11 11 12 12
REMARK SMILES IDX 13 13 15 14 98 15 97 16 8 19 3 20 4 21 5 22 7 23 6 24 2 25
REMARK SMILES IDX 1 26 99 27 100 28 105 29 101 30 104 31 102 32 103 33 17 34
REMARK SMILES IDX 18 35 19 36 23 37 20 38 22 39 21 40 29 41 30 42 31 43 32 44
REMARK SMILES IDX 33 46 34 47 35 48 96 49 36 50 95 51 37 52 38 53 39 54 89 55
REMARK SMILES IDX 40 56 94 57 88 58 90 59 41 60 93 61 87 62 86 63 42 65 74 66
REMARK SMILES IDX 54 67 73 68 55 69 58 70 72 71 91 72 56 73 57 74 71 76 92 77
REMARK SMILES IDX 59 78 43 79 44 80 52 81 45 82 46 83 50 84 53 85 47 86 48 87
REMARK SMILES IDX 51 88 49 89 75 90 76 91 84 92 77 93 78 94 82 95 85 96 79 97
REMARK SMILES IDX 80 98 83 99 81 100 60 101 61 102 69 103 62 104 63 105 67 106
REMARK SMILES IDX 70 107 64 108 65 109 68 110 66 111
REMARK H PARENT 26 6 97 17 97 18 31 45 90 64 58 75
REMARK Flexibility Score: inf
ROOT
ATOM      1  C   UNL     1       8.427  -0.834  -0.724  1.00  0.00     0.023 C 
ENDROOT
BRANCH   1   2
ATOM      2  C   UNL     1       7.079  -1.324  -1.268  1.00  0.00     0.116 C 
BRANCH   2   3
ATOM      3  N   UNL     1       6.617  -2.467  -0.505  1.00  0.00    -0.351 N 
ATOM      4  C   UNL     1       6.149  -2.542   0.766  1.00  0.00     0.282 C 
ATOM      5  O   UNL     1       6.772  -3.337   1.487  1.00  0.00    -0.268 OA
ATOM      6  H   UNL     1       6.647  -3.326  -0.986  1.00  0.00     0.163 HD
BRANCH   4   7
ATOM      7  C   UNL     1       4.901  -1.806   1.344  1.00  0.00     0.192 C 
ATOM      8  N   UNL     1       3.380   0.644  -0.977  1.00  0.00    -0.246 N 
ATOM      9  C   UNL     1       3.893   1.425   0.061  1.00  0.00     0.244 C 
ATOM     10  C   UNL     1       3.715  -0.700  -0.827  1.00  0.00     0.245 C 
ATOM     11  O   UNL     1       3.640   2.579   0.359  1.00  0.00    -0.273 OA
ATOM     12  C   UNL     1       4.871   0.516   0.762  1.00  0.00     0.162 C 
ATOM     13  C   UNL     1       4.103  -0.786   0.604  1.00  0.00     0.170 C 
ATOM     14  O   UNL     1       3.717  -1.597  -1.649  1.00  0.00    -0.273 OA
ATOM     15  C   UNL     1       5.255   0.495   2.223  1.00  0.00     0.228 C 
ATOM     16  N   UNL     1       5.311  -0.958   2.537  1.00  0.00    -0.326 N 
ATOM     17  H   UNL     1       6.265  -1.202   2.804  1.00  0.00     0.347 HD
ATOM     18  H   UNL     1       4.660  -1.145   3.299  1.00  0.00     0.347 HD
BRANCH   8  19
ATOM     19  C   UNL     1       2.480   1.095  -1.959  1.00  0.00     0.094 A 
ATOM     20  C   UNL     1       1.196   0.532  -2.059  1.00  0.00     0.143 A 
ATOM     21  C   UNL     1       0.333   0.898  -3.093  1.00  0.00     0.048 A 
ATOM     22  C   UNL     1       0.740   1.849  -4.026  1.00  0.00     0.004 A 
ATOM     23  C   UNL     1       2.864   2.079  -2.874  1.00  0.00     0.031 A 
ATOM     24  C   UNL     1       2.000   2.440  -3.915  1.00  0.00     0.002 A 
BRANCH  20  25
ATOM     25  O   UNL     1       0.739  -0.390  -1.150  1.00  0.00    -0.495 OA
ATOM     26  C   UNL     1       0.256   0.261   0.029  1.00  0.00     0.278 C 
ENDBRANCH  20  25
ENDBRANCH   8  19
BRANCH  15  27
ATOM     27  C   UNL     1       6.584   1.181   2.504  1.00  0.00     0.010 A 
ATOM     28  C   UNL     1       7.801   0.556   2.197  1.00  0.00     0.010 A 
ATOM     29  C   UNL     1       6.644   2.467   3.051  1.00  0.00     0.010 A 
ATOM     30  C   UNL     1       9.028   1.195   2.359  1.00  0.00     0.004 A 
ATOM     31  C   UNL     1       7.880   3.104   3.253  1.00  0.00     0.004 A 
ATOM     32  C   UNL     1       9.080   2.476   2.898  1.00  0.00    -0.051 A 
ATOM     33  C   UNL     1      10.405   3.165   3.035  1.00  0.00     0.044 C 
ENDBRANCH  15  27
BRANCH   7  34
ATOM     34  C   UNL     1       3.986  -2.905   1.982  1.00  0.00     0.115 C 
BRANCH  34  35
ATOM     35  C   UNL     1       3.118  -3.760   1.084  1.00  0.00    -0.041 A 
ATOM     36  C   UNL     1       1.739  -3.838   1.342  1.00  0.00     0.004 A 
ATOM     37  C   UNL     1       3.654  -4.580   0.084  1.00  0.00     0.004 A 
ATOM     38  C   UNL     1       0.921  -4.710   0.621  1.00  0.00     0.000 A 
ATOM     39  C   UNL     1       2.833  -5.446  -0.645  1.00  0.00     0.000 A 
ATOM     40  C   UNL     1       1.469  -5.515  -0.373  1.00  0.00     0.000 A 
ENDBRANCH  34  35
ENDBRANCH   7  34
ENDBRANCH   4   7
ENDBRANCH   2   3
ENDBRANCH   1   2
BRANCH   1  41
ATOM     41  C   UNL     1       9.605  -1.006  -1.664  1.00  0.00     0.023 C 
BRANCH  41  42
ATOM     42  C   UNL     1       9.498  -0.188  -2.932  1.00  0.00     0.116 C 
BRANCH  42  43
ATOM     43  N   UNL     1       9.443   1.255  -2.723  1.00  0.00    -0.352 N 
ATOM     44  C   UNL     1      10.008   2.235  -3.511  1.00  0.00     0.251 C 
ATOM     45  H   UNL     1       8.946   1.563  -1.931  1.00  0.00     0.163 HD
ATOM     46  O   UNL     1       9.933   3.420  -3.213  1.00  0.00    -0.269 OA
BRANCH  44  47
ATOM     47  C   UNL     1      10.768   1.802  -4.700  1.00  0.00     0.039 A 
ATOM     48  C   UNL     1      12.098   2.198  -4.840  1.00  0.00     0.014 A 
ATOM     49  C   UNL     1      10.207   0.861  -5.562  1.00  0.00     0.014 A 
ATOM     50  C   UNL     1      12.895   1.575  -5.801  1.00  0.00     0.010 A 
ATOM     51  C   UNL     1      11.036   0.143  -6.408  1.00  0.00     0.010 A 
ATOM     52  C   UNL     1      12.384   0.507  -6.558  1.00  0.00    -0.014 A 
BRANCH  52  53
ATOM     53  C   UNL     1      13.204  -0.207  -7.569  1.00  0.00     0.031 A 
ATOM     54  C   UNL     1      12.723  -0.243  -8.997  1.00  0.00     0.074 A 
ATOM     55  C   UNL     1      14.319  -0.873  -7.208  1.00  0.00     0.049 A 
ATOM     56  N   UNL     1      13.191  -0.918 -10.016  1.00  0.00    -0.248 NA
ATOM     57  C   UNL     1      11.515   0.542  -9.309  1.00  0.00     0.031 C 
ATOM     58  C   UNL     1      14.854  -0.973  -5.848  1.00  0.00     0.029 A 
ATOM     59  N   UNL     1      15.204  -1.603  -7.963  1.00  0.00    -0.354 N 
ATOM     60  C   UNL     1      12.317  -0.662 -11.065  1.00  0.00     0.074 A 
ATOM     61  C   UNL     1      11.243   0.148 -10.541  1.00  0.00     0.031 C 
ATOM     62  C   UNL     1      15.992  -1.689  -5.872  1.00  0.00     0.029 A 
ATOM     63  C   UNL     1      16.248  -2.129  -7.240  1.00  0.00     0.049 A 
ATOM     64  H   UNL     1      15.101  -1.737  -8.933  1.00  0.00     0.167 HD
ATOM     65  C   UNL     1      12.425  -1.022 -12.364  1.00  0.00     0.037 A 
ATOM     66  C   UNL     1      17.292  -2.878  -7.644  1.00  0.00     0.037 A 
ATOM     67  C   UNL     1      13.531  -1.767 -12.896  1.00  0.00     0.049 A 
ATOM     68  C   UNL     1      17.414  -3.224  -9.107  1.00  0.00     0.074 A 
ATOM     69  C   UNL     1      13.763  -2.157 -14.202  1.00  0.00     0.029 A 
ATOM     70  N   UNL     1      14.608  -2.211 -12.144  1.00  0.00    -0.354 N 
ATOM     71  N   UNL     1      16.605  -2.934 -10.098  1.00  0.00    -0.248 NA
ATOM     72  C   UNL     1      18.604  -3.986  -9.510  1.00  0.00     0.031 C 
ATOM     73  C   UNL     1      14.975  -2.853 -14.239  1.00  0.00     0.029 A 
ATOM     74  C   UNL     1      15.516  -2.858 -12.963  1.00  0.00     0.049 A 
ATOM     75  H   UNL     1      14.711  -2.084 -11.173  1.00  0.00     0.167 HD
ATOM     76  C   UNL     1      17.210  -3.436 -11.243  1.00  0.00     0.074 A 
ATOM     77  C   UNL     1      18.458  -4.037 -10.826  1.00  0.00     0.031 C 
ATOM     78  C   UNL     1      16.772  -3.407 -12.525  1.00  0.00     0.037 A 
BRANCH  65  79
ATOM     79  C   UNL     1      11.343  -0.569 -13.300  1.00  0.00     0.064 A 
ATOM     80  C   UNL     1      11.184   0.786 -13.631  1.00  0.00     0.173 A 
ATOM     81  C   UNL     1      10.470  -1.494 -13.889  1.00  0.00     0.173 A 
ATOM     82  F   UNL     1      11.980   1.714 -13.078  1.00  0.00    -0.203 F 
ATOM     83  C   UNL     1      10.173   1.201 -14.492  1.00  0.00     0.198 A 
ATOM     84  C   UNL     1       9.481  -1.080 -14.778  1.00  0.00     0.198 A 
ATOM     85  F   UNL     1      10.577  -2.802 -13.607  1.00  0.00    -0.203 F 
ATOM     86  F   UNL     1      10.006   2.506 -14.746  1.00  0.00    -0.200 F 
ATOM     87  C   UNL     1       9.329   0.267 -15.072  1.00  0.00     0.200 A 
ATOM     88  F   UNL     1       8.672  -1.984 -15.347  1.00  0.00    -0.200 F 
ATOM     89  F   UNL     1       8.361   0.667 -15.909  1.00  0.00    -0.200 F 
ENDBRANCH  65  79
BRANCH  66  90
ATOM     90  C   UNL     1      18.331  -3.321  -6.675  1.00  0.00     0.064 A 
ATOM     91  C   UNL     1      19.641  -2.822  -6.745  1.00  0.00     0.173 A 
ATOM     92  C   UNL     1      18.056  -4.284  -5.694  1.00  0.00     0.173 A 
ATOM     93  F   UNL     1      19.960  -1.911  -7.677  1.00  0.00    -0.203 F 
ATOM     94  C   UNL     1      20.644  -3.301  -5.904  1.00  0.00     0.198 A 
ATOM     95  C   UNL     1      19.053  -4.739  -4.831  1.00  0.00     0.198 A 
ATOM     96  F   UNL     1      16.819  -4.787  -5.575  1.00  0.00    -0.203 F 
ATOM     97  F   UNL     1      21.900  -2.857  -6.043  1.00  0.00    -0.200 F 
ATOM     98  C   UNL     1      20.349  -4.259  -4.947  1.00  0.00     0.200 A 
ATOM     99  F   UNL     1      18.760  -5.654  -3.897  1.00  0.00    -0.200 F 
ATOM    100  F   UNL     1      21.314  -4.728  -4.145  1.00  0.00    -0.200 F 
ENDBRANCH  66  90
BRANCH  78 101
ATOM    101  C   UNL     1      17.683  -3.968 -13.577  1.00  0.00     0.064 A 
ATOM    102  C   UNL     1      17.908  -5.346 -13.702  1.00  0.00     0.173 A 
ATOM    103  C   UNL     1      18.304  -3.110 -14.497  1.00  0.00     0.173 A 
ATOM    104  F   UNL     1      17.345  -6.204 -12.838  1.00  0.00    -0.203 F 
ATOM    105  C   UNL     1      18.750  -5.843 -14.693  1.00  0.00     0.198 A 
ATOM    106  C   UNL     1      19.119  -3.613 -15.506  1.00  0.00     0.198 A 
ATOM    107  F   UNL     1      18.110  -1.785 -14.425  1.00  0.00    -0.203 F 
ATOM    108  F   UNL     1      18.994  -7.159 -14.762  1.00  0.00    -0.200 F 
ATOM    109  C   UNL     1      19.349  -4.978 -15.597  1.00  0.00     0.200 A 
ATOM    110  F   UNL     1      19.684  -2.778 -16.388  1.00  0.00    -0.200 F 
ATOM    111  F   UNL     1      20.154  -5.459 -16.553  1.00  0.00    -0.200 F 
ENDBRANCH  78 101
ENDBRANCH  52  53
ENDBRANCH  44  47
ENDBRANCH  42  43
ENDBRANCH  41  42
ENDBRANCH   1  41
TORSDOF 16
