REMARK SMILES O=C(NCCCCNC(=O)[C@@]1(Cl)C[C@@H]2CC[C@H]1C2)c1ccc(-c2c3nc(c(-c4c(F)c(F)c(F)c(F)c4F)c4ccc([nH]4)c(-c4c(F)c(F)c(F)c(F)c4F)c4nc(c(-c5c(F)c(F)c(F)c(F)c5F)c5ccc2[nH]5)C=C4)C=C3)cc1
REMARK SMILES IDX 4 1 3 2 1 3 2 4 19 6 20 7 81 8 21 9 80 10 22 11 23 12 24 13
REMARK SMILES IDX 74 14 25 15 79 16 73 17 75 18 26 19 78 20 72 21 71 22 27 24
REMARK SMILES IDX 59 25 39 26 58 27 40 28 43 29 57 30 76 31 41 32 42 33 56 35
REMARK SMILES IDX 77 36 44 37 28 38 29 39 37 40 30 41 31 42 35 43 38 44 32 45
REMARK SMILES IDX 33 46 36 47 34 48 60 49 61 50 69 51 62 52 63 53 67 54 70 55
REMARK SMILES IDX 64 56 65 57 68 58 66 59 45 60 46 61 54 62 47 63 48 64 52 65
REMARK SMILES IDX 55 66 49 67 50 68 53 69 51 70 5 71 6 72 7 73 8 74 9 75 10 77
REMARK SMILES IDX 11 78 13 79 17 80 12 81 14 82 16 83 18 84 15 85
REMARK H PARENT 3 5 75 23 43 34 8 76
REMARK Flexibility Score: inf
ROOT
ATOM      1  C   UNL     1      10.428   4.159  -9.188  1.00  0.00     0.116 C 
ENDROOT
BRANCH   1   2
ATOM      2  N   UNL     1      10.764   2.769  -9.461  1.00  0.00    -0.352 N 
ATOM      3  O   UNL     1      11.998   1.087 -10.343  1.00  0.00    -0.269 OA
ATOM      4  C   UNL     1      11.884   2.281 -10.093  1.00  0.00     0.251 C 
ATOM      5  H   UNL     1      10.111   2.098  -9.156  1.00  0.00     0.163 HD
BRANCH   4   6
ATOM      6  C   UNL     1      12.934   3.235 -10.507  1.00  0.00     0.039 A 
ATOM      7  C   UNL     1      13.398   4.194  -9.605  1.00  0.00     0.014 A 
ATOM      8  C   UNL     1      13.408   3.207 -11.821  1.00  0.00     0.014 A 
ATOM      9  C   UNL     1      14.212   5.220 -10.060  1.00  0.00     0.010 A 
ATOM     10  C   UNL     1      14.303   4.190 -12.252  1.00  0.00     0.010 A 
ATOM     11  C   UNL     1      14.683   5.224 -11.384  1.00  0.00    -0.014 A 
BRANCH  11  12
ATOM     12  C   UNL     1      15.623   6.295 -11.793  1.00  0.00     0.031 A 
ATOM     13  C   UNL     1      15.240   7.329 -12.812  1.00  0.00     0.074 A 
ATOM     14  C   UNL     1      16.811   6.365 -11.163  1.00  0.00     0.049 A 
ATOM     15  N   UNL     1      15.918   8.376 -13.214  1.00  0.00    -0.248 NA
ATOM     16  C   UNL     1      13.937   7.171 -13.474  1.00  0.00     0.031 C 
ATOM     17  C   UNL     1      17.291   5.399 -10.172  1.00  0.00     0.029 A 
ATOM     18  N   UNL     1      17.809   7.301 -11.226  1.00  0.00    -0.354 N 
ATOM     19  C   UNL     1      15.134   8.990 -14.182  1.00  0.00     0.074 A 
ATOM     20  C   UNL     1      13.938   8.189 -14.326  1.00  0.00     0.031 C 
ATOM     21  C   UNL     1      18.457   5.826  -9.671  1.00  0.00     0.029 A 
ATOM     22  C   UNL     1      18.834   7.063 -10.344  1.00  0.00     0.049 A 
ATOM     23  H   UNL     1      17.794   8.069 -11.843  1.00  0.00     0.167 HD
ATOM     24  C   UNL     1      15.393  10.123 -14.879  1.00  0.00     0.037 A 
ATOM     25  C   UNL     1      19.958   7.763 -10.104  1.00  0.00     0.037 A 
ATOM     26  C   UNL     1      16.581  10.923 -14.719  1.00  0.00     0.049 A 
ATOM     27  C   UNL     1      20.200   9.028 -10.871  1.00  0.00     0.074 A 
ATOM     28  C   UNL     1      16.936  12.087 -15.380  1.00  0.00     0.029 A 
ATOM     29  N   UNL     1      17.607  10.642 -13.828  1.00  0.00    -0.354 N 
ATOM     30  N   UNL     1      19.448   9.598 -11.781  1.00  0.00    -0.248 NA
ATOM     31  C   UNL     1      21.447   9.746 -10.582  1.00  0.00     0.031 C 
ATOM     32  C   UNL     1      18.189  12.495 -14.908  1.00  0.00     0.029 A 
ATOM     33  C   UNL     1      18.598  11.607 -13.927  1.00  0.00     0.049 A 
ATOM     34  H   UNL     1      17.629   9.871 -13.216  1.00  0.00     0.167 HD
ATOM     35  C   UNL     1      20.132  10.735 -12.180  1.00  0.00     0.074 A 
ATOM     36  C   UNL     1      21.340  10.798 -11.382  1.00  0.00     0.031 C 
ATOM     37  C   UNL     1      19.799  11.639 -13.133  1.00  0.00     0.037 A 
BRANCH  24  38
ATOM     38  C   UNL     1      14.377  10.569 -15.889  1.00  0.00     0.064 A 
ATOM     39  C   UNL     1      13.164  11.155 -15.500  1.00  0.00     0.173 A 
ATOM     40  C   UNL     1      14.646  10.470 -17.263  1.00  0.00     0.173 A 
ATOM     41  F   UNL     1      12.853  11.262 -14.199  1.00  0.00    -0.203 F 
ATOM     42  C   UNL     1      12.252  11.614 -16.448  1.00  0.00     0.198 A 
ATOM     43  C   UNL     1      13.743  10.950 -18.208  1.00  0.00     0.198 A 
ATOM     44  F   UNL     1      15.794   9.921 -17.688  1.00  0.00    -0.203 F 
ATOM     45  F   UNL     1      11.086  12.145 -16.053  1.00  0.00    -0.200 F 
ATOM     46  C   UNL     1      12.546  11.519 -17.800  1.00  0.00     0.200 A 
ATOM     47  F   UNL     1      14.033  10.866 -19.514  1.00  0.00    -0.200 F 
ATOM     48  F   UNL     1      11.673  11.972 -18.711  1.00  0.00    -0.200 F 
ENDBRANCH  24  38
BRANCH  25  49
ATOM     49  C   UNL     1      20.926   7.270  -9.094  1.00  0.00     0.064 A 
ATOM     50  C   UNL     1      21.110   7.944  -7.879  1.00  0.00     0.173 A 
ATOM     51  C   UNL     1      21.665   6.098  -9.312  1.00  0.00     0.173 A 
ATOM     52  F   UNL     1      20.438   9.078  -7.633  1.00  0.00    -0.203 F 
ATOM     53  C   UNL     1      22.008   7.469  -6.925  1.00  0.00     0.198 A 
ATOM     54  C   UNL     1      22.538   5.608  -8.345  1.00  0.00     0.198 A 
ATOM     55  F   UNL     1      21.516   5.414 -10.455  1.00  0.00    -0.203 F 
ATOM     56  F   UNL     1      22.193   8.150  -5.786  1.00  0.00    -0.200 F 
ATOM     57  C   UNL     1      22.714   6.298  -7.155  1.00  0.00     0.200 A 
ATOM     58  F   UNL     1      23.204   4.466  -8.564  1.00  0.00    -0.200 F 
ATOM     59  F   UNL     1      23.567   5.835  -6.231  1.00  0.00    -0.200 F 
ENDBRANCH  25  49
BRANCH  37  60
ATOM     60  C   UNL     1      20.767  12.759 -13.361  1.00  0.00     0.064 A 
ATOM     61  C   UNL     1      21.989  12.542 -14.016  1.00  0.00     0.173 A 
ATOM     62  C   UNL     1      20.474  14.058 -12.923  1.00  0.00     0.173 A 
ATOM     63  F   UNL     1      22.319  11.312 -14.437  1.00  0.00    -0.203 F 
ATOM     64  C   UNL     1      22.897  13.581 -14.196  1.00  0.00     0.198 A 
ATOM     65  C   UNL     1      21.374  15.100 -13.127  1.00  0.00     0.198 A 
ATOM     66  F   UNL     1      19.317  14.315 -12.294  1.00  0.00    -0.203 F 
ATOM     67  F   UNL     1      24.080  13.340 -14.777  1.00  0.00    -0.200 F 
ATOM     68  C   UNL     1      22.588  14.859 -13.755  1.00  0.00     0.200 A 
ATOM     69  F   UNL     1      21.073  16.336 -12.705  1.00  0.00    -0.200 F 
ATOM     70  F   UNL     1      23.466  15.857 -13.923  1.00  0.00    -0.200 F 
ENDBRANCH  37  60
ENDBRANCH  11  12
ENDBRANCH   4   6
ENDBRANCH   1   2
BRANCH   1  71
ATOM     71  C   UNL     1       8.936   4.447  -9.223  1.00  0.00     0.023 C 
BRANCH  71  72
ATOM     72  C   UNL     1       8.104   3.637  -8.233  1.00  0.00     0.023 C 
BRANCH  72  73
ATOM     73  C   UNL     1       8.481   3.830  -6.763  1.00  0.00     0.116 C 
BRANCH  73  74
ATOM     74  N   UNL     1       8.082   5.139  -6.279  1.00  0.00    -0.355 N 
ATOM     75  C   UNL     1       7.069   5.507  -5.437  1.00  0.00     0.241 C 
ATOM     76  H   UNL     1       8.630   5.885  -6.613  1.00  0.00     0.163 HD
ATOM     77  O   UNL     1       6.976   6.716  -5.203  1.00  0.00    -0.273 OA
BRANCH  75  78
ATOM     78  C   UNL     1       6.114   4.465  -4.798  1.00  0.00     0.126 C 
ATOM     79  C   UNL     1       4.938   5.129  -4.025  1.00  0.00     0.037 C 
ATOM     80  C   UNL     1       5.348   3.610  -5.850  1.00  0.00     0.020 C 
ATOM     81  Cl  UNL     1       7.114   3.506  -3.651  1.00  0.00    -0.108 Cl
ATOM     82  C   UNL     1       3.687   4.581  -4.741  1.00  0.00    -0.009 C 
ATOM     83  C   UNL     1       4.615   2.416  -5.217  1.00  0.00     0.006 C 
ATOM     84  C   UNL     1       4.162   4.522  -6.188  1.00  0.00     0.009 C 
ATOM     85  C   UNL     1       3.516   3.092  -4.392  1.00  0.00     0.004 C 
ENDBRANCH  75  78
ENDBRANCH  73  74
ENDBRANCH  72  73
ENDBRANCH  71  72
ENDBRANCH   1  71
TORSDOF 11
