REMARK SMILES CC1(C)O[C@@H]2C[C@@H]3[C@H]4CCC5=CC(=O)C=C[C@@]5(C)[C@]4(F)[C@H](O)C[C@]3(C)[C@]2(C(=O)NCCCCNC(=O)c2ccc(-c3c4nc(c(-c5c(F)c(F)c(F)c(F)c5F)c5ccc([nH]5)c(-c5c(F)c(F)c(F)c(F)c5F)c5nc(c(-c6c(F)c(F)c(F)c(F)c6F)c6ccc3[nH]6)C=C5)C=C4)cc2)O1
REMARK SMILES IDX 32 1 31 2 30 3 29 4 27 5 28 6 26 8 1 9 2 10 4 11 100 12 3 13
REMARK SMILES IDX 5 14 6 15 24 16 7 17 23 18 25 19 8 20 21 21 9 22 19 23 10 24
REMARK SMILES IDX 17 25 20 26 11 27 16 28 18 29 12 30 15 31 13 32 14 33 22 34
REMARK SMILES IDX 33 36 34 37 35 38 36 40 37 41 38 42 99 43 39 44 98 45 40 46
REMARK SMILES IDX 41 47 42 48 92 49 43 50 97 51 91 52 93 53 44 54 96 55 90 56
REMARK SMILES IDX 89 57 45 59 77 60 57 61 76 62 58 63 61 64 75 65 94 66 59 67
REMARK SMILES IDX 60 68 74 70 95 71 62 72 46 73 47 74 55 75 48 76 49 77 53 78
REMARK SMILES IDX 56 79 50 80 51 81 54 82 52 83 78 84 79 85 87 86 80 87 81 88
REMARK SMILES IDX 85 89 88 90 82 91 83 92 86 93 84 94 63 95 64 96 72 97 65 98
REMARK SMILES IDX 66 99 70 100 73 101 67 102 68 103 71 104 69 105
REMARK H PARENT 29 7 22 35 34 39 93 58 61 69
REMARK Flexibility Score: inf
ROOT
ATOM      1  C   UNL     1      -3.580  -1.131  -3.682  1.00  0.00     0.023 C 
ENDROOT
BRANCH   1   2
ATOM      2  C   UNL     1      -2.552  -0.055  -3.361  1.00  0.00     0.023 C 
BRANCH   2   3
ATOM      3  C   UNL     1      -3.106   1.121  -2.564  1.00  0.00     0.116 C 
BRANCH   3   4
ATOM      4  N   UNL     1      -3.499   0.706  -1.246  1.00  0.00    -0.353 N 
ATOM      5  C   UNL     1      -2.903   0.845  -0.049  1.00  0.00     0.255 C 
ATOM      6  O   UNL     1      -3.280   0.028   0.804  1.00  0.00    -0.272 OA
ATOM      7  H   UNL     1      -4.362   0.233  -1.214  1.00  0.00     0.163 HD
BRANCH   5   8
ATOM      8  C   UNL     1      -1.884   1.929   0.331  1.00  0.00     0.181 C 
ATOM      9  C   UNL     1       0.399  -0.072  -0.718  1.00  0.00     0.075 C 
ATOM     10  C   UNL     1       0.321   1.180   0.137  1.00  0.00     0.164 C 
ATOM     11  O   UNL     1       0.242   2.306  -0.746  1.00  0.00    -0.344 OA
ATOM     12  O   UNL     1      -0.840   1.126   0.979  1.00  0.00    -0.331 OA
ATOM     13  C   UNL     1       1.585   1.249   1.000  1.00  0.00     0.075 C 
ATOM     14  C   UNL     1      -1.067   2.886  -0.609  1.00  0.00     0.164 C 
ATOM     15  C   UNL     1      -0.908   4.279   0.154  1.00  0.00     0.040 C 
ATOM     16  C   UNL     1      -2.520   2.957   1.366  1.00  0.00     0.014 C 
ATOM     17  C   UNL     1      -1.246   3.829   1.572  1.00  0.00     0.008 C 
ATOM     18  C   UNL     1      -3.149   2.530   2.710  1.00  0.00     0.046 C 
ATOM     19  C   UNL     1      -3.703   3.663   0.617  1.00  0.00     0.015 C 
ATOM     20  C   UNL     1      -0.480   3.864   2.913  1.00  0.00     0.035 C 
ATOM     21  C   UNL     1      -2.204   2.267   3.872  1.00  0.00     0.154 C 
ATOM     22  C   UNL     1       0.458   5.051   3.080  1.00  0.00     0.012 C 
ATOM     23  C   UNL     1      -1.252   3.478   4.171  1.00  0.00     0.152 C 
ATOM     24  C   UNL     1       1.567   4.632   4.043  1.00  0.00     0.032 C 
ATOM     25  C   UNL     1      -0.217   3.221   5.364  1.00  0.00     0.044 C 
ATOM     26  F   UNL     1      -2.039   4.557   4.487  1.00  0.00    -0.239 F 
ATOM     27  C   UNL     1       1.024   4.141   5.359  1.00  0.00    -0.053 C 
ATOM     28  C   UNL     1      -0.902   3.358   6.720  1.00  0.00    -0.009 C 
ATOM     29  C   UNL     1       0.364   1.768   5.324  1.00  0.00     0.024 C 
ATOM     30  C   UNL     1       1.697   4.386   6.500  1.00  0.00     0.052 C 
ATOM     31  C   UNL     1      -0.189   3.394   7.856  1.00  0.00     0.048 C 
ATOM     32  C   UNL     1       1.236   3.801   7.787  1.00  0.00     0.178 C 
ATOM     33  O   UNL     1       1.965   3.765   8.769  1.00  0.00    -0.290 OA
BRANCH  21  34
ATOM     34  O   UNL     1      -1.554   1.025   3.621  1.00  0.00    -0.390 OA
ATOM     35  H   UNL     1      -1.055   1.084   2.791  1.00  0.00     0.211 HD
ENDBRANCH  21  34
ENDBRANCH   5   8
ENDBRANCH   3   4
ENDBRANCH   2   3
ENDBRANCH   1   2
BRANCH   1  36
ATOM     36  C   UNL     1      -4.864  -0.592  -4.284  1.00  0.00     0.116 C 
BRANCH  36  37
ATOM     37  N   UNL     1      -4.618   0.295  -5.415  1.00  0.00    -0.352 N 
ATOM     38  C   UNL     1      -5.236   0.309  -6.635  1.00  0.00     0.251 C 
ATOM     39  H   UNL     1      -3.915   0.972  -5.283  1.00  0.00     0.163 HD
ATOM     40  O   UNL     1      -4.821   1.022  -7.545  1.00  0.00    -0.269 OA
BRANCH  38  41
ATOM     41  C   UNL     1      -6.388  -0.579  -6.840  1.00  0.00     0.039 A 
ATOM     42  C   UNL     1      -6.381  -1.451  -7.927  1.00  0.00     0.014 A 
ATOM     43  C   UNL     1      -7.419  -0.607  -5.896  1.00  0.00     0.014 A 
ATOM     44  C   UNL     1      -7.392  -2.402  -8.038  1.00  0.00     0.010 A 
ATOM     45  C   UNL     1      -8.371  -1.613  -5.959  1.00  0.00     0.010 A 
ATOM     46  C   UNL     1      -8.371  -2.513  -7.035  1.00  0.00    -0.014 A 
BRANCH  46  47
ATOM     47  C   UNL     1      -9.415  -3.561  -7.100  1.00  0.00     0.031 A 
ATOM     48  C   UNL     1     -10.858  -3.166  -7.219  1.00  0.00     0.074 A 
ATOM     49  C   UNL     1      -9.065  -4.857  -6.989  1.00  0.00     0.049 A 
ATOM     50  N   UNL     1     -11.925  -3.924  -7.232  1.00  0.00    -0.248 NA
ATOM     51  C   UNL     1     -11.146  -1.725  -7.304  1.00  0.00     0.031 C 
ATOM     52  C   UNL     1      -7.699  -5.354  -6.816  1.00  0.00     0.029 A 
ATOM     53  N   UNL     1      -9.834  -5.993  -6.999  1.00  0.00    -0.354 N 
ATOM     54  C   UNL     1     -13.002  -3.053  -7.314  1.00  0.00     0.074 A 
ATOM     55  C   UNL     1     -12.469  -1.710  -7.281  1.00  0.00     0.031 C 
ATOM     56  C   UNL     1      -7.723  -6.695  -6.764  1.00  0.00     0.029 A 
ATOM     57  C   UNL     1      -9.107  -7.149  -6.859  1.00  0.00     0.049 A 
ATOM     58  H   UNL     1     -10.813  -5.980  -7.097  1.00  0.00     0.167 HD
ATOM     59  C   UNL     1     -14.317  -3.350  -7.435  1.00  0.00     0.037 A 
ATOM     60  C   UNL     1      -9.516  -8.431  -6.807  1.00  0.00     0.037 A 
ATOM     61  C   UNL     1     -14.837  -4.690  -7.489  1.00  0.00     0.049 A 
ATOM     62  C   UNL     1     -10.986  -8.732  -6.932  1.00  0.00     0.074 A 
ATOM     63  C   UNL     1     -16.145  -5.101  -7.670  1.00  0.00     0.029 A 
ATOM     64  N   UNL     1     -14.069  -5.839  -7.359  1.00  0.00    -0.354 N 
ATOM     65  N   UNL     1     -11.991  -7.905  -7.086  1.00  0.00    -0.248 NA
ATOM     66  C   UNL     1     -11.376 -10.148  -6.884  1.00  0.00     0.031 C 
ATOM     67  C   UNL     1     -16.178  -6.497  -7.594  1.00  0.00     0.029 A 
ATOM     68  C   UNL     1     -14.882  -6.959  -7.428  1.00  0.00     0.049 A 
ATOM     69  H   UNL     1     -13.093  -5.856  -7.235  1.00  0.00     0.167 HD
ATOM     70  C   UNL     1     -13.127  -8.698  -7.185  1.00  0.00     0.074 A 
ATOM     71  C   UNL     1     -12.683 -10.073  -7.089  1.00  0.00     0.031 C 
ATOM     72  C   UNL     1     -14.420  -8.322  -7.341  1.00  0.00     0.037 A 
BRANCH  59  73
ATOM     73  C   UNL     1     -15.283  -2.203  -7.519  1.00  0.00     0.064 A 
ATOM     74  C   UNL     1     -15.322  -1.353  -8.635  1.00  0.00     0.173 A 
ATOM     75  C   UNL     1     -16.200  -1.968  -6.484  1.00  0.00     0.173 A 
ATOM     76  F   UNL     1     -14.457  -1.524  -9.646  1.00  0.00    -0.203 F 
ATOM     77  C   UNL     1     -16.223  -0.292  -8.698  1.00  0.00     0.198 A 
ATOM     78  C   UNL     1     -17.122  -0.928  -6.566  1.00  0.00     0.198 A 
ATOM     79  F   UNL     1     -16.207  -2.751  -5.395  1.00  0.00    -0.203 F 
ATOM     80  F   UNL     1     -16.204   0.539  -9.749  1.00  0.00    -0.200 F 
ATOM     81  C   UNL     1     -17.127  -0.086  -7.668  1.00  0.00     0.200 A 
ATOM     82  F   UNL     1     -18.005  -0.738  -5.575  1.00  0.00    -0.200 F 
ATOM     83  F   UNL     1     -17.999   0.930  -7.733  1.00  0.00    -0.200 F 
ENDBRANCH  59  73
BRANCH  60  84
ATOM     84  C   UNL     1      -8.521  -9.525  -6.654  1.00  0.00     0.064 A 
ATOM     85  C   UNL     1      -8.277 -10.428  -7.699  1.00  0.00     0.173 A 
ATOM     86  C   UNL     1      -7.802  -9.697  -5.463  1.00  0.00     0.173 A 
ATOM     87  F   UNL     1      -8.953 -10.315  -8.852  1.00  0.00    -0.203 F 
ATOM     88  C   UNL     1      -7.371 -11.475  -7.549  1.00  0.00     0.198 A 
ATOM     89  C   UNL     1      -6.873 -10.726  -5.325  1.00  0.00     0.198 A 
ATOM     90  F   UNL     1      -7.992  -8.857  -4.435  1.00  0.00    -0.203 F 
ATOM     91  F   UNL     1      -7.194 -12.353  -8.546  1.00  0.00    -0.200 F 
ATOM     92  C   UNL     1      -6.665 -11.621  -6.364  1.00  0.00     0.200 A 
ATOM     93  F   UNL     1      -6.181 -10.853  -4.184  1.00  0.00    -0.200 F 
ATOM     94  F   UNL     1      -5.791 -12.626  -6.221  1.00  0.00    -0.200 F 
ENDBRANCH  60  84
BRANCH  72  95
ATOM     95  C   UNL     1     -15.445  -9.412  -7.460  1.00  0.00     0.064 A 
ATOM     96  C   UNL     1     -15.804 -10.212  -6.365  1.00  0.00     0.173 A 
ATOM     97  C   UNL     1     -16.107  -9.631  -8.678  1.00  0.00     0.173 A 
ATOM     98  F   UNL     1     -15.191 -10.053  -5.182  1.00  0.00    -0.203 F 
ATOM     99  C   UNL     1     -16.768 -11.208  -6.493  1.00  0.00     0.198 A 
ATOM    100  C   UNL     1     -17.095 -10.604  -8.793  1.00  0.00     0.198 A 
ATOM    101  F   UNL     1     -15.807  -8.888  -9.754  1.00  0.00    -0.203 F 
ATOM    102  F   UNL     1     -17.059 -11.994  -5.447  1.00  0.00    -0.200 F 
ATOM    103  C   UNL     1     -17.419 -11.397  -7.703  1.00  0.00     0.200 A 
ATOM    104  F   UNL     1     -17.734 -10.773  -9.959  1.00  0.00    -0.200 F 
ATOM    105  F   UNL     1     -18.354 -12.350  -7.821  1.00  0.00    -0.200 F 
ENDBRANCH  72  95
ENDBRANCH  46  47
ENDBRANCH  38  41
ENDBRANCH  36  37
ENDBRANCH   1  36
TORSDOF 12
