REMARK SMILES NS(=O)(=O)c1ccc(-n2nc(NC(=O)NCCCCCCCCCCC(=O)NCCCCNC(=O)c3ccc(-c4c5nc(c(-c6c(F)c(F)c(F)c(F)c6F)c6ccc([nH]6)c(-c6c(F)c(F)c(F)c(F)c6F)c6nc(c(-c7c(F)c(F)c(F)c(F)c7F)c7ccc4[nH]7)C=C6)C=C5)cc3)cc2-c2ccccc2)cc1
REMARK SMILES IDX 22 1 21 2 20 3 19 4 18 5 17 6 16 7 15 8 12 9 13 10 14 12
REMARK SMILES IDX 11 14 9 15 10 16 100 17 99 18 8 19 5 20 6 21 108 22 7 23
REMARK SMILES IDX 107 24 2 25 3 26 4 27 1 28 101 31 102 32 106 33 103 34
REMARK SMILES IDX 105 35 104 36 23 37 24 38 25 39 26 40 27 41 28 42 29 44
REMARK SMILES IDX 30 45 31 46 32 47 33 48 34 49 35 51 36 52 37 53 98 54 38 55
REMARK SMILES IDX 97 56 39 57 40 58 41 59 91 60 42 61 96 62 90 63 92 64 43 65
REMARK SMILES IDX 95 66 89 67 88 68 44 70 76 71 56 72 75 73 57 74 60 75 74 76
REMARK SMILES IDX 93 77 58 78 59 79 73 81 94 82 61 83 45 84 46 85 54 86 47 87
REMARK SMILES IDX 48 88 52 89 55 90 49 91 50 92 53 93 51 94 77 95 78 96 86 97
REMARK SMILES IDX 79 98 80 99 84 100 87 101 81 102 82 103 85 104 83 105 62 106
REMARK SMILES IDX 63 107 71 108 64 109 65 110 69 111 72 112 66 113 67 114
REMARK SMILES IDX 70 115 68 116
REMARK H PARENT 12 11 15 13 1 29 1 30 28 43 33 50 92 69 60 80
REMARK Flexibility Score: inf
ROOT
ATOM      1  C   UNL     1       3.854   2.598   1.291  1.00  0.00     0.000 C 
ENDROOT
BRANCH   1   2
ATOM      2  C   UNL     1       3.542   2.927  -0.156  1.00  0.00     0.000 C 
BRANCH   2   3
ATOM      3  C   UNL     1       2.612   4.124  -0.322  1.00  0.00     0.000 C 
BRANCH   3   4
ATOM      4  C   UNL     1       3.074   5.441   0.315  1.00  0.00     0.000 C 
BRANCH   4   5
ATOM      5  C   UNL     1       4.445   5.960  -0.133  1.00  0.00     0.002 C 
BRANCH   5   6
ATOM      6  C   UNL     1       4.701   5.960  -1.638  1.00  0.00     0.021 C 
BRANCH   6   7
ATOM      7  C   UNL     1       3.580   6.518  -2.499  1.00  0.00     0.117 C 
BRANCH   7   8
ATOM      8  N   UNL     1       3.455   7.952  -2.535  1.00  0.00    -0.338 N 
ATOM      9  N   UNL     1       2.566   8.230  -4.725  1.00  0.00    -0.291 N 
ATOM     10  C   UNL     1       3.011   8.733  -3.548  1.00  0.00     0.320 C 
ATOM     11  H   UNL     1       2.623   8.858  -5.481  1.00  0.00     0.173 HD
ATOM     12  O   UNL     1       3.142   9.956  -3.436  1.00  0.00    -0.248 OA
ATOM     13  H   UNL     1       3.728   8.427  -1.716  1.00  0.00     0.165 HD
BRANCH   9  14
ATOM     14  C   UNL     1       2.046   6.997  -5.050  1.00  0.00     0.157 A 
ATOM     15  N   UNL     1       1.416   4.979  -4.848  1.00  0.00    -0.231 N 
ATOM     16  N   UNL     1       1.405   6.174  -4.216  1.00  0.00    -0.149 NA
ATOM     17  C   UNL     1       1.662   5.131  -6.207  1.00  0.00     0.076 A 
ATOM     18  C   UNL     1       2.099   6.437  -6.345  1.00  0.00     0.078 A 
BRANCH  15  19
ATOM     19  C   UNL     1       1.266   3.775  -4.103  1.00  0.00     0.065 A 
ATOM     20  C   UNL     1       0.847   1.368  -2.759  1.00  0.00     0.082 A 
ATOM     21  C   UNL     1       1.815   1.437  -3.763  1.00  0.00     0.024 A 
ATOM     22  C   UNL     1       0.129   2.509  -2.381  1.00  0.00     0.024 A 
ATOM     23  C   UNL     1       2.019   2.639  -4.441  1.00  0.00     0.030 A 
ATOM     24  C   UNL     1       0.358   3.724  -3.037  1.00  0.00     0.030 A 
BRANCH  20  25
ATOM     25  S   UNL     1       0.428  -0.202  -2.056  1.00  0.00     0.238 S 
ATOM     26  O   UNL     1       1.163  -1.244  -2.748  1.00  0.00    -0.207 OA
ATOM     27  O   UNL     1      -0.994  -0.261  -1.857  1.00  0.00    -0.207 OA
BRANCH  25  28
ATOM     28  N   UNL     1       1.114  -0.125  -0.531  1.00  0.00    -0.225 NA
ATOM     29  H   UNL     1       0.928  -0.995  -0.031  1.00  0.00     0.137 HD
ATOM     30  H   UNL     1       0.709   0.656  -0.015  1.00  0.00     0.137 HD
ENDBRANCH  25  28
ENDBRANCH  20  25
ENDBRANCH  15  19
BRANCH  17  31
ATOM     31  C   UNL     1       1.428   4.100  -7.216  1.00  0.00     0.000 A 
ATOM     32  C   UNL     1       0.232   3.366  -7.198  1.00  0.00     0.010 A 
ATOM     33  C   UNL     1       2.377   3.829  -8.206  1.00  0.00     0.010 A 
ATOM     34  C   UNL     1      -0.003   2.364  -8.137  1.00  0.00     0.001 A 
ATOM     35  C   UNL     1       2.136   2.829  -9.153  1.00  0.00     0.001 A 
ATOM     36  C   UNL     1       0.949   2.097  -9.116  1.00  0.00     0.000 A 
ENDBRANCH  17  31
ENDBRANCH   9  14
ENDBRANCH   7   8
ENDBRANCH   6   7
ENDBRANCH   5   6
ENDBRANCH   4   5
ENDBRANCH   3   4
ENDBRANCH   2   3
ENDBRANCH   1   2
BRANCH   1  37
ATOM     37  C   UNL     1       2.624   2.130   2.073  1.00  0.00     0.001 C 
BRANCH  37  38
ATOM     38  C   UNL     1       2.644   0.665   2.495  1.00  0.00     0.010 C 
BRANCH  38  39
ATOM     39  C   UNL     1       3.880   0.167   3.240  1.00  0.00     0.100 C 
BRANCH  39  40
ATOM     40  C   UNL     1       3.860   0.371   4.741  1.00  0.00     0.219 C 
ATOM     41  O   UNL     1       3.501  -0.542   5.488  1.00  0.00    -0.275 OA
ATOM     42  N   UNL     1       4.267   1.538   5.314  1.00  0.00    -0.356 N 
ATOM     43  H   UNL     1       4.263   1.531   6.298  1.00  0.00     0.163 HD
BRANCH  42  44
ATOM     44  C   UNL     1       4.705   2.789   4.723  1.00  0.00     0.116 C 
BRANCH  44  45
ATOM     45  C   UNL     1       3.637   3.889   4.853  1.00  0.00     0.023 C 
BRANCH  45  46
ATOM     46  C   UNL     1       3.623   4.693   6.156  1.00  0.00     0.023 C 
BRANCH  46  47
ATOM     47  C   UNL     1       4.795   5.643   6.314  1.00  0.00     0.116 C 
BRANCH  47  48
ATOM     48  N   UNL     1       4.793   6.765   5.362  1.00  0.00    -0.352 N 
ATOM     49  C   UNL     1       5.773   7.743   5.224  1.00  0.00     0.251 C 
ATOM     50  H   UNL     1       4.017   6.831   4.759  1.00  0.00     0.163 HD
ATOM     51  O   UNL     1       5.556   8.825   4.698  1.00  0.00    -0.269 OA
BRANCH  49  52
ATOM     52  C   UNL     1       7.123   7.388   5.683  1.00  0.00     0.039 A 
ATOM     53  C   UNL     1       7.915   8.192   6.511  1.00  0.00     0.014 A 
ATOM     54  C   UNL     1       7.502   6.098   5.344  1.00  0.00     0.014 A 
ATOM     55  C   UNL     1       9.085   7.643   7.035  1.00  0.00     0.010 A 
ATOM     56  C   UNL     1       8.441   5.489   6.109  1.00  0.00     0.010 A 
ATOM     57  C   UNL     1       9.329   6.282   6.819  1.00  0.00    -0.014 A 
BRANCH  57  58
ATOM     58  C   UNL     1      10.466   5.548   7.341  1.00  0.00     0.031 A 
ATOM     59  C   UNL     1      10.449   5.369   8.813  1.00  0.00     0.074 A 
ATOM     60  C   UNL     1      11.217   4.807   6.491  1.00  0.00     0.049 A 
ATOM     61  N   UNL     1      11.270   5.872   9.674  1.00  0.00    -0.248 NA
ATOM     62  C   UNL     1       9.286   4.705   9.428  1.00  0.00     0.031 C 
ATOM     63  C   UNL     1      11.070   4.653   5.033  1.00  0.00     0.029 A 
ATOM     64  N   UNL     1      12.201   3.914   6.777  1.00  0.00    -0.354 N 
ATOM     65  C   UNL     1      10.860   5.391  10.915  1.00  0.00     0.074 A 
ATOM     66  C   UNL     1       9.519   4.913  10.725  1.00  0.00     0.031 C 
ATOM     67  C   UNL     1      11.761   3.572   4.611  1.00  0.00     0.029 A 
ATOM     68  C   UNL     1      12.524   3.051   5.726  1.00  0.00     0.049 A 
ATOM     69  H   UNL     1      12.648   3.877   7.653  1.00  0.00     0.167 HD
ATOM     70  C   UNL     1      11.771   5.157  11.903  1.00  0.00     0.037 A 
ATOM     71  C   UNL     1      13.332   1.964   5.821  1.00  0.00     0.037 A 
ATOM     72  C   UNL     1      13.034   5.775  11.567  1.00  0.00     0.049 A 
ATOM     73  C   UNL     1      14.136   2.144   7.064  1.00  0.00     0.074 A 
ATOM     74  C   UNL     1      13.436   7.071  11.302  1.00  0.00     0.029 A 
ATOM     75  N   UNL     1      14.016   4.966  11.042  1.00  0.00    -0.354 N 
ATOM     76  N   UNL     1      15.018   3.099   7.208  1.00  0.00    -0.248 NA
ATOM     77  C   UNL     1      13.568   1.625   8.302  1.00  0.00     0.031 C 
ATOM     78  C   UNL     1      14.341   6.954  10.206  1.00  0.00     0.029 A 
ATOM     79  C   UNL     1      14.531   5.597   9.940  1.00  0.00     0.049 A 
ATOM     80  H   UNL     1      14.298   4.091  11.394  1.00  0.00     0.167 HD
ATOM     81  C   UNL     1      14.801   3.591   8.489  1.00  0.00     0.074 A 
ATOM     82  C   UNL     1      13.925   2.611   9.132  1.00  0.00     0.031 C 
ATOM     83  C   UNL     1      15.078   4.892   8.804  1.00  0.00     0.037 A 
BRANCH  70  84
ATOM     84  C   UNL     1      11.690   4.046  12.934  1.00  0.00     0.064 A 
ATOM     85  C   UNL     1      12.743   3.932  13.869  1.00  0.00     0.173 A 
ATOM     86  C   UNL     1      10.833   2.928  12.862  1.00  0.00     0.173 A 
ATOM     87  F   UNL     1      13.606   4.942  14.056  1.00  0.00    -0.203 F 
ATOM     88  C   UNL     1      13.001   2.744  14.556  1.00  0.00     0.198 A 
ATOM     89  C   UNL     1      11.066   1.760  13.587  1.00  0.00     0.198 A 
ATOM     90  F   UNL     1       9.793   2.861  12.027  1.00  0.00    -0.203 F 
ATOM     91  F   UNL     1      14.102   2.641  15.312  1.00  0.00    -0.200 F 
ATOM     92  C   UNL     1      12.173   1.651  14.399  1.00  0.00     0.200 A 
ATOM     93  F   UNL     1      10.248   0.710  13.419  1.00  0.00    -0.200 F 
ATOM     94  F   UNL     1      12.460   0.485  14.991  1.00  0.00    -0.200 F 
ENDBRANCH  70  84
BRANCH  71  95
ATOM     95  C   UNL     1      13.218   0.665   5.109  1.00  0.00     0.064 A 
ATOM     96  C   UNL     1      14.284  -0.250   5.064  1.00  0.00     0.173 A 
ATOM     97  C   UNL     1      11.966   0.178   4.680  1.00  0.00     0.173 A 
ATOM     98  F   UNL     1      15.500   0.112   5.498  1.00  0.00    -0.203 F 
ATOM     99  C   UNL     1      14.105  -1.571   4.630  1.00  0.00     0.198 A 
ATOM    100  C   UNL     1      11.789  -1.137   4.245  1.00  0.00     0.198 A 
ATOM    101  F   UNL     1      10.869   0.944   4.760  1.00  0.00    -0.203 F 
ATOM    102  F   UNL     1      15.135  -2.429   4.648  1.00  0.00    -0.200 F 
ATOM    103  C   UNL     1      12.855  -2.015   4.229  1.00  0.00     0.200 A 
ATOM    104  F   UNL     1      10.566  -1.562   3.897  1.00  0.00    -0.200 F 
ATOM    105  F   UNL     1      12.670  -3.293   3.869  1.00  0.00    -0.200 F 
ENDBRANCH  71  95
BRANCH  83 106
ATOM    106  C   UNL     1      15.818   5.733   7.800  1.00  0.00     0.064 A 
ATOM    107  C   UNL     1      15.304   6.100   6.544  1.00  0.00     0.173 A 
ATOM    108  C   UNL     1      17.001   6.357   8.214  1.00  0.00     0.173 A 
ATOM    109  F   UNL     1      14.130   5.626   6.115  1.00  0.00    -0.203 F 
ATOM    110  C   UNL     1      15.957   7.029   5.734  1.00  0.00     0.198 A 
ATOM    111  C   UNL     1      17.633   7.309   7.420  1.00  0.00     0.198 A 
ATOM    112  F   UNL     1      17.508   6.091   9.428  1.00  0.00    -0.203 F 
ATOM    113  F   UNL     1      15.437   7.365   4.543  1.00  0.00    -0.200 F 
ATOM    114  C   UNL     1      17.116   7.640   6.178  1.00  0.00     0.200 A 
ATOM    115  F   UNL     1      18.724   7.937   7.879  1.00  0.00    -0.200 F 
ATOM    116  F   UNL     1      17.717   8.571   5.425  1.00  0.00    -0.200 F 
ENDBRANCH  83 106
ENDBRANCH  57  58
ENDBRANCH  49  52
ENDBRANCH  47  48
ENDBRANCH  46  47
ENDBRANCH  45  46
ENDBRANCH  44  45
ENDBRANCH  42  44
ENDBRANCH  39  40
ENDBRANCH  38  39
ENDBRANCH  37  38
ENDBRANCH   1  37
TORSDOF 26
