REMARK SMILES C[C@]([NH3+])(C(=O)N[C@H]1CCCCC[C@@H]1C(=O)NCCCCNC(=O)c1ccc(-c2c3nc(c(-c4c(F)c(F)c(F)c(F)c4F)c4ccc([nH]4)c(-c4c(F)c(F)c(F)c(F)c4F)c4nc(c(-c5c(F)c(F)c(F)c(F)c5F)c5ccc2[nH]5)C=C4)C=C3)cc1)C(F)(F)F
REMARK SMILES IDX 17 1 16 2 14 3 15 4 13 6 7 7 6 8 4 9 5 10 2 12 1 13 87 14
REMARK SMILES IDX 88 15 89 16 90 17 3 18 8 22 9 23 10 24 11 25 12 27 18 29
REMARK SMILES IDX 19 30 20 31 21 32 22 33 23 35 24 36 25 37 86 38 26 39 85 40
REMARK SMILES IDX 27 41 28 42 29 43 79 44 30 45 84 46 78 47 80 48 31 49 83 50
REMARK SMILES IDX 77 51 76 52 32 54 64 55 44 56 63 57 45 58 48 59 62 60 81 61
REMARK SMILES IDX 46 62 47 63 61 65 82 66 49 67 33 68 34 69 42 70 35 71 36 72
REMARK SMILES IDX 40 73 43 74 37 75 38 76 41 77 39 78 65 79 66 80 74 81 67 82
REMARK SMILES IDX 68 83 72 84 75 85 69 86 70 87 73 88 71 89 50 90 51 91 59 92
REMARK SMILES IDX 52 93 53 94 57 95 60 96 54 97 55 98 58 99 56 100
REMARK H PARENT 16 5 6 11 3 19 3 20 3 21 21 34 80 53 48 64
REMARK Flexibility Score: 90.00
ROOT
ATOM      1  C   UNL     1       1.028   2.990  -0.702  1.00  0.00     0.116 C 
ENDROOT
BRANCH   1   2
ATOM      2  N   UNL     1       0.290   1.760  -0.916  1.00  0.00    -0.356 N 
ATOM      3  C   UNL     1      -0.535   1.070  -0.076  1.00  0.00     0.225 C 
ATOM      4  O   UNL     1      -1.088   0.065  -0.525  1.00  0.00    -0.275 OA
ATOM      5  H   UNL     1       0.403   1.359  -1.808  1.00  0.00     0.163 HD
BRANCH   3   6
ATOM      6  C   UNL     1      -0.815   1.599   1.338  1.00  0.00     0.101 C 
BRANCH   6   7
ATOM      7  C   UNL     1      -0.998   0.431   2.326  1.00  0.00     0.094 C 
BRANCH   7   8
ATOM      8  N   UNL     1       0.216  -0.076   3.031  1.00  0.00    -0.347 N 
ATOM      9  C   UNL     1       1.329   0.278   3.726  1.00  0.00     0.290 C 
ATOM     10  O   UNL     1       1.927  -0.702   4.191  1.00  0.00    -0.267 OA
ATOM     11  H   UNL     1       0.208  -1.059   2.966  1.00  0.00     0.164 HD
BRANCH   9  12
ATOM     12  C   UNL     1       1.914   1.702   3.891  1.00  0.00     0.266 C 
ATOM     13  C   UNL     1       0.946   2.648   4.585  1.00  0.00     0.100 C 
BRANCH  12  14
ATOM     14  C   UNL     1       3.176   1.588   4.801  1.00  0.00     0.453 C 
ATOM     15  F   UNL     1       4.158   0.835   4.255  1.00  0.00    -0.164 F 
ATOM     16  F   UNL     1       3.712   2.825   5.006  1.00  0.00    -0.164 F 
ATOM     17  F   UNL     1       2.888   1.098   6.027  1.00  0.00    -0.164 F 
ENDBRANCH  12  14
BRANCH  12  18
ATOM     18  N   UNL     1       2.272   2.256   2.549  1.00  0.00    -0.337 N 
ATOM     19  H   UNL     1       2.921   1.623   2.082  1.00  0.00     0.345 HD
ATOM     20  H   UNL     1       2.711   3.169   2.664  1.00  0.00     0.345 HD
ATOM     21  H   UNL     1       1.427   2.353   1.986  1.00  0.00     0.345 HD
ENDBRANCH  12  18
ENDBRANCH   9  12
ENDBRANCH   7   8
BRANCH   7  22
ATOM     22  C   UNL     1      -2.240   0.449   3.239  1.00  0.00     0.026 C 
BRANCH  22  23
ATOM     23  C   UNL     1      -2.387   1.598   4.219  1.00  0.00     0.002 C 
BRANCH  23  24
ATOM     24  C   UNL     1      -2.856   2.929   3.636  1.00  0.00     0.000 C 
BRANCH  24  25
ATOM     25  C   UNL     1      -2.138   3.501   2.419  1.00  0.00     0.001 CG0
ATOM     26  G   UNL     1      -2.010   2.562   1.224  1.00  0.00     0.000 G0
ENDBRANCH  24  25
ENDBRANCH  23  24
ENDBRANCH  22  23
ENDBRANCH   7  22
ENDBRANCH   6   7
BRANCH   6  27
ATOM     27  C   UNL     1      -2.010   2.562   1.224  1.00  0.00     0.015 CG0
ATOM     28  G   UNL     1      -2.138   3.501   2.419  1.00  0.00     0.000 G0
ENDBRANCH   6  27
ENDBRANCH   3   6
ENDBRANCH   1   2
BRANCH   1  29
ATOM     29  C   UNL     1       2.534   2.739  -0.635  1.00  0.00     0.023 C 
BRANCH  29  30
ATOM     30  C   UNL     1       3.217   2.471  -1.971  1.00  0.00     0.023 C 
BRANCH  30  31
ATOM     31  C   UNL     1       3.069   3.573  -3.005  1.00  0.00     0.116 C 
BRANCH  31  32
ATOM     32  N   UNL     1       3.577   4.863  -2.565  1.00  0.00    -0.352 N 
ATOM     33  C   UNL     1       4.224   5.821  -3.311  1.00  0.00     0.251 C 
ATOM     34  H   UNL     1       3.441   5.077  -1.614  1.00  0.00     0.163 HD
ATOM     35  O   UNL     1       4.673   6.830  -2.779  1.00  0.00    -0.269 OA
BRANCH  33  36
ATOM     36  C   UNL     1       4.415   5.595  -4.759  1.00  0.00     0.039 A 
ATOM     37  C   UNL     1       5.688   5.769  -5.306  1.00  0.00     0.014 A 
ATOM     38  C   UNL     1       3.357   5.154  -5.556  1.00  0.00     0.014 A 
ATOM     39  C   UNL     1       5.915   5.428  -6.641  1.00  0.00     0.010 A 
ATOM     40  C   UNL     1       3.604   4.732  -6.857  1.00  0.00     0.010 A 
ATOM     41  C   UNL     1       4.885   4.869  -7.414  1.00  0.00    -0.014 A 
BRANCH  41  42
ATOM     42  C   UNL     1       5.119   4.433  -8.813  1.00  0.00     0.031 A 
ATOM     43  C   UNL     1       4.380   5.101  -9.938  1.00  0.00     0.074 A 
ATOM     44  C   UNL     1       5.939   3.393  -9.063  1.00  0.00     0.049 A 
ATOM     45  N   UNL     1       4.384   4.818 -11.217  1.00  0.00    -0.248 NA
ATOM     46  C   UNL     1       3.490   6.215  -9.574  1.00  0.00     0.031 C 
ATOM     47  C   UNL     1       6.670   2.628  -8.051  1.00  0.00     0.029 A 
ATOM     48  N   UNL     1       6.287   2.794 -10.247  1.00  0.00    -0.354 N 
ATOM     49  C   UNL     1       3.492   5.706 -11.802  1.00  0.00     0.074 A 
ATOM     50  C   UNL     1       2.917   6.495 -10.735  1.00  0.00     0.031 C 
ATOM     51  C   UNL     1       7.398   1.678  -8.660  1.00  0.00     0.029 A 
ATOM     52  C   UNL     1       7.159   1.743 -10.098  1.00  0.00     0.049 A 
ATOM     53  H   UNL     1       5.943   3.089 -11.121  1.00  0.00     0.167 HD
ATOM     54  C   UNL     1       3.200   5.870 -13.114  1.00  0.00     0.037 A 
ATOM     55  C   UNL     1       7.700   0.924 -11.020  1.00  0.00     0.037 A 
ATOM     56  C   UNL     1       3.797   5.104 -14.175  1.00  0.00     0.049 A 
ATOM     57  C   UNL     1       7.362   1.129 -12.472  1.00  0.00     0.074 A 
ATOM     58  C   UNL     1       3.611   5.230 -15.540  1.00  0.00     0.029 A 
ATOM     59  N   UNL     1       4.699   4.067 -13.987  1.00  0.00    -0.354 N 
ATOM     60  N   UNL     1       6.570   2.019 -13.020  1.00  0.00    -0.248 NA
ATOM     61  C   UNL     1       8.001   0.222 -13.435  1.00  0.00     0.031 C 
ATOM     62  C   UNL     1       4.370   4.242 -16.177  1.00  0.00     0.029 A 
ATOM     63  C   UNL     1       5.066   3.533 -15.211  1.00  0.00     0.049 A 
ATOM     64  H   UNL     1       5.029   3.756 -13.113  1.00  0.00     0.167 HD
ATOM     65  C   UNL     1       6.640   1.800 -14.389  1.00  0.00     0.074 A 
ATOM     66  C   UNL     1       7.563   0.702 -14.590  1.00  0.00     0.031 C 
ATOM     67  C   UNL     1       5.998   2.449 -15.392  1.00  0.00     0.037 A 
BRANCH  54  68
ATOM     68  C   UNL     1       2.195   6.926 -13.472  1.00  0.00     0.064 A 
ATOM     69  C   UNL     1       2.483   8.293 -13.329  1.00  0.00     0.173 A 
ATOM     70  C   UNL     1       0.941   6.572 -13.991  1.00  0.00     0.173 A 
ATOM     71  F   UNL     1       3.662   8.685 -12.824  1.00  0.00    -0.203 F 
ATOM     72  C   UNL     1       1.541   9.263 -13.661  1.00  0.00     0.198 A 
ATOM     73  C   UNL     1       0.014   7.545 -14.353  1.00  0.00     0.198 A 
ATOM     74  F   UNL     1       0.616   5.280 -14.152  1.00  0.00    -0.203 F 
ATOM     75  F   UNL     1       1.818  10.559 -13.464  1.00  0.00    -0.200 F 
ATOM     76  C   UNL     1       0.310   8.889 -14.180  1.00  0.00     0.200 A 
ATOM     77  F   UNL     1      -1.171   7.183 -14.865  1.00  0.00    -0.200 F 
ATOM     78  F   UNL     1      -0.593   9.824 -14.505  1.00  0.00    -0.200 F 
ENDBRANCH  54  68
BRANCH  55  79
ATOM     79  C   UNL     1       8.645  -0.146 -10.603  1.00  0.00     0.064 A 
ATOM     80  C   UNL     1      10.006  -0.069 -10.931  1.00  0.00     0.173 A 
ATOM     81  C   UNL     1       8.209  -1.268  -9.885  1.00  0.00     0.173 A 
ATOM     82  F   UNL     1      10.467   0.975 -11.635  1.00  0.00    -0.203 F 
ATOM     83  C   UNL     1      10.890  -1.086 -10.577  1.00  0.00     0.198 A 
ATOM     84  C   UNL     1       9.100  -2.271  -9.507  1.00  0.00     0.198 A 
ATOM     85  F   UNL     1       6.918  -1.387  -9.543  1.00  0.00    -0.203 F 
ATOM     86  F   UNL     1      12.176  -1.011 -10.947  1.00  0.00    -0.200 F 
ATOM     87  C   UNL     1      10.438  -2.184  -9.861  1.00  0.00     0.200 A 
ATOM     88  F   UNL     1       8.661  -3.324  -8.804  1.00  0.00    -0.200 F 
ATOM     89  F   UNL     1      11.288  -3.162  -9.521  1.00  0.00    -0.200 F 
ENDBRANCH  55  79
BRANCH  67  90
ATOM     90  C   UNL     1       6.304   2.019 -16.797  1.00  0.00     0.064 A 
ATOM     91  C   UNL     1       5.847   0.797 -17.311  1.00  0.00     0.173 A 
ATOM     92  C   UNL     1       7.033   2.861 -17.651  1.00  0.00     0.173 A 
ATOM     93  F   UNL     1       5.159  -0.049 -16.530  1.00  0.00    -0.203 F 
ATOM     94  C   UNL     1       6.132   0.422 -18.621  1.00  0.00     0.198 A 
ATOM     95  C   UNL     1       7.289   2.496 -18.969  1.00  0.00     0.198 A 
ATOM     96  F   UNL     1       7.486   4.044 -17.209  1.00  0.00    -0.203 F 
ATOM     97  F   UNL     1       5.728  -0.772 -19.076  1.00  0.00    -0.200 F 
ATOM     98  C   UNL     1       6.846   1.274 -19.451  1.00  0.00     0.200 A 
ATOM     99  F   UNL     1       7.967   3.327 -19.773  1.00  0.00    -0.200 F 
ATOM    100  F   UNL     1       7.113   0.914 -20.713  1.00  0.00    -0.200 F 
ENDBRANCH  67  90
ENDBRANCH  41  42
ENDBRANCH  33  36
ENDBRANCH  31  32
ENDBRANCH  30  31
ENDBRANCH  29  30
ENDBRANCH   1  29
TORSDOF 15
