REMARK SMILES O=C(CCCC[C@H](O)c1ccc(Cl)s1)NCCCCNC(=O)c1ccc(-c2c3nc(c(-c4c(F)c(F)c(F)c(F)c4F)c4ccc([nH]4)c(-c4c(F)c(F)c(F)c(F)c4F)c4nc(c(-c5c(F)c(F)c(F)c(F)c5F)c5ccc2[nH]5)C=C4)C=C3)cc1
REMARK SMILES IDX 16 1 15 2 1 3 2 4 3 6 4 7 5 8 6 9 7 10 9 11 10 12 14 13
REMARK SMILES IDX 11 14 12 15 13 16 8 17 17 19 18 20 19 21 20 22 21 23 22 25
REMARK SMILES IDX 23 26 24 27 85 28 25 29 84 30 26 31 27 32 28 33 78 34 29 35
REMARK SMILES IDX 83 36 77 37 79 38 30 39 82 40 76 41 75 42 31 44 63 45 43 46
REMARK SMILES IDX 62 47 44 48 47 49 61 50 80 51 45 52 46 53 60 55 81 56 48 57
REMARK SMILES IDX 32 58 33 59 41 60 34 61 35 62 39 63 42 64 36 65 37 66 40 67
REMARK SMILES IDX 38 68 64 69 65 70 73 71 66 72 67 73 71 74 74 75 68 76 69 77
REMARK SMILES IDX 72 78 70 79 49 80 50 81 58 82 51 83 52 84 56 85 59 86 53 87
REMARK SMILES IDX 54 88 57 89 55 90
REMARK H PARENT 15 5 8 18 20 24 79 43 47 54
REMARK Flexibility Score: inf
ROOT
ATOM      1  C   UNL     1       9.485  -2.015   4.879  1.00  0.00     0.116 C 
ENDROOT
BRANCH   1   2
ATOM      2  N   UNL     1       8.681  -1.694   3.719  1.00  0.00    -0.356 N 
ATOM      3  O   UNL     1       7.407  -3.602   3.785  1.00  0.00    -0.275 OA
ATOM      4  C   UNL     1       7.666  -2.514   3.282  1.00  0.00     0.219 C 
ATOM      5  H   UNL     1       8.867  -0.862   3.226  1.00  0.00     0.163 HD
BRANCH   4   6
ATOM      6  C   UNL     1       6.863  -1.946   2.130  1.00  0.00     0.100 C 
BRANCH   6   7
ATOM      7  C   UNL     1       5.835  -0.913   2.598  1.00  0.00     0.010 C 
BRANCH   7   8
ATOM      8  C   UNL     1       6.369   0.496   2.899  1.00  0.00     0.004 C 
BRANCH   8   9
ATOM      9  C   UNL     1       7.221   1.173   1.815  1.00  0.00     0.037 C 
BRANCH   9  10
ATOM     10  C   UNL     1       6.457   1.548   0.538  1.00  0.00     0.154 C 
BRANCH  10  11
ATOM     11  C   UNL     1       7.353   2.211  -0.478  1.00  0.00     0.035 A 
ATOM     12  C   UNL     1       7.426   3.557  -0.796  1.00  0.00     0.020 A 
ATOM     13  S   UNL     1       8.467   1.295  -1.423  1.00  0.00    -0.126 S 
ATOM     14  C   UNL     1       8.378   3.826  -1.825  1.00  0.00     0.033 A 
ATOM     15  C   UNL     1       8.993   2.675  -2.243  1.00  0.00     0.093 A 
ATOM     16  Cl  UNL     1      10.190   2.537  -3.465  1.00  0.00    -0.072 Cl
ENDBRANCH  10  11
BRANCH  10  17
ATOM     17  O   UNL     1       5.889   0.399  -0.071  1.00  0.00    -0.388 OA
ATOM     18  H   UNL     1       6.596  -0.209  -0.338  1.00  0.00     0.211 HD
ENDBRANCH  10  17
ENDBRANCH   9  10
ENDBRANCH   8   9
ENDBRANCH   7   8
ENDBRANCH   6   7
ENDBRANCH   4   6
ENDBRANCH   1   2
BRANCH   1  19
ATOM     19  C   UNL     1      10.936  -1.563   4.728  1.00  0.00     0.023 C 
BRANCH  19  20
ATOM     20  C   UNL     1      11.139  -0.057   4.535  1.00  0.00     0.023 C 
BRANCH  20  21
ATOM     21  C   UNL     1      10.578   0.832   5.641  1.00  0.00     0.116 C 
BRANCH  21  22
ATOM     22  N   UNL     1      11.231   0.618   6.922  1.00  0.00    -0.352 N 
ATOM     23  C   UNL     1      11.861   1.511   7.752  1.00  0.00     0.251 C 
ATOM     24  H   UNL     1      11.220  -0.312   7.245  1.00  0.00     0.163 HD
ATOM     25  O   UNL     1      12.490   1.099   8.728  1.00  0.00    -0.269 OA
BRANCH  23  26
ATOM     26  C   UNL     1      11.821   2.965   7.478  1.00  0.00     0.039 A 
ATOM     27  C   UNL     1      12.993   3.712   7.635  1.00  0.00     0.014 A 
ATOM     28  C   UNL     1      10.638   3.603   7.096  1.00  0.00     0.014 A 
ATOM     29  C   UNL     1      12.997   5.078   7.341  1.00  0.00     0.010 A 
ATOM     30  C   UNL     1      10.658   4.951   6.737  1.00  0.00     0.010 A 
ATOM     31  C   UNL     1      11.838   5.702   6.852  1.00  0.00    -0.014 A 
BRANCH  31  32
ATOM     32  C   UNL     1      11.847   7.132   6.443  1.00  0.00     0.031 A 
ATOM     33  C   UNL     1      11.003   8.140   7.173  1.00  0.00     0.074 A 
ATOM     34  C   UNL     1      12.566   7.513   5.369  1.00  0.00     0.049 A 
ATOM     35  N   UNL     1      10.822   9.412   6.915  1.00  0.00    -0.248 NA
ATOM     36  C   UNL     1      10.242   7.650   8.331  1.00  0.00     0.031 C 
ATOM     37  C   UNL     1      13.395   6.628   4.550  1.00  0.00     0.029 A 
ATOM     38  N   UNL     1      12.707   8.743   4.773  1.00  0.00    -0.354 N 
ATOM     39  C   UNL     1       9.916   9.866   7.864  1.00  0.00     0.074 A 
ATOM     40  C   UNL     1       9.549   8.726   8.676  1.00  0.00     0.031 C 
ATOM     41  C   UNL     1      13.974   7.345   3.574  1.00  0.00     0.029 A 
ATOM     42  C   UNL     1      13.527   8.731   3.671  1.00  0.00     0.049 A 
ATOM     43  H   UNL     1      12.261   9.556   5.104  1.00  0.00     0.167 HD
ATOM     44  C   UNL     1       9.449  11.124   8.055  1.00  0.00     0.037 A 
ATOM     45  C   UNL     1      13.874   9.723   2.829  1.00  0.00     0.037 A 
ATOM     46  C   UNL     1       9.838  12.264   7.266  1.00  0.00     0.049 A 
ATOM     47  C   UNL     1      13.332  11.109   3.058  1.00  0.00     0.074 A 
ATOM     48  C   UNL     1       9.472  13.590   7.426  1.00  0.00     0.029 A 
ATOM     49  N   UNL     1      10.681  12.214   6.165  1.00  0.00    -0.354 N 
ATOM     50  N   UNL     1      12.529  11.539   3.999  1.00  0.00    -0.248 NA
ATOM     51  C   UNL     1      13.751  12.148   2.106  1.00  0.00     0.031 C 
ATOM     52  C   UNL     1      10.051  14.333   6.393  1.00  0.00     0.029 A 
ATOM     53  C   UNL     1      10.823  13.481   5.620  1.00  0.00     0.049 A 
ATOM     54  H   UNL     1      11.114  11.400   5.822  1.00  0.00     0.167 HD
ATOM     55  C   UNL     1      12.371  12.899   3.774  1.00  0.00     0.074 A 
ATOM     56  C   UNL     1      13.171  13.227   2.613  1.00  0.00     0.031 C 
ATOM     57  C   UNL     1      11.629  13.797   4.469  1.00  0.00     0.037 A 
BRANCH  44  58
ATOM     58  C   UNL     1       8.458  11.338   9.163  1.00  0.00     0.064 A 
ATOM     59  C   UNL     1       8.831  11.254  10.513  1.00  0.00     0.173 A 
ATOM     60  C   UNL     1       7.127  11.674   8.871  1.00  0.00     0.173 A 
ATOM     61  F   UNL     1      10.089  10.927  10.847  1.00  0.00    -0.203 F 
ATOM     62  C   UNL     1       7.902  11.470  11.528  1.00  0.00     0.198 A 
ATOM     63  C   UNL     1       6.209  11.919   9.889  1.00  0.00     0.198 A 
ATOM     64  F   UNL     1       6.719  11.775   7.597  1.00  0.00    -0.203 F 
ATOM     65  F   UNL     1       8.271  11.336  12.810  1.00  0.00    -0.200 F 
ATOM     66  C   UNL     1       6.595  11.809  11.216  1.00  0.00     0.200 A 
ATOM     67  F   UNL     1       4.949  12.261   9.584  1.00  0.00    -0.200 F 
ATOM     68  F   UNL     1       5.705  12.024  12.194  1.00  0.00    -0.200 F 
ENDBRANCH  44  58
BRANCH  45  69
ATOM     69  C   UNL     1      14.802   9.449   1.701  1.00  0.00     0.064 A 
ATOM     70  C   UNL     1      16.102   9.976   1.696  1.00  0.00     0.173 A 
ATOM     71  C   UNL     1      14.410   8.669   0.604  1.00  0.00     0.173 A 
ATOM     72  F   UNL     1      16.514  10.748   2.713  1.00  0.00    -0.203 F 
ATOM     73  C   UNL     1      16.967   9.749   0.628  1.00  0.00     0.198 A 
ATOM     74  C   UNL     1      15.286   8.418  -0.450  1.00  0.00     0.198 A 
ATOM     75  F   UNL     1      13.178   8.140   0.561  1.00  0.00    -0.203 F 
ATOM     76  F   UNL     1      18.186  10.303   0.628  1.00  0.00    -0.200 F 
ATOM     77  C   UNL     1      16.561   8.965  -0.441  1.00  0.00     0.200 A 
ATOM     78  F   UNL     1      14.894   7.651  -1.476  1.00  0.00    -0.200 F 
ATOM     79  F   UNL     1      17.394   8.745  -1.468  1.00  0.00    -0.200 F 
ENDBRANCH  45  69
BRANCH  57  80
ATOM     80  C   UNL     1      11.677  15.228   4.017  1.00  0.00     0.064 A 
ATOM     81  C   UNL     1      11.056  15.648   2.831  1.00  0.00     0.173 A 
ATOM     82  C   UNL     1      12.320  16.198   4.801  1.00  0.00     0.173 A 
ATOM     83  F   UNL     1      10.442  14.757   2.038  1.00  0.00    -0.203 F 
ATOM     84  C   UNL     1      11.100  16.982   2.435  1.00  0.00     0.198 A 
ATOM     85  C   UNL     1      12.335  17.536   4.417  1.00  0.00     0.198 A 
ATOM     86  F   UNL     1      12.924  15.850   5.947  1.00  0.00    -0.203 F 
ATOM     87  F   UNL     1      10.541  17.352   1.274  1.00  0.00    -0.200 F 
ATOM     88  C   UNL     1      11.732  17.926   3.231  1.00  0.00     0.200 A 
ATOM     89  F   UNL     1      12.934  18.448   5.195  1.00  0.00    -0.200 F 
ATOM     90  F   UNL     1      11.765  19.210   2.851  1.00  0.00    -0.200 F 
ENDBRANCH  57  80
ENDBRANCH  31  32
ENDBRANCH  23  26
ENDBRANCH  21  22
ENDBRANCH  20  21
ENDBRANCH  19  20
ENDBRANCH   1  19
TORSDOF 17
