REMARK SMILES Cc1cccc(-c2ncc([C@@H]3[NH2+][C@H](C(=O)NCCCCNC(=O)c4ccc(-c5c6nc(c(-c7c(F)c(F)c(F)c(F)c7F)c7ccc([nH]7)c(-c7c(F)c(F)c(F)c(F)c7F)c7nc(c(-c8c(F)c(F)c(F)c(F)c8F)c8ccc5[nH]8)C=C7)C=C6)cc4)C(C)(C)S3)s2)c1
REMARK SMILES IDX 18 1 17 2 16 3 14 4 15 5 13 7 11 8 12 9 90 10 87 13 88 14
REMARK SMILES IDX 89 15 10 16 7 17 8 18 91 19 9 20 6 21 1 22 2 23 3 24 92 25
REMARK SMILES IDX 4 26 5 27 19 28 20 29 21 30 22 31 23 33 24 34 25 35 86 36
REMARK SMILES IDX 26 37 85 38 27 39 28 40 29 41 79 42 30 43 84 44 78 45 80 46
REMARK SMILES IDX 31 47 83 48 77 49 76 50 32 52 64 53 44 54 63 55 45 56 48 57
REMARK SMILES IDX 62 58 81 59 46 60 47 61 61 63 82 64 49 65 33 66 34 67 42 68
REMARK SMILES IDX 35 69 36 70 40 71 43 72 37 73 38 74 41 75 39 76 65 77 66 78
REMARK SMILES IDX 74 79 67 80 68 81 72 82 75 83 69 84 70 85 73 86 71 87 50 88
REMARK SMILES IDX 51 89 59 90 52 91 53 92 57 93 60 94 54 95 55 96 58 97 56 98
REMARK H PARENT 16 6 12 11 12 12 21 32 80 51 48 62
REMARK Flexibility Score: inf
ROOT
ATOM      1  C   UNL     1      -8.697   7.878   0.841  1.00  0.00     0.023 C 
ENDROOT
BRANCH   1   2
ATOM      2  C   UNL     1      -7.768   8.914   1.481  1.00  0.00     0.116 C 
BRANCH   2   3
ATOM      3  N   UNL     1      -6.827   8.311   2.389  1.00  0.00    -0.351 N 
ATOM      4  C   UNL     1      -5.537   7.932   2.328  1.00  0.00     0.279 C 
ATOM      5  O   UNL     1      -5.090   7.673   3.461  1.00  0.00    -0.268 OA
ATOM      6  H   UNL     1      -7.225   8.133   3.271  1.00  0.00     0.163 HD
BRANCH   4   7
ATOM      7  C   UNL     1      -4.559   7.886   1.088  1.00  0.00     0.289 C 
ATOM      8  C   UNL     1      -3.951   5.533   1.006  1.00  0.00     0.286 C 
ATOM      9  N   UNL     1      -3.517   6.856   1.473  1.00  0.00    -0.319 N 
ATOM     10  S   UNL     1      -4.941   5.777  -0.495  1.00  0.00    -0.080 SA
ATOM     11  H   UNL     1      -2.625   7.095   1.040  1.00  0.00     0.348 HD
ATOM     12  H   UNL     1      -3.406   6.843   2.487  1.00  0.00     0.348 HD
ATOM     13  C   UNL     1      -4.834   7.593  -0.416  1.00  0.00     0.077 C 
ATOM     14  C   UNL     1      -3.610   8.020  -1.275  1.00  0.00     0.030 C 
ATOM     15  C   UNL     1      -6.029   8.204  -1.131  1.00  0.00     0.030 C 
BRANCH   8  16
ATOM     16  C   UNL     1      -4.681   4.727   2.040  1.00  0.00     0.093 A 
ATOM     17  C   UNL     1      -5.337   3.086   3.742  1.00  0.00     0.123 A 
ATOM     18  N   UNL     1      -6.382   3.801   3.371  1.00  0.00    -0.244 NA
ATOM     19  S   UNL     1      -3.864   3.516   2.953  1.00  0.00    -0.112 S 
ATOM     20  C   UNL     1      -6.009   4.732   2.426  1.00  0.00     0.134 A 
BRANCH  17  21
ATOM     21  C   UNL     1      -5.420   1.958   4.690  1.00  0.00     0.011 A 
ATOM     22  C   UNL     1      -8.156  -0.414   5.935  1.00  0.00     0.044 C 
ATOM     23  C   UNL     1      -6.821   0.245   5.754  1.00  0.00    -0.050 A 
ATOM     24  C   UNL     1      -5.706  -0.221   6.456  1.00  0.00     0.003 A 
ATOM     25  C   UNL     1      -6.667   1.333   4.883  1.00  0.00     0.014 A 
ATOM     26  C   UNL     1      -4.464   0.392   6.290  1.00  0.00     0.001 A 
ATOM     27  C   UNL     1      -4.322   1.474   5.415  1.00  0.00     0.011 A 
ENDBRANCH  17  21
ENDBRANCH   8  16
ENDBRANCH   4   7
ENDBRANCH   2   3
ENDBRANCH   1   2
BRANCH   1  28
ATOM     28  C   UNL     1      -9.797   7.320   1.736  1.00  0.00     0.023 C 
BRANCH  28  29
ATOM     29  C   UNL     1     -10.894   8.313   2.073  1.00  0.00     0.116 C 
BRANCH  29  30
ATOM     30  N   UNL     1     -11.874   8.549   1.020  1.00  0.00    -0.352 N 
ATOM     31  C   UNL     1     -12.885   9.507   0.964  1.00  0.00     0.251 C 
ATOM     32  H   UNL     1     -11.815   7.949   0.242  1.00  0.00     0.163 HD
ATOM     33  O   UNL     1     -13.657   9.542   0.033  1.00  0.00    -0.269 OA
BRANCH  31  34
ATOM     34  C   UNL     1     -12.904  10.581   1.996  1.00  0.00     0.039 A 
ATOM     35  C   UNL     1     -12.972  11.907   1.555  1.00  0.00     0.014 A 
ATOM     36  C   UNL     1     -12.580  10.299   3.318  1.00  0.00     0.014 A 
ATOM     37  C   UNL     1     -12.426  12.911   2.350  1.00  0.00     0.010 A 
ATOM     38  C   UNL     1     -11.914  11.263   4.046  1.00  0.00     0.010 A 
ATOM     39  C   UNL     1     -11.769  12.552   3.524  1.00  0.00    -0.014 A 
BRANCH  39  40
ATOM     40  C   UNL     1     -10.803  13.411   4.197  1.00  0.00     0.031 A 
ATOM     41  C   UNL     1     -11.092  13.954   5.539  1.00  0.00     0.074 A 
ATOM     42  C   UNL     1      -9.592  13.636   3.634  1.00  0.00     0.049 A 
ATOM     43  N   UNL     1     -10.461  14.959   6.042  1.00  0.00    -0.248 NA
ATOM     44  C   UNL     1     -12.168  13.472   6.400  1.00  0.00     0.031 C 
ATOM     45  C   UNL     1      -8.402  14.191   4.281  1.00  0.00     0.029 A 
ATOM     46  N   UNL     1      -9.255  13.605   2.268  1.00  0.00    -0.354 N 
ATOM     47  C   UNL     1     -10.790  15.029   7.371  1.00  0.00     0.074 A 
ATOM     48  C   UNL     1     -11.964  14.206   7.500  1.00  0.00     0.031 C 
ATOM     49  C   UNL     1      -7.613  14.738   3.345  1.00  0.00     0.029 A 
ATOM     50  C   UNL     1      -8.335  14.669   2.091  1.00  0.00     0.049 A 
ATOM     51  H   UNL     1      -9.586  12.980   1.584  1.00  0.00     0.167 HD
ATOM     52  C   UNL     1      -9.925  15.655   8.216  1.00  0.00     0.037 A 
ATOM     53  C   UNL     1      -8.615  15.736   1.291  1.00  0.00     0.037 A 
ATOM     54  C   UNL     1      -8.943  16.451   7.472  1.00  0.00     0.049 A 
ATOM     55  C   UNL     1      -8.549  17.079   1.980  1.00  0.00     0.074 A 
ATOM     56  C   UNL     1      -7.572  16.389   7.293  1.00  0.00     0.029 A 
ATOM     57  N   UNL     1      -9.405  17.410   6.573  1.00  0.00    -0.354 N 
ATOM     58  N   UNL     1      -8.510  17.249   3.272  1.00  0.00    -0.248 NA
ATOM     59  C   UNL     1      -8.570  18.342   1.256  1.00  0.00     0.031 C 
ATOM     60  C   UNL     1      -7.217  17.315   6.270  1.00  0.00     0.029 A 
ATOM     61  C   UNL     1      -8.368  17.957   5.846  1.00  0.00     0.049 A 
ATOM     62  H   UNL     1     -10.350  17.665   6.470  1.00  0.00     0.167 HD
ATOM     63  C   UNL     1      -8.558  18.593   3.571  1.00  0.00     0.074 A 
ATOM     64  C   UNL     1      -8.552  19.228   2.267  1.00  0.00     0.031 C 
ATOM     65  C   UNL     1      -8.632  19.020   4.874  1.00  0.00     0.037 A 
BRANCH  52  66
ATOM     66  C   UNL     1      -9.837  15.424   9.716  1.00  0.00     0.064 A 
ATOM     67  C   UNL     1      -8.905  16.151  10.493  1.00  0.00     0.173 A 
ATOM     68  C   UNL     1     -10.533  14.425  10.433  1.00  0.00     0.173 A 
ATOM     69  F   UNL     1      -8.168  17.133   9.956  1.00  0.00    -0.203 F 
ATOM     70  C   UNL     1      -8.677  15.882  11.848  1.00  0.00     0.198 A 
ATOM     71  C   UNL     1     -10.344  14.196  11.800  1.00  0.00     0.198 A 
ATOM     72  F   UNL     1     -11.382  13.578   9.846  1.00  0.00    -0.203 F 
ATOM     73  F   UNL     1      -7.730  16.561  12.512  1.00  0.00    -0.200 F 
ATOM     74  C   UNL     1      -9.404  14.911  12.505  1.00  0.00     0.200 A 
ATOM     75  F   UNL     1     -11.065  13.247  12.416  1.00  0.00    -0.200 F 
ATOM     76  F   UNL     1      -9.188  14.652  13.801  1.00  0.00    -0.200 F 
ENDBRANCH  52  66
BRANCH  53  77
ATOM     77  C   UNL     1      -9.512  15.397   0.157  1.00  0.00     0.064 A 
ATOM     78  C   UNL     1      -9.057  14.467  -0.798  1.00  0.00     0.173 A 
ATOM     79  C   UNL     1     -10.886  15.651   0.212  1.00  0.00     0.173 A 
ATOM     80  F   UNL     1      -7.747  14.186  -0.889  1.00  0.00    -0.203 F 
ATOM     81  C   UNL     1      -9.949  13.731  -1.574  1.00  0.00     0.198 A 
ATOM     82  C   UNL     1     -11.777  14.922  -0.579  1.00  0.00     0.198 A 
ATOM     83  F   UNL     1     -11.382  16.507   1.117  1.00  0.00    -0.203 F 
ATOM     84  F   UNL     1      -9.491  12.766  -2.383  1.00  0.00    -0.200 F 
ATOM     85  C   UNL     1     -11.311  13.939  -1.442  1.00  0.00     0.200 A 
ATOM     86  F   UNL     1     -13.098  15.097  -0.427  1.00  0.00    -0.200 F 
ATOM     87  F   UNL     1     -12.177  13.162  -2.108  1.00  0.00    -0.200 F 
ENDBRANCH  53  77
BRANCH  65  88
ATOM     88  C   UNL     1      -8.924  20.425   5.419  1.00  0.00     0.064 A 
ATOM     89  C   UNL     1      -9.239  21.564   4.659  1.00  0.00     0.173 A 
ATOM     90  C   UNL     1      -8.970  20.649   6.827  1.00  0.00     0.173 A 
ATOM     91  F   UNL     1      -9.314  21.534   3.328  1.00  0.00    -0.203 F 
ATOM     92  C   UNL     1      -9.542  22.806   5.238  1.00  0.00     0.198 A 
ATOM     93  C   UNL     1      -9.317  21.874   7.403  1.00  0.00     0.198 A 
ATOM     94  F   UNL     1      -8.704  19.680   7.713  1.00  0.00    -0.203 F 
ATOM     95  F   UNL     1      -9.809  23.854   4.446  1.00  0.00    -0.200 F 
ATOM     96  C   UNL     1      -9.594  22.959   6.607  1.00  0.00     0.200 A 
ATOM     97  F   UNL     1      -9.396  21.983   8.737  1.00  0.00    -0.200 F 
ATOM     98  F   UNL     1      -9.924  24.137   7.152  1.00  0.00    -0.200 F 
ENDBRANCH  65  88
ENDBRANCH  39  40
ENDBRANCH  31  34
ENDBRANCH  29  30
ENDBRANCH  28  29
ENDBRANCH   1  28
TORSDOF 13
