REMARK SMILES CC(=O)Oc1ccc2oc(N)c([C@@H]3[NH2+][C@@H](C(=O)NCCCCNC(=O)c4ccc(-c5c6nc(c(-c7c(F)c(F)c(F)c(F)c7F)c7ccc([nH]7)c(-c7c(F)c(F)c(F)c(F)c7F)c7nc(c(-c8c(F)c(F)c(F)c(F)c8F)c8ccc5[nH]8)C=C7)C=C6)cc4)C(C)(C)S3)c(=O)c2c1
REMARK SMILES IDX 20 1 19 2 18 3 16 4 17 5 15 7 13 8 14 9 92 10 89 13 90 14
REMARK SMILES IDX 91 15 12 16 5 17 6 18 96 19 7 20 95 21 8 22 93 23 9 24 94 25
REMARK SMILES IDX 10 26 4 27 2 28 1 29 3 30 11 31 21 34 22 35 23 36 24 37
REMARK SMILES IDX 25 39 26 40 27 41 88 42 28 43 87 44 29 45 30 46 31 47 81 48
REMARK SMILES IDX 32 49 86 50 80 51 82 52 33 53 85 54 79 55 78 56 34 58 66 59
REMARK SMILES IDX 46 60 65 61 47 62 50 63 64 64 83 65 48 66 49 67 63 69 84 70
REMARK SMILES IDX 51 71 35 72 36 73 44 74 37 75 38 76 42 77 45 78 39 79 40 80
REMARK SMILES IDX 43 81 41 82 67 83 68 84 76 85 69 86 70 87 74 88 77 89 71 90
REMARK SMILES IDX 72 91 75 92 73 93 52 94 53 95 61 96 54 97 55 98 59 99 62 100
REMARK SMILES IDX 56 101 57 102 60 103 58 104
REMARK H PARENT 18 6 14 11 14 12 11 32 11 33 23 38 82 57 50 68
REMARK Flexibility Score: inf
ROOT
ATOM      1  C   UNL     1      -1.925 -12.642  -2.198  1.00  0.00     0.023 C 
ENDROOT
BRANCH   1   2
ATOM      2  C   UNL     1      -1.029 -11.681  -1.411  1.00  0.00     0.116 C 
BRANCH   2   3
ATOM      3  N   UNL     1      -0.005 -12.376  -0.652  1.00  0.00    -0.351 N 
ATOM      4  C   UNL     1       1.351 -12.450  -0.742  1.00  0.00     0.279 C 
ATOM      5  O   UNL     1       1.890 -13.235   0.050  1.00  0.00    -0.268 OA
ATOM      6  H   UNL     1      -0.371 -12.909   0.090  1.00  0.00     0.163 HD
BRANCH   4   7
ATOM      7  C   UNL     1       2.221 -11.692  -1.768  1.00  0.00     0.289 C 
ATOM      8  C   UNL     1       2.602  -9.643  -2.970  1.00  0.00     0.284 C 
ATOM      9  N   UNL     1       1.981 -10.231  -1.777  1.00  0.00    -0.320 N 
ATOM     10  S   UNL     1       2.872 -10.947  -4.224  1.00  0.00    -0.081 SA
ATOM     11  H   UNL     1       0.977 -10.051  -1.792  1.00  0.00     0.348 HD
ATOM     12  H   UNL     1       2.388  -9.814  -0.940  1.00  0.00     0.348 HD
ATOM     13  C   UNL     1       2.270 -12.314  -3.180  1.00  0.00     0.077 C 
ATOM     14  C   UNL     1       0.966 -12.764  -3.819  1.00  0.00     0.030 C 
ATOM     15  C   UNL     1       3.248 -13.496  -3.234  1.00  0.00     0.030 C 
BRANCH   8  16
ATOM     16  C   UNL     1       3.870  -8.851  -2.742  1.00  0.00     0.128 A 
ATOM     17  C   UNL     1       6.077  -4.676  -4.044  1.00  0.00     0.131 A 
ATOM     18  C   UNL     1       7.307  -5.325  -3.897  1.00  0.00     0.051 A 
ATOM     19  C   UNL     1       4.882  -5.296  -3.673  1.00  0.00     0.063 A 
ATOM     20  C   UNL     1       7.342  -6.615  -3.377  1.00  0.00     0.052 A 
ATOM     21  C   UNL     1       4.931  -6.604  -3.182  1.00  0.00     0.069 A 
ATOM     22  C   UNL     1       6.152  -7.244  -3.018  1.00  0.00     0.140 A 
ATOM     23  C   UNL     1       3.714  -7.370  -2.871  1.00  0.00     0.205 A 
ATOM     24  O   UNL     1       6.242  -8.497  -2.487  1.00  0.00    -0.440 OA
ATOM     25  O   UNL     1       2.625  -6.810  -2.807  1.00  0.00    -0.288 OA
ATOM     26  C   UNL     1       5.130  -9.315  -2.564  1.00  0.00     0.205 A 
BRANCH  17  27
ATOM     27  O   UNL     1       6.020  -3.340  -4.468  1.00  0.00    -0.427 OA
BRANCH  27  28
ATOM     28  C   UNL     1       6.651  -3.042  -5.673  1.00  0.00     0.308 C 
ATOM     29  C   UNL     1       6.716  -1.552  -5.828  1.00  0.00     0.139 C 
ATOM     30  O   UNL     1       7.112  -3.841  -6.477  1.00  0.00    -0.252 OA
ENDBRANCH  27  28
ENDBRANCH  17  27
BRANCH  26  31
ATOM     31  N   UNL     1       5.485 -10.628  -2.497  1.00  0.00    -0.369 N 
ATOM     32  H   UNL     1       6.429 -10.877  -2.365  1.00  0.00     0.159 HD
ATOM     33  H   UNL     1       4.799 -11.329  -2.581  1.00  0.00     0.159 HD
ENDBRANCH  26  31
ENDBRANCH   8  16
ENDBRANCH   4   7
ENDBRANCH   2   3
ENDBRANCH   1   2
BRANCH   1  34
ATOM     34  C   UNL     1      -2.841 -13.523  -1.363  1.00  0.00     0.023 C 
BRANCH  34  35
ATOM     35  C   UNL     1      -3.903 -12.764  -0.592  1.00  0.00     0.116 C 
BRANCH  35  36
ATOM     36  N   UNL     1      -4.780 -11.962  -1.438  1.00  0.00    -0.352 N 
ATOM     37  C   UNL     1      -6.153 -11.835  -1.386  1.00  0.00     0.251 C 
ATOM     38  H   UNL     1      -4.331 -11.440  -2.142  1.00  0.00     0.163 HD
ATOM     39  O   UNL     1      -6.759 -11.197  -2.229  1.00  0.00    -0.269 OA
BRANCH  37  40
ATOM     40  C   UNL     1      -6.876 -12.541  -0.309  1.00  0.00     0.039 A 
ATOM     41  C   UNL     1      -6.394 -12.482   0.997  1.00  0.00     0.014 A 
ATOM     42  C   UNL     1      -7.953 -13.369  -0.634  1.00  0.00     0.014 A 
ATOM     43  C   UNL     1      -6.819 -13.429   1.913  1.00  0.00     0.010 A 
ATOM     44  C   UNL     1      -8.469 -14.233   0.335  1.00  0.00     0.010 A 
ATOM     45  C   UNL     1      -7.855 -14.324   1.593  1.00  0.00    -0.014 A 
BRANCH  45  46
ATOM     46  C   UNL     1      -8.240 -15.349   2.599  1.00  0.00     0.031 A 
ATOM     47  C   UNL     1      -8.086 -16.819   2.313  1.00  0.00     0.074 A 
ATOM     48  C   UNL     1      -8.626 -14.936   3.821  1.00  0.00     0.049 A 
ATOM     49  N   UNL     1      -8.290 -17.837   3.112  1.00  0.00    -0.248 NA
ATOM     50  C   UNL     1      -7.659 -17.204   0.959  1.00  0.00     0.031 C 
ATOM     51  C   UNL     1      -8.806 -13.536   4.212  1.00  0.00     0.029 A 
ATOM     52  N   UNL     1      -8.876 -15.637   4.972  1.00  0.00    -0.354 N 
ATOM     53  C   UNL     1      -8.057 -18.975   2.350  1.00  0.00     0.074 A 
ATOM     54  C   UNL     1      -7.712 -18.528   1.019  1.00  0.00     0.031 C 
ATOM     55  C   UNL     1      -9.031 -13.474   5.530  1.00  0.00     0.029 A 
ATOM     56  C   UNL     1      -9.095 -14.831   6.062  1.00  0.00     0.049 A 
ATOM     57  H   UNL     1      -8.896 -16.620   5.013  1.00  0.00     0.167 HD
ATOM     58  C   UNL     1      -8.116 -20.273   2.732  1.00  0.00     0.037 A 
ATOM     59  C   UNL     1      -9.325 -15.145   7.350  1.00  0.00     0.037 A 
ATOM     60  C   UNL     1      -8.403 -20.710   4.074  1.00  0.00     0.049 A 
ATOM     61  C   UNL     1      -9.392 -16.589   7.746  1.00  0.00     0.074 A 
ATOM     62  C   UNL     1      -8.423 -22.000   4.574  1.00  0.00     0.029 A 
ATOM     63  N   UNL     1      -8.713 -19.865   5.129  1.00  0.00    -0.354 N 
ATOM     64  N   UNL     1      -9.165 -17.653   7.016  1.00  0.00    -0.248 NA
ATOM     65  C   UNL     1      -9.777 -16.878   9.133  1.00  0.00     0.031 C 
ATOM     66  C   UNL     1      -8.786 -21.939   5.923  1.00  0.00     0.029 A 
ATOM     67  C   UNL     1      -8.958 -20.609   6.272  1.00  0.00     0.049 A 
ATOM     68  H   UNL     1      -8.753 -18.883   5.074  1.00  0.00     0.167 HD
ATOM     69  C   UNL     1      -9.394 -18.739   7.846  1.00  0.00     0.074 A 
ATOM     70  C   UNL     1      -9.746 -18.205   9.147  1.00  0.00     0.031 C 
ATOM     71  C   UNL     1      -9.329 -20.059   7.551  1.00  0.00     0.037 A 
BRANCH  58  72
ATOM     72  C   UNL     1      -7.881 -21.323   1.686  1.00  0.00     0.064 A 
ATOM     73  C   UNL     1      -6.603 -21.581   1.169  1.00  0.00     0.173 A 
ATOM     74  C   UNL     1      -8.946 -22.116   1.230  1.00  0.00     0.173 A 
ATOM     75  F   UNL     1      -5.554 -20.844   1.564  1.00  0.00    -0.203 F 
ATOM     76  C   UNL     1      -6.404 -22.580   0.219  1.00  0.00     0.198 A 
ATOM     77  C   UNL     1      -8.738 -23.130   0.298  1.00  0.00     0.198 A 
ATOM     78  F   UNL     1     -10.187 -21.916   1.698  1.00  0.00    -0.203 F 
ATOM     79  F   UNL     1      -5.180 -22.783  -0.290  1.00  0.00    -0.200 F 
ATOM     80  C   UNL     1      -7.469 -23.357  -0.211  1.00  0.00     0.200 A 
ATOM     81  F   UNL     1      -9.767 -23.887  -0.107  1.00  0.00    -0.200 F 
ATOM     82  F   UNL     1      -7.273 -24.322  -1.121  1.00  0.00    -0.200 F 
ENDBRANCH  58  72
BRANCH  59  83
ATOM     83  C   UNL     1      -9.501 -14.053   8.339  1.00  0.00     0.064 A 
ATOM     84  C   UNL     1      -8.504 -13.772   9.281  1.00  0.00     0.173 A 
ATOM     85  C   UNL     1     -10.626 -13.215   8.304  1.00  0.00     0.173 A 
ATOM     86  F   UNL     1      -7.418 -14.555   9.361  1.00  0.00    -0.203 F 
ATOM     87  C   UNL     1      -8.620 -12.684  10.145  1.00  0.00     0.198 A 
ATOM     88  C   UNL     1     -10.728 -12.113   9.149  1.00  0.00     0.198 A 
ATOM     89  F   UNL     1     -11.602 -13.439   7.412  1.00  0.00    -0.203 F 
ATOM     90  F   UNL     1      -7.657 -12.439  11.043  1.00  0.00    -0.200 F 
ATOM     91  C   UNL     1      -9.725 -11.848  10.068  1.00  0.00     0.200 A 
ATOM     92  F   UNL     1     -11.786 -11.296   9.056  1.00  0.00    -0.200 F 
ATOM     93  F   UNL     1      -9.820 -10.785  10.878  1.00  0.00    -0.200 F 
ENDBRANCH  59  83
BRANCH  71  94
ATOM     94  C   UNL     1      -9.677 -21.026   8.641  1.00  0.00     0.064 A 
ATOM     95  C   UNL     1     -11.013 -21.259   8.996  1.00  0.00     0.173 A 
ATOM     96  C   UNL     1      -8.681 -21.783   9.273  1.00  0.00     0.173 A 
ATOM     97  F   UNL     1     -11.997 -20.547   8.427  1.00  0.00    -0.203 F 
ATOM     98  C   UNL     1     -11.340 -22.219   9.949  1.00  0.00     0.198 A 
ATOM     99  C   UNL     1      -9.014 -22.756  10.211  1.00  0.00     0.198 A 
ATOM    100  F   UNL     1      -7.390 -21.597   8.961  1.00  0.00    -0.203 F 
ATOM    101  F   UNL     1     -12.622 -22.414  10.289  1.00  0.00    -0.200 F 
ATOM    102  C   UNL     1     -10.342 -22.973  10.548  1.00  0.00     0.200 A 
ATOM    103  F   UNL     1      -8.050 -23.492  10.781  1.00  0.00    -0.200 F 
ATOM    104  F   UNL     1     -10.660 -23.910  11.452  1.00  0.00    -0.200 F 
ENDBRANCH  71  94
ENDBRANCH  45  46
ENDBRANCH  37  40
ENDBRANCH  35  36
ENDBRANCH  34  35
ENDBRANCH   1  34
TORSDOF 15
