REMARK SMILES O=C(CCCc1nc(-c2ccc(Cl)c(Cl)c2)c(-c2ccccc2)o1)NCCCCNC(=O)c1ccc(-c2c3nc(c(-c4c(F)c(F)c(F)c(F)c4F)c4ccc([nH]4)c(-c4c(F)c(F)c(F)c(F)c4F)c4nc(c(-c5c(F)c(F)c(F)c(F)c5F)c5ccc2[nH]5)C=C4)C=C3)cc1
REMARK SMILES IDX 26 1 25 2 1 3 2 4 3 6 4 7 5 8 6 9 7 10 24 11 8 12 17 13 9 14
REMARK SMILES IDX 10 15 16 16 11 17 14 18 12 19 15 20 13 21 18 22 19 23 23 24
REMARK SMILES IDX 20 25 22 26 21 27 27 28 28 29 29 30 30 31 31 32 32 34 33 35
REMARK SMILES IDX 34 36 95 37 35 38 94 39 36 40 37 41 38 42 88 43 39 44 93 45
REMARK SMILES IDX 87 46 89 47 40 48 92 49 86 50 85 51 41 53 73 54 53 55 72 56
REMARK SMILES IDX 54 57 57 58 71 59 90 60 55 61 56 62 70 64 91 65 58 66 42 67
REMARK SMILES IDX 43 68 51 69 44 70 45 71 49 72 52 73 46 74 47 75 50 76 48 77
REMARK SMILES IDX 74 78 75 79 83 80 76 81 77 82 81 83 84 84 78 85 79 86 82 87
REMARK SMILES IDX 80 88 59 89 60 90 68 91 61 92 62 93 66 94 69 95 63 96 64 97
REMARK SMILES IDX 67 98 65 99
REMARK H PARENT 25 5 30 33 89 52 57 63
REMARK Flexibility Score: inf
ROOT
ATOM      1  C   UNL     1       2.044  -2.093   1.033  1.00  0.00     0.116 C 
ENDROOT
BRANCH   1   2
ATOM      2  N   UNL     1       2.702  -1.082   0.231  1.00  0.00    -0.356 N 
ATOM      3  O   UNL     1       1.055   0.494   0.514  1.00  0.00    -0.275 OA
ATOM      4  C   UNL     1       2.136   0.159   0.042  1.00  0.00     0.220 C 
ATOM      5  H   UNL     1       3.570  -1.286  -0.187  1.00  0.00     0.163 HD
BRANCH   4   6
ATOM      6  C   UNL     1       2.975   1.111  -0.783  1.00  0.00     0.100 C 
BRANCH   6   7
ATOM      7  C   UNL     1       3.941   1.933   0.074  1.00  0.00     0.020 C 
BRANCH   7   8
ATOM      8  C   UNL     1       5.080   1.144   0.725  1.00  0.00     0.098 C 
BRANCH   8   9
ATOM      9  C   UNL     1       5.832   0.322  -0.257  1.00  0.00     0.195 A 
ATOM     10  N   UNL     1       5.705  -0.972  -0.495  1.00  0.00    -0.213 NA
ATOM     11  O   UNL     1       6.689   0.983  -1.093  1.00  0.00    -0.440 OA
ATOM     12  C   UNL     1       6.577  -1.185  -1.537  1.00  0.00     0.117 A 
ATOM     13  C   UNL     1       7.144   0.008  -1.939  1.00  0.00     0.162 A 
BRANCH  12  14
ATOM     14  C   UNL     1       6.843  -2.479  -2.123  1.00  0.00     0.006 A 
ATOM     15  C   UNL     1       5.803  -3.226  -2.683  1.00  0.00     0.012 A 
ATOM     16  C   UNL     1       8.151  -2.982  -2.150  1.00  0.00     0.032 A 
ATOM     17  C   UNL     1       6.072  -4.459  -3.284  1.00  0.00     0.023 A 
ATOM     18  C   UNL     1       8.419  -4.218  -2.744  1.00  0.00     0.060 A 
ATOM     19  C   UNL     1       7.379  -4.957  -3.318  1.00  0.00     0.059 A 
ATOM     20  Cl  UNL     1      10.052  -4.777  -2.734  1.00  0.00    -0.083 Cl
ATOM     21  Cl  UNL     1       7.641  -6.485  -4.080  1.00  0.00    -0.083 Cl
ENDBRANCH  12  14
BRANCH  13  22
ATOM     22  C   UNL     1       8.016   0.424  -3.020  1.00  0.00     0.020 A 
ATOM     23  C   UNL     1       9.197   1.128  -2.762  1.00  0.00     0.012 A 
ATOM     24  C   UNL     1       7.700   0.084  -4.344  1.00  0.00     0.012 A 
ATOM     25  C   UNL     1      10.057   1.467  -3.810  1.00  0.00     0.001 A 
ATOM     26  C   UNL     1       8.555   0.432  -5.391  1.00  0.00     0.001 A 
ATOM     27  C   UNL     1       9.737   1.118  -5.121  1.00  0.00     0.000 A 
ENDBRANCH  13  22
ENDBRANCH   8   9
ENDBRANCH   7   8
ENDBRANCH   6   7
ENDBRANCH   4   6
ENDBRANCH   1   2
BRANCH   1  28
ATOM     28  C   UNL     1       2.370  -3.515   0.583  1.00  0.00     0.023 C 
BRANCH  28  29
ATOM     29  C   UNL     1       3.844  -3.914   0.681  1.00  0.00     0.023 C 
BRANCH  29  30
ATOM     30  C   UNL     1       4.471  -3.791   2.065  1.00  0.00     0.116 C 
BRANCH  30  31
ATOM     31  N   UNL     1       3.899  -4.730   3.019  1.00  0.00    -0.352 N 
ATOM     32  C   UNL     1       4.522  -5.663   3.809  1.00  0.00     0.251 C 
ATOM     33  H   UNL     1       2.919  -4.691   3.110  1.00  0.00     0.163 HD
ATOM     34  O   UNL     1       3.852  -6.487   4.431  1.00  0.00    -0.269 OA
BRANCH  32  35
ATOM     35  C   UNL     1       5.999  -5.705   3.906  1.00  0.00     0.039 A 
ATOM     36  C   UNL     1       6.642  -6.946   3.859  1.00  0.00     0.014 A 
ATOM     37  C   UNL     1       6.750  -4.537   4.067  1.00  0.00     0.014 A 
ATOM     38  C   UNL     1       8.037  -7.011   3.907  1.00  0.00     0.010 A 
ATOM     39  C   UNL     1       8.143  -4.598   4.051  1.00  0.00     0.010 A 
ATOM     40  C   UNL     1       8.801  -5.835   3.969  1.00  0.00    -0.014 A 
BRANCH  40  41
ATOM     41  C   UNL     1      10.286  -5.880   3.943  1.00  0.00     0.031 A 
ATOM     42  C   UNL     1      11.084  -5.418   5.132  1.00  0.00     0.074 A 
ATOM     43  C   UNL     1      10.922  -6.277   2.824  1.00  0.00     0.049 A 
ATOM     44  N   UNL     1      12.382  -5.307   5.268  1.00  0.00    -0.248 NA
ATOM     45  C   UNL     1      10.319  -5.001   6.317  1.00  0.00     0.031 C 
ATOM     46  C   UNL     1      10.270  -6.701   1.584  1.00  0.00     0.029 A 
ATOM     47  N   UNL     1      12.263  -6.373   2.544  1.00  0.00    -0.354 N 
ATOM     48  C   UNL     1      12.588  -4.795   6.542  1.00  0.00     0.074 A 
ATOM     49  C   UNL     1      11.280  -4.573   7.122  1.00  0.00     0.031 C 
ATOM     50  C   UNL     1      11.210  -7.026   0.682  1.00  0.00     0.029 A 
ATOM     51  C   UNL     1      12.529  -6.804   1.267  1.00  0.00     0.049 A 
ATOM     52  H   UNL     1      12.967  -6.154   3.196  1.00  0.00     0.167 HD
ATOM     53  C   UNL     1      13.759  -4.551   7.178  1.00  0.00     0.037 A 
ATOM     54  C   UNL     1      13.703  -6.990   0.636  1.00  0.00     0.037 A 
ATOM     55  C   UNL     1      15.060  -4.792   6.609  1.00  0.00     0.049 A 
ATOM     56  C   UNL     1      14.989  -6.716   1.364  1.00  0.00     0.074 A 
ATOM     57  C   UNL     1      16.303  -4.627   7.197  1.00  0.00     0.029 A 
ATOM     58  N   UNL     1      15.287  -5.251   5.320  1.00  0.00    -0.354 N 
ATOM     59  N   UNL     1      15.171  -6.278   2.585  1.00  0.00    -0.248 NA
ATOM     60  C   UNL     1      16.233  -6.965   0.622  1.00  0.00     0.031 C 
ATOM     61  C   UNL     1      17.282  -4.945   6.249  1.00  0.00     0.029 A 
ATOM     62  C   UNL     1      16.650  -5.355   5.087  1.00  0.00     0.049 A 
ATOM     63  H   UNL     1      14.584  -5.469   4.667  1.00  0.00     0.167 HD
ATOM     64  C   UNL     1      16.546  -6.216   2.766  1.00  0.00     0.074 A 
ATOM     65  C   UNL     1      17.151  -6.676   1.533  1.00  0.00     0.031 C 
ATOM     66  C   UNL     1      17.241  -5.812   3.856  1.00  0.00     0.037 A 
BRANCH  53  67
ATOM     67  C   UNL     1      13.688  -3.993   8.570  1.00  0.00     0.064 A 
ATOM     68  C   UNL     1      13.243  -4.770   9.651  1.00  0.00     0.173 A 
ATOM     69  C   UNL     1      14.107  -2.680   8.835  1.00  0.00     0.173 A 
ATOM     70  F   UNL     1      12.823  -6.028   9.451  1.00  0.00    -0.203 F 
ATOM     71  C   UNL     1      13.191  -4.243  10.939  1.00  0.00     0.198 A 
ATOM     72  C   UNL     1      14.082  -2.167  10.129  1.00  0.00     0.198 A 
ATOM     73  F   UNL     1      14.548  -1.897   7.840  1.00  0.00    -0.203 F 
ATOM     74  F   UNL     1      12.716  -4.988  11.947  1.00  0.00    -0.200 F 
ATOM     75  C   UNL     1      13.617  -2.945  11.178  1.00  0.00     0.200 A 
ATOM     76  F   UNL     1      14.506  -0.916  10.361  1.00  0.00    -0.200 F 
ATOM     77  F   UNL     1      13.572  -2.442  12.420  1.00  0.00    -0.200 F 
ENDBRANCH  53  67
BRANCH  54  78
ATOM     78  C   UNL     1      13.717  -7.471  -0.767  1.00  0.00     0.064 A 
ATOM     79  C   UNL     1      14.098  -8.783  -1.076  1.00  0.00     0.173 A 
ATOM     80  C   UNL     1      13.356  -6.626  -1.825  1.00  0.00     0.173 A 
ATOM     81  F   UNL     1      14.489  -9.614  -0.099  1.00  0.00    -0.203 F 
ATOM     82  C   UNL     1      14.123  -9.231  -2.395  1.00  0.00     0.198 A 
ATOM     83  C   UNL     1      13.354  -7.082  -3.140  1.00  0.00     0.198 A 
ATOM     84  F   UNL     1      13.013  -5.354  -1.574  1.00  0.00    -0.203 F 
ATOM     85  F   UNL     1      14.535 -10.476  -2.670  1.00  0.00    -0.200 F 
ATOM     86  C   UNL     1      13.742  -8.383  -3.425  1.00  0.00     0.200 A 
ATOM     87  F   UNL     1      12.991  -6.261  -4.134  1.00  0.00    -0.200 F 
ATOM     88  F   UNL     1      13.765  -8.816  -4.693  1.00  0.00    -0.200 F 
ENDBRANCH  54  78
BRANCH  66  89
ATOM     89  C   UNL     1      18.738  -5.873   3.776  1.00  0.00     0.064 A 
ATOM     90  C   UNL     1      19.471  -4.964   2.999  1.00  0.00     0.173 A 
ATOM     91  C   UNL     1      19.450  -6.832   4.512  1.00  0.00     0.173 A 
ATOM     92  F   UNL     1      18.836  -4.039   2.264  1.00  0.00    -0.203 F 
ATOM     93  C   UNL     1      20.861  -5.029   2.943  1.00  0.00     0.198 A 
ATOM     94  C   UNL     1      20.841  -6.877   4.476  1.00  0.00     0.198 A 
ATOM     95  F   UNL     1      18.796  -7.721   5.275  1.00  0.00    -0.203 F 
ATOM     96  F   UNL     1      21.539  -4.180   2.158  1.00  0.00    -0.200 F 
ATOM     97  C   UNL     1      21.544  -5.980   3.686  1.00  0.00     0.200 A 
ATOM     98  F   UNL     1      21.500  -7.789   5.204  1.00  0.00    -0.200 F 
ATOM     99  F   UNL     1      22.883  -6.037   3.636  1.00  0.00    -0.200 F 
ENDBRANCH  66  89
ENDBRANCH  40  41
ENDBRANCH  32  35
ENDBRANCH  30  31
ENDBRANCH  29  30
ENDBRANCH  28  29
ENDBRANCH   1  28
TORSDOF 16
