REMARK SMILES Cc1cccc(-c2cccc(C(=O)NCCCCNC(=O)c3ccc(-c4c5nc(c(-c6c(F)c(F)c(F)c(F)c6F)c6ccc([nH]6)c(-c6c(F)c(F)c(F)c(F)c6F)c6nc(c(-c7c(F)c(F)c(F)c(F)c7F)c7ccc4[nH]7)C=C6)C=C5)cc3)c2)c1
REMARK SMILES IDX 17 1 16 2 15 3 14 4 12 5 13 6 11 8 7 9 8 10 85 11 9 12 10 13
REMARK SMILES IDX 6 14 1 15 2 16 3 17 86 18 4 19 5 20 18 21 19 22 20 23 21 25
REMARK SMILES IDX 22 26 23 27 84 28 24 29 83 30 25 31 26 32 27 33 77 34 28 35
REMARK SMILES IDX 82 36 76 37 78 38 29 39 81 40 75 41 74 42 30 44 62 45 42 46
REMARK SMILES IDX 61 47 43 48 46 49 60 50 79 51 44 52 45 53 59 55 80 56 47 57
REMARK SMILES IDX 31 58 32 59 40 60 33 61 34 62 38 63 41 64 35 65 36 66 39 67
REMARK SMILES IDX 37 68 63 69 64 70 72 71 65 72 66 73 70 74 73 75 67 76 68 77
REMARK SMILES IDX 71 78 69 79 48 80 49 81 57 82 50 83 51 84 55 85 58 86 52 87
REMARK SMILES IDX 53 88 56 89 54 90
REMARK H PARENT 14 7 19 24 78 43 46 54
REMARK Flexibility Score: inf
ROOT
ATOM      1  C   UNL     1      -7.787   6.662   0.924  1.00  0.00     0.023 C 
ENDROOT
BRANCH   1   2
ATOM      2  C   UNL     1      -6.532   6.484   0.069  1.00  0.00     0.023 C 
BRANCH   2   3
ATOM      3  C   UNL     1      -5.199   6.699   0.789  1.00  0.00     0.116 C 
BRANCH   3   4
ATOM      4  N   UNL     1      -4.887   5.677   1.777  1.00  0.00    -0.352 N 
ATOM      5  C   UNL     1      -4.043   4.592   1.831  1.00  0.00     0.251 C 
ATOM      6  O   UNL     1      -4.096   3.913   2.859  1.00  0.00    -0.269 OA
ATOM      7  H   UNL     1      -5.404   5.789   2.607  1.00  0.00     0.163 HD
BRANCH   5   8
ATOM      8  C   UNL     1      -3.102   4.171   0.748  1.00  0.00     0.040 A 
ATOM      9  C   UNL     1      -1.706   2.365  -0.178  1.00  0.00    -0.018 A 
ATOM     10  C   UNL     1      -1.320   3.233  -1.210  1.00  0.00     0.009 A 
ATOM     11  C   UNL     1      -2.636   2.837   0.769  1.00  0.00     0.022 A 
ATOM     12  C   UNL     1      -1.736   4.558  -1.221  1.00  0.00     0.001 A 
ATOM     13  C   UNL     1      -2.574   5.033  -0.213  1.00  0.00     0.014 A 
BRANCH   9  14
ATOM     14  C   UNL     1      -1.054   1.049  -0.061  1.00  0.00    -0.018 A 
ATOM     15  C   UNL     1       2.539  -0.271   0.048  1.00  0.00     0.044 C 
ATOM     16  C   UNL     1       1.039  -0.237   0.041  1.00  0.00    -0.051 A 
ATOM     17  C   UNL     1       0.299  -1.420   0.084  1.00  0.00     0.003 A 
ATOM     18  C   UNL     1       0.355   0.982  -0.028  1.00  0.00     0.012 A 
ATOM     19  C   UNL     1      -1.097  -1.377   0.070  1.00  0.00     0.001 A 
ATOM     20  C   UNL     1      -1.770  -0.151   0.001  1.00  0.00     0.009 A 
ENDBRANCH   9  14
ENDBRANCH   5   8
ENDBRANCH   3   4
ENDBRANCH   2   3
ENDBRANCH   1   2
BRANCH   1  21
ATOM     21  C   UNL     1      -7.976   8.056   1.513  1.00  0.00     0.116 C 
BRANCH  21  22
ATOM     22  N   UNL     1      -8.469   9.070   0.591  1.00  0.00    -0.352 N 
ATOM     23  C   UNL     1      -8.596  10.443   0.763  1.00  0.00     0.251 C 
ATOM     24  H   UNL     1      -8.755   8.731  -0.287  1.00  0.00     0.163 HD
ATOM     25  O   UNL     1      -9.140  11.112  -0.101  1.00  0.00    -0.269 OA
BRANCH  23  26
ATOM     26  C   UNL     1      -7.946  11.122   1.919  1.00  0.00     0.039 A 
ATOM     27  C   UNL     1      -7.310  12.352   1.692  1.00  0.00     0.014 A 
ATOM     28  C   UNL     1      -7.783  10.485   3.142  1.00  0.00     0.014 A 
ATOM     29  C   UNL     1      -6.308  12.781   2.562  1.00  0.00     0.010 A 
ATOM     30  C   UNL     1      -6.713  10.837   3.939  1.00  0.00     0.010 A 
ATOM     31  C   UNL     1      -5.925  11.941   3.604  1.00  0.00    -0.014 A 
BRANCH  31  32
ATOM     32  C   UNL     1      -4.651  12.040   4.310  1.00  0.00     0.031 A 
ATOM     33  C   UNL     1      -4.604  12.407   5.740  1.00  0.00     0.074 A 
ATOM     34  C   UNL     1      -3.538  11.589   3.690  1.00  0.00     0.049 A 
ATOM     35  N   UNL     1      -3.529  12.711   6.386  1.00  0.00    -0.248 NA
ATOM     36  C   UNL     1      -5.805  12.500   6.555  1.00  0.00     0.031 C 
ATOM     37  C   UNL     1      -2.258  11.236   4.300  1.00  0.00     0.029 A 
ATOM     38  N   UNL     1      -3.284  11.546   2.308  1.00  0.00    -0.354 N 
ATOM     39  C   UNL     1      -3.837  12.759   7.728  1.00  0.00     0.074 A 
ATOM     40  C   UNL     1      -5.279  12.702   7.766  1.00  0.00     0.031 C 
ATOM     41  C   UNL     1      -1.298  11.322   3.366  1.00  0.00     0.029 A 
ATOM     42  C   UNL     1      -1.912  11.882   2.176  1.00  0.00     0.049 A 
ATOM     43  H   UNL     1      -3.920  11.331   1.588  1.00  0.00     0.167 HD
ATOM     44  C   UNL     1      -2.817  12.720   8.638  1.00  0.00     0.037 A 
ATOM     45  C   UNL     1      -1.546  13.059   1.588  1.00  0.00     0.037 A 
ATOM     46  C   UNL     1      -1.517  12.870   7.974  1.00  0.00     0.049 A 
ATOM     47  C   UNL     1      -0.820  14.029   2.498  1.00  0.00     0.074 A 
ATOM     48  C   UNL     1      -0.499  12.004   7.605  1.00  0.00     0.029 A 
ATOM     49  N   UNL     1      -1.246  14.064   7.328  1.00  0.00    -0.354 N 
ATOM     50  N   UNL     1      -0.606  13.831   3.769  1.00  0.00    -0.248 NA
ATOM     51  C   UNL     1      -0.365  15.349   2.058  1.00  0.00     0.031 C 
ATOM     52  C   UNL     1       0.354  12.685   6.686  1.00  0.00     0.029 A 
ATOM     53  C   UNL     1      -0.142  13.963   6.505  1.00  0.00     0.049 A 
ATOM     54  H   UNL     1      -1.777  14.886   7.441  1.00  0.00     0.167 HD
ATOM     55  C   UNL     1      -0.061  14.959   4.318  1.00  0.00     0.074 A 
ATOM     56  C   UNL     1       0.078  15.883   3.208  1.00  0.00     0.031 C 
ATOM     57  C   UNL     1       0.203  15.084   5.648  1.00  0.00     0.037 A 
BRANCH  44  58
ATOM     58  C   UNL     1      -2.960  12.326  10.100  1.00  0.00     0.064 A 
ATOM     59  C   UNL     1      -1.842  11.848  10.824  1.00  0.00     0.173 A 
ATOM     60  C   UNL     1      -4.161  12.318  10.835  1.00  0.00     0.173 A 
ATOM     61  F   UNL     1      -0.606  11.887  10.311  1.00  0.00    -0.203 F 
ATOM     62  C   UNL     1      -1.946  11.307  12.111  1.00  0.00     0.198 A 
ATOM     63  C   UNL     1      -4.276  11.738  12.104  1.00  0.00     0.198 A 
ATOM     64  F   UNL     1      -5.263  12.928  10.399  1.00  0.00    -0.203 F 
ATOM     65  F   UNL     1      -0.848  10.859  12.735  1.00  0.00    -0.200 F 
ATOM     66  C   UNL     1      -3.170  11.220  12.738  1.00  0.00     0.200 A 
ATOM     67  F   UNL     1      -5.474  11.697  12.706  1.00  0.00    -0.200 F 
ATOM     68  F   UNL     1      -3.280  10.670  13.955  1.00  0.00    -0.200 F 
ENDBRANCH  44  58
BRANCH  45  69
ATOM     69  C   UNL     1      -2.462  13.451   0.484  1.00  0.00     0.064 A 
ATOM     70  C   UNL     1      -2.562  12.600  -0.634  1.00  0.00     0.173 A 
ATOM     71  C   UNL     1      -3.481  14.390   0.677  1.00  0.00     0.173 A 
ATOM     72  F   UNL     1      -1.612  11.678  -0.862  1.00  0.00    -0.203 F 
ATOM     73  C   UNL     1      -3.692  12.604  -1.447  1.00  0.00     0.198 A 
ATOM     74  C   UNL     1      -4.603  14.403  -0.151  1.00  0.00     0.198 A 
ATOM     75  F   UNL     1      -3.455  15.211   1.737  1.00  0.00    -0.203 F 
ATOM     76  F   UNL     1      -3.812  11.699  -2.429  1.00  0.00    -0.200 F 
ATOM     77  C   UNL     1      -4.725  13.488  -1.187  1.00  0.00     0.200 A 
ATOM     78  F   UNL     1      -5.617  15.239   0.118  1.00  0.00    -0.200 F 
ATOM     79  F   UNL     1      -5.855  13.430  -1.904  1.00  0.00    -0.200 F 
ENDBRANCH  45  69
BRANCH  57  80
ATOM     80  C   UNL     1       0.826  16.312   6.232  1.00  0.00     0.064 A 
ATOM     81  C   UNL     1       2.008  16.859   5.710  1.00  0.00     0.173 A 
ATOM     82  C   UNL     1       0.320  16.904   7.405  1.00  0.00     0.173 A 
ATOM     83  F   UNL     1       2.576  16.335   4.613  1.00  0.00    -0.203 F 
ATOM     84  C   UNL     1       2.633  17.951   6.312  1.00  0.00     0.198 A 
ATOM     85  C   UNL     1       0.972  17.964   8.032  1.00  0.00     0.198 A 
ATOM     86  F   UNL     1      -0.830  16.484   7.955  1.00  0.00    -0.203 F 
ATOM     87  F   UNL     1       3.736  18.475   5.760  1.00  0.00    -0.200 F 
ATOM     88  C   UNL     1       2.124  18.492   7.481  1.00  0.00     0.200 A 
ATOM     89  F   UNL     1       0.476  18.470   9.170  1.00  0.00    -0.200 F 
ATOM     90  F   UNL     1       2.739  19.526   8.072  1.00  0.00    -0.200 F 
ENDBRANCH  57  80
ENDBRANCH  31  32
ENDBRANCH  23  26
ENDBRANCH  21  22
ENDBRANCH   1  21
TORSDOF 12
