REMARK SMILES C[C@@](CC(=O)Nc1ccc(NC(=O)c2ccco2)cc1)(C(=O)NCCCCNC(=O)c1ccc(-c2c3nc(c(-c4c(F)c(F)c(F)c(F)c4F)c4ccc([nH]4)c(-c4c(F)c(F)c(F)c(F)c4F)c4nc(c(-c5c(F)c(F)c(F)c(F)c5F)c5ccc2[nH]5)C=C4)C=C3)cc1)c1ccccc1
REMARK SMILES IDX 24 1 23 2 21 3 22 4 2 6 1 7 3 8 4 9 5 10 6 11 7 13 8 14
REMARK SMILES IDX 20 15 9 16 19 17 10 18 11 19 12 20 13 22 14 23 15 24 18 25
REMARK SMILES IDX 16 26 17 27 94 28 95 29 99 30 96 31 98 32 97 33 25 34 26 35
REMARK SMILES IDX 27 36 28 37 29 38 30 40 31 41 32 42 93 43 33 44 92 45 34 46
REMARK SMILES IDX 35 47 36 48 86 49 37 50 91 51 85 52 87 53 38 54 90 55 84 56
REMARK SMILES IDX 83 57 39 59 71 60 51 61 70 62 52 63 55 64 69 65 88 66 53 67
REMARK SMILES IDX 54 68 68 70 89 71 56 72 40 73 41 74 49 75 42 76 43 77 47 78
REMARK SMILES IDX 50 79 44 80 45 81 48 82 46 83 72 84 73 85 81 86 74 87 75 88
REMARK SMILES IDX 79 89 82 90 76 91 77 92 80 93 78 94 57 95 58 96 66 97 59 98
REMARK SMILES IDX 60 99 64 100 67 101 61 102 62 103 65 104 63 105
REMARK H PARENT 23 5 6 12 11 21 28 39 87 58 55 69
REMARK Flexibility Score: inf
ROOT
ATOM      1  C   UNL     1      -1.571  -0.966   1.642  1.00  0.00     0.116 C 
ENDROOT
BRANCH   1   2
ATOM      2  N   UNL     1      -2.036  -1.617   0.431  1.00  0.00    -0.355 N 
ATOM      3  C   UNL     1      -1.370  -2.017  -0.706  1.00  0.00     0.230 C 
ATOM      4  O   UNL     1      -1.996  -2.801  -1.427  1.00  0.00    -0.274 OA
ATOM      5  H   UNL     1      -3.002  -1.808   0.420  1.00  0.00     0.163 HD
BRANCH   3   6
ATOM      6  C   UNL     1       0.039  -1.448  -1.105  1.00  0.00     0.080 C 
ATOM      7  C   UNL     1      -0.143   0.089  -1.017  1.00  0.00     0.027 C 
BRANCH   6   8
ATOM      8  C   UNL     1       1.203  -2.112  -0.291  1.00  0.00     0.121 C 
BRANCH   8   9
ATOM      9  C   UNL     1       1.253  -2.153   1.216  1.00  0.00     0.225 C 
ATOM     10  O   UNL     1       0.699  -3.082   1.818  1.00  0.00    -0.275 OA
ATOM     11  N   UNL     1       1.893  -1.229   1.986  1.00  0.00    -0.326 N 
ATOM     12  H   UNL     1       1.924  -1.481   2.937  1.00  0.00     0.169 HD
BRANCH  11  13
ATOM     13  C   UNL     1       2.519   0.001   1.732  1.00  0.00     0.041 A 
ATOM     14  C   UNL     1       3.022   0.706   2.830  1.00  0.00     0.028 A 
ATOM     15  C   UNL     1       2.644   0.585   0.481  1.00  0.00     0.028 A 
ATOM     16  C   UNL     1       3.649   1.950   2.660  1.00  0.00     0.028 A 
ATOM     17  C   UNL     1       3.208   1.847   0.311  1.00  0.00     0.028 A 
ATOM     18  C   UNL     1       3.776   2.509   1.389  1.00  0.00     0.041 A 
BRANCH  18  19
ATOM     19  N   UNL     1       4.453   3.696   1.089  1.00  0.00    -0.319 N 
ATOM     20  C   UNL     1       5.491   4.339   1.731  1.00  0.00     0.291 C 
ATOM     21  H   UNL     1       4.132   4.153   0.278  1.00  0.00     0.170 HD
ATOM     22  O   UNL     1       5.796   5.458   1.327  1.00  0.00    -0.265 OA
BRANCH  20  23
ATOM     23  C   UNL     1       6.221   3.642   2.765  1.00  0.00     0.191 A 
ATOM     24  C   UNL     1       6.791   2.382   2.824  1.00  0.00     0.056 A 
ATOM     25  O   UNL     1       6.423   4.288   3.953  1.00  0.00    -0.459 OA
ATOM     26  C   UNL     1       7.319   2.237   4.129  1.00  0.00     0.043 A 
ATOM     27  C   UNL     1       7.072   3.425   4.773  1.00  0.00     0.196 A 
ENDBRANCH  20  23
ENDBRANCH  18  19
ENDBRANCH  11  13
ENDBRANCH   8   9
ENDBRANCH   6   8
BRANCH   6  28
ATOM     28  C   UNL     1       0.467  -1.817  -2.590  1.00  0.00    -0.032 A 
ATOM     29  C   UNL     1       0.447  -3.160  -3.021  1.00  0.00     0.005 A 
ATOM     30  C   UNL     1       1.103  -0.894  -3.451  1.00  0.00     0.005 A 
ATOM     31  C   UNL     1       1.067  -3.562  -4.210  1.00  0.00     0.000 A 
ATOM     32  C   UNL     1       1.719  -1.296  -4.642  1.00  0.00     0.000 A 
ATOM     33  C   UNL     1       1.715  -2.632  -5.014  1.00  0.00     0.000 A 
ENDBRANCH   6  28
ENDBRANCH   3   6
ENDBRANCH   1   2
BRANCH   1  34
ATOM     34  C   UNL     1      -2.155   0.408   1.952  1.00  0.00     0.023 C 
BRANCH  34  35
ATOM     35  C   UNL     1      -3.584   0.442   2.464  1.00  0.00     0.023 C 
BRANCH  35  36
ATOM     36  C   UNL     1      -3.930  -0.567   3.546  1.00  0.00     0.116 C 
BRANCH  36  37
ATOM     37  N   UNL     1      -3.083  -0.516   4.731  1.00  0.00    -0.352 N 
ATOM     38  C   UNL     1      -3.450  -0.668   6.052  1.00  0.00     0.251 C 
ATOM     39  H   UNL     1      -2.126  -0.352   4.567  1.00  0.00     0.163 HD
ATOM     40  O   UNL     1      -2.619  -0.582   6.949  1.00  0.00    -0.269 OA
BRANCH  38  41
ATOM     41  C   UNL     1      -4.879  -0.868   6.377  1.00  0.00     0.039 A 
ATOM     42  C   UNL     1      -5.484  -0.012   7.300  1.00  0.00     0.014 A 
ATOM     43  C   UNL     1      -5.638  -1.812   5.683  1.00  0.00     0.014 A 
ATOM     44  C   UNL     1      -6.873  -0.022   7.438  1.00  0.00     0.010 A 
ATOM     45  C   UNL     1      -7.025  -1.756   5.753  1.00  0.00     0.010 A 
ATOM     46  C   UNL     1      -7.657  -0.849   6.618  1.00  0.00    -0.014 A 
BRANCH  46  47
ATOM     47  C   UNL     1      -9.140  -0.770   6.621  1.00  0.00     0.031 A 
ATOM     48  C   UNL     1      -9.953  -1.972   7.006  1.00  0.00     0.074 A 
ATOM     49  C   UNL     1      -9.753   0.346   6.178  1.00  0.00     0.049 A 
ATOM     50  N   UNL     1     -11.249  -2.149   6.950  1.00  0.00    -0.248 NA
ATOM     51  C   UNL     1      -9.206  -3.146   7.483  1.00  0.00     0.031 C 
ATOM     52  C   UNL     1      -9.077   1.558   5.709  1.00  0.00     0.029 A 
ATOM     53  N   UNL     1     -11.087   0.634   6.031  1.00  0.00    -0.354 N 
ATOM     54  C   UNL     1     -11.466  -3.459   7.350  1.00  0.00     0.074 A 
ATOM     55  C   UNL     1     -10.169  -4.047   7.605  1.00  0.00     0.031 C 
ATOM     56  C   UNL     1     -10.000   2.465   5.348  1.00  0.00     0.029 A 
ATOM     57  C   UNL     1     -11.329   1.889   5.527  1.00  0.00     0.049 A 
ATOM     58  H   UNL     1     -11.804   0.001   6.265  1.00  0.00     0.167 HD
ATOM     59  C   UNL     1     -12.643  -4.109   7.512  1.00  0.00     0.037 A 
ATOM     60  C   UNL     1     -12.491   2.504   5.239  1.00  0.00     0.037 A 
ATOM     61  C   UNL     1     -13.934  -3.511   7.308  1.00  0.00     0.049 A 
ATOM     62  C   UNL     1     -13.787   1.779   5.479  1.00  0.00     0.074 A 
ATOM     63  C   UNL     1     -15.185  -4.064   7.515  1.00  0.00     0.029 A 
ATOM     64  N   UNL     1     -14.138  -2.215   6.856  1.00  0.00    -0.354 N 
ATOM     65  N   UNL     1     -13.982   0.559   5.914  1.00  0.00    -0.248 NA
ATOM     66  C   UNL     1     -15.024   2.520   5.192  1.00  0.00     0.031 C 
ATOM     67  C   UNL     1     -16.148  -3.109   7.169  1.00  0.00     0.029 A 
ATOM     68  C   UNL     1     -15.495  -1.953   6.774  1.00  0.00     0.049 A 
ATOM     69  H   UNL     1     -13.424  -1.577   6.628  1.00  0.00     0.167 HD
ATOM     70  C   UNL     1     -15.358   0.392   5.975  1.00  0.00     0.074 A 
ATOM     71  C   UNL     1     -15.951   1.640   5.543  1.00  0.00     0.031 C 
ATOM     72  C   UNL     1     -16.066  -0.700   6.353  1.00  0.00     0.037 A 
BRANCH  59  73
ATOM     73  C   UNL     1     -12.581  -5.541   7.948  1.00  0.00     0.064 A 
ATOM     74  C   UNL     1     -12.212  -5.893   9.255  1.00  0.00     0.173 A 
ATOM     75  C   UNL     1     -12.911  -6.572   7.057  1.00  0.00     0.173 A 
ATOM     76  F   UNL     1     -11.872  -4.942  10.139  1.00  0.00    -0.203 F 
ATOM     77  C   UNL     1     -12.146  -7.227   9.645  1.00  0.00     0.198 A 
ATOM     78  C   UNL     1     -12.869  -7.905   7.458  1.00  0.00     0.198 A 
ATOM     79  F   UNL     1     -13.272  -6.288   5.796  1.00  0.00    -0.203 F 
ATOM     80  F   UNL     1     -11.743  -7.541  10.884  1.00  0.00    -0.200 F 
ATOM     81  C   UNL     1     -12.480  -8.231   8.749  1.00  0.00     0.200 A 
ATOM     82  F   UNL     1     -13.199  -8.875   6.594  1.00  0.00    -0.200 F 
ATOM     83  F   UNL     1     -12.417  -9.515   9.127  1.00  0.00    -0.200 F 
ENDBRANCH  59  73
BRANCH  60  84
ATOM     84  C   UNL     1     -12.485   3.896   4.724  1.00  0.00     0.064 A 
ATOM     85  C   UNL     1     -12.876   4.963   5.545  1.00  0.00     0.173 A 
ATOM     86  C   UNL     1     -12.090   4.190   3.412  1.00  0.00     0.173 A 
ATOM     87  F   UNL     1     -13.282   4.725   6.802  1.00  0.00    -0.203 F 
ATOM     88  C   UNL     1     -12.887   6.271   5.068  1.00  0.00     0.198 A 
ATOM     89  C   UNL     1     -12.082   5.502   2.942  1.00  0.00     0.198 A 
ATOM     90  F   UNL     1     -11.704   3.204   2.590  1.00  0.00    -0.203 F 
ATOM     91  F   UNL     1     -13.300   7.268   5.863  1.00  0.00    -0.200 F 
ATOM     92  C   UNL     1     -12.486   6.541   3.769  1.00  0.00     0.200 A 
ATOM     93  F   UNL     1     -11.684   5.761   1.689  1.00  0.00    -0.200 F 
ATOM     94  F   UNL     1     -12.494   7.800   3.311  1.00  0.00    -0.200 F 
ENDBRANCH  60  84
BRANCH  72  95
ATOM     95  C   UNL     1     -17.559  -0.584   6.346  1.00  0.00     0.064 A 
ATOM     96  C   UNL     1     -18.289  -0.619   5.150  1.00  0.00     0.173 A 
ATOM     97  C   UNL     1     -18.268  -0.482   7.552  1.00  0.00     0.173 A 
ATOM     98  F   UNL     1     -17.652  -0.700   3.973  1.00  0.00    -0.203 F 
ATOM     99  C   UNL     1     -19.679  -0.540   5.161  1.00  0.00     0.198 A 
ATOM    100  C   UNL     1     -19.659  -0.424   7.560  1.00  0.00     0.198 A 
ATOM    101  F   UNL     1     -17.612  -0.448   8.721  1.00  0.00    -0.203 F 
ATOM    102  F   UNL     1     -20.357  -0.540   4.005  1.00  0.00    -0.200 F 
ATOM    103  C   UNL     1     -20.362  -0.449   6.365  1.00  0.00     0.200 A 
ATOM    104  F   UNL     1     -20.318  -0.344   8.724  1.00  0.00    -0.200 F 
ATOM    105  F   UNL     1     -21.701  -0.379   6.373  1.00  0.00    -0.200 F 
ENDBRANCH  72  95
ENDBRANCH  46  47
ENDBRANCH  38  41
ENDBRANCH  36  37
ENDBRANCH  35  36
ENDBRANCH  34  35
ENDBRANCH   1  34
TORSDOF 17
