REMARK SMILES CCCc1cc(N2CCC(C(=O)NCCCCNC(=O)c3ccc(-c4c5nc(c(-c6c(F)c(F)c(F)c(F)c6F)c6ccc([nH]6)c(-c6c(F)c(F)c(F)c(F)c6F)c6nc(c(-c7c(F)c(F)c(F)c(F)c7F)c7ccc4[nH]7)C=C6)C=C5)cc3)CC2)nc(CC)n1
REMARK SMILES IDX 15 1 14 2 13 3 11 4 12 5 10 7 7 8 8 9 85 10 9 11 84 12 6 13
REMARK SMILES IDX 4 14 5 15 90 16 87 17 86 18 3 19 2 20 1 21 88 22 89 23 16 24
REMARK SMILES IDX 17 25 18 26 19 27 20 29 21 30 22 31 83 32 23 33 82 34 24 35
REMARK SMILES IDX 25 36 26 37 76 38 27 39 81 40 75 41 77 42 28 43 80 44 74 45
REMARK SMILES IDX 73 46 29 48 61 49 41 50 60 51 42 52 45 53 59 54 78 55 43 56
REMARK SMILES IDX 44 57 58 59 79 60 46 61 30 62 31 63 39 64 32 65 33 66 37 67
REMARK SMILES IDX 40 68 34 69 35 70 38 71 36 72 62 73 63 74 71 75 64 76 65 77
REMARK SMILES IDX 69 78 72 79 66 80 67 81 70 82 68 83 47 84 48 85 56 86 49 87
REMARK SMILES IDX 50 88 54 89 57 90 51 91 52 92 55 93 53 94
REMARK H PARENT 13 6 18 28 77 47 45 58
REMARK Flexibility Score: inf
ROOT
ATOM      1  C   UNL     1      -2.374   7.748   3.498  1.00  0.00     0.023 C 
ENDROOT
BRANCH   1   2
ATOM      2  C   UNL     1      -3.043   6.628   4.293  1.00  0.00     0.116 C 
BRANCH   2   3
ATOM      3  N   UNL     1      -4.493   6.751   4.288  1.00  0.00    -0.356 N 
ATOM      4  C   UNL     1      -5.447   5.947   3.737  1.00  0.00     0.223 C 
ATOM      5  O   UNL     1      -6.627   6.282   3.863  1.00  0.00    -0.275 OA
ATOM      6  H   UNL     1      -4.842   7.542   4.758  1.00  0.00     0.163 HD
BRANCH   4   7
ATOM      7  C   UNL     1      -5.082   4.658   3.011  1.00  0.00     0.082 C 
ATOM      8  N   UNL     1      -2.835   3.075   2.401  1.00  0.00    -0.356 N 
ATOM      9  C   UNL     1      -3.401   3.781   1.270  1.00  0.00     0.119 C 
ATOM     10  C   UNL     1      -3.757   2.498   3.355  1.00  0.00     0.119 C 
ATOM     11  C   UNL     1      -4.239   4.951   1.757  1.00  0.00     0.035 C 
ATOM     12  C   UNL     1      -4.520   3.635   4.017  1.00  0.00     0.035 C 
BRANCH   8  13
ATOM     13  C   UNL     1      -1.484   2.824   2.433  1.00  0.00     0.132 A 
ATOM     14  C   UNL     1       0.349   1.335   2.464  1.00  0.00     0.046 A 
ATOM     15  C   UNL     1      -1.016   1.528   2.520  1.00  0.00     0.070 A 
ATOM     16  N   UNL     1       1.212   2.364   2.402  1.00  0.00    -0.238 NA
ATOM     17  C   UNL     1       0.681   3.599   2.375  1.00  0.00     0.130 A 
ATOM     18  N   UNL     1      -0.640   3.867   2.350  1.00  0.00    -0.216 NA
BRANCH  14  19
ATOM     19  C   UNL     1       0.928  -0.055   2.411  1.00  0.00     0.056 C 
BRANCH  19  20
ATOM     20  C   UNL     1       0.536  -0.830   1.147  1.00  0.00     0.003 C 
ATOM     21  C   UNL     1       1.044  -0.186  -0.136  1.00  0.00     0.004 C 
ENDBRANCH  19  20
ENDBRANCH  14  19
BRANCH  17  22
ATOM     22  C   UNL     1       1.637   4.761   2.369  1.00  0.00     0.074 C 
ATOM     23  C   UNL     1       2.542   4.762   3.594  1.00  0.00     0.012 C 
ENDBRANCH  17  22
ENDBRANCH   8  13
ENDBRANCH   4   7
ENDBRANCH   2   3
ENDBRANCH   1   2
BRANCH   1  24
ATOM     24  C   UNL     1      -2.518   9.141   4.110  1.00  0.00     0.023 C 
BRANCH  24  25
ATOM     25  C   UNL     1      -2.047   9.266   5.554  1.00  0.00     0.116 C 
BRANCH  25  26
ATOM     26  N   UNL     1      -0.669   8.841   5.742  1.00  0.00    -0.352 N 
ATOM     27  C   UNL     1       0.340   9.442   6.450  1.00  0.00     0.251 C 
ATOM     28  H   UNL     1      -0.424   7.999   5.296  1.00  0.00     0.163 HD
ATOM     29  O   UNL     1       1.485   8.996   6.383  1.00  0.00    -0.269 OA
BRANCH  27  30
ATOM     30  C   UNL     1       0.067  10.644   7.266  1.00  0.00     0.039 A 
ATOM     31  C   UNL     1       0.983  11.698   7.227  1.00  0.00     0.014 A 
ATOM     32  C   UNL     1      -1.074  10.739   8.068  1.00  0.00     0.014 A 
ATOM     33  C   UNL     1       0.724  12.867   7.943  1.00  0.00     0.010 A 
ATOM     34  C   UNL     1      -1.373  11.936   8.714  1.00  0.00     0.010 A 
ATOM     35  C   UNL     1      -0.473  13.011   8.665  1.00  0.00    -0.014 A 
BRANCH  35  36
ATOM     36  C   UNL     1      -0.787  14.288   9.355  1.00  0.00     0.031 A 
ATOM     37  C   UNL     1      -0.909  14.342  10.852  1.00  0.00     0.074 A 
ATOM     38  C   UNL     1      -0.988  15.400   8.621  1.00  0.00     0.049 A 
ATOM     39  N   UNL     1      -1.131  15.376  11.626  1.00  0.00    -0.248 NA
ATOM     40  C   UNL     1      -0.795  13.067  11.576  1.00  0.00     0.031 C 
ATOM     41  C   UNL     1      -0.966  15.462   7.159  1.00  0.00     0.029 A 
ATOM     42  N   UNL     1      -1.242  16.694   9.004  1.00  0.00    -0.354 N 
ATOM     43  C   UNL     1      -1.188  14.875  12.920  1.00  0.00     0.074 A 
ATOM     44  C   UNL     1      -1.040  13.439  12.824  1.00  0.00     0.031 C 
ATOM     45  C   UNL     1      -1.151  16.733   6.769  1.00  0.00     0.029 A 
ATOM     46  C   UNL     1      -1.336  17.570   7.950  1.00  0.00     0.049 A 
ATOM     47  H   UNL     1      -1.347  16.967   9.943  1.00  0.00     0.167 HD
ATOM     48  C   UNL     1      -1.323  15.554  14.084  1.00  0.00     0.037 A 
ATOM     49  C   UNL     1      -1.535  18.902   7.939  1.00  0.00     0.037 A 
ATOM     50  C   UNL     1      -1.450  16.985  14.176  1.00  0.00     0.049 A 
ATOM     51  C   UNL     1      -1.664  19.634   9.247  1.00  0.00     0.074 A 
ATOM     52  C   UNL     1      -1.527  17.775  15.310  1.00  0.00     0.029 A 
ATOM     53  N   UNL     1      -1.525  17.842  13.087  1.00  0.00    -0.354 N 
ATOM     54  N   UNL     1      -1.620  19.162  10.469  1.00  0.00    -0.248 NA
ATOM     55  C   UNL     1      -1.855  21.089   9.173  1.00  0.00     0.031 C 
ATOM     56  C   UNL     1      -1.701  19.103  14.908  1.00  0.00     0.029 A 
ATOM     57  C   UNL     1      -1.670  19.150  13.524  1.00  0.00     0.049 A 
ATOM     58  H   UNL     1      -1.481  17.563  12.144  1.00  0.00     0.167 HD
ATOM     59  C   UNL     1      -1.741  20.261  11.308  1.00  0.00     0.074 A 
ATOM     60  C   UNL     1      -1.846  21.426  10.454  1.00  0.00     0.031 C 
ATOM     61  C   UNL     1      -1.762  20.302  12.663  1.00  0.00     0.037 A 
BRANCH  48  62
ATOM     62  C   UNL     1      -1.338  14.756  15.358  1.00  0.00     0.064 A 
ATOM     63  C   UNL     1      -0.191  14.099  15.830  1.00  0.00     0.173 A 
ATOM     64  C   UNL     1      -2.503  14.681  16.137  1.00  0.00     0.173 A 
ATOM     65  F   UNL     1       0.946  14.131  15.119  1.00  0.00    -0.203 F 
ATOM     66  C   UNL     1      -0.218  13.372  17.018  1.00  0.00     0.198 A 
ATOM     67  C   UNL     1      -2.517  13.980  17.341  1.00  0.00     0.198 A 
ATOM     68  F   UNL     1      -3.626  15.295  15.738  1.00  0.00    -0.203 F 
ATOM     69  F   UNL     1       0.876  12.711  17.421  1.00  0.00    -0.200 F 
ATOM     70  C   UNL     1      -1.377  13.320  17.776  1.00  0.00     0.200 A 
ATOM     71  F   UNL     1      -3.634  13.943  18.080  1.00  0.00    -0.200 F 
ATOM     72  F   UNL     1      -1.399  12.627  18.923  1.00  0.00    -0.200 F 
ENDBRANCH  48  62
BRANCH  49  73
ATOM     73  C   UNL     1      -1.573  19.636   6.646  1.00  0.00     0.064 A 
ATOM     74  C   UNL     1      -0.546  20.522   6.291  1.00  0.00     0.173 A 
ATOM     75  C   UNL     1      -2.634  19.472   5.744  1.00  0.00     0.173 A 
ATOM     76  F   UNL     1       0.481  20.726   7.129  1.00  0.00    -0.203 F 
ATOM     77  C   UNL     1      -0.590  21.234   5.095  1.00  0.00     0.198 A 
ATOM     78  C   UNL     1      -2.662  20.162   4.533  1.00  0.00     0.198 A 
ATOM     79  F   UNL     1      -3.638  18.631   6.032  1.00  0.00    -0.203 F 
ATOM     80  F   UNL     1       0.380  22.111   4.803  1.00  0.00    -0.200 F 
ATOM     81  C   UNL     1      -1.645  21.049   4.214  1.00  0.00     0.200 A 
ATOM     82  F   UNL     1      -3.675  19.968   3.678  1.00  0.00    -0.200 F 
ATOM     83  F   UNL     1      -1.686  21.731   3.061  1.00  0.00    -0.200 F 
ENDBRANCH  49  73
BRANCH  61  84
ATOM     84  C   UNL     1      -1.855  21.655  13.308  1.00  0.00     0.064 A 
ATOM     85  C   UNL     1      -3.025  22.425  13.251  1.00  0.00     0.173 A 
ATOM     86  C   UNL     1      -0.760  22.176  14.015  1.00  0.00     0.173 A 
ATOM     87  F   UNL     1      -4.095  21.979  12.576  1.00  0.00    -0.203 F 
ATOM     88  C   UNL     1      -3.085  23.683  13.847  1.00  0.00     0.198 A 
ATOM     89  C   UNL     1      -0.835  23.418  14.639  1.00  0.00     0.198 A 
ATOM     90  F   UNL     1       0.381  21.477  14.109  1.00  0.00    -0.203 F 
ATOM     91  F   UNL     1      -4.194  24.426  13.728  1.00  0.00    -0.200 F 
ATOM     92  C   UNL     1      -1.992  24.175  14.545  1.00  0.00     0.200 A 
ATOM     93  F   UNL     1       0.217  23.885  15.327  1.00  0.00    -0.200 F 
ATOM     94  F   UNL     1      -2.053  25.384  15.121  1.00  0.00    -0.200 F 
ENDBRANCH  61  84
ENDBRANCH  35  36
ENDBRANCH  27  30
ENDBRANCH  25  26
ENDBRANCH  24  25
ENDBRANCH   1  24
TORSDOF 15
