REMARK SMILES CCC[NH2+][C@@]1(C(=O)NCCCCNC(=O)c2ccc(-c3c4nc(c(-c5c(F)c(F)c(F)c(F)c5F)c5ccc([nH]5)c(-c5c(F)c(F)c(F)c(F)c5F)c5nc(c(-c6c(F)c(F)c(F)c(F)c6F)c6ccc3[nH]6)C=C5)C=C4)cc2)CCC[C@@H]1CC[NH+]1CC[NH+](C)CC1
REMARK SMILES IDX 10 1 9 2 8 3 6 4 7 5 5 7 79 8 82 9 80 10 81 11 4 12 3 15
REMARK SMILES IDX 2 16 1 17 83 18 84 19 85 20 86 21 91 22 87 24 90 25 88 26
REMARK SMILES IDX 89 27 11 29 12 30 13 31 14 32 15 34 16 35 17 36 78 37 18 38
REMARK SMILES IDX 77 39 19 40 20 41 21 42 71 43 22 44 76 45 70 46 72 47 23 48
REMARK SMILES IDX 75 49 69 50 68 51 24 53 56 54 36 55 55 56 37 57 40 58 54 59
REMARK SMILES IDX 73 60 38 61 39 62 53 64 74 65 41 66 25 67 26 68 34 69 27 70
REMARK SMILES IDX 28 71 32 72 35 73 29 74 30 75 33 76 31 77 57 78 58 79 66 80
REMARK SMILES IDX 59 81 60 82 64 83 67 84 61 85 62 86 65 87 63 88 42 89 43 90
REMARK SMILES IDX 51 91 44 92 45 93 49 94 52 95 46 96 47 97 50 98 48 99
REMARK H PARENT 8 6 4 13 4 14 85 23 88 28 13 33 72 52 40 63
REMARK Flexibility Score: inf
ROOT
ATOM      1  C   UNL     1       0.473   4.823   6.864  1.00  0.00     0.023 C 
ENDROOT
BRANCH   1   2
ATOM      2  C   UNL     1       1.393   3.649   6.528  1.00  0.00     0.116 C 
BRANCH   2   3
ATOM      3  N   UNL     1       0.638   2.567   5.946  1.00  0.00    -0.351 N 
ATOM      4  C   UNL     1       0.423   2.178   4.663  1.00  0.00     0.281 C 
ATOM      5  O   UNL     1      -0.536   1.402   4.542  1.00  0.00    -0.268 OA
ATOM      6  H   UNL     1       0.190   1.997   6.612  1.00  0.00     0.163 HD
BRANCH   4   7
ATOM      7  C   UNL     1       1.271   2.664   3.414  1.00  0.00     0.178 C 
ATOM      8  C   UNL     1       2.783   2.866   3.664  1.00  0.00     0.079 C 
ATOM      9  C   UNL     1       0.809   4.042   2.847  1.00  0.00     0.066 C 
ATOM     10  C   UNL     1       3.072   4.372   3.552  1.00  0.00     0.008 C 
ATOM     11  C   UNL     1       1.725   5.080   3.483  1.00  0.00     0.011 C 
BRANCH   7  12
ATOM     12  N   UNL     1       1.080   1.698   2.295  1.00  0.00    -0.333 N 
ATOM     13  H   UNL     1       0.093   1.717   2.041  1.00  0.00     0.347 HD
ATOM     14  H   UNL     1       1.726   2.013   1.571  1.00  0.00     0.347 HD
BRANCH  12  15
ATOM     15  C   UNL     1       1.443   0.305   2.531  1.00  0.00     0.261 C 
BRANCH  15  16
ATOM     16  C   UNL     1       0.842  -0.559   1.413  1.00  0.00     0.058 C 
ATOM     17  C   UNL     1       1.453  -0.300   0.042  1.00  0.00     0.010 C 
ENDBRANCH  15  16
ENDBRANCH  12  15
ENDBRANCH   7  12
BRANCH   9  18
ATOM     18  C   UNL     1      -0.683   4.409   2.935  1.00  0.00     0.072 C 
BRANCH  18  19
ATOM     19  C   UNL     1      -1.662   3.536   2.121  1.00  0.00     0.263 C 
BRANCH  19  20
ATOM     20  N   UNL     1      -1.824   3.869   0.687  1.00  0.00    -0.326 N 
ATOM     21  C   UNL     1      -2.797   2.929   0.083  1.00  0.00     0.324 C 
ATOM     22  C   UNL     1      -0.563   3.838  -0.067  1.00  0.00     0.324 C 
ATOM     23  H   UNL     1      -2.163   4.829   0.636  1.00  0.00     0.348 HD
ATOM     24  C   UNL     1      -2.921   3.055  -1.457  1.00  0.00     0.324 C 
ATOM     25  C   UNL     1      -0.712   3.945  -1.599  1.00  0.00     0.324 C 
ATOM     26  N   UNL     1      -1.645   2.978  -2.198  1.00  0.00    -0.328 N 
ATOM     27  C   UNL     1      -1.098   1.622  -2.188  1.00  0.00     0.333 C 
ATOM     28  H   UNL     1      -1.801   3.212  -3.179  1.00  0.00     0.348 HD
ENDBRANCH  19  20
ENDBRANCH  18  19
ENDBRANCH   9  18
ENDBRANCH   4   7
ENDBRANCH   2   3
ENDBRANCH   1   2
BRANCH   1  29
ATOM     29  C   UNL     1      -0.175   4.735   8.243  1.00  0.00     0.023 C 
BRANCH  29  30
ATOM     30  C   UNL     1       0.814   4.589   9.389  1.00  0.00     0.116 C 
BRANCH  30  31
ATOM     31  N   UNL     1       1.892   5.568   9.365  1.00  0.00    -0.352 N 
ATOM     32  C   UNL     1       2.650   6.007  10.424  1.00  0.00     0.251 C 
ATOM     33  H   UNL     1       2.102   5.962   8.487  1.00  0.00     0.163 HD
ATOM     34  O   UNL     1       3.470   6.901  10.291  1.00  0.00    -0.269 OA
BRANCH  32  35
ATOM     35  C   UNL     1       2.408   5.394  11.741  1.00  0.00     0.039 A 
ATOM     36  C   UNL     1       2.092   6.221  12.819  1.00  0.00     0.014 A 
ATOM     37  C   UNL     1       2.406   4.004  11.874  1.00  0.00     0.014 A 
ATOM     38  C   UNL     1       1.722   5.642  14.031  1.00  0.00     0.010 A 
ATOM     39  C   UNL     1       1.948   3.432  13.051  1.00  0.00     0.010 A 
ATOM     40  C   UNL     1       1.622   4.245  14.146  1.00  0.00    -0.014 A 
BRANCH  40  41
ATOM     41  C   UNL     1       1.224   3.617  15.427  1.00  0.00     0.031 A 
ATOM     42  C   UNL     1       2.203   2.745  16.161  1.00  0.00     0.074 A 
ATOM     43  C   UNL     1      -0.023   3.798  15.900  1.00  0.00     0.049 A 
ATOM     44  N   UNL     1       2.052   2.098  17.288  1.00  0.00    -0.248 NA
ATOM     45  C   UNL     1       3.515   2.542  15.526  1.00  0.00     0.031 C 
ATOM     46  C   UNL     1      -1.081   4.562  15.236  1.00  0.00     0.029 A 
ATOM     47  N   UNL     1      -0.612   3.351  17.055  1.00  0.00    -0.354 N 
ATOM     48  C   UNL     1       3.239   1.405  17.483  1.00  0.00     0.074 A 
ATOM     49  C   UNL     1       4.071   1.648  16.328  1.00  0.00     0.031 C 
ATOM     50  C   UNL     1      -2.176   4.563  16.012  1.00  0.00     0.029 A 
ATOM     51  C   UNL     1      -1.906   3.782  17.215  1.00  0.00     0.049 A 
ATOM     52  H   UNL     1      -0.150   2.776  17.708  1.00  0.00     0.167 HD
ATOM     53  C   UNL     1       3.617   0.662  18.550  1.00  0.00     0.037 A 
ATOM     54  C   UNL     1      -2.767   3.578  18.230  1.00  0.00     0.037 A 
ATOM     55  C   UNL     1       2.798   0.458  19.714  1.00  0.00     0.049 A 
ATOM     56  C   UNL     1      -2.308   2.784  19.423  1.00  0.00     0.074 A 
ATOM     57  C   UNL     1       3.103  -0.224  20.878  1.00  0.00     0.029 A 
ATOM     58  N   UNL     1       1.507   0.944  19.860  1.00  0.00    -0.354 N 
ATOM     59  N   UNL     1      -1.153   2.201  19.637  1.00  0.00    -0.248 NA
ATOM     60  C   UNL     1      -3.267   2.636  20.525  1.00  0.00     0.031 C 
ATOM     61  C   UNL     1       1.982  -0.181  21.714  1.00  0.00     0.029 A 
ATOM     62  C   UNL     1       0.997   0.568  21.091  1.00  0.00     0.049 A 
ATOM     63  H   UNL     1       1.024   1.478  19.188  1.00  0.00     0.167 HD
ATOM     64  C   UNL     1      -1.234   1.644  20.906  1.00  0.00     0.074 A 
ATOM     65  C   UNL     1      -2.547   1.976  21.421  1.00  0.00     0.031 C 
ATOM     66  C   UNL     1      -0.310   0.920  21.585  1.00  0.00     0.037 A 
BRANCH  53  67
ATOM     67  C   UNL     1       4.979   0.034  18.505  1.00  0.00     0.064 A 
ATOM     68  C   UNL     1       6.149   0.809  18.568  1.00  0.00     0.173 A 
ATOM     69  C   UNL     1       5.121  -1.358  18.408  1.00  0.00     0.173 A 
ATOM     70  F   UNL     1       6.069   2.146  18.643  1.00  0.00    -0.203 F 
ATOM     71  C   UNL     1       7.407   0.217  18.500  1.00  0.00     0.198 A 
ATOM     72  C   UNL     1       6.381  -1.949  18.373  1.00  0.00     0.198 A 
ATOM     73  F   UNL     1       4.037  -2.146  18.346  1.00  0.00    -0.203 F 
ATOM     74  F   UNL     1       8.507   0.983  18.500  1.00  0.00    -0.200 F 
ATOM     75  C   UNL     1       7.522  -1.161  18.409  1.00  0.00     0.200 A 
ATOM     76  F   UNL     1       6.492  -3.283  18.296  1.00  0.00    -0.200 F 
ATOM     77  F   UNL     1       8.734  -1.731  18.346  1.00  0.00    -0.200 F 
ENDBRANCH  53  67
BRANCH  54  78
ATOM     78  C   UNL     1      -4.124   4.180  18.188  1.00  0.00     0.064 A 
ATOM     79  C   UNL     1      -4.470   5.234  19.046  1.00  0.00     0.173 A 
ATOM     80  C   UNL     1      -5.104   3.715  17.299  1.00  0.00     0.173 A 
ATOM     81  F   UNL     1      -3.571   5.702  19.925  1.00  0.00    -0.203 F 
ATOM     82  C   UNL     1      -5.751   5.781  19.036  1.00  0.00     0.198 A 
ATOM     83  C   UNL     1      -6.377   4.282  17.271  1.00  0.00     0.198 A 
ATOM     84  F   UNL     1      -4.821   2.715  16.452  1.00  0.00    -0.203 F 
ATOM     85  F   UNL     1      -6.068   6.754  19.901  1.00  0.00    -0.200 F 
ATOM     86  C   UNL     1      -6.702   5.308  18.146  1.00  0.00     0.200 A 
ATOM     87  F   UNL     1      -7.289   3.831  16.399  1.00  0.00    -0.200 F 
ATOM     88  F   UNL     1      -7.934   5.835  18.136  1.00  0.00    -0.200 F 
ENDBRANCH  54  78
BRANCH  66  89
ATOM     89  C   UNL     1      -0.675   0.475  22.970  1.00  0.00     0.064 A 
ATOM     90  C   UNL     1      -1.631  -0.526  23.194  1.00  0.00     0.173 A 
ATOM     91  C   UNL     1      -0.041   1.042  24.086  1.00  0.00     0.173 A 
ATOM     92  F   UNL     1      -2.274  -1.089  22.160  1.00  0.00    -0.203 F 
ATOM     93  C   UNL     1      -1.965  -0.919  24.487  1.00  0.00     0.198 A 
ATOM     94  C   UNL     1      -0.354   0.624  25.376  1.00  0.00     0.198 A 
ATOM     95  F   UNL     1       0.887   1.997  23.925  1.00  0.00    -0.203 F 
ATOM     96  F   UNL     1      -2.922  -1.837  24.680  1.00  0.00    -0.200 F 
ATOM     97  C   UNL     1      -1.322  -0.348  25.576  1.00  0.00     0.200 A 
ATOM     98  F   UNL     1       0.278   1.166  26.426  1.00  0.00    -0.200 F 
ATOM     99  F   UNL     1      -1.643  -0.729  26.820  1.00  0.00    -0.200 F 
ENDBRANCH  66  89
ENDBRANCH  40  41
ENDBRANCH  32  35
ENDBRANCH  30  31
ENDBRANCH  29  30
ENDBRANCH   1  29
TORSDOF 17
