REMARK SMILES C=CCn1c(=S)[nH]c2cc(C(=O)NCCCCNC(=O)c3ccc(-c4c5nc(c(-c6c(F)c(F)c(F)c(F)c6F)c6ccc([nH]6)c(-c6c(F)c(F)c(F)c(F)c6F)c6nc(c(-c7c(F)c(F)c(F)c(F)c7F)c7ccc4[nH]7)C=C6)C=C5)cc3)ccc2c1=O
REMARK SMILES IDX 15 1 14 2 13 3 11 4 12 5 10 7 4 8 5 9 87 10 6 11 7 12 86 13
REMARK SMILES IDX 88 14 8 15 85 17 9 18 84 19 3 20 2 21 1 22 16 23 17 24 18 25
REMARK SMILES IDX 19 26 20 28 21 29 22 30 83 31 23 32 82 33 24 34 25 35 26 36
REMARK SMILES IDX 76 37 27 38 81 39 75 40 77 41 28 42 80 43 74 44 73 45 29 47
REMARK SMILES IDX 61 48 41 49 60 50 42 51 45 52 59 53 78 54 43 55 44 56 58 58
REMARK SMILES IDX 79 59 46 60 30 61 31 62 39 63 32 64 33 65 37 66 40 67 34 68
REMARK SMILES IDX 35 69 38 70 36 71 62 72 63 73 71 74 64 75 65 76 69 77 72 78
REMARK SMILES IDX 66 79 67 80 70 81 68 82 47 83 48 84 56 85 49 86 50 87 54 88
REMARK SMILES IDX 57 89 51 90 52 91 55 92 53 93
REMARK H PARENT 13 6 7 16 18 27 77 46 45 57
REMARK Flexibility Score: inf
ROOT
ATOM      1  C   UNL     1       0.381   9.605  -1.893  1.00  0.00     0.023 C 
ENDROOT
BRANCH   1   2
ATOM      2  C   UNL     1      -0.585   9.463  -0.711  1.00  0.00     0.116 C 
BRANCH   2   3
ATOM      3  N   UNL     1      -1.938   9.227  -1.174  1.00  0.00    -0.352 N 
ATOM      4  C   UNL     1      -2.628   8.080  -1.474  1.00  0.00     0.251 C 
ATOM      5  O   UNL     1      -3.799   8.211  -1.836  1.00  0.00    -0.269 OA
ATOM      6  H   UNL     1      -2.464  10.050  -1.296  1.00  0.00     0.163 HD
BRANCH   4   7
ATOM      7  C   UNL     1      -2.066   6.700  -1.348  1.00  0.00     0.041 A 
ATOM      8  N   UNL     1      -1.708   1.666  -0.962  1.00  0.00    -0.281 N 
ATOM      9  C   UNL     1      -3.067   1.938  -1.173  1.00  0.00     0.180 A 
ATOM     10  C   UNL     1      -0.800   2.687  -0.660  1.00  0.00     0.262 A 
ATOM     11  S   UNL     1      -4.310   0.823  -1.358  1.00  0.00    -0.040 S 
ATOM     12  N   UNL     1      -3.444   3.256  -1.224  1.00  0.00    -0.332 N 
ATOM     13  C   UNL     1      -1.210   4.057  -0.982  1.00  0.00     0.064 A 
ATOM     14  O   UNL     1       0.286   2.556  -0.103  1.00  0.00    -0.269 OA
ATOM     15  C   UNL     1      -2.551   4.322  -1.171  1.00  0.00     0.054 A 
ATOM     16  H   UNL     1      -4.404   3.461  -1.304  1.00  0.00     0.169 HD
ATOM     17  C   UNL     1      -0.273   5.082  -1.060  1.00  0.00     0.017 A 
ATOM     18  C   UNL     1      -2.991   5.638  -1.323  1.00  0.00     0.040 A 
ATOM     19  C   UNL     1      -0.704   6.389  -1.279  1.00  0.00     0.015 A 
BRANCH   8  20
ATOM     20  C   UNL     1      -1.264   0.272  -0.785  1.00  0.00     0.155 C 
BRANCH  20  21
ATOM     21  C   UNL     1       0.174   0.023  -1.144  1.00  0.00    -0.013 C 
ATOM     22  C   UNL     1       1.076  -0.471  -0.282  1.00  0.00     0.006 C 
ENDBRANCH  20  21
ENDBRANCH   8  20
ENDBRANCH   4   7
ENDBRANCH   2   3
ENDBRANCH   1   2
BRANCH   1  23
ATOM     23  C   UNL     1       0.374  10.984  -2.551  1.00  0.00     0.023 C 
BRANCH  23  24
ATOM     24  C   UNL     1       0.899  12.102  -1.663  1.00  0.00     0.116 C 
BRANCH  24  25
ATOM     25  N   UNL     1       2.279  11.918  -1.240  1.00  0.00    -0.352 N 
ATOM     26  C   UNL     1       3.172  12.891  -0.843  1.00  0.00     0.251 C 
ATOM     27  H   UNL     1       2.614  10.992  -1.237  1.00  0.00     0.163 HD
ATOM     28  O   UNL     1       4.335  12.619  -0.593  1.00  0.00    -0.269 OA
BRANCH  26  29
ATOM     29  C   UNL     1       2.696  14.288  -0.789  1.00  0.00     0.039 A 
ATOM     30  C   UNL     1       1.525  14.602  -0.099  1.00  0.00     0.014 A 
ATOM     31  C   UNL     1       3.372  15.261  -1.529  1.00  0.00     0.014 A 
ATOM     32  C   UNL     1       0.934  15.844  -0.290  1.00  0.00     0.010 A 
ATOM     33  C   UNL     1       2.818  16.537  -1.652  1.00  0.00     0.010 A 
ATOM     34  C   UNL     1       1.568  16.819  -1.079  1.00  0.00    -0.014 A 
BRANCH  34  35
ATOM     35  C   UNL     1       0.892  18.121  -1.299  1.00  0.00     0.031 A 
ATOM     36  C   UNL     1       0.402  18.511  -2.666  1.00  0.00     0.074 A 
ATOM     37  C   UNL     1       0.658  18.920  -0.242  1.00  0.00     0.049 A 
ATOM     38  N   UNL     1      -0.228  19.598  -3.037  1.00  0.00    -0.248 NA
ATOM     39  C   UNL     1       0.651  17.562  -3.762  1.00  0.00     0.031 C 
ATOM     40  C   UNL     1       1.068  18.632   1.133  1.00  0.00     0.029 A 
ATOM     41  N   UNL     1      -0.006  20.115  -0.150  1.00  0.00    -0.354 N 
ATOM     42  C   UNL     1      -0.432  19.473  -4.404  1.00  0.00     0.074 A 
ATOM     43  C   UNL     1       0.160  18.216  -4.806  1.00  0.00     0.031 C 
ATOM     44  C   UNL     1       0.593  19.591   1.941  1.00  0.00     0.029 A 
ATOM     45  C   UNL     1      -0.097  20.591   1.134  1.00  0.00     0.049 A 
ATOM     46  H   UNL     1      -0.381  20.586  -0.929  1.00  0.00     0.167 HD
ATOM     47  C   UNL     1      -1.065  20.327  -5.244  1.00  0.00     0.037 A 
ATOM     48  C   UNL     1      -0.666  21.715   1.609  1.00  0.00     0.037 A 
ATOM     49  C   UNL     1      -1.675  21.565  -4.834  1.00  0.00     0.049 A 
ATOM     50  C   UNL     1      -1.327  22.661   0.651  1.00  0.00     0.074 A 
ATOM     51  C   UNL     1      -2.352  22.491  -5.608  1.00  0.00     0.029 A 
ATOM     52  N   UNL     1      -1.687  22.047  -3.533  1.00  0.00    -0.354 N 
ATOM     53  N   UNL     1      -1.499  22.539  -0.642  1.00  0.00    -0.248 NA
ATOM     54  C   UNL     1      -1.859  23.909   1.216  1.00  0.00     0.031 C 
ATOM     55  C   UNL     1      -2.742  23.551  -4.783  1.00  0.00     0.029 A 
ATOM     56  C   UNL     1      -2.344  23.267  -3.487  1.00  0.00     0.049 A 
ATOM     57  H   UNL     1      -1.287  21.591  -2.758  1.00  0.00     0.167 HD
ATOM     58  C   UNL     1      -2.160  23.688  -1.048  1.00  0.00     0.074 A 
ATOM     59  C   UNL     1      -2.379  24.487   0.141  1.00  0.00     0.031 C 
ATOM     60  C   UNL     1      -2.545  24.051  -2.296  1.00  0.00     0.037 A 
BRANCH  47  61
ATOM     61  C   UNL     1      -1.126  19.962  -6.698  1.00  0.00     0.064 A 
ATOM     62  C   UNL     1      -1.977  18.951  -7.167  1.00  0.00     0.173 A 
ATOM     63  C   UNL     1      -0.369  20.674  -7.641  1.00  0.00     0.173 A 
ATOM     64  F   UNL     1      -2.711  18.233  -6.304  1.00  0.00    -0.203 F 
ATOM     65  C   UNL     1      -2.057  18.656  -8.526  1.00  0.00     0.198 A 
ATOM     66  C   UNL     1      -0.469  20.392  -9.001  1.00  0.00     0.198 A 
ATOM     67  F   UNL     1       0.457  21.654  -7.244  1.00  0.00    -0.203 F 
ATOM     68  F   UNL     1      -2.853  17.664  -8.949  1.00  0.00    -0.200 F 
ATOM     69  C   UNL     1      -1.310  19.382  -9.442  1.00  0.00     0.200 A 
ATOM     70  F   UNL     1       0.246  21.102  -9.886  1.00  0.00    -0.200 F 
ATOM     71  F   UNL     1      -1.397  19.104 -10.750  1.00  0.00    -0.200 F 
ENDBRANCH  47  61
BRANCH  48  72
ATOM     72  C   UNL     1      -0.633  21.984   3.068  1.00  0.00     0.064 A 
ATOM     73  C   UNL     1      -1.797  21.881   3.841  1.00  0.00     0.173 A 
ATOM     74  C   UNL     1       0.567  22.292   3.725  1.00  0.00     0.173 A 
ATOM     75  F   UNL     1      -2.970  21.604   3.252  1.00  0.00    -0.203 F 
ATOM     76  C   UNL     1      -1.760  22.072   5.220  1.00  0.00     0.198 A 
ATOM     77  C   UNL     1       0.607  22.459   5.107  1.00  0.00     0.198 A 
ATOM     78  F   UNL     1       1.707  22.396   3.026  1.00  0.00    -0.203 F 
ATOM     79  F   UNL     1      -2.889  21.985   5.936  1.00  0.00    -0.200 F 
ATOM     80  C   UNL     1      -0.557  22.350   5.853  1.00  0.00     0.200 A 
ATOM     81  F   UNL     1       1.773  22.709   5.715  1.00  0.00    -0.200 F 
ATOM     82  F   UNL     1      -0.519  22.513   7.182  1.00  0.00    -0.200 F 
ENDBRANCH  48  72
BRANCH  60  83
ATOM     83  C   UNL     1      -3.243  25.369  -2.442  1.00  0.00     0.064 A 
ATOM     84  C   UNL     1      -2.537  26.578  -2.374  1.00  0.00     0.173 A 
ATOM     85  C   UNL     1      -4.619  25.420  -2.709  1.00  0.00     0.173 A 
ATOM     86  F   UNL     1      -1.223  26.578  -2.106  1.00  0.00    -0.203 F 
ATOM     87  C   UNL     1      -3.187  27.795  -2.557  1.00  0.00     0.198 A 
ATOM     88  C   UNL     1      -5.261  26.638  -2.914  1.00  0.00     0.198 A 
ATOM     89  F   UNL     1      -5.335  24.289  -2.788  1.00  0.00    -0.203 F 
ATOM     90  F   UNL     1      -2.500  28.941  -2.458  1.00  0.00    -0.200 F 
ATOM     91  C   UNL     1      -4.546  27.824  -2.835  1.00  0.00     0.200 A 
ATOM     92  F   UNL     1      -6.572  26.664  -3.193  1.00  0.00    -0.200 F 
ATOM     93  F   UNL     1      -5.168  28.996  -3.021  1.00  0.00    -0.200 F 
ENDBRANCH  60  83
ENDBRANCH  34  35
ENDBRANCH  26  29
ENDBRANCH  24  25
ENDBRANCH  23  24
ENDBRANCH   1  23
TORSDOF 13
