REMARK SMILES O=C(NCCCCNC(=O)c1ccc(S(=O)(=O)Cc2cnoc2)c(F)c1)c1ccc(-c2c3nc(c(-c4c(F)c(F)c(F)c(F)c4F)c4ccc([nH]4)c(-c4c(F)c(F)c(F)c(F)c4F)c4nc(c(-c5c(F)c(F)c(F)c(F)c5F)c5ccc2[nH]5)C=C4)C=C3)cc1
REMARK SMILES IDX 6 1 5 2 4 3 3 4 1 5 2 6 27 8 28 9 89 10 29 11 88 12 30 13
REMARK SMILES IDX 31 14 32 15 82 16 33 17 87 18 81 19 83 20 34 21 86 22 80 23
REMARK SMILES IDX 79 24 35 26 67 27 47 28 66 29 48 30 51 31 65 32 84 33 49 34
REMARK SMILES IDX 50 35 64 37 85 38 52 39 36 40 37 41 45 42 38 43 39 44 43 45
REMARK SMILES IDX 46 46 40 47 41 48 44 49 42 50 68 51 69 52 77 53 70 54 71 55
REMARK SMILES IDX 75 56 78 57 72 58 73 59 76 60 74 61 53 62 54 63 62 64 55 65
REMARK SMILES IDX 56 66 60 67 63 68 57 69 58 70 61 71 59 72 7 73 8 74 9 75
REMARK SMILES IDX 10 77 11 78 12 79 26 80 13 81 24 82 14 83 25 84 15 85 16 86
REMARK SMILES IDX 17 87 18 88 19 89 20 90 23 91 21 92 22 93
REMARK H PARENT 3 7 83 25 51 36 8 76
REMARK Flexibility Score: inf
ROOT
ATOM      1  C   UNL     1       4.358  -3.907  -0.677  1.00  0.00     0.023 C 
ENDROOT
BRANCH   1   2
ATOM      2  C   UNL     1       4.844  -2.777   0.228  1.00  0.00     0.023 C 
BRANCH   2   3
ATOM      3  C   UNL     1       4.556  -1.366  -0.272  1.00  0.00     0.116 C 
BRANCH   3   4
ATOM      4  N   UNL     1       3.139  -1.099  -0.471  1.00  0.00    -0.352 N 
ATOM      5  O   UNL     1       1.172  -0.018  -0.225  1.00  0.00    -0.269 OA
ATOM      6  C   UNL     1       2.385  -0.030  -0.044  1.00  0.00     0.251 C 
ATOM      7  H   UNL     1       2.650  -1.781  -0.986  1.00  0.00     0.163 HD
BRANCH   6   8
ATOM      8  C   UNL     1       3.035   1.085   0.676  1.00  0.00     0.039 A 
ATOM      9  C   UNL     1       4.225   1.643   0.206  1.00  0.00     0.014 A 
ATOM     10  C   UNL     1       2.459   1.554   1.861  1.00  0.00     0.014 A 
ATOM     11  C   UNL     1       4.926   2.538   1.006  1.00  0.00     0.010 A 
ATOM     12  C   UNL     1       3.124   2.518   2.623  1.00  0.00     0.010 A 
ATOM     13  C   UNL     1       4.389   2.978   2.227  1.00  0.00    -0.014 A 
BRANCH  13  14
ATOM     14  C   UNL     1       5.174   3.919   3.066  1.00  0.00     0.031 A 
ATOM     15  C   UNL     1       5.718   3.495   4.402  1.00  0.00     0.074 A 
ATOM     16  C   UNL     1       5.454   5.144   2.583  1.00  0.00     0.049 A 
ATOM     17  N   UNL     1       6.474   4.167   5.235  1.00  0.00    -0.248 NA
ATOM     18  C   UNL     1       5.367   2.146   4.870  1.00  0.00     0.031 C 
ATOM     19  C   UNL     1       4.979   5.669   1.302  1.00  0.00     0.029 A 
ATOM     20  N   UNL     1       6.230   6.154   3.091  1.00  0.00    -0.354 N 
ATOM     21  C   UNL     1       6.671   3.334   6.329  1.00  0.00     0.074 A 
ATOM     22  C   UNL     1       5.938   2.114   6.067  1.00  0.00     0.031 C 
ATOM     23  C   UNL     1       5.524   6.876   1.094  1.00  0.00     0.029 A 
ATOM     24  C   UNL     1       6.345   7.231   2.247  1.00  0.00     0.049 A 
ATOM     25  H   UNL     1       6.663   6.111   3.974  1.00  0.00     0.167 HD
ATOM     26  C   UNL     1       7.404   3.564   7.444  1.00  0.00     0.037 A 
ATOM     27  C   UNL     1       7.039   8.376   2.383  1.00  0.00     0.037 A 
ATOM     28  C   UNL     1       8.154   4.768   7.692  1.00  0.00     0.049 A 
ATOM     29  C   UNL     1       7.856   8.600   3.622  1.00  0.00     0.074 A 
ATOM     30  C   UNL     1       8.932   5.090   8.792  1.00  0.00     0.029 A 
ATOM     31  N   UNL     1       8.226   5.847   6.823  1.00  0.00    -0.354 N 
ATOM     32  N   UNL     1       8.030   7.804   4.648  1.00  0.00    -0.248 NA
ATOM     33  C   UNL     1       8.568   9.881   3.723  1.00  0.00     0.031 C 
ATOM     34  C   UNL     1       9.452   6.374   8.600  1.00  0.00     0.029 A 
ATOM     35  C   UNL     1       9.030   6.837   7.364  1.00  0.00     0.049 A 
ATOM     36  H   UNL     1       7.773   5.901   5.951  1.00  0.00     0.167 HD
ATOM     37  C   UNL     1       8.877   8.480   5.513  1.00  0.00     0.074 A 
ATOM     38  C   UNL     1       9.197   9.745   4.883  1.00  0.00     0.031 C 
ATOM     39  C   UNL     1       9.342   8.088   6.724  1.00  0.00     0.037 A 
BRANCH  26  40
ATOM     40  C   UNL     1       7.432   2.492   8.493  1.00  0.00     0.064 A 
ATOM     41  C   UNL     1       6.759   2.673   9.712  1.00  0.00     0.173 A 
ATOM     42  C   UNL     1       8.171   1.314   8.319  1.00  0.00     0.173 A 
ATOM     43  F   UNL     1       6.043   3.786   9.930  1.00  0.00    -0.203 F 
ATOM     44  C   UNL     1       6.833   1.716  10.720  1.00  0.00     0.198 A 
ATOM     45  C   UNL     1       8.224   0.347   9.321  1.00  0.00     0.198 A 
ATOM     46  F   UNL     1       8.820   1.089   7.167  1.00  0.00    -0.203 F 
ATOM     47  F   UNL     1       6.201   1.920  11.884  1.00  0.00    -0.200 F 
ATOM     48  C   UNL     1       7.562   0.552  10.523  1.00  0.00     0.200 A 
ATOM     49  F   UNL     1       8.910  -0.786   9.121  1.00  0.00    -0.200 F 
ATOM     50  F   UNL     1       7.622  -0.374  11.489  1.00  0.00    -0.200 F 
ENDBRANCH  26  40
BRANCH  27  51
ATOM     51  C   UNL     1       7.007   9.374   1.286  1.00  0.00     0.064 A 
ATOM     52  C   UNL     1       5.850  10.118   1.014  1.00  0.00     0.173 A 
ATOM     53  C   UNL     1       8.117   9.557   0.451  1.00  0.00     0.173 A 
ATOM     54  F   UNL     1       4.761   9.969   1.782  1.00  0.00    -0.203 F 
ATOM     55  C   UNL     1       5.796  10.990  -0.070  1.00  0.00     0.198 A 
ATOM     56  C   UNL     1       8.069  10.447  -0.619  1.00  0.00     0.198 A 
ATOM     57  F   UNL     1       9.249   8.878   0.684  1.00  0.00    -0.203 F 
ATOM     58  F   UNL     1       4.665  11.658  -0.334  1.00  0.00    -0.200 F 
ATOM     59  C   UNL     1       6.906  11.155  -0.885  1.00  0.00     0.200 A 
ATOM     60  F   UNL     1       9.149  10.618  -1.394  1.00  0.00    -0.200 F 
ATOM     61  F   UNL     1       6.855  11.995  -1.927  1.00  0.00    -0.200 F 
ENDBRANCH  27  51
BRANCH  39  62
ATOM     62  C   UNL     1      10.260   9.027   7.445  1.00  0.00     0.064 A 
ATOM     63  C   UNL     1      11.630   8.744   7.545  1.00  0.00     0.173 A 
ATOM     64  C   UNL     1       9.773  10.175   8.086  1.00  0.00     0.173 A 
ATOM     65  F   UNL     1      12.140   7.654   6.954  1.00  0.00    -0.203 F 
ATOM     66  C   UNL     1      12.479   9.575   8.269  1.00  0.00     0.198 A 
ATOM     67  C   UNL     1      10.629  11.016   8.791  1.00  0.00     0.198 A 
ATOM     68  F   UNL     1       8.472  10.492   8.006  1.00  0.00    -0.203 F 
ATOM     69  F   UNL     1      13.782   9.276   8.370  1.00  0.00    -0.200 F 
ATOM     70  C   UNL     1      11.980  10.712   8.888  1.00  0.00     0.200 A 
ATOM     71  F   UNL     1      10.150  12.124   9.371  1.00  0.00    -0.200 F 
ATOM     72  F   UNL     1      12.801  11.518   9.575  1.00  0.00    -0.200 F 
ENDBRANCH  39  62
ENDBRANCH  13  14
ENDBRANCH   6   8
ENDBRANCH   3   4
ENDBRANCH   2   3
ENDBRANCH   1   2
BRANCH   1  73
ATOM     73  C   UNL     1       4.771  -3.785  -2.142  1.00  0.00     0.116 C 
BRANCH  73  74
ATOM     74  N   UNL     1       6.215  -3.808  -2.315  1.00  0.00    -0.352 N 
ATOM     75  C   UNL     1       6.984  -4.757  -2.939  1.00  0.00     0.251 C 
ATOM     76  H   UNL     1       6.705  -3.043  -1.934  1.00  0.00     0.163 HD
ATOM     77  O   UNL     1       8.207  -4.705  -2.930  1.00  0.00    -0.269 OA
BRANCH  75  78
ATOM     78  C   UNL     1       6.303  -5.871  -3.614  1.00  0.00     0.042 A 
ATOM     79  C   UNL     1       5.549  -5.629  -4.767  1.00  0.00     0.015 A 
ATOM     80  C   UNL     1       6.361  -7.141  -3.040  1.00  0.00     0.054 A 
ATOM     81  C   UNL     1       4.792  -6.661  -5.315  1.00  0.00     0.024 A 
ATOM     82  C   UNL     1       5.596  -8.163  -3.590  1.00  0.00     0.142 A 
ATOM     83  C   UNL     1       4.806  -7.926  -4.709  1.00  0.00     0.103 A 
ATOM     84  F   UNL     1       5.616  -9.360  -2.994  1.00  0.00    -0.206 F 
BRANCH  83  85
ATOM     85  S   UNL     1       3.762  -9.182  -5.377  1.00  0.00     0.185 S 
ATOM     86  O   UNL     1       2.539  -9.118  -4.596  1.00  0.00    -0.223 OA
ATOM     87  O   UNL     1       3.719  -8.949  -6.811  1.00  0.00    -0.223 OA
BRANCH  85  88
ATOM     88  C   UNL     1       4.499 -10.777  -5.118  1.00  0.00     0.183 C 
BRANCH  88  89
ATOM     89  C   UNL     1       5.854 -11.020  -5.679  1.00  0.00     0.027 A 
ATOM     90  C   UNL     1       6.556 -12.249  -5.634  1.00  0.00     0.162 A 
ATOM     91  C   UNL     1       6.726 -10.196  -6.354  1.00  0.00     0.235 A 
ATOM     92  N   UNL     1       7.755 -12.174  -6.211  1.00  0.00    -0.088 NA
ATOM     93  O   UNL     1       7.860 -10.873  -6.665  1.00  0.00    -0.364 OA
ENDBRANCH  88  89
ENDBRANCH  85  88
ENDBRANCH  83  85
ENDBRANCH  75  78
ENDBRANCH  73  74
ENDBRANCH   1  73
TORSDOF 14
