REMARK SMILES CN(C(=O)N[C@@](C)(C(=O)NCCCCNC(=O)c1ccc(-c2c3nc(c(-c4c(F)c(F)c(F)c(F)c4F)c4ccc([nH]4)c(-c4c(F)c(F)c(F)c(F)c4F)c4nc(c(-c5c(F)c(F)c(F)c(F)c5F)c5ccc2[nH]5)C=C4)C=C3)cc1)C(F)(F)F)c1ccc(F)cc1
REMARK SMILES IDX 12 1 11 2 10 3 8 4 9 5 6 7 7 8 5 9 3 10 4 11 2 13 1 14 85 15
REMARK SMILES IDX 86 16 91 17 87 18 90 19 88 20 89 21 81 22 82 23 83 24 84 25
REMARK SMILES IDX 13 26 14 27 15 28 16 29 17 31 18 32 19 33 80 34 20 35 79 36
REMARK SMILES IDX 21 37 22 38 23 39 73 40 24 41 78 42 72 43 74 44 25 45 77 46
REMARK SMILES IDX 71 47 70 48 26 50 58 51 38 52 57 53 39 54 42 55 56 56 75 57
REMARK SMILES IDX 40 58 41 59 55 61 76 62 43 63 27 64 28 65 36 66 29 67 30 68
REMARK SMILES IDX 34 69 37 70 31 71 32 72 35 73 33 74 59 75 60 76 68 77 61 78
REMARK SMILES IDX 62 79 66 80 69 81 63 82 64 83 67 84 65 85 44 86 45 87 53 88
REMARK SMILES IDX 46 89 47 90 51 91 54 92 48 93 49 94 52 95 50 96
REMARK H PARENT 10 6 5 12 15 30 74 49 42 60
REMARK Flexibility Score: inf
ROOT
ATOM      1  C   UNL     1      -1.510  -5.289   2.744  1.00  0.00     0.023 C 
ENDROOT
BRANCH   1   2
ATOM      2  C   UNL     1      -1.544  -3.802   3.093  1.00  0.00     0.116 C 
BRANCH   2   3
ATOM      3  N   UNL     1      -0.209  -3.290   3.334  1.00  0.00    -0.354 N 
ATOM      4  C   UNL     1       0.485  -2.194   2.929  1.00  0.00     0.255 C 
ATOM      5  O   UNL     1       1.667  -2.202   3.289  1.00  0.00    -0.272 OA
ATOM      6  H   UNL     1       0.317  -3.871   3.930  1.00  0.00     0.163 HD
BRANCH   4   7
ATOM      7  C   UNL     1      -0.109  -1.062   2.050  1.00  0.00     0.213 C 
ATOM      8  C   UNL     1      -1.451  -0.539   2.601  1.00  0.00     0.056 C 
BRANCH   7   9
ATOM      9  N   UNL     1      -0.386  -1.702   0.707  1.00  0.00    -0.316 N 
ATOM     10  C   UNL     1      -0.043  -1.773  -0.587  1.00  0.00     0.322 C 
ATOM     11  O   UNL     1      -0.471  -2.809  -1.116  1.00  0.00    -0.248 OA
ATOM     12  H   UNL     1      -1.131  -2.331   0.839  1.00  0.00     0.166 HD
BRANCH  10  13
ATOM     13  N   UNL     1       0.677  -0.840  -1.270  1.00  0.00    -0.298 N 
ATOM     14  C   UNL     1       0.953   0.513  -0.827  1.00  0.00     0.155 C 
BRANCH  13  15
ATOM     15  C   UNL     1       0.995  -1.032  -2.658  1.00  0.00     0.045 A 
ATOM     16  C   UNL     1      -0.003  -1.356  -3.590  1.00  0.00     0.029 A 
ATOM     17  C   UNL     1       2.282  -0.709  -3.118  1.00  0.00     0.029 A 
ATOM     18  C   UNL     1       0.271  -1.297  -4.960  1.00  0.00     0.041 A 
ATOM     19  C   UNL     1       2.559  -0.677  -4.486  1.00  0.00     0.041 A 
ATOM     20  C   UNL     1       1.545  -0.950  -5.394  1.00  0.00     0.123 A 
ATOM     21  F   UNL     1       1.794  -0.858  -6.707  1.00  0.00    -0.207 F 
ENDBRANCH  13  15
ENDBRANCH  10  13
ENDBRANCH   7   9
BRANCH   7  22
ATOM     22  C   UNL     1       0.907   0.088   2.249  1.00  0.00     0.420 C 
ATOM     23  F   UNL     1       2.113  -0.142   1.698  1.00  0.00    -0.168 F 
ATOM     24  F   UNL     1       0.442   1.259   1.744  1.00  0.00    -0.168 F 
ATOM     25  F   UNL     1       1.102   0.352   3.570  1.00  0.00    -0.168 F 
ENDBRANCH   7  22
ENDBRANCH   4   7
ENDBRANCH   2   3
ENDBRANCH   1   2
BRANCH   1  26
ATOM     26  C   UNL     1      -0.898  -6.201   3.811  1.00  0.00     0.023 C 
BRANCH  26  27
ATOM     27  C   UNL     1      -1.473  -6.044   5.215  1.00  0.00     0.116 C 
BRANCH  27  28
ATOM     28  N   UNL     1      -2.907  -6.274   5.262  1.00  0.00    -0.352 N 
ATOM     29  C   UNL     1      -3.635  -7.121   6.057  1.00  0.00     0.251 C 
ATOM     30  H   UNL     1      -3.437  -5.740   4.626  1.00  0.00     0.163 HD
ATOM     31  O   UNL     1      -4.834  -7.286   5.832  1.00  0.00    -0.269 OA
BRANCH  29  32
ATOM     32  C   UNL     1      -2.988  -7.859   7.161  1.00  0.00     0.039 A 
ATOM     33  C   UNL     1      -3.321  -9.202   7.353  1.00  0.00     0.014 A 
ATOM     34  C   UNL     1      -2.067  -7.240   8.011  1.00  0.00     0.014 A 
ATOM     35  C   UNL     1      -2.686  -9.937   8.354  1.00  0.00     0.010 A 
ATOM     36  C   UNL     1      -1.371  -7.996   8.951  1.00  0.00     0.010 A 
ATOM     37  C   UNL     1      -1.677  -9.351   9.138  1.00  0.00    -0.014 A 
BRANCH  37  38
ATOM     38  C   UNL     1      -0.933 -10.162  10.135  1.00  0.00     0.031 A 
ATOM     39  C   UNL     1      -1.016  -9.850  11.602  1.00  0.00     0.074 A 
ATOM     40  C   UNL     1      -0.153 -11.174   9.708  1.00  0.00     0.049 A 
ATOM     41  N   UNL     1      -0.481 -10.485  12.616  1.00  0.00    -0.248 NA
ATOM     42  C   UNL     1      -1.778  -8.652  11.981  1.00  0.00     0.031 C 
ATOM     43  C   UNL     1       0.062 -11.538   8.307  1.00  0.00     0.029 A 
ATOM     44  N   UNL     1       0.591 -12.089  10.409  1.00  0.00    -0.354 N 
ATOM     45  C   UNL     1      -0.841  -9.764  13.747  1.00  0.00     0.074 A 
ATOM     46  C   UNL     1      -1.575  -8.604  13.289  1.00  0.00     0.031 C 
ATOM     47  C   UNL     1       0.834 -12.634   8.253  1.00  0.00     0.029 A 
ATOM     48  C   UNL     1       1.197 -13.028   9.610  1.00  0.00     0.049 A 
ATOM     49  H   UNL     1       0.681 -12.075  11.389  1.00  0.00     0.167 HD
ATOM     50  C   UNL     1      -0.608 -10.056  15.051  1.00  0.00     0.037 A 
ATOM     51  C   UNL     1       1.948 -14.096   9.937  1.00  0.00     0.037 A 
ATOM     52  C   UNL     1       0.129 -11.210  15.501  1.00  0.00     0.049 A 
ATOM     53  C   UNL     1       2.208 -14.392  11.388  1.00  0.00     0.074 A 
ATOM     54  C   UNL     1       0.380 -11.626  16.797  1.00  0.00     0.029 A 
ATOM     55  N   UNL     1       0.749 -12.128  14.663  1.00  0.00    -0.354 N 
ATOM     56  N   UNL     1       1.790 -13.755  12.454  1.00  0.00    -0.248 NA
ATOM     57  C   UNL     1       3.040 -15.567  11.676  1.00  0.00     0.031 C 
ATOM     58  C   UNL     1       1.202 -12.758  16.744  1.00  0.00     0.029 A 
ATOM     59  C   UNL     1       1.410 -13.090  15.414  1.00  0.00     0.049 A 
ATOM     60  H   UNL     1       0.724 -12.100  13.679  1.00  0.00     0.167 HD
ATOM     61  C   UNL     1       2.284 -14.463  13.541  1.00  0.00     0.074 A 
ATOM     62  C   UNL     1       3.012 -15.594  13.001  1.00  0.00     0.031 C 
ATOM     63  C   UNL     1       2.147 -14.202  14.866  1.00  0.00     0.037 A 
BRANCH  50  64
ATOM     64  C   UNL     1      -1.151  -9.097  16.075  1.00  0.00     0.064 A 
ATOM     65  C   UNL     1      -2.532  -8.916  16.262  1.00  0.00     0.173 A 
ATOM     66  C   UNL     1      -0.282  -8.337  16.874  1.00  0.00     0.173 A 
ATOM     67  F   UNL     1      -3.410  -9.608  15.520  1.00  0.00    -0.203 F 
ATOM     68  C   UNL     1      -3.019  -7.975  17.166  1.00  0.00     0.198 A 
ATOM     69  C   UNL     1      -0.774  -7.425  17.806  1.00  0.00     0.198 A 
ATOM     70  F   UNL     1       1.046  -8.472  16.748  1.00  0.00    -0.203 F 
ATOM     71  F   UNL     1      -4.340  -7.766  17.266  1.00  0.00    -0.200 F 
ATOM     72  C   UNL     1      -2.141  -7.233  17.939  1.00  0.00     0.200 A 
ATOM     73  F   UNL     1       0.077  -6.720  18.564  1.00  0.00    -0.200 F 
ATOM     74  F   UNL     1      -2.610  -6.324  18.804  1.00  0.00    -0.200 F 
ENDBRANCH  50  64
BRANCH  51  75
ATOM     75  C   UNL     1       2.448 -14.999   8.869  1.00  0.00     0.064 A 
ATOM     76  C   UNL     1       1.927 -16.293   8.725  1.00  0.00     0.173 A 
ATOM     77  C   UNL     1       3.434 -14.588   7.961  1.00  0.00     0.173 A 
ATOM     78  F   UNL     1       0.996 -16.738   9.581  1.00  0.00    -0.203 F 
ATOM     79  C   UNL     1       2.382 -17.145   7.721  1.00  0.00     0.198 A 
ATOM     80  C   UNL     1       3.868 -15.430   6.940  1.00  0.00     0.198 A 
ATOM     81  F   UNL     1       3.960 -13.357   8.053  1.00  0.00    -0.203 F 
ATOM     82  F   UNL     1       1.894 -18.389   7.630  1.00  0.00    -0.200 F 
ATOM     83  C   UNL     1       3.346 -16.710   6.824  1.00  0.00     0.200 A 
ATOM     84  F   UNL     1       4.787 -15.001   6.065  1.00  0.00    -0.200 F 
ATOM     85  F   UNL     1       3.775 -17.526   5.852  1.00  0.00    -0.200 F 
ENDBRANCH  51  75
BRANCH  63  86
ATOM     86  C   UNL     1       2.784 -15.176  15.819  1.00  0.00     0.064 A 
ATOM     87  C   UNL     1       4.178 -15.309  15.921  1.00  0.00     0.173 A 
ATOM     88  C   UNL     1       1.989 -15.996  16.634  1.00  0.00     0.173 A 
ATOM     89  F   UNL     1       4.986 -14.559  15.155  1.00  0.00    -0.203 F 
ATOM     90  C   UNL     1       4.749 -16.261  16.762  1.00  0.00     0.198 A 
ATOM     91  C   UNL     1       2.564 -16.919  17.504  1.00  0.00     0.198 A 
ATOM     92  F   UNL     1       0.652 -15.906  16.587  1.00  0.00    -0.203 F 
ATOM     93  F   UNL     1       6.079 -16.422  16.782  1.00  0.00    -0.200 F 
ATOM     94  C   UNL     1       3.942 -17.062  17.555  1.00  0.00     0.200 A 
ATOM     95  F   UNL     1       1.784 -17.681  18.282  1.00  0.00    -0.200 F 
ATOM     96  F   UNL     1       4.493 -17.982  18.360  1.00  0.00    -0.200 F 
ENDBRANCH  63  86
ENDBRANCH  37  38
ENDBRANCH  29  32
ENDBRANCH  27  28
ENDBRANCH  26  27
ENDBRANCH   1  26
TORSDOF 15
