REMARK SMILES CC[NH2+][C@@]1(C(=O)NCCCCNC(=O)c2ccc(-c3c4nc(c(-c5c(F)c(F)c(F)c(F)c5F)c5ccc([nH]5)c(-c5c(F)c(F)c(F)c(F)c5F)c5nc(c(-c6c(F)c(F)c(F)c(F)c6F)c6ccc3[nH]6)C=C5)C=C4)cc2)CC[C@@H]([NH+]2CC[NH+](C(C)C)CC2)C1
REMARK SMILES IDX 9 1 8 2 7 3 5 4 6 5 4 7 78 8 90 9 79 10 80 11 3 12 2 15 1 16
REMARK SMILES IDX 81 17 82 18 89 19 83 21 88 22 84 23 85 25 86 26 87 27 10 28
REMARK SMILES IDX 11 29 12 30 13 31 14 33 15 34 16 35 77 36 17 37 76 38 18 39
REMARK SMILES IDX 19 40 20 41 70 42 21 43 75 44 69 45 71 46 22 47 74 48 68 49
REMARK SMILES IDX 67 50 23 52 55 53 35 54 54 55 36 56 39 57 53 58 72 59 37 60
REMARK SMILES IDX 38 61 52 63 73 64 40 65 24 66 25 67 33 68 26 69 27 70 31 71
REMARK SMILES IDX 34 72 28 73 29 74 32 75 30 76 56 77 57 78 65 79 58 80 59 81
REMARK SMILES IDX 63 82 66 83 60 84 61 85 64 86 62 87 41 88 42 89 50 90 43 91
REMARK SMILES IDX 44 92 48 93 51 94 45 95 46 96 49 97 47 98
REMARK H PARENT 7 6 3 13 3 14 81 20 84 24 12 32 71 51 39 62
REMARK Flexibility Score: inf
ROOT
ATOM      1  C   UNL     1       1.165  -0.873   7.426  1.00  0.00     0.023 C 
ENDROOT
BRANCH   1   2
ATOM      2  C   UNL     1       0.773   0.557   7.037  1.00  0.00     0.116 C 
BRANCH   2   3
ATOM      3  N   UNL     1       1.687   1.122   6.069  1.00  0.00    -0.351 N 
ATOM      4  C   UNL     1       1.698   1.162   4.712  1.00  0.00     0.281 C 
ATOM      5  O   UNL     1       2.711   1.691   4.224  1.00  0.00    -0.268 OA
ATOM      6  H   UNL     1       2.462   1.570   6.478  1.00  0.00     0.163 HD
BRANCH   4   7
ATOM      7  C   UNL     1       0.587   0.555   3.753  1.00  0.00     0.181 C 
ATOM      8  C   UNL     1      -0.827   1.080   4.055  1.00  0.00     0.085 C 
ATOM      9  C   UNL     1       0.511  -0.973   3.911  1.00  0.00     0.144 C 
ATOM     10  C   UNL     1      -1.724  -0.136   4.315  1.00  0.00     0.072 C 
ATOM     11  C   UNL     1      -0.790  -1.305   4.647  1.00  0.00     0.191 C 
BRANCH   7  12
ATOM     12  N   UNL     1       0.981   1.032   2.385  1.00  0.00    -0.334 N 
ATOM     13  H   UNL     1       0.499   1.917   2.225  1.00  0.00     0.347 HD
ATOM     14  H   UNL     1       1.999   1.072   2.420  1.00  0.00     0.347 HD
BRANCH  12  15
ATOM     15  C   UNL     1       0.700   0.178   1.238  1.00  0.00     0.257 C 
ATOM     16  C   UNL     1       1.202   0.821  -0.047  1.00  0.00     0.071 C 
ENDBRANCH  12  15
ENDBRANCH   7  12
BRANCH  11  17
ATOM     17  N   UNL     1      -1.331  -2.673   4.579  1.00  0.00    -0.323 N 
ATOM     18  C   UNL     1      -2.242  -2.979   3.473  1.00  0.00     0.324 C 
ATOM     19  C   UNL     1      -0.308  -3.735   4.622  1.00  0.00     0.324 C 
ATOM     20  H   UNL     1      -1.884  -2.673   5.436  1.00  0.00     0.348 HD
ATOM     21  C   UNL     1      -1.557  -3.089   2.102  1.00  0.00     0.324 C 
ATOM     22  C   UNL     1       0.404  -4.070   3.282  1.00  0.00     0.324 C 
ATOM     23  N   UNL     1      -0.376  -3.960   2.036  1.00  0.00    -0.324 N 
ATOM     24  H   UNL     1       0.215  -3.413   1.411  1.00  0.00     0.348 HD
BRANCH  23  25
ATOM     25  C   UNL     1      -0.519  -5.224   1.307  1.00  0.00     0.178 C 
ATOM     26  C   UNL     1      -1.425  -6.231   2.017  1.00  0.00     0.075 C 
ATOM     27  C   UNL     1      -0.977  -5.008  -0.142  1.00  0.00     0.075 C 
ENDBRANCH  23  25
ENDBRANCH  11  17
ENDBRANCH   4   7
ENDBRANCH   2   3
ENDBRANCH   1   2
BRANCH   1  28
ATOM     28  C   UNL     1       2.135  -1.000   8.596  1.00  0.00     0.023 C 
BRANCH  28  29
ATOM     29  C   UNL     1       1.616  -0.431   9.906  1.00  0.00     0.116 C 
BRANCH  29  30
ATOM     30  N   UNL     1       0.327  -0.963  10.328  1.00  0.00    -0.352 N 
ATOM     31  C   UNL     1      -0.217  -0.920  11.591  1.00  0.00     0.251 C 
ATOM     32  H   UNL     1      -0.215  -1.402   9.632  1.00  0.00     0.163 HD
ATOM     33  O   UNL     1      -1.281  -1.472  11.847  1.00  0.00    -0.269 OA
BRANCH  31  34
ATOM     34  C   UNL     1       0.549  -0.243  12.654  1.00  0.00     0.039 A 
ATOM     35  C   UNL     1       0.875  -0.955  13.809  1.00  0.00     0.014 A 
ATOM     36  C   UNL     1       1.031   1.052  12.453  1.00  0.00     0.014 A 
ATOM     37  C   UNL     1       1.754  -0.391  14.733  1.00  0.00     0.010 A 
ATOM     38  C   UNL     1       1.976   1.572  13.325  1.00  0.00     0.010 A 
ATOM     39  C   UNL     1       2.342   0.859  14.477  1.00  0.00    -0.014 A 
BRANCH  39  40
ATOM     40  C   UNL     1       3.325   1.454  15.413  1.00  0.00     0.031 A 
ATOM     41  C   UNL     1       2.998   2.746  16.109  1.00  0.00     0.074 A 
ATOM     42  C   UNL     1       4.529   0.875  15.581  1.00  0.00     0.049 A 
ATOM     43  N   UNL     1       3.740   3.466  16.911  1.00  0.00    -0.248 NA
ATOM     44  C   UNL     1       1.673   3.325  15.837  1.00  0.00     0.031 C 
ATOM     45  C   UNL     1       4.986  -0.343  14.909  1.00  0.00     0.029 A 
ATOM     46  N   UNL     1       5.593   1.240  16.366  1.00  0.00    -0.354 N 
ATOM     47  C   UNL     1       2.982   4.587  17.217  1.00  0.00     0.074 A 
ATOM     48  C   UNL     1       1.750   4.486  16.468  1.00  0.00     0.031 C 
ATOM     49  C   UNL     1       6.225  -0.640  15.334  1.00  0.00     0.029 A 
ATOM     50  C   UNL     1       6.659   0.379  16.284  1.00  0.00     0.049 A 
ATOM     51  H   UNL     1       5.592   2.044  16.934  1.00  0.00     0.167 HD
ATOM     52  C   UNL     1       3.273   5.596  18.072  1.00  0.00     0.037 A 
ATOM     53  C   UNL     1       7.849   0.409  16.913  1.00  0.00     0.037 A 
ATOM     54  C   UNL     1       4.481   5.670  18.848  1.00  0.00     0.049 A 
ATOM     55  C   UNL     1       8.132   1.519  17.890  1.00  0.00     0.074 A 
ATOM     56  C   UNL     1       4.849   6.617  19.786  1.00  0.00     0.029 A 
ATOM     57  N   UNL     1       5.517   4.750  18.777  1.00  0.00    -0.354 N 
ATOM     58  N   UNL     1       7.378   2.537  18.226  1.00  0.00    -0.248 NA
ATOM     59  C   UNL     1       9.425   1.474  18.585  1.00  0.00     0.031 C 
ATOM     60  C   UNL     1       6.123   6.286  20.263  1.00  0.00     0.029 A 
ATOM     61  C   UNL     1       6.528   5.110  19.652  1.00  0.00     0.049 A 
ATOM     62  H   UNL     1       5.531   3.958  18.191  1.00  0.00     0.167 HD
ATOM     63  C   UNL     1       8.089   3.234  19.194  1.00  0.00     0.074 A 
ATOM     64  C   UNL     1       9.329   2.515  19.399  1.00  0.00     0.031 C 
ATOM     65  C   UNL     1       7.746   4.367  19.854  1.00  0.00     0.037 A 
BRANCH  52  66
ATOM     66  C   UNL     1       2.254   6.688  18.220  1.00  0.00     0.064 A 
ATOM     67  C   UNL     1       1.020   6.460  18.849  1.00  0.00     0.173 A 
ATOM     68  C   UNL     1       2.517   7.979  17.740  1.00  0.00     0.173 A 
ATOM     69  F   UNL     1       0.713   5.238  19.311  1.00  0.00    -0.203 F 
ATOM     70  C   UNL     1       0.073   7.474  18.959  1.00  0.00     0.198 A 
ATOM     71  C   UNL     1       1.580   8.999  17.881  1.00  0.00     0.198 A 
ATOM     72  F   UNL     1       3.682   8.251  17.133  1.00  0.00    -0.203 F 
ATOM     73  F   UNL     1      -1.121   7.217  19.511  1.00  0.00    -0.200 F 
ATOM     74  C   UNL     1       0.356   8.744  18.481  1.00  0.00     0.200 A 
ATOM     75  F   UNL     1       1.858  10.230  17.427  1.00  0.00    -0.200 F 
ATOM     76  F   UNL     1      -0.555   9.721  18.590  1.00  0.00    -0.200 F 
ENDBRANCH  52  66
BRANCH  53  77
ATOM     77  C   UNL     1       8.841  -0.673  16.682  1.00  0.00     0.064 A 
ATOM     78  C   UNL     1       9.119  -1.615  17.683  1.00  0.00     0.173 A 
ATOM     79  C   UNL     1       9.534  -0.785  15.469  1.00  0.00     0.173 A 
ATOM     80  F   UNL     1       8.495  -1.537  18.867  1.00  0.00    -0.203 F 
ATOM     81  C   UNL     1      10.070  -2.615  17.487  1.00  0.00     0.198 A 
ATOM     82  C   UNL     1      10.466  -1.801  15.265  1.00  0.00     0.198 A 
ATOM     83  F   UNL     1       9.299   0.087  14.478  1.00  0.00    -0.203 F 
ATOM     84  F   UNL     1      10.348  -3.474  18.477  1.00  0.00    -0.200 F 
ATOM     85  C   UNL     1      10.739  -2.710  16.277  1.00  0.00     0.200 A 
ATOM     86  F   UNL     1      11.102  -1.898  14.089  1.00  0.00    -0.200 F 
ATOM     87  F   UNL     1      11.653  -3.672  16.088  1.00  0.00    -0.200 F 
ENDBRANCH  53  77
BRANCH  65  88
ATOM     88  C   UNL     1       8.701   4.871  20.895  1.00  0.00     0.064 A 
ATOM     89  C   UNL     1       9.919   5.473  20.547  1.00  0.00     0.173 A 
ATOM     90  C   UNL     1       8.374   4.782  22.256  1.00  0.00     0.173 A 
ATOM     91  F   UNL     1      10.282   5.568  19.259  1.00  0.00    -0.203 F 
ATOM     92  C   UNL     1      10.788   5.944  21.528  1.00  0.00     0.198 A 
ATOM     93  C   UNL     1       9.232   5.279  23.232  1.00  0.00     0.198 A 
ATOM     94  F   UNL     1       7.217   4.220  22.638  1.00  0.00    -0.203 F 
ATOM     95  F   UNL     1      11.968   6.473  21.176  1.00  0.00    -0.200 F 
ATOM     96  C   UNL     1      10.441   5.853  22.868  1.00  0.00     0.200 A 
ATOM     97  F   UNL     1       8.890   5.202  24.526  1.00  0.00    -0.200 F 
ATOM     98  F   UNL     1      11.276   6.311  23.810  1.00  0.00    -0.200 F 
ENDBRANCH  65  88
ENDBRANCH  39  40
ENDBRANCH  31  34
ENDBRANCH  29  30
ENDBRANCH  28  29
ENDBRANCH   1  28
TORSDOF 15
