REMARK SMILES COC(=O)[C@H]1CN(C(=O)[C@@H]2CC=CC[C@@H]2C(=O)NCCCCNC(=O)c2ccc(-c3c4nc(c(-c5c(F)c(F)c(F)c(F)c5F)c5ccc([nH]5)c(-c5c(F)c(F)c(F)c(F)c5F)c5nc(c(-c6c(F)c(F)c(F)c(F)c6F)c6ccc3[nH]6)C=C5)C=C4)cc2)C[C@H]1C
REMARK SMILES IDX 19 1 18 2 16 3 17 4 15 6 10 7 11 8 12 9 14 10 13 11 8 12
REMARK SMILES IDX 9 13 7 14 5 15 6 16 90 17 89 18 91 19 3 20 4 21 2 22 1 23
REMARK SMILES IDX 20 24 21 25 22 26 23 27 24 28 25 30 26 31 27 32 88 33 28 34
REMARK SMILES IDX 87 35 29 36 30 37 31 38 81 39 32 40 86 41 80 42 82 43 33 44
REMARK SMILES IDX 85 45 79 46 78 47 34 49 66 50 46 51 65 52 47 53 50 54 64 55
REMARK SMILES IDX 83 56 48 57 49 58 63 60 84 61 51 62 35 63 36 64 44 65 37 66
REMARK SMILES IDX 38 67 42 68 45 69 39 70 40 71 43 72 41 73 67 74 68 75 76 76
REMARK SMILES IDX 69 77 70 78 74 79 77 80 71 81 72 82 75 83 73 84 52 85 53 86
REMARK SMILES IDX 61 87 54 88 55 89 59 90 62 91 56 92 57 93 60 94 58 95
REMARK H PARENT 18 5 23 29 82 48 50 59
REMARK Flexibility Score: inf
ROOT
ATOM      1  C   UNL     1       0.120   9.983  -2.586  1.00  0.00     0.116 C 
ENDROOT
BRANCH   1   2
ATOM      2  N   UNL     1       1.089   9.475  -3.522  1.00  0.00    -0.356 N 
ATOM      3  C   UNL     1       0.972   8.541  -4.492  1.00  0.00     0.224 C 
ATOM      4  O   UNL     1       1.818   8.621  -5.395  1.00  0.00    -0.275 OA
ATOM      5  H   UNL     1       1.986   9.874  -3.442  1.00  0.00     0.163 HD
BRANCH   3   6
ATOM      6  C   UNL     1      -0.008   7.363  -4.516  1.00  0.00     0.095 C 
ATOM      7  C   UNL     1      -1.451   7.296  -3.981  1.00  0.00     0.095 C 
ATOM      8  C   UNL     1      -1.609   7.098  -2.449  1.00  0.00     0.041 C 
ATOM      9  C   UNL     1      -0.390   6.576  -1.748  1.00  0.00    -0.030 C 
ATOM     10  C   UNL     1       0.806   6.193  -3.896  1.00  0.00     0.041 C 
ATOM     11  C   UNL     1       0.699   6.149  -2.399  1.00  0.00    -0.030 C 
BRANCH   7  12
ATOM     12  C   UNL     1      -2.688   8.033  -4.538  1.00  0.00     0.226 C 
ATOM     13  O   UNL     1      -3.784   7.500  -4.289  1.00  0.00    -0.275 OA
BRANCH  12  14
ATOM     14  N   UNL     1      -2.695   9.216  -5.223  1.00  0.00    -0.341 N 
ATOM     15  C   UNL     1      -3.734  11.346  -5.344  1.00  0.00     0.123 C 
ATOM     16  C   UNL     1      -3.966   9.849  -5.580  1.00  0.00     0.135 C 
ATOM     17  C   UNL     1      -2.222  11.471  -5.064  1.00  0.00     0.021 C 
ATOM     18  C   UNL     1      -1.653  10.149  -5.578  1.00  0.00     0.123 C 
ATOM     19  C   UNL     1      -1.497  12.694  -5.596  1.00  0.00     0.010 C 
BRANCH  15  20
ATOM     20  C   UNL     1      -4.235  12.168  -6.505  1.00  0.00     0.310 C 
ATOM     21  O   UNL     1      -3.830  12.071  -7.654  1.00  0.00    -0.252 OA
BRANCH  20  22
ATOM     22  O   UNL     1      -5.162  13.061  -6.064  1.00  0.00    -0.469 OA
ATOM     23  C   UNL     1      -5.677  13.972  -7.038  1.00  0.00     0.282 C 
ENDBRANCH  20  22
ENDBRANCH  15  20
ENDBRANCH  12  14
ENDBRANCH   7  12
ENDBRANCH   3   6
ENDBRANCH   1   2
BRANCH   1  24
ATOM     24  C   UNL     1       0.638  10.025  -1.157  1.00  0.00     0.023 C 
BRANCH  24  25
ATOM     25  C   UNL     1       1.531  11.234  -0.870  1.00  0.00     0.023 C 
BRANCH  25  26
ATOM     26  C   UNL     1       0.868  12.594  -1.074  1.00  0.00     0.116 C 
BRANCH  26  27
ATOM     27  N   UNL     1      -0.299  12.813  -0.230  1.00  0.00    -0.352 N 
ATOM     28  C   UNL     1      -0.704  14.004   0.329  1.00  0.00     0.251 C 
ATOM     29  H   UNL     1      -0.858  12.025  -0.038  1.00  0.00     0.163 HD
ATOM     30  O   UNL     1      -1.672  14.075   1.075  1.00  0.00    -0.269 OA
BRANCH  28  31
ATOM     31  C   UNL     1       0.101  15.200   0.026  1.00  0.00     0.039 A 
ATOM     32  C   UNL     1       0.841  15.794   1.050  1.00  0.00     0.014 A 
ATOM     33  C   UNL     1       0.245  15.606  -1.303  1.00  0.00     0.014 A 
ATOM     34  C   UNL     1       1.801  16.753   0.727  1.00  0.00     0.010 A 
ATOM     35  C   UNL     1       1.241  16.518  -1.626  1.00  0.00     0.010 A 
ATOM     36  C   UNL     1       2.040  17.085  -0.617  1.00  0.00    -0.014 A 
BRANCH  36  37
ATOM     37  C   UNL     1       3.130  18.010  -1.009  1.00  0.00     0.031 A 
ATOM     38  C   UNL     1       2.789  19.314  -1.667  1.00  0.00     0.074 A 
ATOM     39  C   UNL     1       4.415  17.631  -0.874  1.00  0.00     0.049 A 
ATOM     40  N   UNL     1       3.578  20.184  -2.241  1.00  0.00    -0.248 NA
ATOM     41  C   UNL     1       1.361  19.667  -1.718  1.00  0.00     0.031 C 
ATOM     42  C   UNL     1       4.873  16.370  -0.287  1.00  0.00     0.029 A 
ATOM     43  N   UNL     1       5.576  18.264  -1.247  1.00  0.00    -0.354 N 
ATOM     44  C   UNL     1       2.742  21.167  -2.752  1.00  0.00     0.074 A 
ATOM     45  C   UNL     1       1.384  20.771  -2.450  1.00  0.00     0.031 C 
ATOM     46  C   UNL     1       6.215  16.326  -0.331  1.00  0.00     0.029 A 
ATOM     47  C   UNL     1       6.710  17.535  -0.983  1.00  0.00     0.049 A 
ATOM     48  H   UNL     1       5.593  19.155  -1.663  1.00  0.00     0.167 HD
ATOM     49  C   UNL     1       3.081  22.305  -3.401  1.00  0.00     0.037 A 
ATOM     50  C   UNL     1       8.002  17.807  -1.252  1.00  0.00     0.037 A 
ATOM     51  C   UNL     1       4.434  22.719  -3.655  1.00  0.00     0.049 A 
ATOM     52  C   UNL     1       8.352  19.092  -1.951  1.00  0.00     0.074 A 
ATOM     53  C   UNL     1       4.882  23.889  -4.243  1.00  0.00     0.029 A 
ATOM     54  N   UNL     1       5.558  21.977  -3.327  1.00  0.00    -0.354 N 
ATOM     55  N   UNL     1       7.558  20.038  -2.387  1.00  0.00    -0.248 NA
ATOM     56  C   UNL     1       9.779  19.347  -2.196  1.00  0.00     0.031 C 
ATOM     57  C   UNL     1       6.279  23.842  -4.294  1.00  0.00     0.029 A 
ATOM     58  C   UNL     1       6.701  22.659  -3.709  1.00  0.00     0.049 A 
ATOM     59  H   UNL     1       5.546  21.096  -2.889  1.00  0.00     0.167 HD
ATOM     60  C   UNL     1       8.384  21.011  -2.931  1.00  0.00     0.074 A 
ATOM     61  C   UNL     1       9.745  20.544  -2.767  1.00  0.00     0.031 C 
ATOM     62  C   UNL     1       8.046  22.185  -3.516  1.00  0.00     0.037 A 
BRANCH  49  63
ATOM     63  C   UNL     1       1.964  23.185  -3.877  1.00  0.00     0.064 A 
ATOM     64  C   UNL     1       1.188  23.934  -2.981  1.00  0.00     0.173 A 
ATOM     65  C   UNL     1       1.681  23.294  -5.246  1.00  0.00     0.173 A 
ATOM     66  F   UNL     1       1.411  23.850  -1.661  1.00  0.00    -0.203 F 
ATOM     67  C   UNL     1       0.149  24.741  -3.437  1.00  0.00     0.198 A 
ATOM     68  C   UNL     1       0.658  24.123  -5.700  1.00  0.00     0.198 A 
ATOM     69  F   UNL     1       2.396  22.599  -6.143  1.00  0.00    -0.203 F 
ATOM     70  F   UNL     1      -0.611  25.410  -2.559  1.00  0.00    -0.200 F 
ATOM     71  C   UNL     1      -0.111  24.839  -4.795  1.00  0.00     0.200 A 
ATOM     72  F   UNL     1       0.413  24.223  -7.014  1.00  0.00    -0.200 F 
ATOM     73  F   UNL     1      -1.111  25.617  -5.232  1.00  0.00    -0.200 F 
ENDBRANCH  49  63
BRANCH  50  74
ATOM     74  C   UNL     1       9.063  16.852  -0.841  1.00  0.00     0.064 A 
ATOM     75  C   UNL     1       9.926  17.157   0.221  1.00  0.00     0.173 A 
ATOM     76  C   UNL     1       9.239  15.626  -1.496  1.00  0.00     0.173 A 
ATOM     77  F   UNL     1       9.808  18.328   0.863  1.00  0.00    -0.203 F 
ATOM     78  C   UNL     1      10.936  16.276   0.602  1.00  0.00     0.198 A 
ATOM     79  C   UNL     1      10.236  14.736  -1.100  1.00  0.00     0.198 A 
ATOM     80  F   UNL     1       8.436  15.287  -2.515  1.00  0.00    -0.203 F 
ATOM     81  F   UNL     1      11.771  16.608   1.595  1.00  0.00    -0.200 F 
ATOM     82  C   UNL     1      11.088  15.065  -0.056  1.00  0.00     0.200 A 
ATOM     83  F   UNL     1      10.372  13.561  -1.730  1.00  0.00    -0.200 F 
ATOM     84  F   UNL     1      12.058  14.217   0.312  1.00  0.00    -0.200 F 
ENDBRANCH  50  74
BRANCH  62  85
ATOM     85  C   UNL     1       9.161  23.070  -3.983  1.00  0.00     0.064 A 
ATOM     86  C   UNL     1       9.868  22.796  -5.162  1.00  0.00     0.173 A 
ATOM     87  C   UNL     1       9.477  24.241  -3.279  1.00  0.00     0.173 A 
ATOM     88  F   UNL     1       9.610  21.680  -5.859  1.00  0.00    -0.203 F 
ATOM     89  C   UNL     1      10.859  23.662  -5.615  1.00  0.00     0.198 A 
ATOM     90  C   UNL     1      10.453  25.115  -3.746  1.00  0.00     0.198 A 
ATOM     91  F   UNL     1       8.823  24.546  -2.147  1.00  0.00    -0.203 F 
ATOM     92  F   UNL     1      11.542  23.370  -6.731  1.00  0.00    -0.200 F 
ATOM     93  C   UNL     1      11.145  24.824  -4.913  1.00  0.00     0.200 A 
ATOM     94  F   UNL     1      10.721  26.242  -3.072  1.00  0.00    -0.200 F 
ATOM     95  F   UNL     1      12.090  25.663  -5.359  1.00  0.00    -0.200 F 
ENDBRANCH  62  85
ENDBRANCH  36  37
ENDBRANCH  28  31
ENDBRANCH  26  27
ENDBRANCH  25  26
ENDBRANCH  24  25
ENDBRANCH   1  24
TORSDOF 15
