REMARK SMILES CC(C)Cn1c([C@@H](O)[C@@H](O)C(=O)NCCCCNC(=O)c2ccc(-c3c4nc(c(-c5c(F)c(F)c(F)c(F)c5F)c5ccc([nH]5)c(-c5c(F)c(F)c(F)c(F)c5F)c5nc(c(-c6c(F)c(F)c(F)c(F)c6F)c6ccc3[nH]6)C=C5)C=C4)cc2)nc2cc(Cl)ccc21
REMARK SMILES IDX 14 1 13 2 11 3 12 4 9 6 7 7 6 8 5 9 91 10 84 11 85 12 90 13
REMARK SMILES IDX 86 14 89 15 87 16 88 17 4 18 2 19 1 20 3 21 8 22 10 24 15 26
REMARK SMILES IDX 16 27 17 28 18 29 19 30 20 32 21 33 22 34 83 35 23 36 82 37
REMARK SMILES IDX 24 38 25 39 26 40 76 41 27 42 81 43 75 44 77 45 28 46 80 47
REMARK SMILES IDX 74 48 73 49 29 51 61 52 41 53 60 54 42 55 45 56 59 57 78 58
REMARK SMILES IDX 43 59 44 60 58 62 79 63 46 64 30 65 31 66 39 67 32 68 33 69
REMARK SMILES IDX 37 70 40 71 34 72 35 73 38 74 36 75 62 76 63 77 71 78 64 79
REMARK SMILES IDX 65 80 69 81 72 82 66 83 67 84 70 85 68 86 47 87 48 88 56 89
REMARK SMILES IDX 49 90 50 91 54 92 57 93 51 94 52 95 55 96 53 97
REMARK H PARENT 13 5 8 23 10 25 18 31 77 50 45 61
REMARK Flexibility Score: inf
ROOT
ATOM      1  C   UNL     1       3.394  -0.458   1.510  1.00  0.00     0.116 C 
ENDROOT
BRANCH   1   2
ATOM      2  N   UNL     1       3.639  -1.823   1.915  1.00  0.00    -0.354 N 
ATOM      3  C   UNL     1       2.826  -2.914   1.785  1.00  0.00     0.252 C 
ATOM      4  O   UNL     1       3.305  -4.011   2.091  1.00  0.00    -0.272 OA
ATOM      5  H   UNL     1       4.511  -1.990   2.342  1.00  0.00     0.163 HD
BRANCH   3   6
ATOM      6  C   UNL     1       1.390  -2.795   1.232  1.00  0.00     0.239 C 
BRANCH   6   7
ATOM      7  C   UNL     1       0.428  -2.018   2.159  1.00  0.00     0.219 C 
BRANCH   7   8
ATOM      8  C   UNL     1      -0.941  -1.917   1.524  1.00  0.00     0.142 A 
ATOM      9  N   UNL     1      -1.637  -0.764   1.193  1.00  0.00    -0.325 N 
ATOM     10  C   UNL     1      -2.878  -1.156   0.709  1.00  0.00     0.068 A 
ATOM     11  N   UNL     1      -1.657  -2.992   1.238  1.00  0.00    -0.230 NA
ATOM     12  C   UNL     1      -2.844  -2.546   0.732  1.00  0.00     0.090 A 
ATOM     13  C   UNL     1      -4.012  -0.448   0.283  1.00  0.00     0.030 A 
ATOM     14  C   UNL     1      -3.952  -3.285   0.293  1.00  0.00     0.051 A 
ATOM     15  C   UNL     1      -5.118  -1.196  -0.137  1.00  0.00     0.023 A 
ATOM     16  C   UNL     1      -5.083  -2.590  -0.136  1.00  0.00     0.043 A 
ATOM     17  Cl  UNL     1      -6.467  -3.469  -0.665  1.00  0.00    -0.084 Cl
BRANCH   9  18
ATOM     18  C   UNL     1      -1.282   0.629   1.423  1.00  0.00     0.127 C 
BRANCH  18  19
ATOM     19  C   UNL     1       0.063   1.135   0.889  1.00  0.00     0.003 C 
ATOM     20  C   UNL     1       0.295   0.857  -0.594  1.00  0.00     0.009 C 
ATOM     21  C   UNL     1       0.243   2.627   1.177  1.00  0.00     0.009 C 
ENDBRANCH  18  19
ENDBRANCH   9  18
ENDBRANCH   7   8
BRANCH   7  22
ATOM     22  O   UNL     1       0.243  -2.700   3.408  1.00  0.00    -0.382 OA
ATOM     23  H   UNL     1      -0.152  -3.571   3.245  1.00  0.00     0.211 HD
ENDBRANCH   7  22
ENDBRANCH   6   7
BRANCH   6  24
ATOM     24  O   UNL     1       1.428  -2.225  -0.087  1.00  0.00    -0.380 OA
ATOM     25  H   UNL     1       1.792  -1.327  -0.041  1.00  0.00     0.211 HD
ENDBRANCH   6  24
ENDBRANCH   3   6
ENDBRANCH   1   2
BRANCH   1  26
ATOM     26  C   UNL     1       3.327   0.484   2.710  1.00  0.00     0.023 C 
BRANCH  26  27
ATOM     27  C   UNL     1       4.692   0.950   3.217  1.00  0.00     0.023 C 
BRANCH  27  28
ATOM     28  C   UNL     1       5.536   1.687   2.169  1.00  0.00     0.116 C 
BRANCH  28  29
ATOM     29  N   UNL     1       4.867   2.828   1.574  1.00  0.00    -0.352 N 
ATOM     30  C   UNL     1       4.780   4.155   1.892  1.00  0.00     0.251 C 
ATOM     31  H   UNL     1       4.364   2.596   0.760  1.00  0.00     0.163 HD
ATOM     32  O   UNL     1       4.236   4.884   1.056  1.00  0.00    -0.269 OA
BRANCH  30  33
ATOM     33  C   UNL     1       5.234   4.757   3.176  1.00  0.00     0.039 A 
ATOM     34  C   UNL     1       5.817   4.055   4.231  1.00  0.00     0.014 A 
ATOM     35  C   UNL     1       4.977   6.130   3.349  1.00  0.00     0.014 A 
ATOM     36  C   UNL     1       6.044   4.669   5.453  1.00  0.00     0.010 A 
ATOM     37  C   UNL     1       5.227   6.760   4.563  1.00  0.00     0.010 A 
ATOM     38  C   UNL     1       5.718   6.012   5.629  1.00  0.00    -0.014 A 
BRANCH  38  39
ATOM     39  C   UNL     1       5.985   6.591   6.941  1.00  0.00     0.031 A 
ATOM     40  C   UNL     1       7.418   6.616   7.359  1.00  0.00     0.074 A 
ATOM     41  C   UNL     1       5.018   7.151   7.692  1.00  0.00     0.049 A 
ATOM     42  N   UNL     1       7.955   6.167   8.450  1.00  0.00    -0.248 NA
ATOM     43  C   UNL     1       8.390   7.157   6.394  1.00  0.00     0.031 C 
ATOM     44  C   UNL     1       3.632   7.427   7.306  1.00  0.00     0.029 A 
ATOM     45  N   UNL     1       5.110   7.695   8.939  1.00  0.00    -0.354 N 
ATOM     46  C   UNL     1       9.309   6.493   8.375  1.00  0.00     0.074 A 
ATOM     47  C   UNL     1       9.539   7.014   7.053  1.00  0.00     0.031 C 
ATOM     48  C   UNL     1       3.086   8.279   8.200  1.00  0.00     0.029 A 
ATOM     49  C   UNL     1       4.036   8.504   9.275  1.00  0.00     0.049 A 
ATOM     50  H   UNL     1       5.868   7.529   9.543  1.00  0.00     0.167 HD
ATOM     51  C   UNL     1      10.126   6.479   9.463  1.00  0.00     0.037 A 
ATOM     52  C   UNL     1       3.974   9.365  10.318  1.00  0.00     0.037 A 
ATOM     53  C   UNL     1       9.598   5.680  10.529  1.00  0.00     0.049 A 
ATOM     54  C   UNL     1       4.995   8.947  11.308  1.00  0.00     0.074 A 
ATOM     55  C   UNL     1       9.364   4.335  10.720  1.00  0.00     0.029 A 
ATOM     56  N   UNL     1       8.951   6.327  11.548  1.00  0.00    -0.354 N 
ATOM     57  N   UNL     1       4.938   7.850  12.010  1.00  0.00    -0.248 NA
ATOM     58  C   UNL     1       6.294   9.603  11.281  1.00  0.00     0.031 C 
ATOM     59  C   UNL     1       8.238   4.269  11.591  1.00  0.00     0.029 A 
ATOM     60  C   UNL     1       7.858   5.578  11.891  1.00  0.00     0.049 A 
ATOM     61  H   UNL     1       9.224   7.179  11.960  1.00  0.00     0.167 HD
ATOM     62  C   UNL     1       6.259   7.464  12.167  1.00  0.00     0.074 A 
ATOM     63  C   UNL     1       7.043   8.643  11.826  1.00  0.00     0.031 C 
ATOM     64  C   UNL     1       6.591   6.147  12.289  1.00  0.00     0.037 A 
BRANCH  51  65
ATOM     65  C   UNL     1      11.256   7.453   9.678  1.00  0.00     0.064 A 
ATOM     66  C   UNL     1      12.192   7.231  10.708  1.00  0.00     0.173 A 
ATOM     67  C   UNL     1      11.272   8.742   9.104  1.00  0.00     0.173 A 
ATOM     68  F   UNL     1      12.236   6.053  11.348  1.00  0.00    -0.203 F 
ATOM     69  C   UNL     1      13.044   8.243  11.159  1.00  0.00     0.198 A 
ATOM     70  C   UNL     1      12.159   9.733   9.521  1.00  0.00     0.198 A 
ATOM     71  F   UNL     1      10.361   9.123   8.199  1.00  0.00    -0.203 F 
ATOM     72  F   UNL     1      13.840   8.023  12.215  1.00  0.00    -0.200 F 
ATOM     73  C   UNL     1      13.026   9.493  10.567  1.00  0.00     0.200 A 
ATOM     74  F   UNL     1      12.109  10.945   8.951  1.00  0.00    -0.200 F 
ATOM     75  F   UNL     1      13.803  10.479  11.033  1.00  0.00    -0.200 F 
ENDBRANCH  51  65
BRANCH  52  76
ATOM     76  C   UNL     1       3.310  10.690  10.366  1.00  0.00     0.064 A 
ATOM     77  C   UNL     1       3.107  11.349  11.589  1.00  0.00     0.173 A 
ATOM     78  C   UNL     1       3.107  11.458   9.202  1.00  0.00     0.173 A 
ATOM     79  F   UNL     1       3.321  10.706  12.746  1.00  0.00    -0.203 F 
ATOM     80  C   UNL     1       2.755  12.702  11.644  1.00  0.00     0.198 A 
ATOM     81  C   UNL     1       2.741  12.803   9.258  1.00  0.00     0.198 A 
ATOM     82  F   UNL     1       3.353  10.951   7.986  1.00  0.00    -0.203 F 
ATOM     83  F   UNL     1       2.641  13.315  12.831  1.00  0.00    -0.200 F 
ATOM     84  C   UNL     1       2.581  13.429  10.478  1.00  0.00     0.200 A 
ATOM     85  F   UNL     1       2.608  13.502   8.121  1.00  0.00    -0.200 F 
ATOM     86  F   UNL     1       2.304  14.739  10.530  1.00  0.00    -0.200 F 
ENDBRANCH  52  76
BRANCH  64  87
ATOM     87  C   UNL     1       5.487   5.176  12.592  1.00  0.00     0.064 A 
ATOM     88  C   UNL     1       4.440   4.885  11.702  1.00  0.00     0.173 A 
ATOM     89  C   UNL     1       5.583   4.401  13.755  1.00  0.00     0.173 A 
ATOM     90  F   UNL     1       4.341   5.516  10.525  1.00  0.00    -0.203 F 
ATOM     91  C   UNL     1       3.511   3.885  11.984  1.00  0.00     0.198 A 
ATOM     92  C   UNL     1       4.676   3.378  14.017  1.00  0.00     0.198 A 
ATOM     93  F   UNL     1       6.598   4.597  14.613  1.00  0.00    -0.203 F 
ATOM     94  F   UNL     1       2.518   3.628  11.121  1.00  0.00    -0.200 F 
ATOM     95  C   UNL     1       3.637   3.126  13.136  1.00  0.00     0.200 A 
ATOM     96  F   UNL     1       4.831   2.612  15.105  1.00  0.00    -0.200 F 
ATOM     97  F   UNL     1       2.774   2.130  13.382  1.00  0.00    -0.200 F 
ENDBRANCH  64  87
ENDBRANCH  38  39
ENDBRANCH  30  33
ENDBRANCH  28  29
ENDBRANCH  27  28
ENDBRANCH  26  27
ENDBRANCH   1  26
TORSDOF 17
