REMARK SMILES O=C(NCCCCNC(=O)c1ccc(Nc2c([N+](=O)[O-])c(=O)oc3ccccc23)cc1O)c1ccc(-c2c3nc(c(-c4c(F)c(F)c(F)c(F)c4F)c4ccc([nH]4)c(-c4c(F)c(F)c(F)c(F)c4F)c4nc(c(-c5c(F)c(F)c(F)c(F)c5F)c5ccc2[nH]5)C=C4)C=C3)cc1
REMARK SMILES IDX 6 1 5 2 4 3 3 4 1 5 2 6 33 8 34 9 95 10 35 11 94 12 36 13
REMARK SMILES IDX 37 14 38 15 88 16 39 17 93 18 87 19 89 20 40 21 92 22 86 23
REMARK SMILES IDX 85 24 41 26 73 27 53 28 72 29 54 30 57 31 71 32 90 33 55 34
REMARK SMILES IDX 56 35 70 37 91 38 58 39 42 40 43 41 51 42 44 43 45 44 49 45
REMARK SMILES IDX 52 46 46 47 47 48 50 49 48 50 74 51 75 52 83 53 76 54 77 55
REMARK SMILES IDX 81 56 84 57 78 58 79 59 82 60 80 61 59 62 60 63 68 64 61 65
REMARK SMILES IDX 62 66 66 67 69 68 63 69 64 70 67 71 65 72 7 73 8 74 9 75
REMARK SMILES IDX 10 77 11 78 12 79 31 80 13 81 30 82 14 83 32 84 15 86 16 88
REMARK SMILES IDX 17 89 29 90 21 91 24 92 28 93 22 94 23 95 25 96 27 97 26 98
REMARK SMILES IDX 18 99 19 100 20 101
REMARK H PARENT 3 7 89 25 57 36 8 76 32 85 15 87
REMARK Flexibility Score: inf
ROOT
ATOM      1  C   UNL     1       4.382   3.849  -0.639  1.00  0.00     0.023 C 
ENDROOT
BRANCH   1   2
ATOM      2  C   UNL     1       4.834   2.437  -0.993  1.00  0.00     0.023 C 
BRANCH   2   3
ATOM      3  C   UNL     1       4.479   1.375   0.035  1.00  0.00     0.116 C 
BRANCH   3   4
ATOM      4  N   UNL     1       3.044   1.182   0.184  1.00  0.00    -0.352 N 
ATOM      5  O   UNL     1       1.073   0.084   0.032  1.00  0.00    -0.269 OA
ATOM      6  C   UNL     1       2.298   0.042  -0.004  1.00  0.00     0.251 C 
ATOM      7  H   UNL     1       2.536   1.980   0.459  1.00  0.00     0.163 HD
BRANCH   6   8
ATOM      8  C   UNL     1       2.987  -1.236  -0.276  1.00  0.00     0.039 A 
ATOM      9  C   UNL     1       4.095  -1.614   0.484  1.00  0.00     0.014 A 
ATOM     10  C   UNL     1       2.535  -2.055  -1.315  1.00  0.00     0.014 A 
ATOM     11  C   UNL     1       4.846  -2.717   0.105  1.00  0.00     0.010 A 
ATOM     12  C   UNL     1       3.231  -3.226  -1.626  1.00  0.00     0.010 A 
ATOM     13  C   UNL     1       4.409  -3.553  -0.936  1.00  0.00    -0.014 A 
BRANCH  13  14
ATOM     14  C   UNL     1       5.152  -4.809  -1.208  1.00  0.00     0.031 A 
ATOM     15  C   UNL     1       5.835  -5.051  -2.524  1.00  0.00     0.074 A 
ATOM     16  C   UNL     1       5.223  -5.728  -0.225  1.00  0.00     0.049 A 
ATOM     17  N   UNL     1       6.526  -6.095  -2.912  1.00  0.00    -0.248 NA
ATOM     18  C   UNL     1       5.727  -3.995  -3.542  1.00  0.00     0.031 C 
ATOM     19  C   UNL     1       4.588  -5.603   1.090  1.00  0.00     0.029 A 
ATOM     20  N   UNL     1       5.867  -6.937  -0.166  1.00  0.00    -0.354 N 
ATOM     21  C   UNL     1       6.918  -5.831  -4.217  1.00  0.00     0.074 A 
ATOM     22  C   UNL     1       6.371  -4.538  -4.568  1.00  0.00     0.031 C 
ATOM     23  C   UNL     1       4.909  -6.666   1.839  1.00  0.00     0.029 A 
ATOM     24  C   UNL     1       5.705  -7.584   1.035  1.00  0.00     0.049 A 
ATOM     25  H   UNL     1       6.393  -7.306  -0.911  1.00  0.00     0.167 HD
ATOM     26  C   UNL     1       7.672  -6.601  -5.040  1.00  0.00     0.037 A 
ATOM     27  C   UNL     1       6.123  -8.797   1.438  1.00  0.00     0.037 A 
ATOM     28  C   UNL     1       8.225  -7.882  -4.673  1.00  0.00     0.049 A 
ATOM     29  C   UNL     1       6.925  -9.638   0.486  1.00  0.00     0.074 A 
ATOM     30  C   UNL     1       9.038  -8.715  -5.422  1.00  0.00     0.029 A 
ATOM     31  N   UNL     1       8.015  -8.518  -3.458  1.00  0.00    -0.354 N 
ATOM     32  N   UNL     1       7.328  -9.356  -0.728  1.00  0.00    -0.248 NA
ATOM     33  C   UNL     1       7.327 -10.968   0.961  1.00  0.00     0.031 C 
ATOM     34  C   UNL     1       9.269  -9.881  -4.686  1.00  0.00     0.029 A 
ATOM     35  C   UNL     1       8.656  -9.748  -3.451  1.00  0.00     0.049 A 
ATOM     36  H   UNL     1       7.489  -8.151  -2.711  1.00  0.00     0.167 HD
ATOM     37  C   UNL     1       8.050 -10.461  -1.155  1.00  0.00     0.074 A 
ATOM     38  C   UNL     1       8.051 -11.407  -0.058  1.00  0.00     0.031 C 
ATOM     39  C   UNL     1       8.653 -10.676  -2.349  1.00  0.00     0.037 A 
BRANCH  26  40
ATOM     40  C   UNL     1       7.939  -6.102  -6.432  1.00  0.00     0.064 A 
ATOM     41  C   UNL     1       8.813  -5.034  -6.680  1.00  0.00     0.173 A 
ATOM     42  C   UNL     1       7.383  -6.764  -7.539  1.00  0.00     0.173 A 
ATOM     43  F   UNL     1       9.367  -4.363  -5.659  1.00  0.00    -0.203 F 
ATOM     44  C   UNL     1       9.111  -4.640  -7.983  1.00  0.00     0.198 A 
ATOM     45  C   UNL     1       7.706  -6.386  -8.840  1.00  0.00     0.198 A 
ATOM     46  F   UNL     1       6.548  -7.799  -7.359  1.00  0.00    -0.203 F 
ATOM     47  F   UNL     1       9.928  -3.599  -8.196  1.00  0.00    -0.200 F 
ATOM     48  C   UNL     1       8.567  -5.322  -9.061  1.00  0.00     0.200 A 
ATOM     49  F   UNL     1       7.192  -7.059  -9.879  1.00  0.00    -0.200 F 
ATOM     50  F   UNL     1       8.873  -4.955 -10.313  1.00  0.00    -0.200 F 
ENDBRANCH  26  40
BRANCH  27  51
ATOM     51  C   UNL     1       5.767  -9.296   2.792  1.00  0.00     0.064 A 
ATOM     52  C   UNL     1       6.751  -9.529   3.761  1.00  0.00     0.173 A 
ATOM     53  C   UNL     1       4.434  -9.569   3.137  1.00  0.00     0.173 A 
ATOM     54  F   UNL     1       8.041  -9.300   3.475  1.00  0.00    -0.203 F 
ATOM     55  C   UNL     1       6.420 -10.046   5.012  1.00  0.00     0.198 A 
ATOM     56  C   UNL     1       4.100 -10.049   4.401  1.00  0.00     0.198 A 
ATOM     57  F   UNL     1       3.451  -9.357   2.249  1.00  0.00    -0.203 F 
ATOM     58  F   UNL     1       7.387 -10.318   5.899  1.00  0.00    -0.200 F 
ATOM     59  C   UNL     1       5.094 -10.300   5.333  1.00  0.00     0.200 A 
ATOM     60  F   UNL     1       2.816 -10.272   4.712  1.00  0.00    -0.200 F 
ATOM     61  F   UNL     1       4.777 -10.797   6.536  1.00  0.00    -0.200 F 
ENDBRANCH  27  51
BRANCH  39  62
ATOM     62  C   UNL     1       9.396 -11.970  -2.515  1.00  0.00     0.064 A 
ATOM     63  C   UNL     1       8.727 -13.199  -2.605  1.00  0.00     0.173 A 
ATOM     64  C   UNL     1      10.797 -11.976  -2.604  1.00  0.00     0.173 A 
ATOM     65  F   UNL     1       7.390 -13.249  -2.507  1.00  0.00    -0.203 F 
ATOM     66  C   UNL     1       9.434 -14.390  -2.745  1.00  0.00     0.198 A 
ATOM     67  C   UNL     1      11.498 -13.165  -2.780  1.00  0.00     0.198 A 
ATOM     68  F   UNL     1      11.485 -10.827  -2.529  1.00  0.00    -0.203 F 
ATOM     69  F   UNL     1       8.777 -15.558  -2.768  1.00  0.00    -0.200 F 
ATOM     70  C   UNL     1      10.818 -14.372  -2.840  1.00  0.00     0.200 A 
ATOM     71  F   UNL     1      12.834 -13.143  -2.887  1.00  0.00    -0.200 F 
ATOM     72  F   UNL     1      11.496 -15.519  -2.980  1.00  0.00    -0.200 F 
ENDBRANCH  39  62
ENDBRANCH  13  14
ENDBRANCH   6   8
ENDBRANCH   3   4
ENDBRANCH   2   3
ENDBRANCH   1   2
BRANCH   1  73
ATOM     73  C   UNL     1       4.784   4.327   0.751  1.00  0.00     0.116 C 
BRANCH  73  74
ATOM     74  N   UNL     1       6.218   4.274   0.981  1.00  0.00    -0.352 N 
ATOM     75  C   UNL     1       7.029   5.242   1.521  1.00  0.00     0.255 C 
ATOM     76  H   UNL     1       6.665   3.438   0.716  1.00  0.00     0.163 HD
ATOM     77  O   UNL     1       8.240   5.057   1.613  1.00  0.00    -0.269 OA
BRANCH  75  78
ATOM     78  C   UNL     1       6.457   6.549   1.894  1.00  0.00     0.081 A 
ATOM     79  C   UNL     1       6.975   7.669   1.245  1.00  0.00     0.020 A 
ATOM     80  C   UNL     1       5.415   6.698   2.814  1.00  0.00     0.130 A 
ATOM     81  C   UNL     1       6.402   8.922   1.461  1.00  0.00     0.027 A 
ATOM     82  C   UNL     1       4.828   7.951   3.009  1.00  0.00     0.073 A 
ATOM     83  C   UNL     1       5.305   9.077   2.322  1.00  0.00     0.042 A 
BRANCH  80  84
ATOM     84  O   UNL     1       4.941   5.615   3.502  1.00  0.00    -0.507 OA
ATOM     85  H   UNL     1       5.331   4.772   3.375  1.00  0.00     0.293 HD
ENDBRANCH  80  84
BRANCH  83  86
ATOM     86  N   UNL     1       4.622  10.301   2.464  1.00  0.00    -0.349 N 
ATOM     87  H   UNL     1       3.891  10.329   3.122  1.00  0.00     0.167 HD
BRANCH  86  88
ATOM     88  C   UNL     1       4.881  11.469   1.765  1.00  0.00     0.137 A 
ATOM     89  C   UNL     1       4.719  11.696   0.448  1.00  0.00     0.377 A 
ATOM     90  C   UNL     1       5.465  12.583   2.545  1.00  0.00     0.048 A 
ATOM     91  C   UNL     1       5.105  12.906  -0.275  1.00  0.00     0.417 A 
ATOM     92  C   UNL     1       5.976  13.691   1.865  1.00  0.00     0.141 A 
ATOM     93  C   UNL     1       5.587  12.570   3.944  1.00  0.00     0.014 A 
ATOM     94  O   UNL     1       4.830  13.128  -1.443  1.00  0.00    -0.238 OA
ATOM     95  O   UNL     1       5.843  13.822   0.470  1.00  0.00    -0.418 OA
ATOM     96  C   UNL     1       6.623  14.736   2.523  1.00  0.00     0.048 A 
ATOM     97  C   UNL     1       6.211  13.624   4.620  1.00  0.00     0.001 A 
ATOM     98  C   UNL     1       6.740  14.699   3.909  1.00  0.00     0.004 A 
BRANCH  89  99
ATOM     99  N   UNL     1       4.094  10.678  -0.343  1.00  0.00     0.073 N 
ATOM    100  O   UNL     1       2.908  10.412  -0.096  1.00  0.00    -0.258 OA
ATOM    101  O   UNL     1       4.789  10.128  -1.208  1.00  0.00    -0.258 OA
ENDBRANCH  89  99
ENDBRANCH  86  88
ENDBRANCH  83  86
ENDBRANCH  75  78
ENDBRANCH  73  74
ENDBRANCH   1  73
TORSDOF 15
