REMARK SMILES Cc1cc(CC(=O)C(=O)NCCCCNC(=O)c2ccc(-c3c4nc(c(-c5c(F)c(F)c(F)c(F)c5F)c5ccc([nH]5)c(-c5c(F)c(F)c(F)c(F)c5F)c5nc(c(-c6c(F)c(F)c(F)c(F)c6F)c6ccc3[nH]6)C=C5)C=C4)cc2)cc2cn[nH]c12
REMARK SMILES IDX 12 1 11 2 10 3 8 4 9 5 6 7 7 8 5 9 4 10 1 11 2 12 3 13 86 14
REMARK SMILES IDX 82 15 85 16 81 17 83 18 84 19 13 21 14 22 15 23 16 24 17 26
REMARK SMILES IDX 18 27 19 28 80 29 20 30 79 31 21 32 22 33 23 34 73 35 24 36
REMARK SMILES IDX 78 37 72 38 74 39 25 40 77 41 71 42 70 43 26 45 58 46 38 47
REMARK SMILES IDX 57 48 39 49 42 50 56 51 75 52 40 53 41 54 55 56 76 57 43 58
REMARK SMILES IDX 27 59 28 60 36 61 29 62 30 63 34 64 37 65 31 66 32 67 35 68
REMARK SMILES IDX 33 69 59 70 60 71 68 72 61 73 62 74 66 75 69 76 63 77 64 78
REMARK SMILES IDX 67 79 65 80 44 81 45 82 53 83 46 84 47 85 51 86 54 87 48 88
REMARK SMILES IDX 49 89 52 90 50 91
REMARK H PARENT 10 6 85 20 15 25 74 44 42 55
REMARK Flexibility Score: inf
ROOT
ATOM      1  C   UNL     1      -2.487   8.678  -1.319  1.00  0.00     0.023 C 
ENDROOT
BRANCH   1   2
ATOM      2  C   UNL     1      -2.556   7.564  -0.269  1.00  0.00     0.116 C 
BRANCH   2   3
ATOM      3  N   UNL     1      -2.240   6.267  -0.842  1.00  0.00    -0.349 N 
ATOM      4  C   UNL     1      -1.095   5.506  -0.760  1.00  0.00     0.287 C 
ATOM      5  O   UNL     1      -1.000   4.492  -1.444  1.00  0.00    -0.266 OA
ATOM      6  H   UNL     1      -2.962   5.866  -1.377  1.00  0.00     0.163 HD
BRANCH   4   7
ATOM      7  C   UNL     1       0.070   5.898   0.165  1.00  0.00     0.224 C 
ATOM      8  O   UNL     1       0.171   7.030   0.625  1.00  0.00    -0.288 OA
BRANCH   7   9
ATOM      9  C   UNL     1       1.136   4.849   0.386  1.00  0.00     0.122 C 
BRANCH   9  10
ATOM     10  C   UNL     1       0.653   3.547   0.981  1.00  0.00    -0.039 A 
ATOM     11  C   UNL     1       0.933  -0.167   0.101  1.00  0.00     0.047 C 
ATOM     12  C   UNL     1       0.561   1.083   0.843  1.00  0.00    -0.025 A 
ATOM     13  C   UNL     1       0.960   2.337   0.338  1.00  0.00     0.009 A 
ATOM     14  C   UNL     1      -0.171   1.114   2.039  1.00  0.00     0.068 A 
ATOM     15  C   UNL     1      -0.484   2.289   2.714  1.00  0.00     0.020 A 
ATOM     16  N   UNL     1      -0.721   0.113   2.799  1.00  0.00    -0.278 N 
ATOM     17  C   UNL     1      -0.061   3.525   2.191  1.00  0.00     0.016 A 
ATOM     18  C   UNL     1      -1.208   1.865   3.851  1.00  0.00     0.143 A 
ATOM     19  N   UNL     1      -1.359   0.539   3.904  1.00  0.00    -0.183 NA
ATOM     20  H   UNL     1      -0.654  -0.839   2.556  1.00  0.00     0.190 HD
ENDBRANCH   9  10
ENDBRANCH   7   9
ENDBRANCH   4   7
ENDBRANCH   2   3
ENDBRANCH   1   2
BRANCH   1  21
ATOM     21  C   UNL     1      -3.529   8.587  -2.449  1.00  0.00     0.023 C 
BRANCH  21  22
ATOM     22  C   UNL     1      -4.981   8.614  -1.982  1.00  0.00     0.116 C 
BRANCH  22  23
ATOM     23  N   UNL     1      -5.323   9.854  -1.300  1.00  0.00    -0.352 N 
ATOM     24  C   UNL     1      -6.528  10.232  -0.749  1.00  0.00     0.251 C 
ATOM     25  H   UNL     1      -4.595  10.511  -1.222  1.00  0.00     0.163 HD
ATOM     26  O   UNL     1      -6.774  11.416  -0.568  1.00  0.00    -0.269 OA
BRANCH  24  27
ATOM     27  C   UNL     1      -7.525   9.210  -0.374  1.00  0.00     0.039 A 
ATOM     28  C   UNL     1      -8.887   9.489  -0.526  1.00  0.00     0.014 A 
ATOM     29  C   UNL     1      -7.112   7.999   0.186  1.00  0.00     0.014 A 
ATOM     30  C   UNL     1      -9.821   8.522  -0.171  1.00  0.00     0.010 A 
ATOM     31  C   UNL     1      -8.030   7.005   0.457  1.00  0.00     0.010 A 
ATOM     32  C   UNL     1      -9.384   7.275   0.304  1.00  0.00    -0.014 A 
BRANCH  32  33
ATOM     33  C   UNL     1     -10.356   6.203   0.486  1.00  0.00     0.031 A 
ATOM     34  C   UNL     1     -11.067   5.848  -0.767  1.00  0.00     0.074 A 
ATOM     35  C   UNL     1     -10.496   5.473   1.612  1.00  0.00     0.049 A 
ATOM     36  N   UNL     1     -12.286   6.137  -1.075  1.00  0.00    -0.248 NA
ATOM     37  C   UNL     1     -10.304   5.243  -1.872  1.00  0.00     0.031 C 
ATOM     38  C   UNL     1      -9.623   5.482   2.789  1.00  0.00     0.029 A 
ATOM     39  N   UNL     1     -11.400   4.491   1.912  1.00  0.00    -0.354 N 
ATOM     40  C   UNL     1     -12.520   5.523  -2.302  1.00  0.00     0.074 A 
ATOM     41  C   UNL     1     -11.229   5.186  -2.836  1.00  0.00     0.031 C 
ATOM     42  C   UNL     1      -9.894   4.406   3.561  1.00  0.00     0.029 A 
ATOM     43  C   UNL     1     -11.066   3.733   3.030  1.00  0.00     0.049 A 
ATOM     44  H   UNL     1     -12.215   4.335   1.382  1.00  0.00     0.167 HD
ATOM     45  C   UNL     1     -13.764   5.047  -2.585  1.00  0.00     0.037 A 
ATOM     46  C   UNL     1     -11.702   2.622   3.478  1.00  0.00     0.037 A 
ATOM     47  C   UNL     1     -14.719   5.547  -1.628  1.00  0.00     0.049 A 
ATOM     48  C   UNL     1     -13.089   2.667   2.963  1.00  0.00     0.074 A 
ATOM     49  C   UNL     1     -15.399   6.718  -1.386  1.00  0.00     0.029 A 
ATOM     50  N   UNL     1     -14.759   4.804  -0.482  1.00  0.00    -0.354 N 
ATOM     51  N   UNL     1     -13.968   3.559   3.332  1.00  0.00    -0.248 NA
ATOM     52  C   UNL     1     -13.433   1.902   1.768  1.00  0.00     0.031 C 
ATOM     53  C   UNL     1     -15.776   6.684  -0.009  1.00  0.00     0.029 A 
ATOM     54  C   UNL     1     -15.352   5.479   0.544  1.00  0.00     0.049 A 
ATOM     55  H   UNL     1     -14.403   3.889  -0.406  1.00  0.00     0.167 HD
ATOM     56  C   UNL     1     -14.735   3.758   2.205  1.00  0.00     0.074 A 
ATOM     57  C   UNL     1     -14.489   2.603   1.352  1.00  0.00     0.031 C 
ATOM     58  C   UNL     1     -15.209   4.997   1.898  1.00  0.00     0.037 A 
BRANCH  45  59
ATOM     59  C   UNL     1     -14.066   3.750  -3.315  1.00  0.00     0.064 A 
ATOM     60  C   UNL     1     -15.419   3.412  -3.549  1.00  0.00     0.173 A 
ATOM     61  C   UNL     1     -13.147   2.692  -3.472  1.00  0.00     0.173 A 
ATOM     62  F   UNL     1     -16.387   4.330  -3.413  1.00  0.00    -0.203 F 
ATOM     63  C   UNL     1     -15.820   2.102  -3.831  1.00  0.00     0.198 A 
ATOM     64  C   UNL     1     -13.547   1.397  -3.803  1.00  0.00     0.198 A 
ATOM     65  F   UNL     1     -11.846   2.826  -3.198  1.00  0.00    -0.203 F 
ATOM     66  F   UNL     1     -17.125   1.807  -3.916  1.00  0.00    -0.200 F 
ATOM     67  C   UNL     1     -14.883   1.094  -3.951  1.00  0.00     0.200 A 
ATOM     68  F   UNL     1     -12.625   0.426  -3.888  1.00  0.00    -0.200 F 
ATOM     69  F   UNL     1     -15.266  -0.172  -4.161  1.00  0.00    -0.200 F 
ENDBRANCH  45  59
BRANCH  46  70
ATOM     70  C   UNL     1     -11.143   1.404   4.116  1.00  0.00     0.064 A 
ATOM     71  C   UNL     1     -11.990   0.457   4.720  1.00  0.00     0.173 A 
ATOM     72  C   UNL     1      -9.821   0.989   3.869  1.00  0.00     0.173 A 
ATOM     73  F   UNL     1     -13.274   0.758   4.967  1.00  0.00    -0.203 F 
ATOM     74  C   UNL     1     -11.560  -0.845   4.998  1.00  0.00     0.198 A 
ATOM     75  C   UNL     1      -9.391  -0.310   4.154  1.00  0.00     0.198 A 
ATOM     76  F   UNL     1      -8.951   1.799   3.251  1.00  0.00    -0.203 F 
ATOM     77  F   UNL     1     -12.425  -1.743   5.492  1.00  0.00    -0.200 F 
ATOM     78  C   UNL     1     -10.266  -1.232   4.698  1.00  0.00     0.200 A 
ATOM     79  F   UNL     1      -8.145  -0.683   3.829  1.00  0.00    -0.200 F 
ATOM     80  F   UNL     1      -9.877  -2.501   4.887  1.00  0.00    -0.200 F 
ENDBRANCH  46  70
BRANCH  58  81
ATOM     81  C   UNL     1     -15.437   5.969   3.005  1.00  0.00     0.064 A 
ATOM     82  C   UNL     1     -14.422   6.593   3.743  1.00  0.00     0.173 A 
ATOM     83  C   UNL     1     -16.758   6.388   3.218  1.00  0.00     0.173 A 
ATOM     84  F   UNL     1     -13.134   6.280   3.549  1.00  0.00    -0.203 F 
ATOM     85  C   UNL     1     -14.726   7.602   4.657  1.00  0.00     0.198 A 
ATOM     86  C   UNL     1     -17.054   7.417   4.102  1.00  0.00     0.198 A 
ATOM     87  F   UNL     1     -17.759   5.835   2.514  1.00  0.00    -0.203 F 
ATOM     88  F   UNL     1     -13.746   8.197   5.352  1.00  0.00    -0.200 F 
ATOM     89  C   UNL     1     -16.038   8.023   4.822  1.00  0.00     0.200 A 
ATOM     90  F   UNL     1     -18.318   7.844   4.226  1.00  0.00    -0.200 F 
ATOM     91  F   UNL     1     -16.323   9.032   5.657  1.00  0.00    -0.200 F 
ENDBRANCH  58  81
ENDBRANCH  32  33
ENDBRANCH  24  27
ENDBRANCH  22  23
ENDBRANCH  21  22
ENDBRANCH   1  21
TORSDOF 13
