REMARK SMILES CC[C@@H](C(=O)NCCCCNC(=O)c1ccc(-c2c3nc(c(-c4c(F)c(F)c(F)c(F)c4F)c4ccc([nH]4)c(-c4c(F)c(F)c(F)c(F)c4F)c4nc(c(-c5c(F)c(F)c(F)c(F)c5F)c5ccc2[nH]5)C=C4)C=C3)cc1)N1C(=O)/C(=C/c2ccccc2[N+](=O)[O-])SC1=S
REMARK SMILES IDX 8 1 7 2 6 3 4 4 5 5 3 7 2 8 1 9 77 10 78 11 92 12 79 13
REMARK SMILES IDX 80 14 91 15 93 16 81 17 82 18 83 19 87 20 84 21 86 22 85 23
REMARK SMILES IDX 88 24 89 25 90 26 9 27 10 28 11 29 12 30 13 32 14 33 15 34
REMARK SMILES IDX 76 35 16 36 75 37 17 38 18 39 19 40 69 41 20 42 74 43 68 44
REMARK SMILES IDX 70 45 21 46 73 47 67 48 66 49 22 51 54 52 34 53 53 54 35 55
REMARK SMILES IDX 38 56 52 57 71 58 36 59 37 60 51 62 72 63 39 64 23 65 24 66
REMARK SMILES IDX 32 67 25 68 26 69 30 70 33 71 27 72 28 73 31 74 29 75 55 76
REMARK SMILES IDX 56 77 64 78 57 79 58 80 62 81 65 82 59 83 60 84 63 85 61 86
REMARK SMILES IDX 40 87 41 88 49 89 42 90 43 91 47 92 50 93 44 94 45 95 48 96
REMARK SMILES IDX 46 97
REMARK H PARENT 6 6 11 31 70 50 38 61
REMARK Flexibility Score: inf
ROOT
ATOM      1  C   UNL     1       1.084  -1.435   1.688  1.00  0.00     0.023 C 
ENDROOT
BRANCH   1   2
ATOM      2  C   UNL     1       1.612  -1.965   0.349  1.00  0.00     0.116 C 
BRANCH   2   3
ATOM      3  N   UNL     1       0.498  -2.310  -0.514  1.00  0.00    -0.354 N 
ATOM      4  C   UNL     1      -0.084  -1.595  -1.525  1.00  0.00     0.243 C 
ATOM      5  O   UNL     1      -1.244  -1.891  -1.829  1.00  0.00    -0.273 OA
ATOM      6  H   UNL     1       0.099  -3.194  -0.346  1.00  0.00     0.163 HD
BRANCH   4   7
ATOM      7  C   UNL     1       0.683  -0.455  -2.256  1.00  0.00     0.181 C 
BRANCH   7   8
ATOM      8  C   UNL     1       0.209   0.894  -1.653  1.00  0.00     0.032 C 
ATOM      9  C   UNL     1       0.451   1.170  -0.186  1.00  0.00     0.006 C 
ENDBRANCH   7   8
BRANCH   7  10
ATOM     10  N   UNL     1       0.332  -0.533  -3.720  1.00  0.00    -0.280 N 
ATOM     11  C   UNL     1       0.251  -1.773  -4.351  1.00  0.00     0.266 C 
ATOM     12  C   UNL     1       0.376   0.498  -4.635  1.00  0.00     0.149 C 
ATOM     13  O   UNL     1       0.658  -2.841  -3.914  1.00  0.00    -0.268 OA
ATOM     14  C   UNL     1      -0.294  -1.612  -5.735  1.00  0.00     0.081 C 
ATOM     15  S   UNL     1      -0.577   0.055  -6.037  1.00  0.00    -0.054 SA
ATOM     16  S   UNL     1       1.240   1.924  -4.640  1.00  0.00    -0.052 S 
ATOM     17  C   UNL     1      -0.447  -2.603  -6.627  1.00  0.00     0.036 C 
BRANCH  17  18
ATOM     18  C   UNL     1      -0.862  -2.364  -8.024  1.00  0.00     0.054 A 
ATOM     19  C   UNL     1      -2.178  -2.705  -8.375  1.00  0.00     0.015 A 
ATOM     20  C   UNL     1      -0.068  -1.716  -8.996  1.00  0.00     0.276 A 
ATOM     21  C   UNL     1      -2.690  -2.386  -9.639  1.00  0.00     0.001 A 
ATOM     22  C   UNL     1      -0.585  -1.386 -10.260  1.00  0.00     0.086 A 
ATOM     23  C   UNL     1      -1.899  -1.721 -10.575  1.00  0.00     0.007 A 
BRANCH  20  24
ATOM     24  N   UNL     1       1.317  -1.330  -8.717  1.00  0.00     0.063 N 
ATOM     25  O   UNL     1       1.719  -0.264  -9.204  1.00  0.00    -0.258 OA
ATOM     26  O   UNL     1       2.008  -2.097  -8.033  1.00  0.00    -0.258 OA
ENDBRANCH  20  24
ENDBRANCH  17  18
ENDBRANCH   7  10
ENDBRANCH   4   7
ENDBRANCH   2   3
ENDBRANCH   1   2
BRANCH   1  27
ATOM     27  C   UNL     1       0.624  -2.500   2.674  1.00  0.00     0.023 C 
BRANCH  27  28
ATOM     28  C   UNL     1       1.753  -3.300   3.293  1.00  0.00     0.116 C 
BRANCH  28  29
ATOM     29  N   UNL     1       2.681  -2.480   4.059  1.00  0.00    -0.352 N 
ATOM     30  C   UNL     1       3.208  -2.704   5.307  1.00  0.00     0.251 C 
ATOM     31  H   UNL     1       2.972  -1.648   3.619  1.00  0.00     0.163 HD
ATOM     32  O   UNL     1       3.888  -1.842   5.856  1.00  0.00    -0.269 OA
BRANCH  30  33
ATOM     33  C   UNL     1       2.923  -3.977   5.998  1.00  0.00     0.039 A 
ATOM     34  C   UNL     1       2.603  -3.956   7.357  1.00  0.00     0.014 A 
ATOM     35  C   UNL     1       2.945  -5.186   5.298  1.00  0.00     0.014 A 
ATOM     36  C   UNL     1       2.256  -5.145   8.000  1.00  0.00     0.010 A 
ATOM     37  C   UNL     1       2.488  -6.345   5.907  1.00  0.00     0.010 A 
ATOM     38  C   UNL     1       2.171  -6.343   7.273  1.00  0.00    -0.014 A 
BRANCH  38  39
ATOM     39  C   UNL     1       1.825  -7.625   7.932  1.00  0.00     0.031 A 
ATOM     40  C   UNL     1       2.829  -8.746   7.940  1.00  0.00     0.074 A 
ATOM     41  C   UNL     1       0.602  -7.799   8.468  1.00  0.00     0.049 A 
ATOM     42  N   UNL     1       2.710  -9.965   8.403  1.00  0.00    -0.248 NA
ATOM     43  C   UNL     1       4.128  -8.476   7.301  1.00  0.00     0.031 C 
ATOM     44  C   UNL     1      -0.476  -6.810   8.463  1.00  0.00     0.029 A 
ATOM     45  N   UNL     1       0.061  -8.878   9.120  1.00  0.00    -0.354 N 
ATOM     46  C   UNL     1       3.903 -10.603   8.089  1.00  0.00     0.074 A 
ATOM     47  C   UNL     1       4.702  -9.668   7.332  1.00  0.00     0.031 C 
ATOM     48  C   UNL     1      -1.538  -7.314   9.113  1.00  0.00     0.029 A 
ATOM     49  C   UNL     1      -1.225  -8.669   9.554  1.00  0.00     0.049 A 
ATOM     50  H   UNL     1       0.548  -9.721   9.263  1.00  0.00     0.167 HD
ATOM     51  C   UNL     1       4.314 -11.846   8.435  1.00  0.00     0.037 A 
ATOM     52  C   UNL     1      -2.050  -9.483  10.239  1.00  0.00     0.037 A 
ATOM     53  C   UNL     1       3.534 -12.754   9.231  1.00  0.00     0.049 A 
ATOM     54  C   UNL     1      -1.556 -10.847  10.644  1.00  0.00     0.074 A 
ATOM     55  C   UNL     1       3.876 -14.011   9.695  1.00  0.00     0.029 A 
ATOM     56  N   UNL     1       2.251 -12.492   9.690  1.00  0.00    -0.354 N 
ATOM     57  N   UNL     1      -0.399 -11.415  10.405  1.00  0.00    -0.248 NA
ATOM     58  C   UNL     1      -2.480 -11.675  11.430  1.00  0.00     0.031 C 
ATOM     59  C   UNL     1       2.786 -14.525  10.405  1.00  0.00     0.029 A 
ATOM     60  C   UNL     1       1.783 -13.569  10.424  1.00  0.00     0.049 A 
ATOM     61  H   UNL     1       1.748 -11.663   9.519  1.00  0.00     0.167 HD
ATOM     62  C   UNL     1      -0.444 -12.652  11.032  1.00  0.00     0.074 A 
ATOM     63  C   UNL     1      -1.736 -12.742  11.681  1.00  0.00     0.031 C 
ATOM     64  C   UNL     1       0.496 -13.630  11.068  1.00  0.00     0.037 A 
BRANCH  51  65
ATOM     65  C   UNL     1       5.673 -12.279   7.967  1.00  0.00     0.064 A 
ATOM     66  C   UNL     1       6.846 -11.693   8.468  1.00  0.00     0.173 A 
ATOM     67  C   UNL     1       5.808 -13.298   7.012  1.00  0.00     0.173 A 
ATOM     68  F   UNL     1       6.773 -10.702   9.370  1.00  0.00    -0.203 F 
ATOM     69  C   UNL     1       8.099 -12.083   8.004  1.00  0.00     0.198 A 
ATOM     70  C   UNL     1       7.065 -13.710   6.575  1.00  0.00     0.198 A 
ATOM     71  F   UNL     1       4.721 -13.894   6.500  1.00  0.00    -0.203 F 
ATOM     72  F   UNL     1       9.200 -11.464   8.452  1.00  0.00    -0.200 F 
ATOM     73  C   UNL     1       8.208 -13.095   7.064  1.00  0.00     0.200 A 
ATOM     74  F   UNL     1       7.169 -14.696   5.674  1.00  0.00    -0.200 F 
ATOM     75  F   UNL     1       9.415 -13.473   6.620  1.00  0.00    -0.200 F 
ENDBRANCH  51  65
BRANCH  52  76
ATOM     76  C   UNL     1      -3.406  -9.016  10.629  1.00  0.00     0.064 A 
ATOM     77  C   UNL     1      -3.716  -8.755  11.971  1.00  0.00     0.173 A 
ATOM     78  C   UNL     1      -4.420  -8.832   9.678  1.00  0.00     0.173 A 
ATOM     79  F   UNL     1      -2.785  -8.934  12.920  1.00  0.00    -0.203 F 
ATOM     80  C   UNL     1      -4.996  -8.355  12.351  1.00  0.00     0.198 A 
ATOM     81  C   UNL     1      -5.691  -8.405  10.056  1.00  0.00     0.198 A 
ATOM     82  F   UNL     1      -4.173  -9.060   8.380  1.00  0.00    -0.203 F 
ATOM     83  F   UNL     1      -5.278  -8.163  13.647  1.00  0.00    -0.200 F 
ATOM     84  C   UNL     1      -5.981  -8.176  11.392  1.00  0.00     0.200 A 
ATOM     85  F   UNL     1      -6.638  -8.219   9.125  1.00  0.00    -0.200 F 
ATOM     86  F   UNL     1      -7.212  -7.792  11.758  1.00  0.00    -0.200 F 
ENDBRANCH  52  76
BRANCH  64  87
ATOM     87  C   UNL     1       0.170 -14.860  11.863  1.00  0.00     0.064 A 
ATOM     88  C   UNL     1      -0.789 -15.786  11.428  1.00  0.00     0.173 A 
ATOM     89  C   UNL     1       0.844 -15.125  13.065  1.00  0.00     0.173 A 
ATOM     90  F   UNL     1      -1.470 -15.569  10.292  1.00  0.00    -0.203 F 
ATOM     91  C   UNL     1      -1.088 -16.914  12.185  1.00  0.00     0.198 A 
ATOM     92  C   UNL     1       0.566 -16.272  13.803  1.00  0.00     0.198 A 
ATOM     93  F   UNL     1       1.778 -14.276  13.519  1.00  0.00    -0.203 F 
ATOM     94  F   UNL     1      -2.050 -17.755  11.780  1.00  0.00    -0.200 F 
ATOM     95  C   UNL     1      -0.406 -17.159  13.368  1.00  0.00     0.200 A 
ATOM     96  F   UNL     1       1.236 -16.514  14.938  1.00  0.00    -0.200 F 
ATOM     97  F   UNL     1      -0.695 -18.247  14.096  1.00  0.00    -0.200 F 
ENDBRANCH  64  87
ENDBRANCH  38  39
ENDBRANCH  30  33
ENDBRANCH  28  29
ENDBRANCH  27  28
ENDBRANCH   1  27
TORSDOF 15
