REMARK SMILES Nc1ccc(-c2cc(Cl)cc3c2O[C@H](C(F)(F)F)C(C(=O)NCCCCNC(=O)c2ccc(-c4c5nc(c(-c6c(F)c(F)c(F)c(F)c6F)c6ccc([nH]6)c(-c6c(F)c(F)c(F)c(F)c6F)c6nc(c(-c7c(F)c(F)c(F)c(F)c7F)c7ccc4[nH]7)C=C6)C=C5)cc2)=C3)cc1
REMARK SMILES IDX 24 1 23 2 22 3 20 4 21 5 19 7 6 8 7 9 12 10 8 11 11 12 13 13
REMARK SMILES IDX 9 14 10 15 93 16 14 17 5 18 2 19 3 20 95 21 4 22 94 23 1 24
REMARK SMILES IDX 15 27 16 28 17 29 18 30 25 31 26 32 27 33 28 34 29 36 30 37
REMARK SMILES IDX 31 38 92 39 32 40 91 41 33 42 34 43 35 44 85 45 36 46 90 47
REMARK SMILES IDX 84 48 86 49 37 50 89 51 83 52 82 53 38 55 70 56 50 57 69 58
REMARK SMILES IDX 51 59 54 60 68 61 87 62 52 63 53 64 67 66 88 67 55 68 39 69
REMARK SMILES IDX 40 70 48 71 41 72 42 73 46 74 49 75 43 76 44 77 47 78 45 79
REMARK SMILES IDX 71 80 72 81 80 82 73 83 74 84 78 85 81 86 75 87 76 88 79 89
REMARK SMILES IDX 77 90 56 91 57 92 65 93 58 94 59 95 63 96 66 97 60 98 61 99
REMARK SMILES IDX 64 100 62 101
REMARK H PARENT 22 6 1 25 1 26 27 35 86 54 54 65
REMARK Flexibility Score: inf
ROOT
ATOM      1  C   UNL     1      -3.630  -2.332   6.619  1.00  0.00     0.023 C 
ENDROOT
BRANCH   1   2
ATOM      2  C   UNL     1      -4.212  -3.309   5.599  1.00  0.00     0.116 C 
BRANCH   2   3
ATOM      3  N   UNL     1      -5.555  -2.938   5.186  1.00  0.00    -0.352 N 
ATOM      4  C   UNL     1      -6.123  -2.291   4.139  1.00  0.00     0.251 C 
ATOM      5  O   UNL     1      -7.353  -2.194   4.186  1.00  0.00    -0.270 OA
ATOM      6  H   UNL     1      -6.230  -3.234   5.838  1.00  0.00     0.163 HD
BRANCH   4   7
ATOM      7  C   UNL     1      -5.383  -1.710   2.980  1.00  0.00     0.067 C 
ATOM      8  C   UNL     1      -3.363   0.144  -0.220  1.00  0.00     0.026 A 
ATOM      9  C   UNL     1      -4.116   0.683  -1.272  1.00  0.00     0.033 A 
ATOM     10  C   UNL     1      -4.057  -0.406   0.877  1.00  0.00     0.135 A 
ATOM     11  C   UNL     1      -5.512   0.666  -1.221  1.00  0.00     0.042 A 
ATOM     12  C   UNL     1      -5.455  -0.430   0.928  1.00  0.00     0.019 A 
ATOM     13  O   UNL     1      -3.309  -0.861   1.933  1.00  0.00    -0.475 OA
ATOM     14  Cl  UNL     1      -6.417   1.338  -2.523  1.00  0.00    -0.084 Cl
ATOM     15  C   UNL     1      -6.185   0.113  -0.130  1.00  0.00     0.032 A 
ATOM     16  C   UNL     1      -6.116  -0.999   2.101  1.00  0.00     0.025 C 
ATOM     17  C   UNL     1      -3.914  -1.900   2.738  1.00  0.00     0.314 C 
BRANCH   8  18
ATOM     18  C   UNL     1      -1.892   0.137  -0.265  1.00  0.00    -0.014 A 
ATOM     19  C   UNL     1       0.939   0.096  -0.169  1.00  0.00     0.031 A 
ATOM     20  C   UNL     1       0.213  -1.093  -0.227  1.00  0.00     0.026 A 
ATOM     21  C   UNL     1       0.240   1.304  -0.147  1.00  0.00     0.026 A 
ATOM     22  C   UNL     1      -1.183  -1.075  -0.291  1.00  0.00     0.011 A 
ATOM     23  C   UNL     1      -1.159   1.328  -0.207  1.00  0.00     0.011 A 
BRANCH  19  24
ATOM     24  N   UNL     1       2.314   0.072  -0.006  1.00  0.00    -0.399 N 
ATOM     25  H   UNL     1       2.797  -0.786  -0.023  1.00  0.00     0.156 HD
ATOM     26  H   UNL     1       2.808   0.913   0.127  1.00  0.00     0.156 HD
ENDBRANCH  19  24
ENDBRANCH   8  18
BRANCH  17  27
ATOM     27  C   UNL     1      -3.576  -3.281   2.144  1.00  0.00     0.429 C 
ATOM     28  F   UNL     1      -2.247  -3.532   2.247  1.00  0.00    -0.167 F 
ATOM     29  F   UNL     1      -4.207  -4.290   2.792  1.00  0.00    -0.167 F 
ATOM     30  F   UNL     1      -3.906  -3.386   0.838  1.00  0.00    -0.167 F 
ENDBRANCH  17  27
ENDBRANCH   4   7
ENDBRANCH   2   3
ENDBRANCH   1   2
BRANCH   1  31
ATOM     31  C   UNL     1      -3.993  -2.646   8.073  1.00  0.00     0.023 C 
BRANCH  31  32
ATOM     32  C   UNL     1      -3.607  -4.042   8.559  1.00  0.00     0.116 C 
BRANCH  32  33
ATOM     33  N   UNL     1      -2.204  -4.383   8.371  1.00  0.00    -0.352 N 
ATOM     34  C   UNL     1      -1.472  -5.337   9.044  1.00  0.00     0.251 C 
ATOM     35  H   UNL     1      -1.721  -3.872   7.682  1.00  0.00     0.163 HD
ATOM     36  O   UNL     1      -0.271  -5.473   8.840  1.00  0.00    -0.269 OA
BRANCH  34  37
ATOM     37  C   UNL     1      -2.152  -6.153  10.070  1.00  0.00     0.039 A 
ATOM     38  C   UNL     1      -3.341  -6.816   9.763  1.00  0.00     0.014 A 
ATOM     39  C   UNL     1      -1.647  -6.165  11.372  1.00  0.00     0.014 A 
ATOM     40  C   UNL     1      -4.119  -7.329  10.793  1.00  0.00     0.010 A 
ATOM     41  C   UNL     1      -2.396  -6.752  12.396  1.00  0.00     0.010 A 
ATOM     42  C   UNL     1      -3.667  -7.279  12.123  1.00  0.00    -0.014 A 
BRANCH  42  43
ATOM     43  C   UNL     1      -4.569  -7.744  13.208  1.00  0.00     0.031 A 
ATOM     44  C   UNL     1      -5.136  -6.766  14.202  1.00  0.00     0.074 A 
ATOM     45  C   UNL     1      -4.950  -9.034  13.239  1.00  0.00     0.049 A 
ATOM     46  N   UNL     1      -5.983  -6.980  15.179  1.00  0.00    -0.248 NA
ATOM     47  C   UNL     1      -4.700  -5.364  14.089  1.00  0.00     0.031 C 
ATOM     48  C   UNL     1      -4.482 -10.069  12.316  1.00  0.00     0.029 A 
ATOM     49  N   UNL     1      -5.844  -9.687  14.048  1.00  0.00    -0.354 N 
ATOM     50  C   UNL     1      -6.163  -5.753  15.804  1.00  0.00     0.074 A 
ATOM     51  C   UNL     1      -5.323  -4.799  15.114  1.00  0.00     0.031 C 
ATOM     52  C   UNL     1      -5.141 -11.210  12.567  1.00  0.00     0.029 A 
ATOM     53  C   UNL     1      -6.036 -11.001  13.702  1.00  0.00     0.049 A 
ATOM     54  H   UNL     1      -6.303  -9.255  14.804  1.00  0.00     0.167 HD
ATOM     55  C   UNL     1      -6.968  -5.448  16.850  1.00  0.00     0.037 A 
ATOM     56  C   UNL     1      -6.842 -11.936  14.239  1.00  0.00     0.037 A 
ATOM     57  C   UNL     1      -7.832  -6.389  17.513  1.00  0.00     0.049 A 
ATOM     58  C   UNL     1      -7.702 -11.577  15.416  1.00  0.00     0.074 A 
ATOM     59  C   UNL     1      -8.701  -6.166  18.567  1.00  0.00     0.029 A 
ATOM     60  N   UNL     1      -7.942  -7.730  17.179  1.00  0.00    -0.354 N 
ATOM     61  N   UNL     1      -7.854 -10.415  16.002  1.00  0.00    -0.248 NA
ATOM     62  C   UNL     1      -8.488 -12.663  16.017  1.00  0.00     0.031 C 
ATOM     63  C   UNL     1      -9.314  -7.380  18.892  1.00  0.00     0.029 A 
ATOM     64  C   UNL     1      -8.852  -8.351  18.019  1.00  0.00     0.049 A 
ATOM     65  H   UNL     1      -7.447  -8.174  16.453  1.00  0.00     0.167 HD
ATOM     66  C   UNL     1      -8.749 -10.627  17.040  1.00  0.00     0.074 A 
ATOM     67  C   UNL     1      -9.128 -12.024  16.988  1.00  0.00     0.031 C 
ATOM     68  C   UNL     1      -9.208  -9.744  17.958  1.00  0.00     0.037 A 
BRANCH  55  69
ATOM     69  C   UNL     1      -6.958  -4.036  17.354  1.00  0.00     0.064 A 
ATOM     70  C   UNL     1      -7.609  -3.006  16.660  1.00  0.00     0.173 A 
ATOM     71  C   UNL     1      -6.357  -3.725  18.583  1.00  0.00     0.173 A 
ATOM     72  F   UNL     1      -8.188  -3.252  15.475  1.00  0.00    -0.203 F 
ATOM     73  C   UNL     1      -7.651  -1.713  17.175  1.00  0.00     0.198 A 
ATOM     74  C   UNL     1      -6.419  -2.436  19.105  1.00  0.00     0.198 A 
ATOM     75  F   UNL     1      -5.726  -4.677  19.287  1.00  0.00    -0.203 F 
ATOM     76  F   UNL     1      -8.258  -0.738  16.484  1.00  0.00    -0.200 F 
ATOM     77  C   UNL     1      -7.064  -1.431  18.400  1.00  0.00     0.200 A 
ATOM     78  F   UNL     1      -5.860  -2.167  20.293  1.00  0.00    -0.200 F 
ATOM     79  F   UNL     1      -7.119  -0.189  18.900  1.00  0.00    -0.200 F 
ENDBRANCH  55  69
BRANCH  56  80
ATOM     80  C   UNL     1      -6.873 -13.299  13.652  1.00  0.00     0.064 A 
ATOM     81  C   UNL     1      -7.988 -13.744  12.931  1.00  0.00     0.173 A 
ATOM     82  C   UNL     1      -5.778 -14.167  13.771  1.00  0.00     0.173 A 
ATOM     83  F   UNL     1      -9.065 -12.955  12.809  1.00  0.00    -0.203 F 
ATOM     84  C   UNL     1      -8.007 -15.009  12.349  1.00  0.00     0.198 A 
ATOM     85  C   UNL     1      -5.788 -15.422  13.168  1.00  0.00     0.198 A 
ATOM     86  F   UNL     1      -4.687 -13.783  14.450  1.00  0.00    -0.203 F 
ATOM     87  F   UNL     1      -9.094 -15.422  11.683  1.00  0.00    -0.200 F 
ATOM     88  C   UNL     1      -6.904 -15.843  12.460  1.00  0.00     0.200 A 
ATOM     89  F   UNL     1      -4.715 -16.218  13.265  1.00  0.00    -0.200 F 
ATOM     90  F   UNL     1      -6.917 -17.054  11.887  1.00  0.00    -0.200 F 
ENDBRANCH  56  80
BRANCH  68  91
ATOM     91  C   UNL     1     -10.163 -10.260  18.991  1.00  0.00     0.064 A 
ATOM     92  C   UNL     1      -9.712 -11.029  20.073  1.00  0.00     0.173 A 
ATOM     93  C   UNL     1     -11.524  -9.930  18.935  1.00  0.00     0.173 A 
ATOM     94  F   UNL     1      -8.420 -11.380  20.159  1.00  0.00    -0.203 F 
ATOM     95  C   UNL     1     -10.594 -11.458  21.060  1.00  0.00     0.198 A 
ATOM     96  C   UNL     1     -12.400 -10.343  19.935  1.00  0.00     0.198 A 
ATOM     97  F   UNL     1     -12.000  -9.191  17.922  1.00  0.00    -0.203 F 
ATOM     98  F   UNL     1     -10.148 -12.214  22.072  1.00  0.00    -0.200 F 
ATOM     99  C   UNL     1     -11.935 -11.108  20.995  1.00  0.00     0.200 A 
ATOM    100  F   UNL     1     -13.693  -9.996  19.877  1.00  0.00    -0.200 F 
ATOM    101  F   UNL     1     -12.781 -11.512  21.952  1.00  0.00    -0.200 F 
ENDBRANCH  68  91
ENDBRANCH  42  43
ENDBRANCH  34  37
ENDBRANCH  32  33
ENDBRANCH  31  32
ENDBRANCH   1  31
TORSDOF 14
