REMARK SMILES COc1cc([C@@H]2CC(=O)Nc3c(C(=O)NCCCCNC(=O)c4ccc(-c5c6nc(c(-c7c(F)c(F)c(F)c(F)c7F)c7ccc([nH]7)c(-c7c(F)c(F)c(F)c(F)c7F)c7nc(c(-c8c(F)c(F)c(F)c(F)c8F)c8ccc5[nH]8)C=C7)C=C6)cc4)cn(-c4ccc(F)cc4)c32)c(OC)c2c1OCO2
REMARK SMILES IDX 17 1 16 2 15 3 13 4 14 5 12 7 6 8 7 9 95 10 8 11 11 12 87 13
REMARK SMILES IDX 9 14 10 15 86 16 5 18 3 19 4 20 100 21 99 22 101 23 96 24
REMARK SMILES IDX 103 25 102 26 2 27 1 28 97 29 98 30 88 31 89 32 94 33 90 34
REMARK SMILES IDX 93 35 91 36 92 37 18 38 19 39 20 40 21 41 22 43 23 44 24 45
REMARK SMILES IDX 85 46 25 47 84 48 26 49 27 50 28 51 78 52 29 53 83 54 77 55
REMARK SMILES IDX 79 56 30 57 82 58 76 59 75 60 31 62 63 63 43 64 62 65 44 66
REMARK SMILES IDX 47 67 61 68 80 69 45 70 46 71 60 73 81 74 48 75 32 76 33 77
REMARK SMILES IDX 41 78 34 79 35 80 39 81 42 82 36 83 37 84 40 85 38 86 64 87
REMARK SMILES IDX 65 88 73 89 66 90 67 91 71 92 74 93 68 94 69 95 72 96 70 97
REMARK SMILES IDX 49 98 50 99 58 100 51 101 52 102 56 103 59 104 53 105 54 106
REMARK SMILES IDX 57 107 55 108
REMARK H PARENT 15 6 10 17 20 42 79 61 47 72
REMARK Flexibility Score: inf
ROOT
ATOM      1  C   UNL     1       0.210  -4.710  10.381  1.00  0.00     0.023 C 
ENDROOT
BRANCH   1   2
ATOM      2  C   UNL     1       0.912  -5.593   9.338  1.00  0.00     0.116 C 
BRANCH   2   3
ATOM      3  N   UNL     1      -0.006  -6.499   8.693  1.00  0.00    -0.352 N 
ATOM      4  C   UNL     1      -0.851  -6.402   7.619  1.00  0.00     0.254 C 
ATOM      5  O   UNL     1      -1.454  -7.450   7.360  1.00  0.00    -0.269 OA
ATOM      6  H   UNL     1      -0.033  -7.385   9.121  1.00  0.00     0.163 HD
BRANCH   4   7
ATOM      7  C   UNL     1      -1.045  -5.212   6.775  1.00  0.00     0.081 A 
ATOM      8  C   UNL     1      -0.855  -1.808   5.238  1.00  0.00     0.082 C 
ATOM      9  C   UNL     1      -0.702  -0.971   6.511  1.00  0.00     0.115 C 
ATOM     10  C   UNL     1      -1.091  -3.248   5.600  1.00  0.00     0.055 A 
ATOM     11  C   UNL     1       0.097  -1.670   7.583  1.00  0.00     0.225 C 
ATOM     12  C   UNL     1      -0.701  -3.827   6.793  1.00  0.00     0.076 A 
ATOM     13  N   UNL     1      -1.805  -4.176   4.881  1.00  0.00    -0.317 N 
ATOM     14  O   UNL     1       0.769  -1.053   8.409  1.00  0.00    -0.275 OA
ATOM     15  N   UNL     1      -0.060  -3.024   7.708  1.00  0.00    -0.324 N 
ATOM     16  C   UNL     1      -1.815  -5.338   5.612  1.00  0.00     0.107 A 
ATOM     17  H   UNL     1       0.313  -3.455   8.511  1.00  0.00     0.170 HD
BRANCH   8  18
ATOM     18  C   UNL     1       0.306  -1.553   4.272  1.00  0.00     0.012 A 
ATOM     19  C   UNL     1       0.986  -0.399   2.208  1.00  0.00     0.165 A 
ATOM     20  C   UNL     1       0.045  -0.655   3.204  1.00  0.00     0.059 A 
ATOM     21  C   UNL     1       2.225  -0.993   2.333  1.00  0.00     0.211 A 
ATOM     22  C   UNL     1       2.521  -1.833   3.392  1.00  0.00     0.211 A 
ATOM     23  O   UNL     1       3.286  -0.834   1.493  1.00  0.00    -0.449 OA
ATOM     24  C   UNL     1       1.591  -2.136   4.380  1.00  0.00     0.168 A 
ATOM     25  O   UNL     1       3.801  -2.302   3.310  1.00  0.00    -0.449 OA
ATOM     26  C   UNL     1       4.300  -1.591   2.168  1.00  0.00     0.468 C 
BRANCH  19  27
ATOM     27  O   UNL     1       0.586   0.457   1.226  1.00  0.00    -0.493 OA
ATOM     28  C   UNL     1       1.009   0.092  -0.084  1.00  0.00     0.278 C 
ENDBRANCH  19  27
BRANCH  24  29
ATOM     29  O   UNL     1       1.803  -2.962   5.442  1.00  0.00    -0.492 OA
ATOM     30  C   UNL     1       3.120  -3.405   5.729  1.00  0.00     0.278 C 
ENDBRANCH  24  29
ENDBRANCH   8  18
BRANCH  13  31
ATOM     31  C   UNL     1      -2.496  -3.971   3.665  1.00  0.00     0.046 A 
ATOM     32  C   UNL     1      -1.827  -3.431   2.562  1.00  0.00     0.029 A 
ATOM     33  C   UNL     1      -3.865  -4.255   3.596  1.00  0.00     0.029 A 
ATOM     34  C   UNL     1      -2.541  -3.097   1.412  1.00  0.00     0.041 A 
ATOM     35  C   UNL     1      -4.575  -3.911   2.444  1.00  0.00     0.041 A 
ATOM     36  C   UNL     1      -3.911  -3.323   1.371  1.00  0.00     0.123 A 
ATOM     37  F   UNL     1      -4.601  -2.970   0.279  1.00  0.00    -0.207 F 
ENDBRANCH  13  31
ENDBRANCH   4   7
ENDBRANCH   2   3
ENDBRANCH   1   2
BRANCH   1  38
ATOM     38  C   UNL     1       0.079  -5.296  11.791  1.00  0.00     0.023 C 
BRANCH  38  39
ATOM     39  C   UNL     1       1.365  -5.295  12.615  1.00  0.00     0.116 C 
BRANCH  39  40
ATOM     40  N   UNL     1       1.935  -3.953  12.822  1.00  0.00    -0.352 N 
ATOM     41  C   UNL     1       3.252  -3.594  13.088  1.00  0.00     0.251 C 
ATOM     42  H   UNL     1       1.296  -3.207  12.764  1.00  0.00     0.163 HD
ATOM     43  O   UNL     1       3.538  -2.538  13.621  1.00  0.00    -0.269 OA
BRANCH  41  44
ATOM     44  C   UNL     1       4.311  -4.524  12.662  1.00  0.00     0.039 A 
ATOM     45  C   UNL     1       5.455  -4.801  13.417  1.00  0.00     0.014 A 
ATOM     46  C   UNL     1       4.069  -5.181  11.466  1.00  0.00     0.014 A 
ATOM     47  C   UNL     1       6.317  -5.801  12.969  1.00  0.00     0.010 A 
ATOM     48  C   UNL     1       4.737  -6.334  11.201  1.00  0.00     0.010 A 
ATOM     49  C   UNL     1       5.936  -6.562  11.855  1.00  0.00    -0.014 A 
BRANCH  49  50
ATOM     50  C   UNL     1       6.746  -7.618  11.281  1.00  0.00     0.031 A 
ATOM     51  C   UNL     1       6.963  -8.809  12.132  1.00  0.00     0.074 A 
ATOM     52  C   UNL     1       7.015  -7.630   9.957  1.00  0.00     0.049 A 
ATOM     53  N   UNL     1       8.082  -9.230  12.615  1.00  0.00    -0.248 NA
ATOM     54  C   UNL     1       5.792  -9.573  12.584  1.00  0.00     0.031 C 
ATOM     55  C   UNL     1       6.566  -6.705   8.905  1.00  0.00     0.029 A 
ATOM     56  N   UNL     1       7.681  -8.575   9.250  1.00  0.00    -0.354 N 
ATOM     57  C   UNL     1       7.795 -10.399  13.313  1.00  0.00     0.074 A 
ATOM     58  C   UNL     1       6.358 -10.469  13.396  1.00  0.00     0.031 C 
ATOM     59  C   UNL     1       6.788  -7.254   7.690  1.00  0.00     0.029 A 
ATOM     60  C   UNL     1       7.544  -8.477   7.874  1.00  0.00     0.049 A 
ATOM     61  H   UNL     1       8.220  -9.277   9.681  1.00  0.00     0.167 HD
ATOM     62  C   UNL     1       8.771 -11.308  13.593  1.00  0.00     0.037 A 
ATOM     63  C   UNL     1       8.006  -9.368   6.963  1.00  0.00     0.037 A 
ATOM     64  C   UNL     1      10.078 -10.745  13.349  1.00  0.00     0.049 A 
ATOM     65  C   UNL     1       9.076 -10.153   7.638  1.00  0.00     0.074 A 
ATOM     66  C   UNL     1      10.780  -9.680  13.882  1.00  0.00     0.029 A 
ATOM     67  N   UNL     1      10.692 -11.029  12.151  1.00  0.00    -0.354 N 
ATOM     68  N   UNL     1      10.213  -9.635   8.023  1.00  0.00    -0.248 NA
ATOM     69  C   UNL     1       8.684 -11.374   8.329  1.00  0.00     0.031 C 
ATOM     70  C   UNL     1      11.423  -9.070  12.764  1.00  0.00     0.029 A 
ATOM     71  C   UNL     1      11.142  -9.839  11.633  1.00  0.00     0.049 A 
ATOM     72  H   UNL     1      10.791 -11.919  11.742  1.00  0.00     0.167 HD
ATOM     73  C   UNL     1      10.463 -10.204   9.265  1.00  0.00     0.074 A 
ATOM     74  C   UNL     1       9.530 -11.326   9.364  1.00  0.00     0.031 C 
ATOM     75  C   UNL     1      11.185  -9.542  10.219  1.00  0.00     0.037 A 
BRANCH  62  76
ATOM     76  C   UNL     1       8.570 -12.789  13.788  1.00  0.00     0.064 A 
ATOM     77  C   UNL     1       9.658 -13.576  14.223  1.00  0.00     0.173 A 
ATOM     78  C   UNL     1       7.455 -13.509  13.312  1.00  0.00     0.173 A 
ATOM     79  F   UNL     1      10.774 -13.000  14.695  1.00  0.00    -0.203 F 
ATOM     80  C   UNL     1       9.660 -14.968  14.106  1.00  0.00     0.198 A 
ATOM     81  C   UNL     1       7.439 -14.903  13.249  1.00  0.00     0.198 A 
ATOM     82  F   UNL     1       6.385 -12.903  12.788  1.00  0.00    -0.203 F 
ATOM     83  F   UNL     1      10.765 -15.660  14.413  1.00  0.00    -0.200 F 
ATOM     84  C   UNL     1       8.553 -15.630  13.611  1.00  0.00     0.200 A 
ATOM     85  F   UNL     1       6.360 -15.526  12.755  1.00  0.00    -0.200 F 
ATOM     86  F   UNL     1       8.574 -16.958  13.438  1.00  0.00    -0.200 F 
ENDBRANCH  62  76
BRANCH  63  87
ATOM     87  C   UNL     1       7.375  -9.766   5.684  1.00  0.00     0.064 A 
ATOM     88  C   UNL     1       8.094 -10.469   4.705  1.00  0.00     0.173 A 
ATOM     89  C   UNL     1       5.979  -9.695   5.502  1.00  0.00     0.173 A 
ATOM     90  F   UNL     1       9.421 -10.620   4.822  1.00  0.00    -0.203 F 
ATOM     91  C   UNL     1       7.452 -11.085   3.623  1.00  0.00     0.198 A 
ATOM     92  C   UNL     1       5.340 -10.303   4.420  1.00  0.00     0.198 A 
ATOM     93  F   UNL     1       5.193  -9.111   6.419  1.00  0.00    -0.203 F 
ATOM     94  F   UNL     1       8.165 -11.797   2.740  1.00  0.00    -0.200 F 
ATOM     95  C   UNL     1       6.075 -11.010   3.488  1.00  0.00     0.200 A 
ATOM     96  F   UNL     1       4.004 -10.251   4.322  1.00  0.00    -0.200 F 
ATOM     97  F   UNL     1       5.455 -11.650   2.487  1.00  0.00    -0.200 F 
ENDBRANCH  63  87
BRANCH  75  98
ATOM     98  C   UNL     1      11.881  -8.267   9.819  1.00  0.00     0.064 A 
ATOM     99  C   UNL     1      11.210  -7.109   9.385  1.00  0.00     0.173 A 
ATOM    100  C   UNL     1      13.259  -8.155  10.041  1.00  0.00     0.173 A 
ATOM    101  F   UNL     1       9.882  -7.091   9.251  1.00  0.00    -0.203 F 
ATOM    102  C   UNL     1      11.890  -5.917   9.143  1.00  0.00     0.198 A 
ATOM    103  C   UNL     1      13.932  -6.953   9.834  1.00  0.00     0.198 A 
ATOM    104  F   UNL     1      13.949  -9.204  10.515  1.00  0.00    -0.203 F 
ATOM    105  F   UNL     1      11.218  -4.834   8.721  1.00  0.00    -0.200 F 
ATOM    106  C   UNL     1      13.250  -5.837   9.375  1.00  0.00     0.200 A 
ATOM    107  F   UNL     1      15.241  -6.867  10.110  1.00  0.00    -0.200 F 
ATOM    108  F   UNL     1      13.899  -4.680   9.184  1.00  0.00    -0.200 F 
ENDBRANCH  75  98
ENDBRANCH  49  50
ENDBRANCH  41  44
ENDBRANCH  39  40
ENDBRANCH  38  39
ENDBRANCH   1  38
TORSDOF 15
