REMARK SMILES O=C(NCCCCNC(=O)[C@@H](Cc1c[nH]c2ccccc12)NC(=O)c1ccc(F)cc1F)c1ccc(-c2c3nc(c(-c4c(F)c(F)c(F)c(F)c4F)c4ccc([nH]4)c(-c4c(F)c(F)c(F)c(F)c4F)c4nc(c(-c5c(F)c(F)c(F)c(F)c5F)c5ccc2[nH]5)C=C4)C=C3)cc1
REMARK SMILES IDX 5 1 4 2 3 3 1 4 2 5 33 7 34 8 95 9 35 10 94 11 36 12 37 13
REMARK SMILES IDX 38 14 88 15 39 16 93 17 87 18 89 19 40 20 92 21 86 22 85 23
REMARK SMILES IDX 41 25 73 26 53 27 72 28 54 29 57 30 71 31 90 32 55 33 56 34
REMARK SMILES IDX 70 36 91 37 58 38 42 39 43 40 51 41 44 42 45 43 49 44 52 45
REMARK SMILES IDX 46 46 47 47 50 48 48 49 74 50 75 51 83 52 76 53 77 54 81 55
REMARK SMILES IDX 84 56 78 57 79 58 82 59 80 60 59 61 60 62 68 63 61 64 62 65
REMARK SMILES IDX 66 66 69 67 63 68 64 69 67 70 65 71 6 72 7 73 8 74 9 75
REMARK SMILES IDX 10 77 11 78 12 79 13 80 14 81 21 82 15 83 16 84 20 85 17 87
REMARK SMILES IDX 19 88 18 89 22 90 23 91 24 93 25 94 26 95 31 96 27 97 30 98
REMARK SMILES IDX 32 99 28 100 29 101
REMARK H PARENT 3 6 89 24 57 35 8 76 15 86 22 92
REMARK Flexibility Score: inf
ROOT
ATOM      1  C   UNL     1       5.496  -0.555   1.744  1.00  0.00     0.023 C 
ENDROOT
BRANCH   1   2
ATOM      2  C   UNL     1       4.783  -0.815   0.430  1.00  0.00     0.116 C 
BRANCH   2   3
ATOM      3  N   UNL     1       3.327  -0.806   0.543  1.00  0.00    -0.352 N 
ATOM      4  O   UNL     1       1.211  -0.110   0.165  1.00  0.00    -0.269 OA
ATOM      5  C   UNL     1       2.395  -0.075  -0.154  1.00  0.00     0.251 C 
ATOM      6  H   UNL     1       2.957  -1.416   1.221  1.00  0.00     0.163 HD
BRANCH   5   7
ATOM      7  C   UNL     1       2.843   0.783  -1.268  1.00  0.00     0.039 A 
ATOM      8  C   UNL     1       3.799   0.314  -2.169  1.00  0.00     0.014 A 
ATOM      9  C   UNL     1       2.349   2.085  -1.375  1.00  0.00     0.014 A 
ATOM     10  C   UNL     1       4.411   1.201  -3.038  1.00  0.00     0.010 A 
ATOM     11  C   UNL     1       2.880   2.944  -2.340  1.00  0.00     0.010 A 
ATOM     12  C   UNL     1       3.942   2.518  -3.152  1.00  0.00    -0.014 A 
BRANCH  12  13
ATOM     13  C   UNL     1       4.539   3.411  -4.173  1.00  0.00     0.031 A 
ATOM     14  C   UNL     1       5.250   4.673  -3.778  1.00  0.00     0.074 A 
ATOM     15  C   UNL     1       4.466   3.041  -5.467  1.00  0.00     0.049 A 
ATOM     16  N   UNL     1       5.739   5.615  -4.545  1.00  0.00    -0.248 NA
ATOM     17  C   UNL     1       5.440   4.916  -2.338  1.00  0.00     0.031 C 
ATOM     18  C   UNL     1       3.830   1.814  -5.958  1.00  0.00     0.029 A 
ATOM     19  N   UNL     1       4.944   3.640  -6.602  1.00  0.00    -0.354 N 
ATOM     20  C   UNL     1       6.266   6.571  -3.687  1.00  0.00     0.074 A 
ATOM     21  C   UNL     1       6.035   6.102  -2.337  1.00  0.00     0.031 C 
ATOM     22  C   UNL     1       4.008   1.724  -7.282  1.00  0.00     0.029 A 
ATOM     23  C   UNL     1       4.678   2.930  -7.746  1.00  0.00     0.049 A 
ATOM     24  H   UNL     1       5.431   4.496  -6.597  1.00  0.00     0.167 HD
ATOM     25  C   UNL     1       6.885   7.732  -4.008  1.00  0.00     0.037 A 
ATOM     26  C   UNL     1       4.910   3.236  -9.035  1.00  0.00     0.037 A 
ATOM     27  C   UNL     1       7.124   8.174  -5.359  1.00  0.00     0.049 A 
ATOM     28  C   UNL     1       5.552   4.552  -9.355  1.00  0.00     0.074 A 
ATOM     29  C   UNL     1       7.715   9.348  -5.792  1.00  0.00     0.029 A 
ATOM     30  N   UNL     1       6.798   7.448  -6.495  1.00  0.00    -0.354 N 
ATOM     31  N   UNL     1       5.985   5.480  -8.537  1.00  0.00    -0.248 NA
ATOM     32  C   UNL     1       5.717   4.874 -10.777  1.00  0.00     0.031 C 
ATOM     33  C   UNL     1       7.722   9.345  -7.191  1.00  0.00     0.029 A 
ATOM     34  C   UNL     1       7.173   8.151  -7.629  1.00  0.00     0.049 A 
ATOM     35  H   UNL     1       6.365   6.564  -6.496  1.00  0.00     0.167 HD
ATOM     36  C   UNL     1       6.479   6.494  -9.342  1.00  0.00     0.074 A 
ATOM     37  C   UNL     1       6.320   6.052 -10.713  1.00  0.00     0.031 C 
ATOM     38  C   UNL     1       7.005   7.689  -8.981  1.00  0.00     0.037 A 
BRANCH  25  39
ATOM     39  C   UNL     1       7.342   8.624  -2.893  1.00  0.00     0.064 A 
ATOM     40  C   UNL     1       6.680   9.835  -2.635  1.00  0.00     0.173 A 
ATOM     41  C   UNL     1       8.494   8.335  -2.148  1.00  0.00     0.173 A 
ATOM     42  F   UNL     1       5.575  10.160  -3.323  1.00  0.00    -0.203 F 
ATOM     43  C   UNL     1       7.169  10.733  -1.690  1.00  0.00     0.198 A 
ATOM     44  C   UNL     1       8.969   9.227  -1.189  1.00  0.00     0.198 A 
ATOM     45  F   UNL     1       9.155   7.185  -2.348  1.00  0.00    -0.203 F 
ATOM     46  F   UNL     1       6.540  11.900  -1.487  1.00  0.00    -0.200 F 
ATOM     47  C   UNL     1       8.313  10.429  -0.969  1.00  0.00     0.200 A 
ATOM     48  F   UNL     1      10.066   8.925  -0.479  1.00  0.00    -0.200 F 
ATOM     49  F   UNL     1       8.785  11.296  -0.062  1.00  0.00    -0.200 F 
ENDBRANCH  25  39
BRANCH  26  50
ATOM     50  C   UNL     1       4.497   2.294 -10.105  1.00  0.00     0.064 A 
ATOM     51  C   UNL     1       3.143   2.027 -10.360  1.00  0.00     0.173 A 
ATOM     52  C   UNL     1       5.451   1.630 -10.887  1.00  0.00     0.173 A 
ATOM     53  F   UNL     1       2.191   2.633  -9.636  1.00  0.00    -0.203 F 
ATOM     54  C   UNL     1       2.760   1.117 -11.341  1.00  0.00     0.198 A 
ATOM     55  C   UNL     1       5.066   0.744 -11.891  1.00  0.00     0.198 A 
ATOM     56  F   UNL     1       6.757   1.867 -10.694  1.00  0.00    -0.203 F 
ATOM     57  F   UNL     1       1.462   0.852 -11.537  1.00  0.00    -0.200 F 
ATOM     58  C   UNL     1       3.722   0.482 -12.111  1.00  0.00     0.200 A 
ATOM     59  F   UNL     1       5.998   0.153 -12.651  1.00  0.00    -0.200 F 
ATOM     60  F   UNL     1       3.354  -0.378 -13.070  1.00  0.00    -0.200 F 
ENDBRANCH  26  50
BRANCH  38  61
ATOM     61  C   UNL     1       7.462   8.585 -10.091  1.00  0.00     0.064 A 
ATOM     62  C   UNL     1       8.829   8.780 -10.329  1.00  0.00     0.173 A 
ATOM     63  C   UNL     1       6.544   9.259 -10.909  1.00  0.00     0.173 A 
ATOM     64  F   UNL     1       9.744   8.159  -9.569  1.00  0.00    -0.203 F 
ATOM     65  C   UNL     1       9.263   9.618 -11.352  1.00  0.00     0.198 A 
ATOM     66  C   UNL     1       6.981  10.075 -11.948  1.00  0.00     0.198 A 
ATOM     67  F   UNL     1       5.226   9.088 -10.729  1.00  0.00    -0.203 F 
ATOM     68  F   UNL     1      10.575   9.801 -11.555  1.00  0.00    -0.200 F 
ATOM     69  C   UNL     1       8.339  10.257 -12.165  1.00  0.00     0.200 A 
ATOM     70  F   UNL     1       6.088  10.668 -12.752  1.00  0.00    -0.200 F 
ATOM     71  F   UNL     1       8.758  11.042 -13.168  1.00  0.00    -0.200 F 
ENDBRANCH  38  61
ENDBRANCH  12  13
ENDBRANCH   5   7
ENDBRANCH   2   3
ENDBRANCH   1   2
BRANCH   1  72
ATOM     72  C   UNL     1       5.130  -1.537   2.839  1.00  0.00     0.023 C 
BRANCH  72  73
ATOM     73  C   UNL     1       5.611  -2.969   2.652  1.00  0.00     0.116 C 
BRANCH  73  74
ATOM     74  N   UNL     1       6.903  -3.129   3.281  1.00  0.00    -0.354 N 
ATOM     75  C   UNL     1       7.208  -3.394   4.580  1.00  0.00     0.242 C 
ATOM     76  H   UNL     1       7.676  -3.031   2.681  1.00  0.00     0.163 HD
ATOM     77  O   UNL     1       8.302  -2.976   4.980  1.00  0.00    -0.273 OA
BRANCH  75  78
ATOM     78  C   UNL     1       6.254  -4.101   5.575  1.00  0.00     0.176 C 
BRANCH  78  79
ATOM     79  C   UNL     1       5.468  -3.176   6.524  1.00  0.00     0.072 C 
BRANCH  79  80
ATOM     80  C   UNL     1       4.269  -2.449   5.987  1.00  0.00    -0.020 A 
ATOM     81  C   UNL     1       3.073  -2.996   5.556  1.00  0.00     0.087 A 
ATOM     82  C   UNL     1       4.124  -1.023   5.875  1.00  0.00     0.003 A 
ATOM     83  N   UNL     1       2.253  -1.979   5.136  1.00  0.00    -0.361 N 
ATOM     84  C   UNL     1       2.890  -0.769   5.274  1.00  0.00     0.046 A 
ATOM     85  C   UNL     1       4.969   0.073   6.158  1.00  0.00     0.010 A 
ATOM     86  H   UNL     1       1.341  -2.099   4.787  1.00  0.00     0.166 HD
ATOM     87  C   UNL     1       2.486   0.515   4.886  1.00  0.00     0.026 A 
ATOM     88  C   UNL     1       4.581   1.362   5.775  1.00  0.00     0.001 A 
ATOM     89  C   UNL     1       3.363   1.575   5.136  1.00  0.00     0.002 A 
ENDBRANCH  79  80
ENDBRANCH  78  79
BRANCH  78  90
ATOM     90  N   UNL     1       5.460  -5.216   5.045  1.00  0.00    -0.340 N 
ATOM     91  C   UNL     1       5.691  -6.567   5.125  1.00  0.00     0.254 C 
ATOM     92  H   UNL     1       4.643  -4.957   4.562  1.00  0.00     0.164 HD
ATOM     93  O   UNL     1       4.990  -7.343   4.482  1.00  0.00    -0.269 OA
BRANCH  91  94
ATOM     94  C   UNL     1       6.740  -7.095   6.017  1.00  0.00     0.075 A 
ATOM     95  C   UNL     1       6.746  -6.770   7.382  1.00  0.00     0.020 A 
ATOM     96  C   UNL     1       7.709  -7.960   5.507  1.00  0.00     0.138 A 
ATOM     97  C   UNL     1       7.764  -7.253   8.204  1.00  0.00     0.040 A 
ATOM     98  C   UNL     1       8.712  -8.463   6.331  1.00  0.00     0.079 A 
ATOM     99  F   UNL     1       7.715  -8.303   4.211  1.00  0.00    -0.206 F 
ATOM    100  C   UNL     1       8.738  -8.093   7.670  1.00  0.00     0.126 A 
ATOM    101  F   UNL     1       9.712  -8.553   8.464  1.00  0.00    -0.207 F 
ENDBRANCH  91  94
ENDBRANCH  78  90
ENDBRANCH  75  78
ENDBRANCH  73  74
ENDBRANCH  72  73
ENDBRANCH   1  72
TORSDOF 15
