REMARK SMILES CC[C@](C)(NC(=O)Cc1cccc(F)c1)C(=O)NCCCCNC(=O)c1ccc(-c2c3nc(c(-c4c(F)c(F)c(F)c(F)c4F)c4ccc([nH]4)c(-c4c(F)c(F)c(F)c(F)c4F)c4nc(c(-c5c(F)c(F)c(F)c(F)c5F)c5ccc2[nH]5)C=C4)C=C3)cc1
REMARK SMILES IDX 20 1 19 2 18 3 16 4 17 5 3 7 4 8 2 9 1 10 5 11 6 12 7 14
REMARK SMILES IDX 8 15 9 16 10 17 15 18 11 19 13 20 12 21 14 22 21 23 22 24
REMARK SMILES IDX 23 25 24 26 25 28 26 29 27 30 88 31 28 32 87 33 29 34 30 35
REMARK SMILES IDX 31 36 81 37 32 38 86 39 80 40 82 41 33 42 85 43 79 44 78 45
REMARK SMILES IDX 34 47 66 48 46 49 65 50 47 51 50 52 64 53 83 54 48 55 49 56
REMARK SMILES IDX 63 58 84 59 51 60 35 61 36 62 44 63 37 64 38 65 42 66 45 67
REMARK SMILES IDX 39 68 40 69 43 70 41 71 67 72 68 73 76 74 69 75 70 76 74 77
REMARK SMILES IDX 77 78 71 79 72 80 75 81 73 82 52 83 53 84 61 85 54 86 55 87
REMARK SMILES IDX 59 88 62 89 56 90 57 91 60 92 58 93
REMARK H PARENT 18 6 5 13 23 27 82 46 50 57
REMARK Flexibility Score: inf
ROOT
ATOM      1  C   UNL     1       2.664   1.862   6.000  1.00  0.00     0.023 C 
ENDROOT
BRANCH   1   2
ATOM      2  C   UNL     1       2.214   2.489   4.681  1.00  0.00     0.116 C 
BRANCH   2   3
ATOM      3  N   UNL     1       2.877   1.967   3.498  1.00  0.00    -0.354 N 
ATOM      4  C   UNL     1       2.398   1.175   2.487  1.00  0.00     0.245 C 
ATOM      5  O   UNL     1       3.059   1.167   1.444  1.00  0.00    -0.272 OA
ATOM      6  H   UNL     1       3.823   2.224   3.407  1.00  0.00     0.163 HD
BRANCH   4   7
ATOM      7  C   UNL     1       1.008   0.479   2.588  1.00  0.00     0.116 C 
ATOM      8  C   UNL     1       0.845  -0.606   1.508  1.00  0.00     0.045 C 
BRANCH   7   9
ATOM      9  C   UNL     1      -0.040   1.639   2.385  1.00  0.00     0.035 C 
ATOM     10  C   UNL     1      -0.950   1.564   1.163  1.00  0.00     0.007 C 
ENDBRANCH   7   9
BRANCH   7  11
ATOM     11  N   UNL     1       0.777  -0.153   3.916  1.00  0.00    -0.342 N 
ATOM     12  C   UNL     1       1.467  -1.118   4.596  1.00  0.00     0.225 C 
ATOM     13  H   UNL     1      -0.016   0.186   4.391  1.00  0.00     0.164 HD
ATOM     14  O   UNL     1       0.835  -1.758   5.443  1.00  0.00    -0.275 OA
BRANCH  12  15
ATOM     15  C   UNL     1       2.971  -1.323   4.449  1.00  0.00     0.135 C 
BRANCH  15  16
ATOM     16  C   UNL     1       3.402  -2.170   3.288  1.00  0.00    -0.036 A 
ATOM     17  C   UNL     1       4.226  -1.629   2.288  1.00  0.00     0.004 A 
ATOM     18  C   UNL     1       2.965  -3.492   3.166  1.00  0.00     0.043 A 
ATOM     19  C   UNL     1       4.509  -2.352   1.130  1.00  0.00     0.003 A 
ATOM     20  C   UNL     1       3.276  -4.214   2.019  1.00  0.00     0.123 A 
ATOM     21  C   UNL     1       4.021  -3.647   0.991  1.00  0.00     0.039 A 
ATOM     22  F   UNL     1       2.827  -5.469   1.892  1.00  0.00    -0.207 F 
ENDBRANCH  15  16
ENDBRANCH  12  15
ENDBRANCH   7  11
ENDBRANCH   4   7
ENDBRANCH   2   3
ENDBRANCH   1   2
BRANCH   1  23
ATOM     23  C   UNL     1       4.171   1.837   6.241  1.00  0.00     0.023 C 
BRANCH  23  24
ATOM     24  C   UNL     1       4.851   3.191   6.135  1.00  0.00     0.116 C 
BRANCH  24  25
ATOM     25  N   UNL     1       4.278   4.169   7.045  1.00  0.00    -0.352 N 
ATOM     26  C   UNL     1       4.901   4.964   7.973  1.00  0.00     0.251 C 
ATOM     27  H   UNL     1       3.301   4.276   6.987  1.00  0.00     0.163 HD
ATOM     28  O   UNL     1       4.240   5.597   8.786  1.00  0.00    -0.269 OA
BRANCH  26  29
ATOM     29  C   UNL     1       6.376   5.036   7.998  1.00  0.00     0.039 A 
ATOM     30  C   UNL     1       7.031   4.996   9.230  1.00  0.00     0.014 A 
ATOM     31  C   UNL     1       7.108   5.136   6.812  1.00  0.00     0.014 A 
ATOM     32  C   UNL     1       8.425   5.001   9.268  1.00  0.00     0.010 A 
ATOM     33  C   UNL     1       8.494   5.047   6.846  1.00  0.00     0.010 A 
ATOM     34  C   UNL     1       9.167   4.991   8.075  1.00  0.00    -0.014 A 
BRANCH  34  35
ATOM     35  C   UNL     1      10.648   4.937   8.090  1.00  0.00     0.031 A 
ATOM     36  C   UNL     1      11.446   6.074   7.516  1.00  0.00     0.074 A 
ATOM     37  C   UNL     1      11.270   3.843   8.570  1.00  0.00     0.049 A 
ATOM     38  N   UNL     1      12.742   6.184   7.372  1.00  0.00    -0.248 NA
ATOM     39  C   UNL     1      10.688   7.231   7.010  1.00  0.00     0.031 C 
ATOM     40  C   UNL     1      10.598   2.661   9.112  1.00  0.00     0.029 A 
ATOM     41  N   UNL     1      12.605   3.543   8.675  1.00  0.00    -0.354 N 
ATOM     42  C   UNL     1      12.950   7.411   6.757  1.00  0.00     0.074 A 
ATOM     43  C   UNL     1      11.649   7.983   6.494  1.00  0.00     0.031 C 
ATOM     44  C   UNL     1      11.523   1.779   9.522  1.00  0.00     0.029 A 
ATOM     45  C   UNL     1      12.850   2.311   9.229  1.00  0.00     0.049 A 
ATOM     46  H   UNL     1      13.319   4.154   8.380  1.00  0.00     0.167 HD
ATOM     47  C   UNL     1      14.124   8.018   6.467  1.00  0.00     0.037 A 
ATOM     48  C   UNL     1      14.015   1.678   9.469  1.00  0.00     0.037 A 
ATOM     49  C   UNL     1      15.415   7.454   6.758  1.00  0.00     0.049 A 
ATOM     50  C   UNL     1      15.306   2.368   9.120  1.00  0.00     0.074 A 
ATOM     51  C   UNL     1      16.663   8.012   6.548  1.00  0.00     0.029 A 
ATOM     52  N   UNL     1      15.623   6.205   7.324  1.00  0.00    -0.354 N 
ATOM     53  N   UNL     1      15.492   3.551   8.587  1.00  0.00    -0.248 NA
ATOM     54  C   UNL     1      16.549   1.639   9.408  1.00  0.00     0.031 C 
ATOM     55  C   UNL     1      17.628   7.079   6.936  1.00  0.00     0.029 A 
ATOM     56  C   UNL     1      16.982   5.965   7.448  1.00  0.00     0.049 A 
ATOM     57  H   UNL     1      14.911   5.581   7.596  1.00  0.00     0.167 HD
ATOM     58  C   UNL     1      16.867   3.719   8.498  1.00  0.00     0.074 A 
ATOM     59  C   UNL     1      17.470   2.522   9.046  1.00  0.00     0.031 C 
ATOM     60  C   UNL     1      17.565   4.771   8.005  1.00  0.00     0.037 A 
BRANCH  47  61
ATOM     61  C   UNL     1      14.077   9.372   5.820  1.00  0.00     0.064 A 
ATOM     62  C   UNL     1      14.542   9.553   4.509  1.00  0.00     0.173 A 
ATOM     63  C   UNL     1      13.649  10.506   6.527  1.00  0.00     0.173 A 
ATOM     64  F   UNL     1      14.966   8.502   3.790  1.00  0.00    -0.203 F 
ATOM     65  C   UNL     1      14.598  10.821   3.937  1.00  0.00     0.198 A 
ATOM     66  C   UNL     1      13.677  11.768   5.941  1.00  0.00     0.198 A 
ATOM     67  F   UNL     1      13.182  10.386   7.779  1.00  0.00    -0.203 F 
ATOM     68  F   UNL     1      15.083  10.974   2.697  1.00  0.00    -0.200 F 
ATOM     69  C   UNL     1      14.163  11.927   4.652  1.00  0.00     0.200 A 
ATOM     70  F   UNL     1      13.231  12.832   6.624  1.00  0.00    -0.200 F 
ATOM     71  F   UNL     1      14.212  13.146   4.098  1.00  0.00    -0.200 F 
ENDBRANCH  47  61
BRANCH  48  72
ATOM     72  C   UNL     1      14.005   0.332  10.099  1.00  0.00     0.064 A 
ATOM     73  C   UNL     1      13.507  -0.790   9.419  1.00  0.00     0.173 A 
ATOM     74  C   UNL     1      14.464   0.147  11.410  1.00  0.00     0.173 A 
ATOM     75  F   UNL     1      13.049  -0.666   8.165  1.00  0.00    -0.203 F 
ATOM     76  C   UNL     1      13.450  -2.039  10.034  1.00  0.00     0.198 A 
ATOM     77  C   UNL     1      14.436  -1.108  12.013  1.00  0.00     0.198 A 
ATOM     78  F   UNL     1      14.967   1.185  12.095  1.00  0.00    -0.203 F 
ATOM     79  F   UNL     1      12.934  -3.085   9.375  1.00  0.00    -0.200 F 
ATOM     80  C   UNL     1      13.920  -2.199  11.329  1.00  0.00     0.200 A 
ATOM     81  F   UNL     1      14.913  -1.263  13.256  1.00  0.00    -0.200 F 
ATOM     82  F   UNL     1      13.878  -3.402  11.915  1.00  0.00    -0.200 F 
ENDBRANCH  48  72
BRANCH  60  83
ATOM     83  C   UNL     1      19.064   4.701   8.053  1.00  0.00     0.064 A 
ATOM     84  C   UNL     1      19.787   5.559   8.897  1.00  0.00     0.173 A 
ATOM     85  C   UNL     1      19.786   3.857   7.198  1.00  0.00     0.173 A 
ATOM     86  F   UNL     1      19.142   6.394   9.726  1.00  0.00    -0.203 F 
ATOM     87  C   UNL     1      21.178   5.590   8.865  1.00  0.00     0.198 A 
ATOM     88  C   UNL     1      21.178   3.867   7.193  1.00  0.00     0.198 A 
ATOM     89  F   UNL     1      19.141   3.010   6.381  1.00  0.00    -0.203 F 
ATOM     90  F   UNL     1      21.845   6.450   9.646  1.00  0.00    -0.200 F 
ATOM     91  C   UNL     1      21.872   4.742   8.017  1.00  0.00     0.200 A 
ATOM     92  F   UNL     1      21.849   3.030   6.390  1.00  0.00    -0.200 F 
ATOM     93  F   UNL     1      23.212   4.767   7.991  1.00  0.00    -0.200 F 
ENDBRANCH  60  83
ENDBRANCH  34  35
ENDBRANCH  26  29
ENDBRANCH  24  25
ENDBRANCH  23  24
ENDBRANCH   1  23
TORSDOF 15
