REMARK SMILES C[C@@H](C(=O)NCCCCNC(=O)c1ccc(-c2c3nc(c(-c4c(F)c(F)c(F)c(F)c4F)c4ccc([nH]4)c(-c4c(F)c(F)c(F)c(F)c4F)c4nc(c(-c5c(F)c(F)c(F)c(F)c5F)c5ccc2[nH]5)C=C4)C=C3)cc1)c1ccc(-c2ccccc2)c(F)c1
REMARK SMILES IDX 7 1 6 2 5 3 3 4 4 5 2 7 1 8 76 9 77 10 88 11 78 12 86 13
REMARK SMILES IDX 79 14 87 15 80 16 81 17 85 18 82 19 84 20 83 21 8 22 9 23
REMARK SMILES IDX 10 24 11 25 12 27 13 28 14 29 75 30 15 31 74 32 16 33 17 34
REMARK SMILES IDX 18 35 68 36 19 37 73 38 67 39 69 40 20 41 72 42 66 43 65 44
REMARK SMILES IDX 21 46 53 47 33 48 52 49 34 50 37 51 51 52 70 53 35 54 36 55
REMARK SMILES IDX 50 57 71 58 38 59 22 60 23 61 31 62 24 63 25 64 29 65 32 66
REMARK SMILES IDX 26 67 27 68 30 69 28 70 54 71 55 72 63 73 56 74 57 75 61 76
REMARK SMILES IDX 64 77 58 78 59 79 62 80 60 81 39 82 40 83 48 84 41 85 42 86
REMARK SMILES IDX 46 87 49 88 43 89 44 90 47 91 45 92
REMARK H PARENT 5 6 10 26 69 45 37 56
REMARK Flexibility Score: inf
ROOT
ATOM      1  C   UNL     1       4.285   0.738   0.908  1.00  0.00     0.023 C 
ENDROOT
BRANCH   1   2
ATOM      2  C   UNL     1       3.528  -0.298   1.742  1.00  0.00     0.116 C 
BRANCH   2   3
ATOM      3  N   UNL     1       2.508   0.329   2.554  1.00  0.00    -0.356 N 
ATOM      4  C   UNL     1       1.159   0.418   2.367  1.00  0.00     0.227 C 
ATOM      5  O   UNL     1       0.544   1.105   3.185  1.00  0.00    -0.274 OA
ATOM      6  H   UNL     1       2.840   0.760   3.374  1.00  0.00     0.163 HD
BRANCH   4   7
ATOM      7  C   UNL     1       0.481  -0.341   1.211  1.00  0.00     0.105 C 
ATOM      8  C   UNL     1       0.830   0.240  -0.162  1.00  0.00     0.023 C 
BRANCH   7   9
ATOM      9  C   UNL     1      -1.039  -0.385   1.347  1.00  0.00    -0.033 A 
ATOM     10  C   UNL     1      -1.798   0.795   1.346  1.00  0.00     0.005 A 
ATOM     11  C   UNL     1      -1.713  -1.609   1.436  1.00  0.00     0.044 A 
ATOM     12  C   UNL     1      -3.192   0.752   1.427  1.00  0.00     0.012 A 
ATOM     13  C   UNL     1      -3.107  -1.642   1.515  1.00  0.00     0.131 A 
ATOM     14  C   UNL     1      -3.877  -0.470   1.505  1.00  0.00     0.017 A 
ATOM     15  F   UNL     1      -3.704  -2.843   1.583  1.00  0.00    -0.206 F 
BRANCH  14  16
ATOM     16  C   UNL     1      -5.346  -0.488   1.575  1.00  0.00    -0.015 A 
ATOM     17  C   UNL     1      -6.118   0.197   0.620  1.00  0.00     0.009 A 
ATOM     18  C   UNL     1      -6.018  -1.155   2.611  1.00  0.00     0.009 A 
ATOM     19  C   UNL     1      -7.512   0.225   0.705  1.00  0.00     0.001 A 
ATOM     20  C   UNL     1      -7.413  -1.127   2.697  1.00  0.00     0.001 A 
ATOM     21  C   UNL     1      -8.158  -0.434   1.746  1.00  0.00     0.000 A 
ENDBRANCH  14  16
ENDBRANCH   7   9
ENDBRANCH   4   7
ENDBRANCH   2   3
ENDBRANCH   1   2
BRANCH   1  22
ATOM     22  C   UNL     1       5.056   1.785   1.719  1.00  0.00     0.023 C 
BRANCH  22  23
ATOM     23  C   UNL     1       6.059   1.227   2.721  1.00  0.00     0.116 C 
BRANCH  23  24
ATOM     24  N   UNL     1       7.054   0.367   2.106  1.00  0.00    -0.352 N 
ATOM     25  C   UNL     1       8.390   0.246   2.385  1.00  0.00     0.251 C 
ATOM     26  H   UNL     1       6.721  -0.212   1.384  1.00  0.00     0.163 HD
ATOM     27  O   UNL     1       9.099  -0.458   1.665  1.00  0.00    -0.269 OA
BRANCH  25  28
ATOM     28  C   UNL     1       8.996   0.971   3.523  1.00  0.00     0.039 A 
ATOM     29  C   UNL     1      10.256   1.551   3.348  1.00  0.00     0.014 A 
ATOM     30  C   UNL     1       8.359   1.050   4.765  1.00  0.00     0.014 A 
ATOM     31  C   UNL     1      10.861   2.235   4.403  1.00  0.00     0.010 A 
ATOM     32  C   UNL     1       8.932   1.792   5.796  1.00  0.00     0.010 A 
ATOM     33  C   UNL     1      10.198   2.373   5.632  1.00  0.00    -0.014 A 
BRANCH  33  34
ATOM     34  C   UNL     1      10.840   3.084   6.766  1.00  0.00     0.031 A 
ATOM     35  C   UNL     1      11.234   2.326   8.004  1.00  0.00     0.074 A 
ATOM     36  C   UNL     1      11.037   4.414   6.696  1.00  0.00     0.049 A 
ATOM     37  N   UNL     1      11.795   2.766   9.102  1.00  0.00    -0.248 NA
ATOM     38  C   UNL     1      10.932   0.886   8.022  1.00  0.00     0.031 C 
ATOM     39  C   UNL     1      10.651   5.268   5.573  1.00  0.00     0.029 A 
ATOM     40  N   UNL     1      11.610   5.280   7.593  1.00  0.00    -0.354 N 
ATOM     41  C   UNL     1      11.894   1.666   9.943  1.00  0.00     0.074 A 
ATOM     42  C   UNL     1      11.289   0.548   9.252  1.00  0.00     0.031 C 
ATOM     43  C   UNL     1      11.027   6.531   5.833  1.00  0.00     0.029 A 
ATOM     44  C   UNL     1      11.656   6.579   7.150  1.00  0.00     0.049 A 
ATOM     45  H   UNL     1      11.956   4.998   8.470  1.00  0.00     0.167 HD
ATOM     46  C   UNL     1      12.459   1.588  11.172  1.00  0.00     0.037 A 
ATOM     47  C   UNL     1      12.159   7.681   7.738  1.00  0.00     0.037 A 
ATOM     48  C   UNL     1      13.096   2.691  11.841  1.00  0.00     0.049 A 
ATOM     49  C   UNL     1      12.812   7.560   9.088  1.00  0.00     0.074 A 
ATOM     50  C   UNL     1      13.759   2.700  13.056  1.00  0.00     0.029 A 
ATOM     51  N   UNL     1      13.152   3.986  11.345  1.00  0.00    -0.354 N 
ATOM     52  N   UNL     1      12.969   6.499   9.841  1.00  0.00    -0.248 NA
ATOM     53  C   UNL     1      13.371   8.791   9.663  1.00  0.00     0.031 C 
ATOM     54  C   UNL     1      14.184   4.008  13.312  1.00  0.00     0.029 A 
ATOM     55  C   UNL     1      13.826   4.804  12.237  1.00  0.00     0.049 A 
ATOM     56  H   UNL     1      12.769   4.279  10.487  1.00  0.00     0.167 HD
ATOM     57  C   UNL     1      13.675   6.924  10.958  1.00  0.00     0.074 A 
ATOM     58  C   UNL     1      13.925   8.340  10.780  1.00  0.00     0.031 C 
ATOM     59  C   UNL     1      14.082   6.207  12.034  1.00  0.00     0.037 A 
BRANCH  46  60
ATOM     60  C   UNL     1      12.418   0.259  11.870  1.00  0.00     0.064 A 
ATOM     61  C   UNL     1      13.186  -0.829  11.428  1.00  0.00     0.173 A 
ATOM     62  C   UNL     1      11.621   0.079  13.010  1.00  0.00     0.173 A 
ATOM     63  F   UNL     1      13.954  -0.713  10.334  1.00  0.00    -0.203 F 
ATOM     64  C   UNL     1      13.132  -2.057  12.082  1.00  0.00     0.198 A 
ATOM     65  C   UNL     1      11.593  -1.142  13.680  1.00  0.00     0.198 A 
ATOM     66  F   UNL     1      10.872   1.088  13.479  1.00  0.00    -0.203 F 
ATOM     67  F   UNL     1      13.833  -3.097  11.609  1.00  0.00    -0.200 F 
ATOM     68  C   UNL     1      12.341  -2.211  13.210  1.00  0.00     0.200 A 
ATOM     69  F   UNL     1      10.837  -1.286  14.777  1.00  0.00    -0.200 F 
ATOM     70  F   UNL     1      12.293  -3.392  13.841  1.00  0.00    -0.200 F 
ENDBRANCH  46  60
BRANCH  47  71
ATOM     71  C   UNL     1      12.117   8.986   7.029  1.00  0.00     0.064 A 
ATOM     72  C   UNL     1      13.290   9.565   6.525  1.00  0.00     0.173 A 
ATOM     73  C   UNL     1      10.914   9.681   6.847  1.00  0.00     0.173 A 
ATOM     74  F   UNL     1      14.467   8.945   6.693  1.00  0.00    -0.203 F 
ATOM     75  C   UNL     1      13.264  10.801   5.884  1.00  0.00     0.198 A 
ATOM     76  C   UNL     1      10.886  10.906   6.183  1.00  0.00     0.198 A 
ATOM     77  F   UNL     1       9.764   9.167   7.306  1.00  0.00    -0.203 F 
ATOM     78  F   UNL     1      14.406  11.352   5.452  1.00  0.00    -0.200 F 
ATOM     79  C   UNL     1      12.062  11.469   5.710  1.00  0.00     0.200 A 
ATOM     80  F   UNL     1       9.720  11.543   6.005  1.00  0.00    -0.200 F 
ATOM     81  F   UNL     1      12.037  12.658   5.092  1.00  0.00    -0.200 F 
ENDBRANCH  47  71
BRANCH  59  82
ATOM     82  C   UNL     1      14.882   6.930  13.077  1.00  0.00     0.064 A 
ATOM     83  C   UNL     1      14.295   7.863  13.943  1.00  0.00     0.173 A 
ATOM     84  C   UNL     1      16.252   6.662  13.228  1.00  0.00     0.173 A 
ATOM     85  F   UNL     1      12.993   8.164  13.828  1.00  0.00    -0.203 F 
ATOM     86  C   UNL     1      15.056   8.524  14.903  1.00  0.00     0.198 A 
ATOM     87  C   UNL     1      17.003   7.303  14.208  1.00  0.00     0.198 A 
ATOM     88  F   UNL     1      16.859   5.772  12.429  1.00  0.00    -0.203 F 
ATOM     89  F   UNL     1      14.485   9.450  15.687  1.00  0.00    -0.200 F 
ATOM     90  C   UNL     1      16.407   8.240  15.039  1.00  0.00     0.200 A 
ATOM     91  F   UNL     1      18.305   7.019  14.346  1.00  0.00    -0.200 F 
ATOM     92  F   UNL     1      17.137   8.876  15.966  1.00  0.00    -0.200 F 
ENDBRANCH  59  82
ENDBRANCH  33  34
ENDBRANCH  25  28
ENDBRANCH  23  24
ENDBRANCH  22  23
ENDBRANCH   1  22
TORSDOF 13
