REMARK SMILES O=C(NCCCCNC(=O)c1ccc(S(=O)(=O)NCC[NH+]2CCCC2)c(F)c1)c1ccc(-c2c3nc(c(-c4c(F)c(F)c(F)c(F)c4F)c4ccc([nH]4)c(-c4c(F)c(F)c(F)c(F)c4F)c4nc(c(-c5c(F)c(F)c(F)c(F)c5F)c5ccc2[nH]5)C=C4)C=C3)cc1
REMARK SMILES IDX 7 1 6 2 5 3 4 4 3 5 1 6 2 7 29 9 30 10 91 11 31 12 90 13
REMARK SMILES IDX 32 14 33 15 34 16 84 17 35 18 89 19 83 20 85 21 36 22 88 23
REMARK SMILES IDX 82 24 81 25 37 27 69 28 49 29 68 30 50 31 53 32 67 33 86 34
REMARK SMILES IDX 51 35 52 36 66 38 87 39 54 40 38 41 39 42 47 43 40 44 41 45
REMARK SMILES IDX 45 46 48 47 42 48 43 49 46 50 44 51 70 52 71 53 79 54 72 55
REMARK SMILES IDX 73 56 77 57 80 58 74 59 75 60 78 61 76 62 55 63 56 64 64 65
REMARK SMILES IDX 57 66 58 67 62 68 65 69 59 70 60 71 63 72 61 73 8 74 9 75
REMARK SMILES IDX 10 77 11 78 12 79 28 80 13 81 26 82 14 83 27 84 15 85 16 86
REMARK SMILES IDX 17 87 18 88 19 90 20 91 21 92 22 93 25 94 23 96 24 97
REMARK H PARENT 3 8 85 26 53 37 8 76 18 89 21 95
REMARK Flexibility Score: inf
ROOT
ATOM      1  C   UNL     1       4.892   3.668  -2.337  1.00  0.00     0.116 C 
ENDROOT
BRANCH   1   2
ATOM      2  C   UNL     1       4.489   2.463  -3.183  1.00  0.00     0.023 C 
BRANCH   2   3
ATOM      3  C   UNL     1       4.936   1.107  -2.647  1.00  0.00     0.023 C 
BRANCH   3   4
ATOM      4  C   UNL     1       4.619   0.844  -1.182  1.00  0.00     0.116 C 
BRANCH   4   5
ATOM      5  N   UNL     1       3.195   0.818  -0.890  1.00  0.00    -0.352 N 
ATOM      6  O   UNL     1       1.264  -0.033  -0.076  1.00  0.00    -0.269 OA
ATOM      7  C   UNL     1       2.487  -0.101  -0.149  1.00  0.00     0.251 C 
ATOM      8  H   UNL     1       2.667   1.556  -1.272  1.00  0.00     0.163 HD
BRANCH   7   9
ATOM      9  C   UNL     1       3.209  -1.199   0.530  1.00  0.00     0.039 A 
ATOM     10  C   UNL     1       4.366  -0.936   1.266  1.00  0.00     0.014 A 
ATOM     11  C   UNL     1       2.738  -2.509   0.404  1.00  0.00     0.014 A 
ATOM     12  C   UNL     1       5.133  -1.993   1.739  1.00  0.00     0.010 A 
ATOM     13  C   UNL     1       3.465  -3.567   0.961  1.00  0.00     0.010 A 
ATOM     14  C   UNL     1       4.687  -3.319   1.603  1.00  0.00    -0.014 A 
BRANCH  14  15
ATOM     15  C   UNL     1       5.495  -4.408   2.210  1.00  0.00     0.031 A 
ATOM     16  C   UNL     1       6.185  -5.440   1.365  1.00  0.00     0.074 A 
ATOM     17  C   UNL     1       5.661  -4.404   3.547  1.00  0.00     0.049 A 
ATOM     18  N   UNL     1       6.989  -6.404   1.741  1.00  0.00    -0.248 NA
ATOM     19  C   UNL     1       5.946  -5.395  -0.086  1.00  0.00     0.031 C 
ATOM     20  C   UNL     1       5.030  -3.454   4.466  1.00  0.00     0.029 A 
ATOM     21  N   UNL     1       6.436  -5.189   4.362  1.00  0.00    -0.354 N 
ATOM     22  C   UNL     1       7.339  -7.085   0.583  1.00  0.00     0.074 A 
ATOM     23  C   UNL     1       6.646  -6.439  -0.512  1.00  0.00     0.031 C 
ATOM     24  C   UNL     1       5.503  -3.659   5.703  1.00  0.00     0.029 A 
ATOM     25  C   UNL     1       6.420  -4.793   5.677  1.00  0.00     0.049 A 
ATOM     26  H   UNL     1       6.954  -5.960   4.036  1.00  0.00     0.167 HD
ATOM     27  C   UNL     1       8.169  -8.147   0.451  1.00  0.00     0.037 A 
ATOM     28  C   UNL     1       7.070  -5.287   6.746  1.00  0.00     0.037 A 
ATOM     29  C   UNL     1       8.875  -8.771   1.541  1.00  0.00     0.049 A 
ATOM     30  C   UNL     1       7.979  -6.466   6.565  1.00  0.00     0.074 A 
ATOM     31  C   UNL     1       9.754  -9.840   1.498  1.00  0.00     0.029 A 
ATOM     32  N   UNL     1       8.788  -8.379   2.868  1.00  0.00    -0.354 N 
ATOM     33  N   UNL     1       8.301  -7.096   5.463  1.00  0.00    -0.248 NA
ATOM     34  C   UNL     1       8.602  -7.013   7.777  1.00  0.00     0.031 C 
ATOM     35  C   UNL     1      10.174 -10.116   2.804  1.00  0.00     0.029 A 
ATOM     36  C   UNL     1       9.585  -9.195   3.655  1.00  0.00     0.049 A 
ATOM     37  H   UNL     1       8.242  -7.631   3.202  1.00  0.00     0.167 HD
ATOM     38  C   UNL     1       9.159  -8.115   5.846  1.00  0.00     0.074 A 
ATOM     39  C   UNL     1       9.335  -7.998   7.279  1.00  0.00     0.031 C 
ATOM     40  C   UNL     1       9.738  -9.071   5.080  1.00  0.00     0.037 A 
BRANCH  27  41
ATOM     41  C   UNL     1       8.375  -8.720  -0.920  1.00  0.00     0.064 A 
ATOM     42  C   UNL     1       7.825  -9.966  -1.259  1.00  0.00     0.173 A 
ATOM     43  C   UNL     1       9.207  -8.091  -1.856  1.00  0.00     0.173 A 
ATOM     44  F   UNL     1       7.028 -10.611  -0.394  1.00  0.00    -0.203 F 
ATOM     45  C   UNL     1       8.118 -10.570  -2.478  1.00  0.00     0.198 A 
ATOM     46  C   UNL     1       9.483  -8.690  -3.083  1.00  0.00     0.198 A 
ATOM     47  F   UNL     1       9.749  -6.895  -1.582  1.00  0.00    -0.203 F 
ATOM     48  F   UNL     1       7.611 -11.777  -2.767  1.00  0.00    -0.200 F 
ATOM     49  C   UNL     1       8.948  -9.933  -3.389  1.00  0.00     0.200 A 
ATOM     50  F   UNL     1      10.273  -8.067  -3.969  1.00  0.00    -0.200 F 
ATOM     51  F   UNL     1       9.234 -10.518  -4.560  1.00  0.00    -0.200 F 
ENDBRANCH  27  41
BRANCH  28  52
ATOM     52  C   UNL     1       6.884  -4.654   8.075  1.00  0.00     0.064 A 
ATOM     53  C   UNL     1       5.659  -4.733   8.754  1.00  0.00     0.173 A 
ATOM     54  C   UNL     1       7.921  -3.929   8.678  1.00  0.00     0.173 A 
ATOM     55  F   UNL     1       4.635  -5.411   8.215  1.00  0.00    -0.203 F 
ATOM     56  C   UNL     1       5.472  -4.091   9.976  1.00  0.00     0.198 A 
ATOM     57  C   UNL     1       7.741  -3.311   9.913  1.00  0.00     0.198 A 
ATOM     58  F   UNL     1       9.115  -3.842   8.074  1.00  0.00    -0.203 F 
ATOM     59  F   UNL     1       4.280  -4.151  10.585  1.00  0.00    -0.200 F 
ATOM     60  C   UNL     1       6.514  -3.385  10.556  1.00  0.00     0.200 A 
ATOM     61  F   UNL     1       8.757  -2.649  10.482  1.00  0.00    -0.200 F 
ATOM     62  F   UNL     1       6.337  -2.778  11.738  1.00  0.00    -0.200 F 
ENDBRANCH  28  52
BRANCH  40  63
ATOM     63  C   UNL     1      10.606 -10.071   5.781  1.00  0.00     0.064 A 
ATOM     64  C   UNL     1      12.000 -10.031   5.642  1.00  0.00     0.173 A 
ATOM     65  C   UNL     1      10.047 -11.096   6.559  1.00  0.00     0.173 A 
ATOM     66  F   UNL     1      12.579  -9.073   4.903  1.00  0.00    -0.203 F 
ATOM     67  C   UNL     1      12.806 -10.986   6.255  1.00  0.00     0.198 A 
ATOM     68  C   UNL     1      10.858 -12.035   7.189  1.00  0.00     0.198 A 
ATOM     69  F   UNL     1       8.719 -11.164   6.732  1.00  0.00    -0.203 F 
ATOM     70  F   UNL     1      14.136 -10.941   6.094  1.00  0.00    -0.200 F 
ATOM     71  C   UNL     1      12.235 -11.983   7.032  1.00  0.00     0.200 A 
ATOM     72  F   UNL     1      10.307 -12.983   7.960  1.00  0.00    -0.200 F 
ATOM     73  F   UNL     1      13.014 -12.892   7.635  1.00  0.00    -0.200 F 
ENDBRANCH  40  63
ENDBRANCH  14  15
ENDBRANCH   7   9
ENDBRANCH   4   5
ENDBRANCH   3   4
ENDBRANCH   2   3
ENDBRANCH   1   2
BRANCH   1  74
ATOM     74  N   UNL     1       6.330   3.762  -2.122  1.00  0.00    -0.352 N 
ATOM     75  C   UNL     1       7.212   4.742  -2.503  1.00  0.00     0.251 C 
ATOM     76  H   UNL     1       6.729   3.009  -1.629  1.00  0.00     0.163 HD
ATOM     77  O   UNL     1       8.418   4.598  -2.335  1.00  0.00    -0.269 OA
BRANCH  75  78
ATOM     78  C   UNL     1       6.706   5.960  -3.161  1.00  0.00     0.042 A 
ATOM     79  C   UNL     1       5.688   6.717  -2.574  1.00  0.00     0.015 A 
ATOM     80  C   UNL     1       7.239   6.324  -4.399  1.00  0.00     0.054 A 
ATOM     81  C   UNL     1       5.101   7.748  -3.300  1.00  0.00     0.026 A 
ATOM     82  C   UNL     1       6.673   7.384  -5.103  1.00  0.00     0.144 A 
ATOM     83  C   UNL     1       5.578   8.058  -4.583  1.00  0.00     0.118 A 
ATOM     84  F   UNL     1       7.201   7.700  -6.292  1.00  0.00    -0.205 F 
BRANCH  83  85
ATOM     85  S   UNL     1       4.674   9.256  -5.498  1.00  0.00     0.243 S 
ATOM     86  O   UNL     1       3.279   8.910  -5.334  1.00  0.00    -0.207 OA
ATOM     87  O   UNL     1       5.174  10.548  -5.083  1.00  0.00    -0.207 OA
BRANCH  85  88
ATOM     88  N   UNL     1       5.065   9.105  -7.106  1.00  0.00    -0.205 NA
ATOM     89  H   UNL     1       6.080   9.193  -7.145  1.00  0.00     0.141 HD
BRANCH  88  90
ATOM     90  C   UNL     1       4.742   7.959  -7.958  1.00  0.00     0.160 C 
BRANCH  90  91
ATOM     91  C   UNL     1       3.238   7.708  -8.167  1.00  0.00     0.278 C 
BRANCH  91  92
ATOM     92  N   UNL     1       2.425   8.608  -9.001  1.00  0.00    -0.334 N 
ATOM     93  C   UNL     1       2.898   9.972  -9.226  1.00  0.00     0.262 C 
ATOM     94  C   UNL     1       1.067   8.765  -8.451  1.00  0.00     0.262 C 
ATOM     95  H   UNL     1       2.477   8.121  -9.896  1.00  0.00     0.348 HD
ATOM     96  C   UNL     1       2.308  10.823  -8.120  1.00  0.00     0.067 C 
ATOM     97  C   UNL     1       1.044  10.092  -7.702  1.00  0.00     0.067 C 
ENDBRANCH  91  92
ENDBRANCH  90  91
ENDBRANCH  88  90
ENDBRANCH  85  88
ENDBRANCH  83  85
ENDBRANCH  75  78
ENDBRANCH   1  74
TORSDOF 16
