REMARK SMILES CC(C)n1cncc1C[NH2+][C@@H]1CCC[C@H](C(=O)NCCCCNC(=O)c2ccc(-c3c4nc(c(-c5c(F)c(F)c(F)c(F)c5F)c5ccc([nH]5)c(-c5c(F)c(F)c(F)c(F)c5F)c5nc(c(-c6c(F)c(F)c(F)c(F)c6F)c6ccc3[nH]6)C=C5)C=C4)cc2)C1
REMARK SMILES IDX 19 1 18 2 16 3 17 4 15 6 11 7 12 8 89 9 13 10 14 11 10 12
REMARK SMILES IDX 9 15 8 16 4 17 5 18 6 19 7 20 2 21 1 22 3 23 20 24 21 25
REMARK SMILES IDX 22 26 23 27 24 28 25 30 26 31 27 32 88 33 28 34 87 35 29 36
REMARK SMILES IDX 30 37 31 38 81 39 32 40 86 41 80 42 82 43 33 44 85 45 79 46
REMARK SMILES IDX 78 47 34 49 66 50 46 51 65 52 47 53 50 54 64 55 83 56 48 57
REMARK SMILES IDX 49 58 63 60 84 61 51 62 35 63 36 64 44 65 37 66 38 67 42 68
REMARK SMILES IDX 45 69 39 70 40 71 43 72 41 73 67 74 68 75 76 76 69 77 70 78
REMARK SMILES IDX 74 79 77 80 71 81 72 82 75 83 73 84 52 85 53 86 61 87 54 88
REMARK SMILES IDX 55 89 59 90 62 91 56 92 57 93 60 94 58 95
REMARK H PARENT 18 5 10 13 10 14 23 29 82 48 50 59
REMARK Flexibility Score: inf
ROOT
ATOM      1  C   UNL     1      -4.086   7.116  -1.226  1.00  0.00     0.116 C 
ENDROOT
BRANCH   1   2
ATOM      2  N   UNL     1      -3.786   7.829  -2.459  1.00  0.00    -0.356 N 
ATOM      3  C   UNL     1      -2.745   7.715  -3.335  1.00  0.00     0.223 C 
ATOM      4  O   UNL     1      -2.772   8.422  -4.346  1.00  0.00    -0.275 OA
ATOM      5  H   UNL     1      -4.451   8.512  -2.705  1.00  0.00     0.163 HD
BRANCH   3   6
ATOM      6  C   UNL     1      -1.573   6.767  -3.088  1.00  0.00     0.084 C 
ATOM      7  C   UNL     1      -1.066   4.285  -2.502  1.00  0.00     0.183 C 
ATOM      8  C   UNL     1      -0.541   4.815  -1.157  1.00  0.00     0.065 C 
ATOM      9  C   UNL     1      -2.015   5.294  -3.170  1.00  0.00     0.078 C 
ATOM     10  C   UNL     1       0.166   6.147  -1.335  1.00  0.00     0.007 C 
ATOM     11  C   UNL     1      -0.804   7.196  -1.833  1.00  0.00     0.014 C 
BRANCH   7  12
ATOM     12  N   UNL     1      -1.785   2.998  -2.412  1.00  0.00    -0.339 N 
ATOM     13  H   UNL     1      -2.756   3.188  -2.163  1.00  0.00     0.346 HD
ATOM     14  H   UNL     1      -1.698   2.543  -3.320  1.00  0.00     0.346 HD
BRANCH  12  15
ATOM     15  C   UNL     1      -1.227   2.087  -1.423  1.00  0.00     0.317 C 
BRANCH  15  16
ATOM     16  C   UNL     1      -1.772   0.712  -1.550  1.00  0.00     0.093 A 
ATOM     17  N   UNL     1      -1.007  -0.439  -1.520  1.00  0.00    -0.327 N 
ATOM     18  C   UNL     1      -1.873  -1.499  -1.508  1.00  0.00     0.200 A 
ATOM     19  N   UNL     1      -3.124  -1.110  -1.577  1.00  0.00    -0.245 NA
ATOM     20  C   UNL     1      -3.075   0.258  -1.597  1.00  0.00     0.140 A 
BRANCH  17  21
ATOM     21  C   UNL     1       0.451  -0.506  -1.456  1.00  0.00     0.082 C 
ATOM     22  C   UNL     1       0.951  -0.266  -0.031  1.00  0.00     0.031 C 
ATOM     23  C   UNL     1       1.047  -1.796  -2.026  1.00  0.00     0.031 C 
ENDBRANCH  17  21
ENDBRANCH  15  16
ENDBRANCH  12  15
ENDBRANCH   7  12
ENDBRANCH   3   6
ENDBRANCH   1   2
BRANCH   1  24
ATOM     24  C   UNL     1      -4.037   8.005   0.021  1.00  0.00     0.023 C 
BRANCH  24  25
ATOM     25  C   UNL     1      -5.061   9.142   0.098  1.00  0.00     0.023 C 
BRANCH  25  26
ATOM     26  C   UNL     1      -6.514   8.698   0.049  1.00  0.00     0.116 C 
BRANCH  26  27
ATOM     27  N   UNL     1      -6.894   7.827   1.161  1.00  0.00    -0.352 N 
ATOM     28  C   UNL     1      -8.106   7.183   1.357  1.00  0.00     0.251 C 
ATOM     29  H   UNL     1      -6.207   7.679   1.851  1.00  0.00     0.163 HD
ATOM     30  O   UNL     1      -8.454   6.801   2.459  1.00  0.00    -0.269 OA
BRANCH  28  31
ATOM     31  C   UNL     1      -8.972   6.972   0.183  1.00  0.00     0.039 A 
ATOM     32  C   UNL     1     -10.346   7.217   0.231  1.00  0.00     0.014 A 
ATOM     33  C   UNL     1      -8.357   6.576  -1.000  1.00  0.00     0.014 A 
ATOM     34  C   UNL     1     -11.078   7.151  -0.954  1.00  0.00     0.010 A 
ATOM     35  C   UNL     1      -9.039   6.681  -2.184  1.00  0.00     0.010 A 
ATOM     36  C   UNL     1     -10.410   6.908  -2.166  1.00  0.00    -0.014 A 
BRANCH  36  37
ATOM     37  C   UNL     1     -11.116   6.973  -3.440  1.00  0.00     0.031 A 
ATOM     38  C   UNL     1     -11.860   8.239  -3.692  1.00  0.00     0.074 A 
ATOM     39  C   UNL     1     -10.943   6.056  -4.418  1.00  0.00     0.049 A 
ATOM     40  N   UNL     1     -13.136   8.391  -3.821  1.00  0.00    -0.248 NA
ATOM     41  C   UNL     1     -11.109   9.506  -3.697  1.00  0.00     0.031 C 
ATOM     42  C   UNL     1     -10.005   4.928  -4.462  1.00  0.00     0.029 A 
ATOM     43  N   UNL     1     -11.514   6.010  -5.652  1.00  0.00    -0.354 N 
ATOM     44  C   UNL     1     -13.346   9.740  -4.095  1.00  0.00     0.074 A 
ATOM     45  C   UNL     1     -12.088  10.400  -3.858  1.00  0.00     0.031 C 
ATOM     46  C   UNL     1      -9.899   4.473  -5.730  1.00  0.00     0.029 A 
ATOM     47  C   UNL     1     -10.891   5.147  -6.544  1.00  0.00     0.049 A 
ATOM     48  H   UNL     1     -12.304   6.545  -5.893  1.00  0.00     0.167 HD
ATOM     49  C   UNL     1     -14.489  10.166  -4.702  1.00  0.00     0.037 A 
ATOM     50  C   UNL     1     -11.159   5.018  -7.866  1.00  0.00     0.037 A 
ATOM     51  C   UNL     1     -15.508   9.148  -4.662  1.00  0.00     0.049 A 
ATOM     52  C   UNL     1     -12.512   5.580  -8.095  1.00  0.00     0.074 A 
ATOM     53  C   UNL     1     -16.180   8.486  -3.654  1.00  0.00     0.029 A 
ATOM     54  N   UNL     1     -15.702   8.394  -5.793  1.00  0.00    -0.354 N 
ATOM     55  N   UNL     1     -13.609   5.041  -7.640  1.00  0.00    -0.248 NA
ATOM     56  C   UNL     1     -12.606   6.989  -8.444  1.00  0.00     0.031 C 
ATOM     57  C   UNL     1     -16.303   7.142  -4.116  1.00  0.00     0.029 A 
ATOM     58  C   UNL     1     -15.767   7.082  -5.403  1.00  0.00     0.049 A 
ATOM     59  H   UNL     1     -15.780   8.733  -6.714  1.00  0.00     0.167 HD
ATOM     60  C   UNL     1     -14.380   6.116  -7.227  1.00  0.00     0.074 A 
ATOM     61  C   UNL     1     -13.755   7.289  -7.833  1.00  0.00     0.031 C 
ATOM     62  C   UNL     1     -15.274   5.986  -6.203  1.00  0.00     0.037 A 
BRANCH  49  63
ATOM     63  C   UNL     1     -14.587  11.343  -5.640  1.00  0.00     0.064 A 
ATOM     64  C   UNL     1     -15.859  11.773  -6.075  1.00  0.00     0.173 A 
ATOM     65  C   UNL     1     -13.491  11.858  -6.364  1.00  0.00     0.173 A 
ATOM     66  F   UNL     1     -16.973  11.334  -5.470  1.00  0.00    -0.203 F 
ATOM     67  C   UNL     1     -16.019  12.585  -7.201  1.00  0.00     0.198 A 
ATOM     68  C   UNL     1     -13.653  12.712  -7.454  1.00  0.00     0.198 A 
ATOM     69  F   UNL     1     -12.235  11.467  -6.123  1.00  0.00    -0.203 F 
ATOM     70  F   UNL     1     -17.250  12.858  -7.655  1.00  0.00    -0.200 F 
ATOM     71  C   UNL     1     -14.916  13.048  -7.894  1.00  0.00     0.200 A 
ATOM     72  F   UNL     1     -12.572  13.135  -8.124  1.00  0.00    -0.200 F 
ATOM     73  F   UNL     1     -15.067  13.772  -9.011  1.00  0.00    -0.200 F 
ENDBRANCH  49  63
BRANCH  50  74
ATOM     74  C   UNL     1     -10.221   4.731  -8.976  1.00  0.00     0.064 A 
ATOM     75  C   UNL     1     -10.698   4.338 -10.237  1.00  0.00     0.173 A 
ATOM     76  C   UNL     1      -8.869   5.123  -8.911  1.00  0.00     0.173 A 
ATOM     77  F   UNL     1     -11.983   3.987 -10.392  1.00  0.00    -0.203 F 
ATOM     78  C   UNL     1      -9.883   4.374 -11.373  1.00  0.00     0.198 A 
ATOM     79  C   UNL     1      -8.055   5.152 -10.044  1.00  0.00     0.198 A 
ATOM     80  F   UNL     1      -8.341   5.581  -7.767  1.00  0.00    -0.203 F 
ATOM     81  F   UNL     1     -10.394   4.061 -12.572  1.00  0.00    -0.200 F 
ATOM     82  C   UNL     1      -8.567   4.795 -11.278  1.00  0.00     0.200 A 
ATOM     83  F   UNL     1      -6.794   5.596  -9.946  1.00  0.00    -0.200 F 
ATOM     84  F   UNL     1      -7.807   4.898 -12.377  1.00  0.00    -0.200 F 
ENDBRANCH  50  74
BRANCH  62  85
ATOM     85  C   UNL     1     -15.599   4.597  -5.727  1.00  0.00     0.064 A 
ATOM     86  C   UNL     1     -14.665   3.712  -5.158  1.00  0.00     0.173 A 
ATOM     87  C   UNL     1     -16.942   4.199  -5.725  1.00  0.00     0.173 A 
ATOM     88  F   UNL     1     -13.378   4.055  -5.027  1.00  0.00    -0.203 F 
ATOM     89  C   UNL     1     -15.054   2.471  -4.658  1.00  0.00     0.198 A 
ATOM     90  C   UNL     1     -17.334   2.975  -5.190  1.00  0.00     0.198 A 
ATOM     91  F   UNL     1     -17.887   5.023  -6.204  1.00  0.00    -0.203 F 
ATOM     92  F   UNL     1     -14.141   1.639  -4.136  1.00  0.00    -0.200 F 
ATOM     93  C   UNL     1     -16.390   2.107  -4.668  1.00  0.00     0.200 A 
ATOM     94  F   UNL     1     -18.634   2.650  -5.157  1.00  0.00    -0.200 F 
ATOM     95  F   UNL     1     -16.772   0.930  -4.152  1.00  0.00    -0.200 F 
ENDBRANCH  62  85
ENDBRANCH  36  37
ENDBRANCH  28  31
ENDBRANCH  26  27
ENDBRANCH  25  26
ENDBRANCH  24  25
ENDBRANCH   1  24
TORSDOF 15
