REMARK SMILES COc1ccc(NC(=O)c2nn(C)cc2C(=O)NCCCCNC(=O)c2ccc(-c3c4nc(c(-c5c(F)c(F)c(F)c(F)c5F)c5ccc([nH]5)c(-c5c(F)c(F)c(F)c(F)c5F)c5nc(c(-c6c(F)c(F)c(F)c(F)c6F)c6ccc3[nH]6)C=C5)C=C4)cc2)c(C)c1
REMARK SMILES IDX 20 1 19 2 18 3 16 4 17 5 15 7 10 8 11 9 12 10 14 11 13 12
REMARK SMILES IDX 8 13 7 14 9 16 6 17 3 18 4 19 91 20 5 21 89 22 90 23 2 24
REMARK SMILES IDX 1 25 21 26 22 27 23 28 24 29 25 31 26 32 27 33 88 34 28 35
REMARK SMILES IDX 87 36 29 37 30 38 31 39 81 40 32 41 86 42 80 43 82 44 33 45
REMARK SMILES IDX 85 46 79 47 78 48 34 50 66 51 46 52 65 53 47 54 50 55 64 56
REMARK SMILES IDX 83 57 48 58 49 59 63 61 84 62 51 63 35 64 36 65 44 66 37 67
REMARK SMILES IDX 38 68 42 69 45 70 39 71 40 72 43 73 41 74 67 75 68 76 76 77
REMARK SMILES IDX 69 78 70 79 74 80 77 81 71 82 72 83 75 84 73 85 52 86 53 87
REMARK SMILES IDX 61 88 54 89 55 90 59 91 62 92 56 93 57 94 60 95 58 96
REMARK H PARENT 18 6 7 15 23 30 82 49 50 60
REMARK Flexibility Score: inf
ROOT
ATOM      1  C   UNL     1       4.358   0.115   1.851  1.00  0.00     0.023 C 
ENDROOT
BRANCH   1   2
ATOM      2  C   UNL     1       5.155  -0.519   2.995  1.00  0.00     0.116 C 
BRANCH   2   3
ATOM      3  N   UNL     1       4.355  -1.244   3.967  1.00  0.00    -0.352 N 
ATOM      4  C   UNL     1       4.154  -2.585   4.231  1.00  0.00     0.255 C 
ATOM      5  O   UNL     1       3.442  -2.860   5.185  1.00  0.00    -0.269 OA
ATOM      6  H   UNL     1       3.847  -0.652   4.568  1.00  0.00     0.163 HD
BRANCH   4   7
ATOM      7  C   UNL     1       4.715  -3.627   3.380  1.00  0.00     0.090 A 
ATOM      8  C   UNL     1       4.177  -4.953   3.194  1.00  0.00     0.163 A 
ATOM      9  N   UNL     1       4.892  -5.644   2.282  1.00  0.00    -0.167 NA
ATOM     10  N   UNL     1       5.864  -4.807   1.918  1.00  0.00    -0.274 N 
ATOM     11  C   UNL     1       5.870  -3.642   2.622  1.00  0.00     0.123 A 
ATOM     12  C   UNL     1       6.728  -5.153   0.816  1.00  0.00     0.173 C 
BRANCH   8  13
ATOM     13  C   UNL     1       3.005  -5.579   3.822  1.00  0.00     0.277 C 
ATOM     14  N   UNL     1       1.736  -5.054   3.662  1.00  0.00    -0.320 N 
ATOM     15  H   UNL     1       1.048  -5.512   4.196  1.00  0.00     0.170 HD
ATOM     16  O   UNL     1       3.115  -6.585   4.528  1.00  0.00    -0.267 OA
BRANCH  14  17
ATOM     17  C   UNL     1       1.237  -3.993   2.885  1.00  0.00     0.044 A 
ATOM     18  C   UNL     1       0.399  -1.654   1.544  1.00  0.00     0.119 A 
ATOM     19  C   UNL     1       1.515  -2.349   1.104  1.00  0.00     0.048 A 
ATOM     20  C   UNL     1      -0.359  -2.194   2.582  1.00  0.00     0.052 A 
ATOM     21  C   UNL     1       1.921  -3.511   1.764  1.00  0.00     0.030 A 
ATOM     22  C   UNL     1       0.022  -3.381   3.241  1.00  0.00    -0.024 A 
ATOM     23  C   UNL     1      -0.946  -3.922   4.261  1.00  0.00     0.047 C 
BRANCH  18  24
ATOM     24  O   UNL     1      -0.056  -0.466   1.047  1.00  0.00    -0.497 OA
ATOM     25  C   UNL     1       0.598   0.034  -0.112  1.00  0.00     0.278 C 
ENDBRANCH  18  24
ENDBRANCH  14  17
ENDBRANCH   8  13
ENDBRANCH   4   7
ENDBRANCH   2   3
ENDBRANCH   1   2
BRANCH   1  26
ATOM     26  C   UNL     1       3.395   1.233   2.245  1.00  0.00     0.023 C 
BRANCH  26  27
ATOM     27  C   UNL     1       4.055   2.447   2.873  1.00  0.00     0.116 C 
BRANCH  27  28
ATOM     28  N   UNL     1       4.758   3.326   1.946  1.00  0.00    -0.352 N 
ATOM     29  C   UNL     1       5.446   4.506   2.181  1.00  0.00     0.251 C 
ATOM     30  H   UNL     1       4.741   3.035   1.005  1.00  0.00     0.163 HD
ATOM     31  O   UNL     1       5.828   5.177   1.226  1.00  0.00    -0.269 OA
BRANCH  29  32
ATOM     32  C   UNL     1       5.891   4.868   3.553  1.00  0.00     0.039 A 
ATOM     33  C   UNL     1       7.160   5.454   3.690  1.00  0.00     0.014 A 
ATOM     34  C   UNL     1       5.262   4.333   4.665  1.00  0.00     0.014 A 
ATOM     35  C   UNL     1       7.908   5.200   4.833  1.00  0.00     0.010 A 
ATOM     36  C   UNL     1       6.051   3.912   5.701  1.00  0.00     0.010 A 
ATOM     37  C   UNL     1       7.392   4.297   5.748  1.00  0.00    -0.014 A 
BRANCH  37  38
ATOM     38  C   UNL     1       8.116   3.704   6.850  1.00  0.00     0.031 A 
ATOM     39  C   UNL     1       7.824   4.221   8.197  1.00  0.00     0.074 A 
ATOM     40  C   UNL     1       8.772   2.544   6.626  1.00  0.00     0.049 A 
ATOM     41  N   UNL     1       8.437   3.847   9.259  1.00  0.00    -0.248 NA
ATOM     42  C   UNL     1       6.819   5.254   8.454  1.00  0.00     0.031 C 
ATOM     43  C   UNL     1       9.166   1.533   7.604  1.00  0.00     0.029 A 
ATOM     44  N   UNL     1       9.389   2.124   5.433  1.00  0.00    -0.354 N 
ATOM     45  C   UNL     1       7.737   4.335  10.337  1.00  0.00     0.074 A 
ATOM     46  C   UNL     1       6.824   5.300   9.789  1.00  0.00     0.031 C 
ATOM     47  C   UNL     1      10.176   0.807   7.095  1.00  0.00     0.029 A 
ATOM     48  C   UNL     1      10.562   1.447   5.851  1.00  0.00     0.049 A 
ATOM     49  H   UNL     1       9.075   2.269   4.511  1.00  0.00     0.167 HD
ATOM     50  C   UNL     1       7.948   3.740  11.542  1.00  0.00     0.037 A 
ATOM     51  C   UNL     1      11.795   1.990   5.619  1.00  0.00     0.037 A 
ATOM     52  C   UNL     1       9.141   2.895  11.465  1.00  0.00     0.049 A 
ATOM     53  C   UNL     1      12.548   2.305   6.891  1.00  0.00     0.074 A 
ATOM     54  C   UNL     1       9.334   1.531  11.341  1.00  0.00     0.029 A 
ATOM     55  N   UNL     1      10.357   3.499  11.150  1.00  0.00    -0.354 N 
ATOM     56  N   UNL     1      11.972   2.549   8.038  1.00  0.00    -0.248 NA
ATOM     57  C   UNL     1      14.003   2.321   6.979  1.00  0.00     0.031 C 
ATOM     58  C   UNL     1      10.652   1.328  10.841  1.00  0.00     0.029 A 
ATOM     59  C   UNL     1      11.271   2.562  10.713  1.00  0.00     0.049 A 
ATOM     60  H   UNL     1      10.540   4.463  11.230  1.00  0.00     0.167 HD
ATOM     61  C   UNL     1      12.930   2.721   9.004  1.00  0.00     0.074 A 
ATOM     62  C   UNL     1      14.184   2.568   8.289  1.00  0.00     0.031 C 
ATOM     63  C   UNL     1      12.615   2.962  10.314  1.00  0.00     0.037 A 
BRANCH  50  64
ATOM     64  C   UNL     1       7.008   3.750  12.729  1.00  0.00     0.064 A 
ATOM     65  C   UNL     1       7.348   3.027  13.895  1.00  0.00     0.173 A 
ATOM     66  C   UNL     1       5.720   4.328  12.759  1.00  0.00     0.173 A 
ATOM     67  F   UNL     1       8.538   2.419  14.012  1.00  0.00    -0.203 F 
ATOM     68  C   UNL     1       6.472   2.880  14.976  1.00  0.00     0.198 A 
ATOM     69  C   UNL     1       4.862   4.215  13.857  1.00  0.00     0.198 A 
ATOM     70  F   UNL     1       5.203   4.984  11.718  1.00  0.00    -0.203 F 
ATOM     71  F   UNL     1       6.835   2.135  16.030  1.00  0.00    -0.200 F 
ATOM     72  C   UNL     1       5.230   3.480  14.960  1.00  0.00     0.200 A 
ATOM     73  F   UNL     1       3.658   4.807  13.818  1.00  0.00    -0.200 F 
ATOM     74  F   UNL     1       4.388   3.339  15.993  1.00  0.00    -0.200 F 
ENDBRANCH  50  64
BRANCH  51  75
ATOM     75  C   UNL     1      11.833   2.763   4.345  1.00  0.00     0.064 A 
ATOM     76  C   UNL     1      11.625   2.035   3.155  1.00  0.00     0.173 A 
ATOM     77  C   UNL     1      11.561   4.137   4.316  1.00  0.00     0.173 A 
ATOM     78  F   UNL     1      11.890   0.719   3.123  1.00  0.00    -0.203 F 
ATOM     79  C   UNL     1      10.995   2.611   2.054  1.00  0.00     0.198 A 
ATOM     80  C   UNL     1      10.960   4.718   3.194  1.00  0.00     0.198 A 
ATOM     81  F   UNL     1      11.738   4.888   5.412  1.00  0.00    -0.203 F 
ATOM     82  F   UNL     1      10.661   1.850   1.002  1.00  0.00    -0.200 F 
ATOM     83  C   UNL     1      10.626   3.944   2.091  1.00  0.00     0.200 A 
ATOM     84  F   UNL     1      10.603   6.011   3.223  1.00  0.00    -0.200 F 
ATOM     85  F   UNL     1       9.911   4.471   1.087  1.00  0.00    -0.200 F 
ENDBRANCH  51  75
BRANCH  63  86
ATOM     86  C   UNL     1      13.555   3.507  11.373  1.00  0.00     0.064 A 
ATOM     87  C   UNL     1      14.743   4.204  11.094  1.00  0.00     0.173 A 
ATOM     88  C   UNL     1      13.190   3.478  12.745  1.00  0.00     0.173 A 
ATOM     89  F   UNL     1      15.142   4.441   9.838  1.00  0.00    -0.203 F 
ATOM     90  C   UNL     1      15.541   4.752  12.104  1.00  0.00     0.198 A 
ATOM     91  C   UNL     1      13.948   4.092  13.741  1.00  0.00     0.198 A 
ATOM     92  F   UNL     1      12.065   2.883  13.166  1.00  0.00    -0.203 F 
ATOM     93  F   UNL     1      16.693   5.356  11.781  1.00  0.00    -0.200 F 
ATOM     94  C   UNL     1      15.137   4.708  13.424  1.00  0.00     0.200 A 
ATOM     95  F   UNL     1      13.503   4.100  15.005  1.00  0.00    -0.200 F 
ATOM     96  F   UNL     1      15.878   5.282  14.380  1.00  0.00    -0.200 F 
ENDBRANCH  63  86
ENDBRANCH  37  38
ENDBRANCH  29  32
ENDBRANCH  27  28
ENDBRANCH  26  27
ENDBRANCH   1  26
TORSDOF 14
