REMARK SMILES O=C(NCCCCNC(=O)[C@@H]1C[C@H]1C(=O)N[C@@H]1CONC1=O)c1ccc(-c2c3nc(c(-c4c(F)c(F)c(F)c(F)c4F)c4ccc([nH]4)c(-c4c(F)c(F)c(F)c(F)c4F)c4nc(c(-c5c(F)c(F)c(F)c(F)c5F)c5ccc2[nH]5)C=C4)C=C3)cc1
REMARK SMILES IDX 5 1 4 2 3 3 1 4 2 5 23 7 24 8 85 9 25 10 84 11 26 12 27 13
REMARK SMILES IDX 28 14 78 15 29 16 83 17 77 18 79 19 30 20 82 21 76 22 75 23
REMARK SMILES IDX 31 25 63 26 43 27 62 28 44 29 47 30 61 31 80 32 45 33 46 34
REMARK SMILES IDX 60 36 81 37 48 38 32 39 33 40 41 41 34 42 35 43 39 44 42 45
REMARK SMILES IDX 36 46 37 47 40 48 38 49 64 50 65 51 73 52 66 53 67 54 71 55
REMARK SMILES IDX 74 56 68 57 69 58 72 59 70 60 49 61 50 62 58 63 51 64 52 65
REMARK SMILES IDX 56 66 59 67 53 68 54 69 57 70 55 71 6 72 7 73 8 74 9 75
REMARK SMILES IDX 10 77 11 78 12 79 13 80 14 81 15 82 16 83 17 85 18 86 21 87
REMARK SMILES IDX 19 88 20 89 22 90
REMARK H PARENT 3 6 79 24 47 35 8 76 16 84 20 91
REMARK Flexibility Score: inf
ROOT
ATOM      1  C   UNL     1       4.863  -2.546  -0.031  1.00  0.00     0.023 C 
ENDROOT
BRANCH   1   2
ATOM      2  C   UNL     1       4.503  -1.128  -0.451  1.00  0.00     0.116 C 
BRANCH   2   3
ATOM      3  N   UNL     1       3.068  -0.904  -0.577  1.00  0.00    -0.352 N 
ATOM      4  O   UNL     1       1.066   0.039  -0.107  1.00  0.00    -0.269 OA
ATOM      5  C   UNL     1       2.286   0.063   0.015  1.00  0.00     0.251 C 
ATOM      6  H   UNL     1       2.592  -1.532  -1.167  1.00  0.00     0.163 HD
BRANCH   5   7
ATOM      7  C   UNL     1       2.930   1.106   0.841  1.00  0.00     0.039 A 
ATOM      8  C   UNL     1       4.089   1.741   0.394  1.00  0.00     0.014 A 
ATOM      9  C   UNL     1       2.411   1.399   2.104  1.00  0.00     0.014 A 
ATOM     10  C   UNL     1       4.844   2.490   1.285  1.00  0.00     0.010 A 
ATOM     11  C   UNL     1       3.113   2.256   2.958  1.00  0.00     0.010 A 
ATOM     12  C   UNL     1       4.366   2.762   2.578  1.00  0.00    -0.014 A 
BRANCH  12  13
ATOM     13  C   UNL     1       5.194   3.590   3.495  1.00  0.00     0.031 A 
ATOM     14  C   UNL     1       5.712   3.039   4.797  1.00  0.00     0.074 A 
ATOM     15  C   UNL     1       5.524   4.841   3.117  1.00  0.00     0.049 A 
ATOM     16  N   UNL     1       6.483   3.612   5.689  1.00  0.00    -0.248 NA
ATOM     17  C   UNL     1       5.306   1.671   5.155  1.00  0.00     0.031 C 
ATOM     18  C   UNL     1       5.081   5.489   1.880  1.00  0.00     0.029 A 
ATOM     19  N   UNL     1       6.325   5.780   3.713  1.00  0.00    -0.354 N 
ATOM     20  C   UNL     1       6.632   2.691   6.718  1.00  0.00     0.074 A 
ATOM     21  C   UNL     1       5.847   1.530   6.357  1.00  0.00     0.031 C 
ATOM     22  C   UNL     1       5.662   6.692   1.780  1.00  0.00     0.029 A 
ATOM     23  C   UNL     1       6.457   6.932   2.978  1.00  0.00     0.049 A 
ATOM     24  H   UNL     1       6.763   5.641   4.584  1.00  0.00     0.167 HD
ATOM     25  C   UNL     1       7.364   2.801   7.855  1.00  0.00     0.037 A 
ATOM     26  C   UNL     1       7.130   8.066   3.244  1.00  0.00     0.037 A 
ATOM     27  C   UNL     1       8.157   3.954   8.201  1.00  0.00     0.049 A 
ATOM     28  C   UNL     1       7.906   8.170   4.526  1.00  0.00     0.074 A 
ATOM     29  C   UNL     1       8.966   4.145   9.309  1.00  0.00     0.029 A 
ATOM     30  N   UNL     1       8.235   5.118   7.448  1.00  0.00    -0.354 N 
ATOM     31  N   UNL     1       8.073   7.275   5.469  1.00  0.00    -0.248 NA
ATOM     32  C   UNL     1       8.591   9.444   4.778  1.00  0.00     0.031 C 
ATOM     33  C   UNL     1       9.478   5.446   9.260  1.00  0.00     0.029 A 
ATOM     34  C   UNL     1       9.053   6.040   8.083  1.00  0.00     0.049 A 
ATOM     35  H   UNL     1       7.777   5.266   6.589  1.00  0.00     0.167 HD
ATOM     36  C   UNL     1       8.910   7.862   6.408  1.00  0.00     0.074 A 
ATOM     37  C   UNL     1       9.228   9.185   5.910  1.00  0.00     0.031 C 
ATOM     38  C   UNL     1       9.374   7.351   7.574  1.00  0.00     0.037 A 
BRANCH  25  39
ATOM     39  C   UNL     1       7.321   1.656   8.831  1.00  0.00     0.064 A 
ATOM     40  C   UNL     1       7.901   0.410   8.547  1.00  0.00     0.173 A 
ATOM     41  C   UNL     1       6.725   1.824  10.092  1.00  0.00     0.173 A 
ATOM     42  F   UNL     1       8.477   0.190   7.355  1.00  0.00    -0.203 F 
ATOM     43  C   UNL     1       7.858  -0.631   9.472  1.00  0.00     0.198 A 
ATOM     44  C   UNL     1       6.715   0.792  11.028  1.00  0.00     0.198 A 
ATOM     45  F   UNL     1       6.163   2.996  10.424  1.00  0.00    -0.203 F 
ATOM     46  F   UNL     1       8.371  -1.828   9.155  1.00  0.00    -0.200 F 
ATOM     47  C   UNL     1       7.272  -0.437  10.714  1.00  0.00     0.200 A 
ATOM     48  F   UNL     1       6.163   0.989  12.234  1.00  0.00    -0.200 F 
ATOM     49  F   UNL     1       7.238  -1.437  11.605  1.00  0.00    -0.200 F 
ENDBRANCH  25  39
BRANCH  26  50
ATOM     50  C   UNL     1       7.101   9.191   2.273  1.00  0.00     0.064 A 
ATOM     51  C   UNL     1       8.261   9.586   1.591  1.00  0.00     0.173 A 
ATOM     52  C   UNL     1       5.917   9.896   2.009  1.00  0.00     0.173 A 
ATOM     53  F   UNL     1       9.421   8.953   1.821  1.00  0.00    -0.203 F 
ATOM     54  C   UNL     1       8.243  10.660   0.704  1.00  0.00     0.198 A 
ATOM     55  C   UNL     1       5.893  10.945   1.094  1.00  0.00     0.198 A 
ATOM     56  F   UNL     1       4.778   9.552   2.627  1.00  0.00    -0.203 F 
ATOM     57  F   UNL     1       9.377  11.052   0.108  1.00  0.00    -0.200 F 
ATOM     58  C   UNL     1       7.058  11.335   0.452  1.00  0.00     0.200 A 
ATOM     59  F   UNL     1       4.741  11.580   0.838  1.00  0.00    -0.200 F 
ATOM     60  F   UNL     1       7.040  12.364  -0.405  1.00  0.00    -0.200 F 
ENDBRANCH  26  50
BRANCH  38  61
ATOM     61  C   UNL     1      10.331   8.201   8.363  1.00  0.00     0.064 A 
ATOM     62  C   UNL     1       9.928   9.386   8.997  1.00  0.00     0.173 A 
ATOM     63  C   UNL     1      11.674   7.813   8.493  1.00  0.00     0.173 A 
ATOM     64  F   UNL     1       8.659   9.811   8.892  1.00  0.00    -0.203 F 
ATOM     65  C   UNL     1      10.842  10.172   9.694  1.00  0.00     0.198 A 
ATOM     66  C   UNL     1      12.575   8.580   9.225  1.00  0.00     0.198 A 
ATOM     67  F   UNL     1      12.112   6.685   7.915  1.00  0.00    -0.203 F 
ATOM     68  F   UNL     1      10.449  11.335  10.232  1.00  0.00    -0.200 F 
ATOM     69  C   UNL     1      12.162   9.765   9.814  1.00  0.00     0.200 A 
ATOM     70  F   UNL     1      13.847   8.176   9.354  1.00  0.00    -0.200 F 
ATOM     71  F   UNL     1      13.040  10.521  10.488  1.00  0.00    -0.200 F 
ENDBRANCH  38  61
ENDBRANCH  12  13
ENDBRANCH   5   7
ENDBRANCH   2   3
ENDBRANCH   1   2
BRANCH   1  72
ATOM     72  C   UNL     1       4.460  -3.628  -1.026  1.00  0.00     0.023 C 
BRANCH  72  73
ATOM     73  C   UNL     1       4.997  -3.410  -2.436  1.00  0.00     0.116 C 
BRANCH  73  74
ATOM     74  N   UNL     1       6.441  -3.532  -2.506  1.00  0.00    -0.356 N 
ATOM     75  C   UNL     1       7.201  -4.459  -3.165  1.00  0.00     0.223 C 
ATOM     76  H   UNL     1       6.946  -2.850  -2.008  1.00  0.00     0.163 HD
ATOM     77  O   UNL     1       8.426  -4.408  -3.091  1.00  0.00    -0.275 OA
BRANCH  75  78
ATOM     78  C   UNL     1       6.522  -5.517  -3.954  1.00  0.00     0.091 C 
ATOM     79  C   UNL     1       6.870  -6.970  -3.750  1.00  0.00     0.028 C 
ATOM     80  C   UNL     1       7.268  -6.267  -5.019  1.00  0.00     0.091 C 
BRANCH  80  81
ATOM     81  C   UNL     1       6.741  -6.576  -6.369  1.00  0.00     0.224 C 
ATOM     82  O   UNL     1       7.561  -6.644  -7.285  1.00  0.00    -0.275 OA
ATOM     83  N   UNL     1       5.447  -6.815  -6.729  1.00  0.00    -0.342 N 
ATOM     84  H   UNL     1       5.402  -7.106  -7.668  1.00  0.00     0.164 HD
BRANCH  83  85
ATOM     85  C   UNL     1       4.105  -6.771  -6.148  1.00  0.00     0.202 C 
ATOM     86  C   UNL     1       3.532  -5.429  -5.721  1.00  0.00     0.228 C 
ATOM     87  C   UNL     1       3.810  -7.671  -4.984  1.00  0.00     0.268 C 
ATOM     88  O   UNL     1       2.997  -5.575  -4.393  1.00  0.00    -0.271 OA
ATOM     89  N   UNL     1       3.175  -6.926  -4.031  1.00  0.00    -0.233 N 
ATOM     90  O   UNL     1       4.073  -8.860  -4.894  1.00  0.00    -0.270 OA
ATOM     91  H   UNL     1       2.870  -7.297  -3.172  1.00  0.00     0.199 HD
ENDBRANCH  83  85
ENDBRANCH  80  81
ENDBRANCH  75  78
ENDBRANCH  73  74
ENDBRANCH  72  73
ENDBRANCH   1  72
TORSDOF 13
