REMARK SMILES C[C@@H]1[C@@H](C(=O)NCCCCNC(=O)c2ccc(-c3c4nc(c(-c5c(F)c(F)c(F)c(F)c5F)c5ccc([nH]5)c(-c5c(F)c(F)c(F)c(F)c5F)c5nc(c(-c6c(F)c(F)c(F)c(F)c6F)c6ccc3[nH]6)C=C5)C=C4)cc2)CCN1C(=O)CN1C(=O)CNC1=O
REMARK SMILES IDX 8 1 7 2 6 3 4 4 5 5 3 7 1 8 2 9 79 10 77 11 78 12 80 13
REMARK SMILES IDX 81 14 82 15 83 16 84 17 88 18 85 19 86 20 87 21 89 22 9 24
REMARK SMILES IDX 10 25 11 26 12 27 13 29 14 30 15 31 76 32 16 33 75 34 17 35
REMARK SMILES IDX 18 36 19 37 69 38 20 39 74 40 68 41 70 42 21 43 73 44 67 45
REMARK SMILES IDX 66 46 22 48 54 49 34 50 53 51 35 52 38 53 52 54 71 55 36 56
REMARK SMILES IDX 37 57 51 59 72 60 39 61 23 62 24 63 32 64 25 65 26 66 30 67
REMARK SMILES IDX 33 68 27 69 28 70 31 71 29 72 55 73 56 74 64 75 57 76 58 77
REMARK SMILES IDX 62 78 65 79 59 80 60 81 63 82 61 83 40 84 41 85 49 86 42 87
REMARK SMILES IDX 43 88 47 89 50 90 44 91 45 92 48 93 46 94
REMARK H PARENT 6 6 87 23 11 28 70 47 38 58
REMARK Flexibility Score: inf
ROOT
ATOM      1  C   UNL     1      -2.860   4.406  -1.058  1.00  0.00     0.023 C 
ENDROOT
BRANCH   1   2
ATOM      2  C   UNL     1      -2.452   2.993  -0.650  1.00  0.00     0.116 C 
BRANCH   2   3
ATOM      3  N   UNL     1      -1.547   2.387  -1.601  1.00  0.00    -0.356 N 
ATOM      4  C   UNL     1      -0.432   1.638  -1.388  1.00  0.00     0.225 C 
ATOM      5  O   UNL     1       0.358   1.559  -2.334  1.00  0.00    -0.275 OA
ATOM      6  H   UNL     1      -1.773   2.540  -2.547  1.00  0.00     0.163 HD
BRANCH   4   7
ATOM      7  C   UNL     1      -0.083   1.093  -0.001  1.00  0.00     0.102 C 
ATOM      8  C   UNL     1       1.940  -0.070   0.994  1.00  0.00     0.032 C 
ATOM      9  C   UNL     1       0.897  -0.103  -0.126  1.00  0.00     0.094 C 
ATOM     10  N   UNL     1       0.038  -1.298  -0.021  1.00  0.00    -0.338 N 
ATOM     11  C   UNL     1      -1.204   0.495   0.857  1.00  0.00     0.037 C 
ATOM     12  C   UNL     1      -1.291  -0.954   0.427  1.00  0.00     0.121 C 
BRANCH  10  13
ATOM     13  C   UNL     1       0.245  -2.564  -0.548  1.00  0.00     0.243 C 
ATOM     14  O   UNL     1      -0.623  -3.440  -0.499  1.00  0.00    -0.273 OA
BRANCH  13  15
ATOM     15  C   UNL     1       1.558  -2.820  -1.273  1.00  0.00     0.230 C 
BRANCH  15  16
ATOM     16  N   UNL     1       1.532  -2.603  -2.706  1.00  0.00    -0.253 N 
ATOM     17  C   UNL     1       2.523  -3.064  -3.527  1.00  0.00     0.250 C 
ATOM     18  C   UNL     1       0.757  -1.701  -3.372  1.00  0.00     0.325 C 
ATOM     19  O   UNL     1       3.401  -3.862  -3.229  1.00  0.00    -0.272 OA
ATOM     20  C   UNL     1       2.403  -2.376  -4.876  1.00  0.00     0.218 C 
ATOM     21  N   UNL     1       1.270  -1.535  -4.638  1.00  0.00    -0.329 N 
ATOM     22  O   UNL     1      -0.239  -1.124  -2.981  1.00  0.00    -0.248 OA
ATOM     23  H   UNL     1       0.901  -0.910  -5.303  1.00  0.00     0.165 HD
ENDBRANCH  15  16
ENDBRANCH  13  15
ENDBRANCH  10  13
ENDBRANCH   4   7
ENDBRANCH   2   3
ENDBRANCH   1   2
BRANCH   1  24
ATOM     24  C   UNL     1      -3.677   4.508  -2.346  1.00  0.00     0.023 C 
BRANCH  24  25
ATOM     25  C   UNL     1      -4.939   3.654  -2.395  1.00  0.00     0.116 C 
BRANCH  25  26
ATOM     26  N   UNL     1      -5.873   3.960  -1.320  1.00  0.00    -0.352 N 
ATOM     27  C   UNL     1      -7.165   4.424  -1.373  1.00  0.00     0.251 C 
ATOM     28  H   UNL     1      -5.523   3.811  -0.412  1.00  0.00     0.163 HD
ATOM     29  O   UNL     1      -7.735   4.763  -0.340  1.00  0.00    -0.269 OA
BRANCH  27  30
ATOM     30  C   UNL     1      -7.864   4.547  -2.670  1.00  0.00     0.039 A 
ATOM     31  C   UNL     1      -8.613   5.699  -2.927  1.00  0.00     0.014 A 
ATOM     32  C   UNL     1      -7.793   3.533  -3.627  1.00  0.00     0.014 A 
ATOM     33  C   UNL     1      -9.226   5.867  -4.171  1.00  0.00     0.010 A 
ATOM     34  C   UNL     1      -8.329   3.739  -4.895  1.00  0.00     0.010 A 
ATOM     35  C   UNL     1      -9.055   4.905  -5.180  1.00  0.00    -0.014 A 
BRANCH  35  36
ATOM     36  C   UNL     1      -9.636   5.091  -6.535  1.00  0.00     0.031 A 
ATOM     37  C   UNL     1     -10.666   4.125  -7.052  1.00  0.00     0.074 A 
ATOM     38  C   UNL     1      -9.186   6.083  -7.328  1.00  0.00     0.049 A 
ATOM     39  N   UNL     1     -11.226   4.061  -8.234  1.00  0.00    -0.248 NA
ATOM     40  C   UNL     1     -11.102   3.068  -6.125  1.00  0.00     0.031 C 
ATOM     41  C   UNL     1      -8.157   7.058  -6.964  1.00  0.00     0.029 A 
ATOM     42  N   UNL     1      -9.529   6.427  -8.612  1.00  0.00    -0.354 N 
ATOM     43  C   UNL     1     -12.061   2.952  -8.197  1.00  0.00     0.074 A 
ATOM     44  C   UNL     1     -11.891   2.338  -6.898  1.00  0.00     0.031 C 
ATOM     45  C   UNL     1      -7.969   7.904  -7.989  1.00  0.00     0.029 A 
ATOM     46  C   UNL     1      -8.834   7.508  -9.097  1.00  0.00     0.049 A 
ATOM     47  H   UNL     1     -10.209   5.945  -9.136  1.00  0.00     0.167 HD
ATOM     48  C   UNL     1     -12.911   2.499  -9.149  1.00  0.00     0.037 A 
ATOM     49  C   UNL     1      -8.884   8.109 -10.302  1.00  0.00     0.037 A 
ATOM     50  C   UNL     1     -13.099   3.128 -10.430  1.00  0.00     0.049 A 
ATOM     51  C   UNL     1      -9.836   7.587 -11.344  1.00  0.00     0.074 A 
ATOM     52  C   UNL     1     -13.974   2.779 -11.444  1.00  0.00     0.029 A 
ATOM     53  N   UNL     1     -12.395   4.238 -10.874  1.00  0.00    -0.354 N 
ATOM     54  N   UNL     1     -10.667   6.575 -11.275  1.00  0.00    -0.248 NA
ATOM     55  C   UNL     1      -9.864   8.298 -12.630  1.00  0.00     0.031 C 
ATOM     56  C   UNL     1     -13.770   3.651 -12.518  1.00  0.00     0.029 A 
ATOM     57  C   UNL     1     -12.806   4.577 -12.154  1.00  0.00     0.049 A 
ATOM     58  H   UNL     1     -11.706   4.714 -10.357  1.00  0.00     0.167 HD
ATOM     59  C   UNL     1     -11.340   6.550 -12.489  1.00  0.00     0.074 A 
ATOM     60  C   UNL     1     -10.827   7.654 -13.273  1.00  0.00     0.031 C 
ATOM     61  C   UNL     1     -12.298   5.690 -12.915  1.00  0.00     0.037 A 
BRANCH  48  62
ATOM     62  C   UNL     1     -13.707   1.264  -8.836  1.00  0.00     0.064 A 
ATOM     63  C   UNL     1     -14.723   1.268  -7.867  1.00  0.00     0.173 A 
ATOM     64  C   UNL     1     -13.467   0.067  -9.528  1.00  0.00     0.173 A 
ATOM     65  F   UNL     1     -14.985   2.383  -7.169  1.00  0.00    -0.203 F 
ATOM     66  C   UNL     1     -15.443   0.112  -7.577  1.00  0.00     0.198 A 
ATOM     67  C   UNL     1     -14.213  -1.078  -9.259  1.00  0.00     0.198 A 
ATOM     68  F   UNL     1     -12.513   0.008 -10.469  1.00  0.00    -0.203 F 
ATOM     69  F   UNL     1     -16.368   0.127  -6.607  1.00  0.00    -0.200 F 
ATOM     70  C   UNL     1     -15.192  -1.058  -8.278  1.00  0.00     0.200 A 
ATOM     71  F   UNL     1     -13.979  -2.204  -9.947  1.00  0.00    -0.200 F 
ATOM     72  F   UNL     1     -15.889  -2.168  -8.001  1.00  0.00    -0.200 F 
ENDBRANCH  48  62
BRANCH  49  73
ATOM     73  C   UNL     1      -8.030   9.294 -10.578  1.00  0.00     0.064 A 
ATOM     74  C   UNL     1      -8.596  10.568 -10.721  1.00  0.00     0.173 A 
ATOM     75  C   UNL     1      -6.638   9.180 -10.709  1.00  0.00     0.173 A 
ATOM     76  F   UNL     1      -9.925  10.725 -10.625  1.00  0.00    -0.203 F 
ATOM     77  C   UNL     1      -7.806  11.680 -11.005  1.00  0.00     0.198 A 
ATOM     78  C   UNL     1      -5.846  10.297 -10.965  1.00  0.00     0.198 A 
ATOM     79  F   UNL     1      -6.046   7.984 -10.575  1.00  0.00    -0.203 F 
ATOM     80  F   UNL     1      -8.379  12.878 -11.183  1.00  0.00    -0.200 F 
ATOM     81  C   UNL     1      -6.431  11.545 -11.121  1.00  0.00     0.200 A 
ATOM     82  F   UNL     1      -4.516  10.165 -11.062  1.00  0.00    -0.200 F 
ATOM     83  F   UNL     1      -5.671  12.615 -11.391  1.00  0.00    -0.200 F 
ENDBRANCH  49  73
BRANCH  61  84
ATOM     84  C   UNL     1     -12.894   5.938 -14.271  1.00  0.00     0.064 A 
ATOM     85  C   UNL     1     -12.174   5.706 -15.451  1.00  0.00     0.173 A 
ATOM     86  C   UNL     1     -14.222   6.379 -14.387  1.00  0.00     0.173 A 
ATOM     87  F   UNL     1     -10.897   5.298 -15.394  1.00  0.00    -0.203 F 
ATOM     88  C   UNL     1     -12.752   5.931 -16.698  1.00  0.00     0.198 A 
ATOM     89  C   UNL     1     -14.806   6.573 -15.635  1.00  0.00     0.198 A 
ATOM     90  F   UNL     1     -14.957   6.610 -13.289  1.00  0.00    -0.203 F 
ATOM     91  F   UNL     1     -12.029   5.750 -17.812  1.00  0.00    -0.200 F 
ATOM     92  C   UNL     1     -14.069   6.357 -16.789  1.00  0.00     0.200 A 
ATOM     93  F   UNL     1     -16.084   6.970 -15.721  1.00  0.00    -0.200 F 
ATOM     94  F   UNL     1     -14.625   6.566 -17.990  1.00  0.00    -0.200 F 
ENDBRANCH  61  84
ENDBRANCH  35  36
ENDBRANCH  27  30
ENDBRANCH  25  26
ENDBRANCH  24  25
ENDBRANCH   1  24
TORSDOF 14
