REMARK SMILES CCOC(=O)c1cnc(S[C@H](CC)C(=O)NCCCCNC(=O)c2ccc(-c3c4nc(c(-c5c(F)c(F)c(F)c(F)c5F)c5ccc([nH]5)c(-c5c(F)c(F)c(F)c(F)c5F)c5nc(c(-c6c(F)c(F)c(F)c(F)c6F)c6ccc3[nH]6)C=C5)C=C4)cc2)nc1N
REMARK SMILES IDX 17 1 16 2 14 3 15 4 11 6 10 7 9 8 6 9 7 10 88 11 8 12 87 13
REMARK SMILES IDX 4 14 5 15 3 16 2 17 1 18 89 19 12 22 13 23 18 24 19 25 20 26
REMARK SMILES IDX 21 27 22 28 23 30 24 31 25 32 86 33 26 34 85 35 27 36 28 37
REMARK SMILES IDX 29 38 79 39 30 40 84 41 78 42 80 43 31 44 83 45 77 46 76 47
REMARK SMILES IDX 32 49 64 50 44 51 63 52 45 53 48 54 62 55 81 56 46 57 47 58
REMARK SMILES IDX 61 60 82 61 49 62 33 63 34 64 42 65 35 66 36 67 40 68 43 69
REMARK SMILES IDX 37 70 38 71 41 72 39 73 65 74 66 75 74 76 67 77 68 78 72 79
REMARK SMILES IDX 75 80 69 81 70 82 73 83 71 84 50 85 51 86 59 87 52 88 53 89
REMARK SMILES IDX 57 90 60 91 54 92 55 93 58 94 56 95
REMARK H PARENT 16 5 89 20 89 21 21 29 80 48 48 59
REMARK Flexibility Score: inf
ROOT
ATOM      1  C   UNL     1       4.320   4.664  -3.162  1.00  0.00     0.116 C 
ENDROOT
BRANCH   1   2
ATOM      2  N   UNL     1       4.399   5.356  -4.437  1.00  0.00    -0.355 N 
ATOM      3  C   UNL     1       4.972   6.556  -4.758  1.00  0.00     0.233 C 
ATOM      4  O   UNL     1       4.934   6.899  -5.944  1.00  0.00    -0.274 OA
ATOM      5  H   UNL     1       3.973   4.886  -5.190  1.00  0.00     0.163 HD
BRANCH   3   6
ATOM      6  C   UNL     1       5.624   7.460  -3.696  1.00  0.00     0.143 C 
BRANCH   6   7
ATOM      7  S   UNL     1       7.104   6.552  -3.077  1.00  0.00    -0.073 SA
BRANCH   7   8
ATOM      8  C   UNL     1       8.178   7.826  -2.511  1.00  0.00     0.190 A 
ATOM      9  C   UNL     1       9.887   9.655  -1.514  1.00  0.00     0.120 A 
ATOM     10  C   UNL     1       8.711  10.009  -2.140  1.00  0.00     0.133 A 
ATOM     11  C   UNL     1      10.155   8.304  -1.431  1.00  0.00     0.142 A 
ATOM     12  N   UNL     1       7.850   9.114  -2.668  1.00  0.00    -0.230 NA
ATOM     13  N   UNL     1       9.300   7.389  -1.912  1.00  0.00    -0.205 NA
BRANCH   9  14
ATOM     14  C   UNL     1      10.729  10.698  -0.939  1.00  0.00     0.343 C 
ATOM     15  O   UNL     1      10.280  11.650  -0.317  1.00  0.00    -0.246 OA
BRANCH  14  16
ATOM     16  O   UNL     1      12.023  10.477  -1.273  1.00  0.00    -0.462 OA
BRANCH  16  17
ATOM     17  C   UNL     1      12.976  11.414  -0.746  1.00  0.00     0.230 C 
ATOM     18  C   UNL     1      12.928  12.742  -1.481  1.00  0.00     0.049 C 
ENDBRANCH  16  17
ENDBRANCH  14  16
ENDBRANCH   9  14
BRANCH  11  19
ATOM     19  N   UNL     1      11.252   7.777  -0.775  1.00  0.00    -0.383 N 
ATOM     20  H   UNL     1      11.930   8.378  -0.390  1.00  0.00     0.158 HD
ATOM     21  H   UNL     1      11.354   6.802  -0.692  1.00  0.00     0.158 HD
ENDBRANCH  11  19
ENDBRANCH   7   8
ENDBRANCH   6   7
BRANCH   6  22
ATOM     22  C   UNL     1       4.583   7.864  -2.634  1.00  0.00     0.021 C 
ATOM     23  C   UNL     1       4.747   9.277  -2.095  1.00  0.00     0.005 C 
ENDBRANCH   6  22
ENDBRANCH   3   6
ENDBRANCH   1   2
BRANCH   1  24
ATOM     24  C   UNL     1       2.879   4.509  -2.687  1.00  0.00     0.023 C 
BRANCH  24  25
ATOM     25  C   UNL     1       2.047   3.530  -3.513  1.00  0.00     0.023 C 
BRANCH  25  26
ATOM     26  C   UNL     1       2.620   2.121  -3.608  1.00  0.00     0.116 C 
BRANCH  26  27
ATOM     27  N   UNL     1       2.776   1.471  -2.313  1.00  0.00    -0.352 N 
ATOM     28  C   UNL     1       2.495   0.166  -1.981  1.00  0.00     0.251 C 
ATOM     29  H   UNL     1       3.125   2.036  -1.586  1.00  0.00     0.163 HD
ATOM     30  O   UNL     1       2.573  -0.226  -0.823  1.00  0.00    -0.269 OA
BRANCH  28  31
ATOM     31  C   UNL     1       2.056  -0.751  -3.050  1.00  0.00     0.039 A 
ATOM     32  C   UNL     1       0.841  -1.426  -2.910  1.00  0.00     0.014 A 
ATOM     33  C   UNL     1       2.807  -0.864  -4.222  1.00  0.00     0.014 A 
ATOM     34  C   UNL     1       0.333  -2.153  -3.988  1.00  0.00     0.010 A 
ATOM     35  C   UNL     1       2.266  -1.528  -5.315  1.00  0.00     0.010 A 
ATOM     36  C   UNL     1       1.020  -2.170  -5.213  1.00  0.00    -0.014 A 
BRANCH  36  37
ATOM     37  C   UNL     1       0.469  -2.843  -6.415  1.00  0.00     0.031 A 
ATOM     38  C   UNL     1       1.216  -3.996  -7.021  1.00  0.00     0.074 A 
ATOM     39  C   UNL     1      -0.628  -2.350  -7.021  1.00  0.00     0.049 A 
ATOM     40  N   UNL     1       1.021  -4.603  -8.164  1.00  0.00    -0.248 NA
ATOM     41  C   UNL     1       2.359  -4.513  -6.252  1.00  0.00     0.031 C 
ATOM     42  C   UNL     1      -1.422  -1.216  -6.547  1.00  0.00     0.029 A 
ATOM     43  N   UNL     1      -1.249  -2.725  -8.187  1.00  0.00    -0.354 N 
ATOM     44  C   UNL     1       2.032  -5.548  -8.263  1.00  0.00     0.074 A 
ATOM     45  C   UNL     1       2.863  -5.408  -7.087  1.00  0.00     0.031 C 
ATOM     46  C   UNL     1      -2.426  -0.990  -7.410  1.00  0.00     0.029 A 
ATOM     47  C   UNL     1      -2.319  -1.931  -8.521  1.00  0.00     0.049 A 
ATOM     48  H   UNL     1      -0.955  -3.490  -8.732  1.00  0.00     0.167 HD
ATOM     49  C   UNL     1       2.238  -6.460  -9.242  1.00  0.00     0.037 A 
ATOM     50  C   UNL     1      -3.108  -1.945  -9.613  1.00  0.00     0.037 A 
ATOM     51  C   UNL     1       1.387  -6.617 -10.390  1.00  0.00     0.049 A 
ATOM     52  C   UNL     1      -2.853  -2.964 -10.691  1.00  0.00     0.074 A 
ATOM     53  C   UNL     1       1.474  -7.553 -11.406  1.00  0.00     0.029 A 
ATOM     54  N   UNL     1       0.291  -5.817 -10.674  1.00  0.00    -0.354 N 
ATOM     55  N   UNL     1      -1.925  -3.888 -10.752  1.00  0.00    -0.248 NA
ATOM     56  C   UNL     1      -3.753  -2.943 -11.853  1.00  0.00     0.031 C 
ATOM     57  C   UNL     1       0.454  -7.293 -12.326  1.00  0.00     0.029 A 
ATOM     58  C   UNL     1      -0.298  -6.227 -11.859  1.00  0.00     0.049 A 
ATOM     59  H   UNL     1      -0.023  -5.069 -10.116  1.00  0.00     0.167 HD
ATOM     60  C   UNL     1      -2.150  -4.578 -11.936  1.00  0.00     0.074 A 
ATOM     61  C   UNL     1      -3.304  -3.969 -12.563  1.00  0.00     0.031 C 
ATOM     62  C   UNL     1      -1.462  -5.624 -12.454  1.00  0.00     0.037 A 
BRANCH  49  63
ATOM     63  C   UNL     1       3.432  -7.360  -9.112  1.00  0.00     0.064 A 
ATOM     64  C   UNL     1       3.493  -8.366  -8.136  1.00  0.00     0.173 A 
ATOM     65  C   UNL     1       4.514  -7.236  -9.996  1.00  0.00     0.173 A 
ATOM     66  F   UNL     1       2.489  -8.517  -7.259  1.00  0.00    -0.203 F 
ATOM     67  C   UNL     1       4.606  -9.196  -8.031  1.00  0.00     0.198 A 
ATOM     68  C   UNL     1       5.612  -8.088  -9.909  1.00  0.00     0.198 A 
ATOM     69  F   UNL     1       4.504  -6.294 -10.951  1.00  0.00    -0.203 F 
ATOM     70  F   UNL     1       4.663 -10.116  -7.059  1.00  0.00    -0.200 F 
ATOM     71  C   UNL     1       5.660  -9.061  -8.922  1.00  0.00     0.200 A 
ATOM     72  F   UNL     1       6.624  -7.966 -10.778  1.00  0.00    -0.200 F 
ATOM     73  F   UNL     1       6.727  -9.866  -8.824  1.00  0.00    -0.200 F 
ENDBRANCH  49  63
BRANCH  50  74
ATOM     74  C   UNL     1      -4.222  -0.969  -9.738  1.00  0.00     0.064 A 
ATOM     75  C   UNL     1      -5.557  -1.389  -9.652  1.00  0.00     0.173 A 
ATOM     76  C   UNL     1      -3.980   0.397  -9.950  1.00  0.00     0.173 A 
ATOM     77  F   UNL     1      -5.838  -2.688  -9.472  1.00  0.00    -0.203 F 
ATOM     78  C   UNL     1      -6.607  -0.484  -9.792  1.00  0.00     0.198 A 
ATOM     79  C   UNL     1      -5.032   1.304 -10.062  1.00  0.00     0.198 A 
ATOM     80  F   UNL     1      -2.721   0.851 -10.035  1.00  0.00    -0.203 F 
ATOM     81  F   UNL     1      -7.873  -0.920  -9.749  1.00  0.00    -0.200 F 
ATOM     82  C   UNL     1      -6.344   0.862  -9.991  1.00  0.00     0.200 A 
ATOM     83  F   UNL     1      -4.773   2.607 -10.241  1.00  0.00    -0.200 F 
ATOM     84  F   UNL     1      -7.355   1.732 -10.122  1.00  0.00    -0.200 F 
ENDBRANCH  50  74
BRANCH  62  85
ATOM     85  C   UNL     1      -1.964  -6.219 -13.736  1.00  0.00     0.064 A 
ATOM     86  C   UNL     1      -1.780  -5.577 -14.968  1.00  0.00     0.173 A 
ATOM     87  C   UNL     1      -2.564  -7.488 -13.736  1.00  0.00     0.173 A 
ATOM     88  F   UNL     1      -1.224  -4.357 -15.018  1.00  0.00    -0.203 F 
ATOM     89  C   UNL     1      -2.187  -6.181 -16.155  1.00  0.00     0.198 A 
ATOM     90  C   UNL     1      -2.945  -8.100 -14.926  1.00  0.00     0.198 A 
ATOM     91  F   UNL     1      -2.756  -8.145 -12.582  1.00  0.00    -0.203 F 
ATOM     92  F   UNL     1      -2.027  -5.538 -17.320  1.00  0.00    -0.200 F 
ATOM     93  C   UNL     1      -2.758  -7.445 -16.134  1.00  0.00     0.200 A 
ATOM     94  F   UNL     1      -3.484  -9.326 -14.905  1.00  0.00    -0.200 F 
ATOM     95  F   UNL     1      -3.131  -8.032 -17.280  1.00  0.00    -0.200 F 
ENDBRANCH  62  85
ENDBRANCH  36  37
ENDBRANCH  28  31
ENDBRANCH  26  27
ENDBRANCH  25  26
ENDBRANCH  24  25
ENDBRANCH   1  24
TORSDOF 18
