REMARK SMILES CC1=CC[C@@H]2C(=O)N(c3ccc(Cl)c(C(=O)NCCCCNC(=O)c4ccc(-c5c6nc(c(-c7c(F)c(F)c(F)c(F)c7F)c7ccc([nH]7)c(-c7c(F)c(F)c(F)c(F)c7F)c7nc(c(-c8c(F)c(F)c(F)c(F)c8F)c8ccc5[nH]8)C=C7)C=C6)cc4)c3)C(=O)[C@H]2C1
REMARK SMILES IDX 20 1 19 2 18 3 17 4 15 5 16 6 14 8 9 9 10 10 88 11 11 12
REMARK SMILES IDX 12 13 13 14 8 15 1 16 2 17 3 18 92 19 4 20 91 21 5 22 89 23
REMARK SMILES IDX 6 24 90 25 7 26 21 27 22 28 23 29 24 31 25 32 26 33 87 34
REMARK SMILES IDX 27 35 86 36 28 37 29 38 30 39 80 40 31 41 85 42 79 43 81 44
REMARK SMILES IDX 32 45 84 46 78 47 77 48 33 50 65 51 45 52 64 53 46 54 49 55
REMARK SMILES IDX 63 56 82 57 47 58 48 59 62 61 83 62 50 63 34 64 35 65 43 66
REMARK SMILES IDX 36 67 37 68 41 69 44 70 38 71 39 72 42 73 40 74 66 75 67 76
REMARK SMILES IDX 75 77 68 78 69 79 73 80 76 81 70 82 71 83 74 84 72 85 51 86
REMARK SMILES IDX 52 87 60 88 53 89 54 90 58 91 61 92 55 93 56 94 59 95 57 96
REMARK H PARENT 17 7 22 30 81 49 49 60
REMARK Flexibility Score: inf
ROOT
ATOM      1  C   UNL     1     -10.017   8.902   2.824  1.00  0.00     0.023 C 
ENDROOT
BRANCH   1   2
ATOM      2  C   UNL     1      -9.241   8.391   1.611  1.00  0.00     0.023 C 
BRANCH   2   3
ATOM      3  C   UNL     1      -7.738   8.640   1.615  1.00  0.00     0.116 C 
BRANCH   3   4
ATOM      4  N   UNL     1      -7.018   7.992   2.695  1.00  0.00    -0.352 N 
ATOM      5  C   UNL     1      -5.755   7.445   2.717  1.00  0.00     0.252 C 
ATOM      6  O   UNL     1      -5.335   6.980   3.776  1.00  0.00    -0.269 OA
ATOM      7  H   UNL     1      -7.509   7.936   3.546  1.00  0.00     0.163 HD
BRANCH   5   8
ATOM      8  C   UNL     1      -4.903   7.327   1.505  1.00  0.00     0.060 A 
ATOM      9  C   UNL     1      -3.274   5.951   0.309  1.00  0.00     0.053 A 
ATOM     10  C   UNL     1      -3.161   6.963  -0.651  1.00  0.00     0.028 A 
ATOM     11  C   UNL     1      -4.218   6.097   1.334  1.00  0.00     0.042 A 
ATOM     12  C   UNL     1      -3.833   8.169  -0.498  1.00  0.00     0.023 A 
ATOM     13  C   UNL     1      -4.620   8.388   0.633  1.00  0.00     0.053 A 
ATOM     14  Cl  UNL     1      -5.012  10.041   0.948  1.00  0.00    -0.083 Cl
BRANCH   9  15
ATOM     15  N   UNL     1      -2.321   4.906   0.298  1.00  0.00    -0.250 N 
ATOM     16  C   UNL     1       0.961  -0.206  -0.019  1.00  0.00     0.039 C 
ATOM     17  C   UNL     1       0.557   1.229   0.163  1.00  0.00    -0.076 C 
ATOM     18  C   UNL     1       1.479   2.218   0.201  1.00  0.00    -0.027 C 
ATOM     19  C   UNL     1      -0.947   1.499   0.284  1.00  0.00     0.044 C 
ATOM     20  C   UNL     1       1.127   3.687   0.256  1.00  0.00     0.041 C 
ATOM     21  C   UNL     1      -1.181   2.933   0.737  1.00  0.00     0.096 C 
ATOM     22  C   UNL     1      -0.327   3.836  -0.135  1.00  0.00     0.096 C 
ATOM     23  C   UNL     1      -2.542   3.578   0.618  1.00  0.00     0.238 C 
ATOM     24  C   UNL     1      -0.978   5.163   0.044  1.00  0.00     0.238 C 
ATOM     25  O   UNL     1      -3.604   3.011   0.823  1.00  0.00    -0.274 OA
ATOM     26  O   UNL     1      -0.406   6.229  -0.065  1.00  0.00    -0.274 OA
ENDBRANCH   9  15
ENDBRANCH   5   8
ENDBRANCH   3   4
ENDBRANCH   2   3
ENDBRANCH   1   2
BRANCH   1  27
ATOM     27  C   UNL     1      -9.736  10.335   3.271  1.00  0.00     0.116 C 
BRANCH  27  28
ATOM     28  N   UNL     1      -9.960  11.338   2.240  1.00  0.00    -0.352 N 
ATOM     29  C   UNL     1     -10.767  12.453   2.239  1.00  0.00     0.251 C 
ATOM     30  H   UNL     1      -9.452  11.196   1.408  1.00  0.00     0.163 HD
ATOM     31  O   UNL     1     -10.861  13.142   1.228  1.00  0.00    -0.269 OA
BRANCH  29  32
ATOM     32  C   UNL     1     -11.565  12.802   3.436  1.00  0.00     0.039 A 
ATOM     33  C   UNL     1     -12.914  13.133   3.269  1.00  0.00     0.014 A 
ATOM     34  C   UNL     1     -11.004  12.785   4.713  1.00  0.00     0.014 A 
ATOM     35  C   UNL     1     -13.721  13.344   4.390  1.00  0.00     0.010 A 
ATOM     36  C   UNL     1     -11.826  12.911   5.831  1.00  0.00     0.010 A 
ATOM     37  C   UNL     1     -13.196  13.181   5.682  1.00  0.00    -0.014 A 
BRANCH  37  38
ATOM     38  C   UNL     1     -14.064  13.262   6.887  1.00  0.00     0.031 A 
ATOM     39  C   UNL     1     -13.816  14.313   7.932  1.00  0.00     0.074 A 
ATOM     40  C   UNL     1     -15.017  12.330   7.085  1.00  0.00     0.049 A 
ATOM     41  N   UNL     1     -14.403  14.486   9.090  1.00  0.00    -0.248 NA
ATOM     42  C   UNL     1     -12.742  15.279   7.654  1.00  0.00     0.031 C 
ATOM     43  C   UNL     1     -15.314  11.217   6.181  1.00  0.00     0.029 A 
ATOM     44  N   UNL     1     -15.902  12.158   8.122  1.00  0.00    -0.354 N 
ATOM     45  C   UNL     1     -13.754  15.559   9.686  1.00  0.00     0.074 A 
ATOM     46  C   UNL     1     -12.697  15.966   8.786  1.00  0.00     0.031 C 
ATOM     47  C   UNL     1     -16.319  10.489   6.694  1.00  0.00     0.029 A 
ATOM     48  C   UNL     1     -16.714  11.059   7.977  1.00  0.00     0.049 A 
ATOM     49  H   UNL     1     -15.949  12.765   8.896  1.00  0.00     0.167 HD
ATOM     50  C   UNL     1     -14.028  16.164  10.867  1.00  0.00     0.037 A 
ATOM     51  C   UNL     1     -17.665  10.562   8.791  1.00  0.00     0.037 A 
ATOM     52  C   UNL     1     -15.104  15.781  11.742  1.00  0.00     0.049 A 
ATOM     53  C   UNL     1     -17.971  11.268  10.084  1.00  0.00     0.074 A 
ATOM     54  C   UNL     1     -15.519  16.386  12.916  1.00  0.00     0.029 A 
ATOM     55  N   UNL     1     -15.936  14.688  11.540  1.00  0.00    -0.354 N 
ATOM     56  N   UNL     1     -17.407  12.335  10.596  1.00  0.00    -0.248 NA
ATOM     57  C   UNL     1     -19.051  10.707  10.907  1.00  0.00     0.031 C 
ATOM     58  C   UNL     1     -16.571  15.633  13.448  1.00  0.00     0.029 A 
ATOM     59  C   UNL     1     -16.846  14.588  12.581  1.00  0.00     0.049 A 
ATOM     60  H   UNL     1     -15.886  14.075  10.772  1.00  0.00     0.167 HD
ATOM     61  C   UNL     1     -18.077  12.587  11.786  1.00  0.00     0.074 A 
ATOM     62  C   UNL     1     -19.100  11.571  11.912  1.00  0.00     0.031 C 
ATOM     63  C   UNL     1     -17.862  13.572  12.692  1.00  0.00     0.037 A 
BRANCH  50  64
ATOM     64  C   UNL     1     -13.149  17.309  11.280  1.00  0.00     0.064 A 
ATOM     65  C   UNL     1     -13.177  18.540  10.606  1.00  0.00     0.173 A 
ATOM     66  C   UNL     1     -12.288  17.183  12.380  1.00  0.00     0.173 A 
ATOM     67  F   UNL     1     -13.975  18.710   9.541  1.00  0.00    -0.203 F 
ATOM     68  C   UNL     1     -12.350  19.590  10.998  1.00  0.00     0.198 A 
ATOM     69  C   UNL     1     -11.486  18.246  12.789  1.00  0.00     0.198 A 
ATOM     70  F   UNL     1     -12.228  16.031  13.065  1.00  0.00    -0.203 F 
ATOM     71  F   UNL     1     -12.354  20.737  10.305  1.00  0.00    -0.200 F 
ATOM     72  C   UNL     1     -11.511  19.445  12.092  1.00  0.00     0.200 A 
ATOM     73  F   UNL     1     -10.686  18.109  13.855  1.00  0.00    -0.200 F 
ATOM     74  F   UNL     1     -10.719  20.458  12.470  1.00  0.00    -0.200 F 
ENDBRANCH  50  64
BRANCH  51  75
ATOM     75  C   UNL     1     -18.414   9.341   8.394  1.00  0.00     0.064 A 
ATOM     76  C   UNL     1     -19.763   9.415   8.020  1.00  0.00     0.173 A 
ATOM     77  C   UNL     1     -17.799   8.081   8.373  1.00  0.00     0.173 A 
ATOM     78  F   UNL     1     -20.401  10.595   8.044  1.00  0.00    -0.203 F 
ATOM     79  C   UNL     1     -20.473   8.272   7.657  1.00  0.00     0.198 A 
ATOM     80  C   UNL     1     -18.502   6.943   7.983  1.00  0.00     0.198 A 
ATOM     81  F   UNL     1     -16.508   7.958   8.717  1.00  0.00    -0.203 F 
ATOM     82  F   UNL     1     -21.772   8.365   7.343  1.00  0.00    -0.200 F 
ATOM     83  C   UNL     1     -19.840   7.038   7.632  1.00  0.00     0.200 A 
ATOM     84  F   UNL     1     -17.883   5.755   7.947  1.00  0.00    -0.200 F 
ATOM     85  F   UNL     1     -20.521   5.941   7.277  1.00  0.00    -0.200 F 
ENDBRANCH  51  75
BRANCH  63  86
ATOM     86  C   UNL     1     -18.768  13.618  13.887  1.00  0.00     0.064 A 
ATOM     87  C   UNL     1     -18.674  12.673  14.918  1.00  0.00     0.173 A 
ATOM     88  C   UNL     1     -19.714  14.647  14.021  1.00  0.00     0.173 A 
ATOM     89  F   UNL     1     -17.797  11.662  14.830  1.00  0.00    -0.203 F 
ATOM     90  C   UNL     1     -19.510  12.742  16.030  1.00  0.00     0.198 A 
ATOM     91  C   UNL     1     -20.527  14.730  15.148  1.00  0.00     0.198 A 
ATOM     92  F   UNL     1     -19.839  15.579  13.065  1.00  0.00    -0.203 F 
ATOM     93  F   UNL     1     -19.433  11.803  16.983  1.00  0.00    -0.200 F 
ATOM     94  C   UNL     1     -20.429  13.774  16.148  1.00  0.00     0.200 A 
ATOM     95  F   UNL     1     -21.405  15.735  15.266  1.00  0.00    -0.200 F 
ATOM     96  F   UNL     1     -21.226  13.844  17.223  1.00  0.00    -0.200 F 
ENDBRANCH  63  86
ENDBRANCH  37  38
ENDBRANCH  29  32
ENDBRANCH  27  28
ENDBRANCH   1  27
TORSDOF 12
