REMARK SMILES O=C(NCCCCNC(=O)c1ccc(-c2c3nc(c(-c4c(F)c(F)c(F)c(F)c4F)c4ccc([nH]4)c(-c4c(F)c(F)c(F)c(F)c4F)c4nc(c(-c5c(F)c(F)c(F)c(F)c5F)c5ccc2[nH]5)C=C4)C=C3)cc1)C1=Cc2cc(Cl)cc(Cl)c2O[C@@H]1C(F)(F)F
REMARK SMILES IDX 6 1 5 2 4 3 3 4 1 5 2 6 74 8 75 9 85 10 76 11 84 12 77 13
REMARK SMILES IDX 83 14 78 15 81 16 79 17 80 18 82 19 86 20 87 21 88 22 89 23
REMARK SMILES IDX 7 24 8 25 9 26 10 28 11 29 12 30 73 31 13 32 72 33 14 34
REMARK SMILES IDX 15 35 16 36 66 37 17 38 71 39 65 40 67 41 18 42 70 43 64 44
REMARK SMILES IDX 63 45 19 47 51 48 31 49 50 50 32 51 35 52 49 53 68 54 33 55
REMARK SMILES IDX 34 56 48 58 69 59 36 60 20 61 21 62 29 63 22 64 23 65 27 66
REMARK SMILES IDX 30 67 24 68 25 69 28 70 26 71 52 72 53 73 61 74 54 75 55 76
REMARK SMILES IDX 59 77 62 78 56 79 57 80 60 81 58 82 37 83 38 84 46 85 39 86
REMARK SMILES IDX 40 87 44 88 47 89 41 90 42 91 45 92 43 93
REMARK H PARENT 3 7 8 27 67 46 35 57
REMARK Flexibility Score: inf
ROOT
ATOM      1  C   UNL     1       3.973   4.010   1.712  1.00  0.00     0.023 C 
ENDROOT
BRANCH   1   2
ATOM      2  C   UNL     1       4.332   3.329   0.399  1.00  0.00     0.023 C 
BRANCH   2   3
ATOM      3  C   UNL     1       4.024   1.842   0.297  1.00  0.00     0.116 C 
BRANCH   3   4
ATOM      4  N   UNL     1       2.707   1.506  -0.212  1.00  0.00    -0.352 N 
ATOM      5  O   UNL     1       1.066   0.205  -1.020  1.00  0.00    -0.270 OA
ATOM      6  C   UNL     1       2.266   0.346  -0.790  1.00  0.00     0.251 C 
ATOM      7  H   UNL     1       2.031   2.216  -0.129  1.00  0.00     0.163 HD
BRANCH   6   8
ATOM      8  C   UNL     1       3.177  -0.803  -1.079  1.00  0.00     0.067 C 
ATOM      9  C   UNL     1       4.424  -0.633  -1.552  1.00  0.00     0.025 C 
ATOM     10  C   UNL     1       2.885  -2.018  -0.227  1.00  0.00     0.314 C 
ATOM     11  C   UNL     1       5.438  -0.917  -0.501  1.00  0.00     0.020 A 
ATOM     12  O   UNL     1       3.825  -2.116   0.878  1.00  0.00    -0.474 OA
ATOM     13  C   UNL     1       6.693  -0.307  -0.620  1.00  0.00     0.032 A 
ATOM     14  C   UNL     1       5.064  -1.544   0.700  1.00  0.00     0.146 A 
ATOM     15  C   UNL     1       7.533  -0.246   0.489  1.00  0.00     0.043 A 
ATOM     16  C   UNL     1       5.934  -1.492   1.796  1.00  0.00     0.085 A 
ATOM     17  Cl  UNL     1       8.998   0.648   0.387  1.00  0.00    -0.084 Cl
ATOM     18  C   UNL     1       7.156  -0.824   1.699  1.00  0.00     0.045 A 
ATOM     19  Cl  UNL     1       5.478  -2.146   3.328  1.00  0.00    -0.080 Cl
BRANCH  10  20
ATOM     20  C   UNL     1       2.844  -3.318  -1.048  1.00  0.00     0.429 C 
ATOM     21  F   UNL     1       2.463  -4.371  -0.288  1.00  0.00    -0.167 F 
ATOM     22  F   UNL     1       1.966  -3.232  -2.075  1.00  0.00    -0.167 F 
ATOM     23  F   UNL     1       4.051  -3.625  -1.582  1.00  0.00    -0.167 F 
ENDBRANCH  10  20
ENDBRANCH   6   8
ENDBRANCH   3   4
ENDBRANCH   2   3
ENDBRANCH   1   2
BRANCH   1  24
ATOM     24  C   UNL     1       4.534   3.388   2.990  1.00  0.00     0.116 C 
BRANCH  24  25
ATOM     25  N   UNL     1       5.976   3.182   2.997  1.00  0.00    -0.352 N 
ATOM     26  C   UNL     1       6.905   3.469   3.977  1.00  0.00     0.251 C 
ATOM     27  H   UNL     1       6.344   2.777   2.179  1.00  0.00     0.163 HD
ATOM     28  O   UNL     1       8.088   3.217   3.792  1.00  0.00    -0.269 OA
BRANCH  26  29
ATOM     29  C   UNL     1       6.484   4.143   5.228  1.00  0.00     0.039 A 
ATOM     30  C   UNL     1       7.207   5.259   5.659  1.00  0.00     0.014 A 
ATOM     31  C   UNL     1       5.361   3.721   5.943  1.00  0.00     0.014 A 
ATOM     32  C   UNL     1       6.737   6.016   6.735  1.00  0.00     0.010 A 
ATOM     33  C   UNL     1       4.846   4.523   6.960  1.00  0.00     0.010 A 
ATOM     34  C   UNL     1       5.518   5.690   7.354  1.00  0.00    -0.014 A 
BRANCH  34  35
ATOM     35  C   UNL     1       4.918   6.596   8.369  1.00  0.00     0.031 A 
ATOM     36  C   UNL     1       4.715   6.146   9.787  1.00  0.00     0.074 A 
ATOM     37  C   UNL     1       4.498   7.820   7.990  1.00  0.00     0.049 A 
ATOM     38  N   UNL     1       4.239   6.816  10.807  1.00  0.00    -0.248 NA
ATOM     39  C   UNL     1       5.064   4.752  10.097  1.00  0.00     0.031 C 
ATOM     40  C   UNL     1       4.557   8.349   6.625  1.00  0.00     0.029 A 
ATOM     41  N   UNL     1       3.943   8.844   8.717  1.00  0.00    -0.354 N 
ATOM     42  C   UNL     1       4.220   5.924  11.871  1.00  0.00     0.074 A 
ATOM     43  C   UNL     1       4.679   4.650  11.360  1.00  0.00     0.031 C 
ATOM     44  C   UNL     1       4.105   9.614   6.623  1.00  0.00     0.029 A 
ATOM     45  C   UNL     1       3.703   9.977   7.978  1.00  0.00     0.049 A 
ATOM     46  H   UNL     1       3.737   8.773   9.677  1.00  0.00     0.167 HD
ATOM     47  C   UNL     1       3.876   6.152  13.162  1.00  0.00     0.037 A 
ATOM     48  C   UNL     1       3.232  11.181   8.354  1.00  0.00     0.037 A 
ATOM     49  C   UNL     1       3.446   7.427  13.675  1.00  0.00     0.049 A 
ATOM     50  C   UNL     1       2.896  11.420   9.800  1.00  0.00     0.074 A 
ATOM     51  C   UNL     1       3.157   7.780  14.982  1.00  0.00     0.029 A 
ATOM     52  N   UNL     1       3.237   8.559  12.901  1.00  0.00    -0.354 N 
ATOM     53  N   UNL     1       2.985  10.600  10.818  1.00  0.00    -0.248 NA
ATOM     54  C   UNL     1       2.407  12.761  10.149  1.00  0.00     0.031 C 
ATOM     55  C   UNL     1       2.734   9.114  14.993  1.00  0.00     0.029 A 
ATOM     56  C   UNL     1       2.802   9.606  13.699  1.00  0.00     0.049 A 
ATOM     57  H   UNL     1       3.377   8.611  11.928  1.00  0.00     0.167 HD
ATOM     58  C   UNL     1       2.593  11.331  11.931  1.00  0.00     0.074 A 
ATOM     59  C   UNL     1       2.282  12.667  11.464  1.00  0.00     0.031 C 
ATOM     60  C   UNL     1       2.498  10.931  13.223  1.00  0.00     0.037 A 
BRANCH  47  61
ATOM     61  C   UNL     1       3.958   4.992  14.112  1.00  0.00     0.064 A 
ATOM     62  C   UNL     1       5.191   4.450  14.506  1.00  0.00     0.173 A 
ATOM     63  C   UNL     1       2.792   4.428  14.650  1.00  0.00     0.173 A 
ATOM     64  F   UNL     1       6.336   4.946  14.011  1.00  0.00    -0.203 F 
ATOM     65  C   UNL     1       5.253   3.365  15.376  1.00  0.00     0.198 A 
ATOM     66  C   UNL     1       2.858   3.362  15.544  1.00  0.00     0.198 A 
ATOM     67  F   UNL     1       1.588   4.911  14.312  1.00  0.00    -0.203 F 
ATOM     68  F   UNL     1       6.439   2.830  15.694  1.00  0.00    -0.200 F 
ATOM     69  C   UNL     1       4.087   2.825  15.898  1.00  0.00     0.200 A 
ATOM     70  F   UNL     1       1.732   2.848  16.056  1.00  0.00    -0.200 F 
ATOM     71  F   UNL     1       4.148   1.781  16.736  1.00  0.00    -0.200 F 
ENDBRANCH  47  61
BRANCH  48  72
ATOM     72  C   UNL     1       3.118  12.278   7.358  1.00  0.00     0.064 A 
ATOM     73  C   UNL     1       3.997  13.369   7.396  1.00  0.00     0.173 A 
ATOM     74  C   UNL     1       2.137  12.263   6.357  1.00  0.00     0.173 A 
ATOM     75  F   UNL     1       4.939  13.436   8.349  1.00  0.00    -0.203 F 
ATOM     76  C   UNL     1       3.888  14.415   6.482  1.00  0.00     0.198 A 
ATOM     77  C   UNL     1       2.045  13.297   5.428  1.00  0.00     0.198 A 
ATOM     78  F   UNL     1       1.276  11.238   6.275  1.00  0.00    -0.203 F 
ATOM     79  F   UNL     1       4.715  15.466   6.568  1.00  0.00    -0.200 F 
ATOM     80  C   UNL     1       2.915  14.375   5.495  1.00  0.00     0.200 A 
ATOM     81  F   UNL     1       1.111  13.251   4.467  1.00  0.00    -0.200 F 
ATOM     82  F   UNL     1       2.812  15.379   4.614  1.00  0.00    -0.200 F 
ENDBRANCH  48  72
BRANCH  60  83
ATOM     83  C   UNL     1       2.068  11.963  14.225  1.00  0.00     0.064 A 
ATOM     84  C   UNL     1       0.751  12.443  14.268  1.00  0.00     0.173 A 
ATOM     85  C   UNL     1       2.985  12.473  15.156  1.00  0.00     0.173 A 
ATOM     86  F   UNL     1      -0.159  11.998  13.388  1.00  0.00    -0.203 F 
ATOM     87  C   UNL     1       0.377  13.424  15.183  1.00  0.00     0.198 A 
ATOM     88  C   UNL     1       2.600  13.432  16.088  1.00  0.00     0.198 A 
ATOM     89  F   UNL     1       4.255  12.043  15.160  1.00  0.00    -0.203 F 
ATOM     90  F   UNL     1      -0.872  13.911  15.166  1.00  0.00    -0.200 F 
ATOM     91  C   UNL     1       1.300  13.914  16.094  1.00  0.00     0.200 A 
ATOM     92  F   UNL     1       3.490  13.897  16.976  1.00  0.00    -0.200 F 
ATOM     93  F   UNL     1       0.939  14.861  16.971  1.00  0.00    -0.200 F 
ENDBRANCH  60  83
ENDBRANCH  34  35
ENDBRANCH  26  29
ENDBRANCH  24  25
ENDBRANCH   1  24
TORSDOF 12
