REMARK SMILES C#CC[C@@]1(C(=O)NCCCCNC(=O)c2ccc(-c3c4nc(c(-c5c(F)c(F)c(F)c(F)c5F)c5ccc([nH]5)c(-c5c(F)c(F)c(F)c(F)c5F)c5nc(c(-c6c(F)c(F)c(F)c(F)c6F)c6ccc3[nH]6)C=C5)C=C4)cc2)CCCN1C(=O)OC(C)(C)C
REMARK SMILES IDX 9 1 8 2 7 3 5 4 6 5 4 7 78 8 81 9 79 10 80 11 3 12 2 13 1 14
REMARK SMILES IDX 82 15 83 16 84 17 85 18 86 19 87 20 88 21 10 22 11 23 12 24
REMARK SMILES IDX 13 25 14 27 15 28 16 29 77 30 17 31 76 32 18 33 19 34 20 35
REMARK SMILES IDX 70 36 21 37 75 38 69 39 71 40 22 41 74 42 68 43 67 44 23 46
REMARK SMILES IDX 55 47 35 48 54 49 36 50 39 51 53 52 72 53 37 54 38 55 52 57
REMARK SMILES IDX 73 58 40 59 24 60 25 61 33 62 26 63 27 64 31 65 34 66 28 67
REMARK SMILES IDX 29 68 32 69 30 70 56 71 57 72 65 73 58 74 59 75 63 76 66 77
REMARK SMILES IDX 60 78 61 79 64 80 62 81 41 82 42 83 50 84 43 85 44 86 48 87
REMARK SMILES IDX 51 88 45 89 46 90 49 91 47 92
REMARK H PARENT 7 6 12 26 71 45 39 56
REMARK Flexibility Score: inf
ROOT
ATOM      1  C   UNL     1       1.114   1.719   0.050  1.00  0.00     0.023 C 
ENDROOT
BRANCH   1   2
ATOM      2  C   UNL     1       0.676   0.256   0.128  1.00  0.00     0.116 C 
BRANCH   2   3
ATOM      3  N   UNL     1      -0.633   0.125   0.741  1.00  0.00    -0.354 N 
ATOM      4  C   UNL     1      -1.914   0.084   0.280  1.00  0.00     0.247 C 
ATOM      5  O   UNL     1      -2.776   0.034   1.170  1.00  0.00    -0.272 OA
ATOM      6  H   UNL     1      -0.583   0.047   1.721  1.00  0.00     0.163 HD
BRANCH   4   7
ATOM      7  C   UNL     1      -2.327   0.194  -1.227  1.00  0.00     0.136 C 
ATOM      8  C   UNL     1      -2.936   1.613  -1.396  1.00  0.00     0.042 C 
ATOM      9  N   UNL     1      -3.510  -0.659  -1.522  1.00  0.00    -0.292 N 
ATOM     10  C   UNL     1      -4.053   1.473  -2.426  1.00  0.00     0.025 C 
ATOM     11  C   UNL     1      -4.508   0.029  -2.316  1.00  0.00     0.124 C 
BRANCH   7  12
ATOM     12  C   UNL     1      -1.174  -0.044  -2.218  1.00  0.00     0.128 C 
BRANCH  12  13
ATOM     13  C   UNL     1      -1.550   0.035  -3.689  1.00  0.00    -0.104 C 
ATOM     14  C   UNL     1      -1.872   0.102  -4.950  1.00  0.00     0.004 C 
ENDBRANCH  12  13
ENDBRANCH   7  12
BRANCH   9  15
ATOM     15  C   UNL     1      -3.724  -1.987  -1.216  1.00  0.00     0.411 C 
ATOM     16  O   UNL     1      -4.668  -2.619  -1.664  1.00  0.00    -0.224 OA
BRANCH  15  17
ATOM     17  O   UNL     1      -2.846  -2.473  -0.298  1.00  0.00    -0.444 OA
BRANCH  17  18
ATOM     18  C   UNL     1      -3.192  -3.679   0.442  1.00  0.00     0.106 C 
ATOM     19  C   UNL     1      -4.549  -3.558   1.159  1.00  0.00     0.056 C 
ATOM     20  C   UNL     1      -3.142  -4.917  -0.459  1.00  0.00     0.056 C 
ATOM     21  C   UNL     1      -2.108  -3.813   1.524  1.00  0.00     0.056 C 
ENDBRANCH  17  18
ENDBRANCH  15  17
ENDBRANCH   9  15
ENDBRANCH   4   7
ENDBRANCH   2   3
ENDBRANCH   1   2
BRANCH   1  22
ATOM     22  C   UNL     1       1.974   2.140   1.241  1.00  0.00     0.023 C 
BRANCH  22  23
ATOM     23  C   UNL     1       3.254   1.329   1.407  1.00  0.00     0.116 C 
BRANCH  23  24
ATOM     24  N   UNL     1       4.116   1.339   0.234  1.00  0.00    -0.352 N 
ATOM     25  C   UNL     1       5.480   1.158   0.213  1.00  0.00     0.251 C 
ATOM     26  H   UNL     1       3.678   1.491  -0.635  1.00  0.00     0.163 HD
ATOM     27  O   UNL     1       6.130   1.284  -0.815  1.00  0.00    -0.269 OA
BRANCH  25  28
ATOM     28  C   UNL     1       6.141   0.852   1.494  1.00  0.00     0.039 A 
ATOM     29  C   UNL     1       7.096   1.739   1.989  1.00  0.00     0.014 A 
ATOM     30  C   UNL     1       5.696  -0.231   2.257  1.00  0.00     0.014 A 
ATOM     31  C   UNL     1       7.561   1.575   3.293  1.00  0.00     0.010 A 
ATOM     32  C   UNL     1       6.095  -0.338   3.582  1.00  0.00     0.010 A 
ATOM     33  C   UNL     1       7.032   0.562   4.112  1.00  0.00    -0.014 A 
BRANCH  33  34
ATOM     34  C   UNL     1       7.452   0.426   5.528  1.00  0.00     0.031 A 
ATOM     35  C   UNL     1       8.150  -0.825   5.981  1.00  0.00     0.074 A 
ATOM     36  C   UNL     1       7.146   1.395   6.413  1.00  0.00     0.049 A 
ATOM     37  N   UNL     1       8.546  -1.164   7.181  1.00  0.00    -0.248 NA
ATOM     38  C   UNL     1       8.411  -1.847   4.954  1.00  0.00     0.031 C 
ATOM     39  C   UNL     1       6.417   2.627   6.104  1.00  0.00     0.029 A 
ATOM     40  N   UNL     1       7.401   1.491   7.759  1.00  0.00    -0.354 N 
ATOM     41  C   UNL     1       9.081  -2.438   7.055  1.00  0.00     0.074 A 
ATOM     42  C   UNL     1       8.909  -2.838   5.677  1.00  0.00     0.031 C 
ATOM     43  C   UNL     1       6.305   3.365   7.220  1.00  0.00     0.029 A 
ATOM     44  C   UNL     1       6.916   2.643   8.332  1.00  0.00     0.049 A 
ATOM     45  H   UNL     1       7.885   0.800   8.266  1.00  0.00     0.167 HD
ATOM     46  C   UNL     1       9.686  -3.195   8.000  1.00  0.00     0.037 A 
ATOM     47  C   UNL     1       6.954   3.061   9.611  1.00  0.00     0.037 A 
ATOM     48  C   UNL     1       9.884  -2.775   9.361  1.00  0.00     0.049 A 
ATOM     49  C   UNL     1       7.637   2.199  10.641  1.00  0.00     0.074 A 
ATOM     50  C   UNL     1      10.558  -3.432  10.375  1.00  0.00     0.029 A 
ATOM     51  N   UNL     1       9.401  -1.591   9.900  1.00  0.00    -0.354 N 
ATOM     52  N   UNL     1       8.224   1.036  10.490  1.00  0.00    -0.248 NA
ATOM     53  C   UNL     1       7.670   2.711  12.018  1.00  0.00     0.031 C 
ATOM     54  C   UNL     1      10.429  -2.676  11.544  1.00  0.00     0.029 A 
ATOM     55  C   UNL     1       9.734  -1.516  11.242  1.00  0.00     0.049 A 
ATOM     56  H   UNL     1       8.898  -0.907   9.402  1.00  0.00     0.167 HD
ATOM     57  C   UNL     1       8.722   0.694  11.740  1.00  0.00     0.074 A 
ATOM     58  C   UNL     1       8.383   1.781  12.635  1.00  0.00     0.031 C 
ATOM     59  C   UNL     1       9.397  -0.420  12.116  1.00  0.00     0.037 A 
BRANCH  46  60
ATOM     60  C   UNL     1      10.178  -4.556   7.597  1.00  0.00     0.064 A 
ATOM     61  C   UNL     1      11.262  -4.723   6.723  1.00  0.00     0.173 A 
ATOM     62  C   UNL     1       9.584  -5.709   8.133  1.00  0.00     0.173 A 
ATOM     63  F   UNL     1      11.857  -3.653   6.172  1.00  0.00    -0.203 F 
ATOM     64  C   UNL     1      11.717  -5.993   6.379  1.00  0.00     0.198 A 
ATOM     65  C   UNL     1      10.063  -6.976   7.814  1.00  0.00     0.198 A 
ATOM     66  F   UNL     1       8.545  -5.607   8.975  1.00  0.00    -0.203 F 
ATOM     67  F   UNL     1      12.723  -6.128   5.504  1.00  0.00    -0.200 F 
ATOM     68  C   UNL     1      11.124  -7.118   6.932  1.00  0.00     0.200 A 
ATOM     69  F   UNL     1       9.498  -8.062   8.360  1.00  0.00    -0.200 F 
ATOM     70  F   UNL     1      11.572  -8.339   6.611  1.00  0.00    -0.200 F 
ENDBRANCH  46  60
BRANCH  47  71
ATOM     71  C   UNL     1       6.337   4.360   9.995  1.00  0.00     0.064 A 
ATOM     72  C   UNL     1       7.125   5.434  10.434  1.00  0.00     0.173 A 
ATOM     73  C   UNL     1       4.948   4.548   9.954  1.00  0.00     0.173 A 
ATOM     74  F   UNL     1       8.457   5.300  10.510  1.00  0.00    -0.203 F 
ATOM     75  C   UNL     1       6.545   6.632  10.849  1.00  0.00     0.198 A 
ATOM     76  C   UNL     1       4.371   5.758  10.336  1.00  0.00     0.198 A 
ATOM     77  F   UNL     1       4.148   3.556   9.534  1.00  0.00    -0.203 F 
ATOM     78  F   UNL     1       7.318   7.619  11.321  1.00  0.00    -0.200 F 
ATOM     79  C   UNL     1       5.169   6.794  10.795  1.00  0.00     0.200 A 
ATOM     80  F   UNL     1       3.043   5.916  10.265  1.00  0.00    -0.200 F 
ATOM     81  F   UNL     1       4.612   7.946  11.194  1.00  0.00    -0.200 F 
ENDBRANCH  47  71
BRANCH  59  82
ATOM     82  C   UNL     1       9.852  -0.504  13.544  1.00  0.00     0.064 A 
ATOM     83  C   UNL     1       8.946  -0.686  14.599  1.00  0.00     0.173 A 
ATOM     84  C   UNL     1      11.220  -0.448  13.856  1.00  0.00     0.173 A 
ATOM     85  F   UNL     1       7.627  -0.733  14.357  1.00  0.00    -0.203 F 
ATOM     86  C   UNL     1       9.390  -0.780  15.915  1.00  0.00     0.198 A 
ATOM     87  C   UNL     1      11.662  -0.579  15.168  1.00  0.00     0.198 A 
ATOM     88  F   UNL     1      12.129  -0.284  12.883  1.00  0.00    -0.203 F 
ATOM     89  F   UNL     1       8.503  -0.901  16.913  1.00  0.00    -0.200 F 
ATOM     90  C   UNL     1      10.748  -0.736  16.198  1.00  0.00     0.200 A 
ATOM     91  F   UNL     1      12.975  -0.554  15.436  1.00  0.00    -0.200 F 
ATOM     92  F   UNL     1      11.174  -0.838  17.464  1.00  0.00    -0.200 F 
ENDBRANCH  59  82
ENDBRANCH  33  34
ENDBRANCH  25  28
ENDBRANCH  23  24
ENDBRANCH  22  23
ENDBRANCH   1  22
TORSDOF 16
