REMARK SMILES O=C(NCCCCNC(=O)c1ccc(-c2c3nc(c(-c4c(F)c(F)c(F)c(F)c4F)c4ccc([nH]4)c(-c4c(F)c(F)c(F)c(F)c4F)c4nc(c(-c5c(F)c(F)c(F)c(F)c5F)c5ccc2[nH]5)C=C4)C=C3)cc1)C1=Cc2cc(C(F)(F)F)ccc2O[C@@H]1C(F)(F)F
REMARK SMILES IDX 6 1 5 2 4 3 3 4 1 5 2 6 74 8 75 9 87 10 76 11 86 12 77 13
REMARK SMILES IDX 85 14 78 15 84 16 83 17 88 18 89 19 90 20 91 21 79 22 80 23
REMARK SMILES IDX 81 24 82 25 7 26 8 27 9 28 10 30 11 31 12 32 73 33 13 34
REMARK SMILES IDX 72 35 14 36 15 37 16 38 66 39 17 40 71 41 65 42 67 43 18 44
REMARK SMILES IDX 70 45 64 46 63 47 19 49 51 50 31 51 50 52 32 53 35 54 49 55
REMARK SMILES IDX 68 56 33 57 34 58 48 60 69 61 36 62 20 63 21 64 29 65 22 66
REMARK SMILES IDX 23 67 27 68 30 69 24 70 25 71 28 72 26 73 52 74 53 75 61 76
REMARK SMILES IDX 54 77 55 78 59 79 62 80 56 81 57 82 60 83 58 84 37 85 38 86
REMARK SMILES IDX 46 87 39 88 40 89 44 90 47 91 41 92 42 93 45 94 43 95
REMARK H PARENT 3 7 8 29 67 48 35 59
REMARK Flexibility Score: inf
ROOT
ATOM      1  C   UNL     1       3.939   2.553   3.519  1.00  0.00     0.023 C 
ENDROOT
BRANCH   1   2
ATOM      2  C   UNL     1       4.210   2.519   2.019  1.00  0.00     0.023 C 
BRANCH   2   3
ATOM      3  C   UNL     1       3.805   1.228   1.313  1.00  0.00     0.116 C 
BRANCH   3   4
ATOM      4  N   UNL     1       2.594   1.322   0.509  1.00  0.00    -0.352 N 
ATOM      5  O   UNL     1       1.074   0.673  -1.017  1.00  0.00    -0.270 OA
ATOM      6  C   UNL     1       2.241   0.647  -0.633  1.00  0.00     0.251 C 
ATOM      7  H   UNL     1       1.927   1.968   0.835  1.00  0.00     0.163 HD
BRANCH   6   8
ATOM      8  C   UNL     1       3.219  -0.206  -1.366  1.00  0.00     0.067 C 
ATOM      9  C   UNL     1       4.434   0.280  -1.658  1.00  0.00     0.025 C 
ATOM     10  C   UNL     1       3.031  -1.687  -1.161  1.00  0.00     0.314 C 
ATOM     11  C   UNL     1       5.536  -0.439  -1.010  1.00  0.00     0.018 A 
ATOM     12  O   UNL     1       4.076  -2.282  -0.347  1.00  0.00    -0.475 OA
ATOM     13  C   UNL     1       6.724   0.268  -0.784  1.00  0.00     0.025 A 
ATOM     14  C   UNL     1       5.276  -1.619  -0.301  1.00  0.00     0.128 A 
ATOM     15  C   UNL     1       7.614  -0.151   0.217  1.00  0.00     0.056 A 
ATOM     16  C   UNL     1       6.201  -2.091   0.626  1.00  0.00     0.048 A 
ATOM     17  C   UNL     1       7.354  -1.349   0.902  1.00  0.00     0.017 A 
BRANCH  10  18
ATOM     18  C   UNL     1       2.917  -2.409  -2.517  1.00  0.00     0.429 C 
ATOM     19  F   UNL     1       2.624  -3.721  -2.353  1.00  0.00    -0.167 F 
ATOM     20  F   UNL     1       1.937  -1.881  -3.288  1.00  0.00    -0.167 F 
ATOM     21  F   UNL     1       4.065  -2.341  -3.234  1.00  0.00    -0.167 F 
ENDBRANCH  10  18
BRANCH  15  22
ATOM     22  C   UNL     1       8.784   0.728   0.595  1.00  0.00     0.416 C 
ATOM     23  F   UNL     1       9.828   0.612  -0.266  1.00  0.00    -0.166 F 
ATOM     24  F   UNL     1       8.445   2.050   0.605  1.00  0.00    -0.166 F 
ATOM     25  F   UNL     1       9.274   0.466   1.835  1.00  0.00    -0.166 F 
ENDBRANCH  15  22
ENDBRANCH   6   8
ENDBRANCH   3   4
ENDBRANCH   2   3
ENDBRANCH   1   2
BRANCH   1  26
ATOM     26  C   UNL     1       4.528   1.411   4.345  1.00  0.00     0.116 C 
BRANCH  26  27
ATOM     27  N   UNL     1       5.971   1.244   4.234  1.00  0.00    -0.352 N 
ATOM     28  C   UNL     1       6.891   1.010   5.234  1.00  0.00     0.251 C 
ATOM     29  H   UNL     1       6.338   1.308   3.323  1.00  0.00     0.163 HD
ATOM     30  O   UNL     1       8.086   0.898   4.973  1.00  0.00    -0.269 OA
BRANCH  28  31
ATOM     31  C   UNL     1       6.437   0.958   6.639  1.00  0.00     0.039 A 
ATOM     32  C   UNL     1       7.038   1.806   7.572  1.00  0.00     0.014 A 
ATOM     33  C   UNL     1       5.357   0.152   7.008  1.00  0.00     0.014 A 
ATOM     34  C   UNL     1       6.478   1.937   8.845  1.00  0.00     0.010 A 
ATOM     35  C   UNL     1       4.753   0.344   8.246  1.00  0.00     0.010 A 
ATOM     36  C   UNL     1       5.292   1.256   9.167  1.00  0.00    -0.014 A 
BRANCH  36  37
ATOM     37  C   UNL     1       4.573   1.521  10.440  1.00  0.00     0.031 A 
ATOM     38  C   UNL     1       4.390   0.424  11.448  1.00  0.00     0.074 A 
ATOM     39  C   UNL     1       4.006   2.727  10.644  1.00  0.00     0.049 A 
ATOM     40  N   UNL     1       3.728   0.440  12.578  1.00  0.00    -0.248 NA
ATOM     41  C   UNL     1       5.005  -0.873  11.130  1.00  0.00     0.031 C 
ATOM     42  C   UNL     1       4.057   3.856   9.714  1.00  0.00     0.029 A 
ATOM     43  N   UNL     1       3.266   3.202  11.699  1.00  0.00    -0.354 N 
ATOM     44  C   UNL     1       3.829  -0.845  13.091  1.00  0.00     0.074 A 
ATOM     45  C   UNL     1       4.572  -1.629  12.127  1.00  0.00     0.031 C 
ATOM     46  C   UNL     1       3.409   4.901  10.252  1.00  0.00     0.029 A 
ATOM     47  C   UNL     1       2.866   4.507  11.549  1.00  0.00     0.049 A 
ATOM     48  H   UNL     1       3.043   2.658  12.488  1.00  0.00     0.167 HD
ATOM     49  C   UNL     1       3.364  -1.324  14.270  1.00  0.00     0.037 A 
ATOM     50  C   UNL     1       2.146   5.298  12.367  1.00  0.00     0.037 A 
ATOM     51  C   UNL     1       2.658  -0.535  15.243  1.00  0.00     0.049 A 
ATOM     52  C   UNL     1       1.656   4.747  13.677  1.00  0.00     0.074 A 
ATOM     53  C   UNL     1       2.213  -0.907  16.500  1.00  0.00     0.029 A 
ATOM     54  N   UNL     1       2.292   0.792  15.067  1.00  0.00    -0.354 N 
ATOM     55  N   UNL     1       1.824   3.551  14.187  1.00  0.00    -0.248 NA
ATOM     56  C   UNL     1       0.878   5.659  14.528  1.00  0.00     0.031 C 
ATOM     57  C   UNL     1       1.549   0.185  17.070  1.00  0.00     0.029 A 
ATOM     58  C   UNL     1       1.613   1.248  16.184  1.00  0.00     0.049 A 
ATOM     59  H   UNL     1       2.488   1.330  14.265  1.00  0.00     0.167 HD
ATOM     60  C   UNL     1       1.201   3.575  15.427  1.00  0.00     0.074 A 
ATOM     61  C   UNL     1       0.659   4.907  15.598  1.00  0.00     0.031 C 
ATOM     62  C   UNL     1       1.090   2.581  16.342  1.00  0.00     0.037 A 
BRANCH  49  63
ATOM     63  C   UNL     1       3.617  -2.772  14.570  1.00  0.00     0.064 A 
ATOM     64  C   UNL     1       4.904  -3.248  14.860  1.00  0.00     0.173 A 
ATOM     65  C   UNL     1       2.559  -3.693  14.575  1.00  0.00     0.173 A 
ATOM     66  F   UNL     1       5.951  -2.409  14.854  1.00  0.00    -0.203 F 
ATOM     67  C   UNL     1       5.130  -4.599  15.109  1.00  0.00     0.198 A 
ATOM     68  C   UNL     1       2.784  -5.039  14.853  1.00  0.00     0.198 A 
ATOM     69  F   UNL     1       1.308  -3.289  14.308  1.00  0.00    -0.203 F 
ATOM     70  F   UNL     1       6.377  -5.039  15.327  1.00  0.00    -0.200 F 
ATOM     71  C   UNL     1       4.069  -5.492  15.110  1.00  0.00     0.200 A 
ATOM     72  F   UNL     1       1.757  -5.901  14.862  1.00  0.00    -0.200 F 
ATOM     73  F   UNL     1       4.288  -6.793  15.347  1.00  0.00    -0.200 F 
ENDBRANCH  49  63
BRANCH  50  74
ATOM     74  C   UNL     1       1.885   6.712  11.994  1.00  0.00     0.064 A 
ATOM     75  C   UNL     1       2.533   7.757  12.667  1.00  0.00     0.173 A 
ATOM     76  C   UNL     1       0.990   7.050  10.969  1.00  0.00     0.173 A 
ATOM     77  F   UNL     1       3.381   7.481  13.669  1.00  0.00    -0.203 F 
ATOM     78  C   UNL     1       2.284   9.088  12.341  1.00  0.00     0.198 A 
ATOM     79  C   UNL     1       0.759   8.381  10.628  1.00  0.00     0.198 A 
ATOM     80  F   UNL     1       0.348   6.086  10.293  1.00  0.00    -0.203 F 
ATOM     81  F   UNL     1       2.888  10.068  13.027  1.00  0.00    -0.200 F 
ATOM     82  C   UNL     1       1.401   9.399  11.318  1.00  0.00     0.200 A 
ATOM     83  F   UNL     1      -0.087   8.678   9.632  1.00  0.00    -0.200 F 
ATOM     84  F   UNL     1       1.163  10.679  11.003  1.00  0.00    -0.200 F 
ENDBRANCH  50  74
BRANCH  62  85
ATOM     85  C   UNL     1       0.387   2.909  17.625  1.00  0.00     0.064 A 
ATOM     86  C   UNL     1      -1.006   3.057  17.682  1.00  0.00     0.173 A 
ATOM     87  C   UNL     1       1.114   3.042  18.818  1.00  0.00     0.173 A 
ATOM     88  F   UNL     1      -1.742   2.956  16.564  1.00  0.00    -0.203 F 
ATOM     89  C   UNL     1      -1.645   3.347  18.884  1.00  0.00     0.198 A 
ATOM     90  C   UNL     1       0.469   3.307  20.022  1.00  0.00     0.198 A 
ATOM     91  F   UNL     1       2.448   2.906  18.815  1.00  0.00    -0.203 F 
ATOM     92  F   UNL     1      -2.973   3.526  18.909  1.00  0.00    -0.200 F 
ATOM     93  C   UNL     1      -0.908   3.465  20.054  1.00  0.00     0.200 A 
ATOM     94  F   UNL     1       1.181   3.412  21.153  1.00  0.00    -0.200 F 
ATOM     95  F   UNL     1      -1.526   3.740  21.211  1.00  0.00    -0.200 F 
ENDBRANCH  62  85
ENDBRANCH  36  37
ENDBRANCH  28  31
ENDBRANCH  26  27
ENDBRANCH   1  26
TORSDOF 13
