REMARK SMILES Cc1ccc2c(c1)C=C(C(=O)NCCCCNC(=O)c1ccc(-c3c4nc(c(-c5c(F)c(F)c(F)c(F)c5F)c5ccc([nH]5)c(-c5c(F)c(F)c(F)c(F)c5F)c5nc(c(-c6c(F)c(F)c(F)c(F)c6F)c6ccc3[nH]6)C=C5)C=C4)cc1)[C@@H](C(F)(F)F)O2
REMARK SMILES IDX 15 1 14 2 13 3 12 4 10 5 11 6 9 8 1 9 2 10 3 11 7 12 4 13
REMARK SMILES IDX 6 14 5 15 8 16 88 17 83 18 84 19 85 20 86 21 87 22 16 23
REMARK SMILES IDX 17 24 18 25 19 27 20 28 21 29 82 30 22 31 81 32 23 33 24 34
REMARK SMILES IDX 25 35 75 36 26 37 80 38 74 39 76 40 27 41 79 42 73 43 72 44
REMARK SMILES IDX 28 46 60 47 40 48 59 49 41 50 44 51 58 52 77 53 42 54 43 55
REMARK SMILES IDX 57 57 78 58 45 59 29 60 30 61 38 62 31 63 32 64 36 65 39 66
REMARK SMILES IDX 33 67 34 68 37 69 35 70 61 71 62 72 70 73 63 74 64 75 68 76
REMARK SMILES IDX 71 77 65 78 66 79 69 80 67 81 46 82 47 83 55 84 48 85 49 86
REMARK SMILES IDX 53 87 56 88 50 89 51 90 54 91 52 92
REMARK H PARENT 12 7 17 26 76 45 44 56
REMARK Flexibility Score: inf
ROOT
ATOM      1  C   UNL     1       1.478   8.716   6.848  1.00  0.00     0.023 C 
ENDROOT
BRANCH   1   2
ATOM      2  C   UNL     1       0.940   7.326   6.498  1.00  0.00     0.023 C 
BRANCH   2   3
ATOM      3  C   UNL     1      -0.109   7.316   5.389  1.00  0.00     0.116 C 
BRANCH   3   4
ATOM      4  N   UNL     1       0.492   7.332   4.068  1.00  0.00    -0.352 N 
ATOM      5  C   UNL     1       0.733   6.436   3.081  1.00  0.00     0.251 C 
ATOM      6  O   UNL     1       1.294   6.900   2.083  1.00  0.00    -0.270 OA
ATOM      7  H   UNL     1       0.808   8.232   3.824  1.00  0.00     0.163 HD
BRANCH   5   8
ATOM      8  C   UNL     1       0.379   4.985   3.122  1.00  0.00     0.067 C 
ATOM      9  C   UNL     1       0.999  -0.169  -0.249  1.00  0.00     0.044 C 
ATOM     10  C   UNL     1       0.614   0.662   0.939  1.00  0.00    -0.050 A 
ATOM     11  C   UNL     1       0.014   0.073   2.059  1.00  0.00     0.007 A 
ATOM     12  C   UNL     1       0.890   2.038   0.953  1.00  0.00     0.015 A 
ATOM     13  C   UNL     1      -0.318   0.850   3.169  1.00  0.00     0.047 A 
ATOM     14  C   UNL     1       0.555   2.820   2.064  1.00  0.00     0.017 A 
ATOM     15  C   UNL     1      -0.056   2.218   3.163  1.00  0.00     0.128 A 
ATOM     16  C   UNL     1       0.873   4.241   2.114  1.00  0.00     0.025 C 
ATOM     17  O   UNL     1      -0.381   2.908   4.295  1.00  0.00    -0.475 OA
ATOM     18  C   UNL     1      -0.503   4.351   4.162  1.00  0.00     0.314 C 
BRANCH  18  19
ATOM     19  C   UNL     1      -1.989   4.714   3.978  1.00  0.00     0.429 C 
ATOM     20  F   UNL     1      -2.692   4.407   5.098  1.00  0.00    -0.167 F 
ATOM     21  F   UNL     1      -2.177   6.039   3.765  1.00  0.00    -0.167 F 
ATOM     22  F   UNL     1      -2.566   4.063   2.945  1.00  0.00    -0.167 F 
ENDBRANCH  18  19
ENDBRANCH   5   8
ENDBRANCH   3   4
ENDBRANCH   2   3
ENDBRANCH   1   2
BRANCH   1  23
ATOM     23  C   UNL     1       0.424   9.756   7.223  1.00  0.00     0.116 C 
BRANCH  23  24
ATOM     24  N   UNL     1      -0.497   9.331   8.269  1.00  0.00    -0.352 N 
ATOM     25  C   UNL     1      -1.183  10.121   9.165  1.00  0.00     0.251 C 
ATOM     26  H   UNL     1      -0.646   8.361   8.346  1.00  0.00     0.163 HD
ATOM     27  O   UNL     1      -1.886   9.623  10.037  1.00  0.00    -0.269 OA
BRANCH  25  28
ATOM     28  C   UNL     1      -1.004  11.584   9.094  1.00  0.00     0.039 A 
ATOM     29  C   UNL     1      -1.186  12.255   7.884  1.00  0.00     0.014 A 
ATOM     30  C   UNL     1      -0.540  12.261  10.224  1.00  0.00     0.014 A 
ATOM     31  C   UNL     1      -0.732  13.562   7.756  1.00  0.00     0.010 A 
ATOM     32  C   UNL     1      -0.149  13.597  10.111  1.00  0.00     0.010 A 
ATOM     33  C   UNL     1      -0.182  14.235   8.861  1.00  0.00    -0.014 A 
BRANCH  33  34
ATOM     34  C   UNL     1       0.409  15.582   8.670  1.00  0.00     0.031 A 
ATOM     35  C   UNL     1       1.896  15.785   8.796  1.00  0.00     0.074 A 
ATOM     36  C   UNL     1      -0.384  16.607   8.307  1.00  0.00     0.049 A 
ATOM     37  N   UNL     1       2.595  16.884   8.652  1.00  0.00    -0.248 NA
ATOM     38  C   UNL     1       2.706  14.602   9.127  1.00  0.00     0.031 C 
ATOM     39  C   UNL     1      -1.833  16.524   8.126  1.00  0.00     0.029 A 
ATOM     40  N   UNL     1      -0.080  17.907   7.995  1.00  0.00    -0.354 N 
ATOM     41  C   UNL     1       3.915  16.530   8.896  1.00  0.00     0.074 A 
ATOM     42  C   UNL     1       3.924  15.119   9.216  1.00  0.00     0.031 C 
ATOM     43  C   UNL     1      -2.286  17.706   7.682  1.00  0.00     0.029 A 
ATOM     44  C   UNL     1      -1.169  18.642   7.601  1.00  0.00     0.049 A 
ATOM     45  H   UNL     1       0.831  18.276   8.049  1.00  0.00     0.167 HD
ATOM     46  C   UNL     1       5.020  17.311   8.848  1.00  0.00     0.037 A 
ATOM     47  C   UNL     1      -1.259  19.931   7.223  1.00  0.00     0.037 A 
ATOM     48  C   UNL     1       5.016  18.706   8.494  1.00  0.00     0.049 A 
ATOM     49  C   UNL     1      -0.022  20.781   7.209  1.00  0.00     0.074 A 
ATOM     50  C   UNL     1       6.089  19.575   8.399  1.00  0.00     0.029 A 
ATOM     51  N   UNL     1       3.882  19.432   8.168  1.00  0.00    -0.354 N 
ATOM     52  N   UNL     1       1.217  20.440   7.466  1.00  0.00    -0.248 NA
ATOM     53  C   UNL     1      -0.199  22.200   6.870  1.00  0.00     0.031 C 
ATOM     54  C   UNL     1       5.600  20.836   8.044  1.00  0.00     0.029 A 
ATOM     55  C   UNL     1       4.227  20.744   7.886  1.00  0.00     0.049 A 
ATOM     56  H   UNL     1       2.967  19.070   8.140  1.00  0.00     0.167 HD
ATOM     57  C   UNL     1       1.967  21.598   7.324  1.00  0.00     0.074 A 
ATOM     58  C   UNL     1       1.048  22.647   6.932  1.00  0.00     0.031 C 
ATOM     59  C   UNL     1       3.297  21.776   7.511  1.00  0.00     0.037 A 
BRANCH  46  60
ATOM     60  C   UNL     1       6.337  16.681   9.192  1.00  0.00     0.064 A 
ATOM     61  C   UNL     1       7.002  15.834   8.295  1.00  0.00     0.173 A 
ATOM     62  C   UNL     1       6.970  16.981  10.408  1.00  0.00     0.173 A 
ATOM     63  F   UNL     1       6.430  15.506   7.126  1.00  0.00    -0.203 F 
ATOM     64  C   UNL     1       8.251  15.302   8.606  1.00  0.00     0.198 A 
ATOM     65  C   UNL     1       8.228  16.464  10.707  1.00  0.00     0.198 A 
ATOM     66  F   UNL     1       6.376  17.790  11.298  1.00  0.00    -0.203 F 
ATOM     67  F   UNL     1       8.857  14.473   7.745  1.00  0.00    -0.200 F 
ATOM     68  C   UNL     1       8.866  15.623   9.807  1.00  0.00     0.200 A 
ATOM     69  F   UNL     1       8.824  16.782  11.864  1.00  0.00    -0.200 F 
ATOM     70  F   UNL     1      10.073  15.120  10.099  1.00  0.00    -0.200 F 
ENDBRANCH  46  60
BRANCH  47  71
ATOM     71  C   UNL     1      -2.577  20.485   6.829  1.00  0.00     0.064 A 
ATOM     72  C   UNL     1      -2.859  20.778   5.489  1.00  0.00     0.173 A 
ATOM     73  C   UNL     1      -3.590  20.695   7.775  1.00  0.00     0.173 A 
ATOM     74  F   UNL     1      -1.913  20.610   4.553  1.00  0.00    -0.203 F 
ATOM     75  C   UNL     1      -4.109  21.261   5.109  1.00  0.00     0.198 A 
ATOM     76  C   UNL     1      -4.846  21.157   7.391  1.00  0.00     0.198 A 
ATOM     77  F   UNL     1      -3.366  20.427   9.070  1.00  0.00    -0.203 F 
ATOM     78  F   UNL     1      -4.348  21.555   3.823  1.00  0.00    -0.200 F 
ATOM     79  C   UNL     1      -5.104  21.442   6.058  1.00  0.00     0.200 A 
ATOM     80  F   UNL     1      -5.809  21.317   8.309  1.00  0.00    -0.200 F 
ATOM     81  F   UNL     1      -6.311  21.893   5.689  1.00  0.00    -0.200 F 
ENDBRANCH  47  71
BRANCH  59  82
ATOM     82  C   UNL     1       3.837  23.157   7.304  1.00  0.00     0.064 A 
ATOM     83  C   UNL     1       3.650  24.159   8.267  1.00  0.00     0.173 A 
ATOM     84  C   UNL     1       4.593  23.467   6.165  1.00  0.00     0.173 A 
ATOM     85  F   UNL     1       2.921  23.911   9.366  1.00  0.00    -0.203 F 
ATOM     86  C   UNL     1       4.190  25.429   8.089  1.00  0.00     0.198 A 
ATOM     87  C   UNL     1       5.149  24.732   6.000  1.00  0.00     0.198 A 
ATOM     88  F   UNL     1       4.803  22.539   5.220  1.00  0.00    -0.203 F 
ATOM     89  F   UNL     1       3.975  26.382   9.007  1.00  0.00    -0.200 F 
ATOM     90  C   UNL     1       4.945  25.712   6.960  1.00  0.00     0.200 A 
ATOM     91  F   UNL     1       5.885  25.003   4.913  1.00  0.00    -0.200 F 
ATOM     92  F   UNL     1       5.471  26.934   6.794  1.00  0.00    -0.200 F 
ENDBRANCH  59  82
ENDBRANCH  33  34
ENDBRANCH  25  28
ENDBRANCH  23  24
ENDBRANCH   1  23
TORSDOF 12
