REMARK SMILES [N-]=[N+]=NC[C@H](NC=O)C(=O)NCCCCNC(=O)c1ccc(-c2c3nc(c(-c4c(F)c(F)c(F)c(F)c4F)c4ccc([nH]4)c(-c4c(F)c(F)c(F)c(F)c4F)c4nc(c(-c5c(F)c(F)c(F)c(F)c5F)c5ccc2[nH]5)C=C4)C=C3)cc1
REMARK SMILES IDX 13 1 12 2 11 3 9 4 10 5 5 7 4 8 3 9 1 10 2 11 6 12 7 13 8 15
REMARK SMILES IDX 14 16 15 17 16 18 17 19 18 21 19 22 20 23 81 24 21 25 80 26
REMARK SMILES IDX 22 27 23 28 24 29 74 30 25 31 79 32 73 33 75 34 26 35 78 36
REMARK SMILES IDX 72 37 71 38 27 40 59 41 39 42 58 43 40 44 43 45 57 46 76 47
REMARK SMILES IDX 41 48 42 49 56 51 77 52 44 53 28 54 29 55 37 56 30 57 31 58
REMARK SMILES IDX 35 59 38 60 32 61 33 62 36 63 34 64 60 65 61 66 69 67 62 68
REMARK SMILES IDX 63 69 67 70 70 71 64 72 65 73 68 74 66 75 45 76 46 77 54 78
REMARK SMILES IDX 47 79 48 80 52 81 55 82 49 83 50 84 53 85 51 86
REMARK H PARENT 11 6 6 14 16 20 75 39 43 50
REMARK Flexibility Score: inf
ROOT
ATOM      1  C   UNL     1       4.483   4.643   0.372  1.00  0.00     0.023 C 
ENDROOT
BRANCH   1   2
ATOM      2  C   UNL     1       3.603   4.082  -0.736  1.00  0.00     0.116 C 
BRANCH   2   3
ATOM      3  N   UNL     1       4.357   3.676  -1.902  1.00  0.00    -0.354 N 
ATOM      4  C   UNL     1       4.465   2.455  -2.497  1.00  0.00     0.242 C 
ATOM      5  O   UNL     1       5.036   2.407  -3.590  1.00  0.00    -0.273 OA
ATOM      6  H   UNL     1       4.874   4.394  -2.333  1.00  0.00     0.163 HD
BRANCH   4   7
ATOM      7  C   UNL     1       3.844   1.182  -1.889  1.00  0.00     0.176 C 
BRANCH   7   8
ATOM      8  C   UNL     1       2.316   1.088  -2.082  1.00  0.00     0.125 C 
BRANCH   8   9
ATOM      9  N   UNL     1       1.510   1.747  -1.035  1.00  0.00    -0.091 NA
ATOM     10  N   UNL     1       1.354   0.656   1.080  1.00  0.00    -0.003 NA
ATOM     11  N   UNL     1       1.419   1.162   0.060  1.00  0.00     0.001 N 
ENDBRANCH   8   9
ENDBRANCH   7   8
BRANCH   7  12
ATOM     12  N   UNL     1       4.313   0.939  -0.530  1.00  0.00    -0.347 N 
ATOM     13  C   UNL     1       4.957  -0.191  -0.130  1.00  0.00     0.337 C 
ATOM     14  H   UNL     1       4.153   1.640   0.143  1.00  0.00     0.164 HD
ATOM     15  O   UNL     1       5.439  -0.305   0.987  1.00  0.00    -0.279 OA
ENDBRANCH   7  12
ENDBRANCH   4   7
ENDBRANCH   2   3
ENDBRANCH   1   2
BRANCH   1  16
ATOM     16  C   UNL     1       5.126   5.985   0.048  1.00  0.00     0.023 C 
BRANCH  16  17
ATOM     17  C   UNL     1       4.151   7.068  -0.391  1.00  0.00     0.116 C 
BRANCH  17  18
ATOM     18  N   UNL     1       3.132   7.366   0.608  1.00  0.00    -0.352 N 
ATOM     19  C   UNL     1       2.745   8.594   1.090  1.00  0.00     0.251 C 
ATOM     20  H   UNL     1       2.661   6.588   0.985  1.00  0.00     0.163 HD
ATOM     21  O   UNL     1       1.962   8.688   2.027  1.00  0.00    -0.269 OA
BRANCH  19  22
ATOM     22  C   UNL     1       3.322   9.805   0.473  1.00  0.00     0.039 A 
ATOM     23  C   UNL     1       3.923  10.767   1.286  1.00  0.00     0.014 A 
ATOM     24  C   UNL     1       3.337   9.934  -0.917  1.00  0.00     0.014 A 
ATOM     25  C   UNL     1       4.610  11.829   0.696  1.00  0.00     0.010 A 
ATOM     26  C   UNL     1       4.102  10.934  -1.500  1.00  0.00     0.010 A 
ATOM     27  C   UNL     1       4.740  11.897  -0.701  1.00  0.00    -0.014 A 
BRANCH  27  28
ATOM     28  C   UNL     1       5.503  12.980  -1.370  1.00  0.00     0.031 A 
ATOM     29  C   UNL     1       4.788  13.902  -2.318  1.00  0.00     0.074 A 
ATOM     30  C   UNL     1       6.836  13.080  -1.202  1.00  0.00     0.049 A 
ATOM     31  N   UNL     1       5.277  14.808  -3.125  1.00  0.00    -0.248 NA
ATOM     32  C   UNL     1       3.324  13.757  -2.396  1.00  0.00     0.031 C 
ATOM     33  C   UNL     1       7.648  12.230  -0.330  1.00  0.00     0.029 A 
ATOM     34  N   UNL     1       7.748  13.932  -1.776  1.00  0.00    -0.354 N 
ATOM     35  C   UNL     1       4.189  15.321  -3.817  1.00  0.00     0.074 A 
ATOM     36  C   UNL     1       3.022  14.584  -3.385  1.00  0.00     0.031 C 
ATOM     37  C   UNL     1       8.933  12.613  -0.415  1.00  0.00     0.029 A 
ATOM     38  C   UNL     1       9.044  13.698  -1.386  1.00  0.00     0.049 A 
ATOM     39  H   UNL     1       7.496  14.643  -2.409  1.00  0.00     0.167 HD
ATOM     40  C   UNL     1       4.160  16.334  -4.714  1.00  0.00     0.037 A 
ATOM     41  C   UNL     1      10.193  14.280  -1.783  1.00  0.00     0.037 A 
ATOM     42  C   UNL     1       5.321  17.079  -5.121  1.00  0.00     0.049 A 
ATOM     43  C   UNL     1      10.139  15.382  -2.812  1.00  0.00     0.074 A 
ATOM     44  C   UNL     1       5.394  18.153  -5.989  1.00  0.00     0.029 A 
ATOM     45  N   UNL     1       6.614  16.824  -4.687  1.00  0.00    -0.354 N 
ATOM     46  N   UNL     1       9.099  15.894  -3.423  1.00  0.00    -0.248 NA
ATOM     47  C   UNL     1      11.420  15.988  -3.204  1.00  0.00     0.031 C 
ATOM     48  C   UNL     1       6.737  18.509  -6.129  1.00  0.00     0.029 A 
ATOM     49  C   UNL     1       7.494  17.707  -5.288  1.00  0.00     0.049 A 
ATOM     50  H   UNL     1       6.867  16.120  -4.047  1.00  0.00     0.167 HD
ATOM     51  C   UNL     1       9.591  16.911  -4.231  1.00  0.00     0.074 A 
ATOM     52  C   UNL     1      11.025  16.943  -4.035  1.00  0.00     0.031 C 
ATOM     53  C   UNL     1       8.915  17.748  -5.054  1.00  0.00     0.037 A 
BRANCH  40  54
ATOM     54  C   UNL     1       2.833  16.694  -5.317  1.00  0.00     0.064 A 
ATOM     55  C   UNL     1       1.804  17.267  -4.552  1.00  0.00     0.173 A 
ATOM     56  C   UNL     1       2.597  16.496  -6.686  1.00  0.00     0.173 A 
ATOM     57  F   UNL     1       1.972  17.467  -3.236  1.00  0.00    -0.203 F 
ATOM     58  C   UNL     1       0.580  17.595  -5.128  1.00  0.00     0.198 A 
ATOM     59  C   UNL     1       1.385  16.861  -7.266  1.00  0.00     0.198 A 
ATOM     60  F   UNL     1       3.546  15.957  -7.465  1.00  0.00    -0.203 F 
ATOM     61  F   UNL     1      -0.406  18.086  -4.364  1.00  0.00    -0.200 F 
ATOM     62  C   UNL     1       0.375  17.401  -6.485  1.00  0.00     0.200 A 
ATOM     63  F   UNL     1       1.195  16.688  -8.581  1.00  0.00    -0.200 F 
ATOM     64  F   UNL     1      -0.801  17.727  -7.039  1.00  0.00    -0.200 F 
ENDBRANCH  40  54
BRANCH  41  65
ATOM     65  C   UNL     1      11.493  13.847  -1.203  1.00  0.00     0.064 A 
ATOM     66  C   UNL     1      12.243  14.710  -0.391  1.00  0.00     0.173 A 
ATOM     67  C   UNL     1      12.026  12.576  -1.465  1.00  0.00     0.173 A 
ATOM     68  F   UNL     1      11.787  15.944  -0.126  1.00  0.00    -0.203 F 
ATOM     69  C   UNL     1      13.486  14.332   0.111  1.00  0.00     0.198 A 
ATOM     70  C   UNL     1      13.254  12.186  -0.934  1.00  0.00     0.198 A 
ATOM     71  F   UNL     1      11.349  11.708  -2.231  1.00  0.00    -0.203 F 
ATOM     72  F   UNL     1      14.207  15.200   0.835  1.00  0.00    -0.200 F 
ATOM     73  C   UNL     1      13.989  13.068  -0.157  1.00  0.00     0.200 A 
ATOM     74  F   UNL     1      13.729  10.957  -1.182  1.00  0.00    -0.200 F 
ATOM     75  F   UNL     1      15.185  12.704   0.325  1.00  0.00    -0.200 F 
ENDBRANCH  41  65
BRANCH  53  76
ATOM     76  C   UNL     1       9.691  18.829  -5.751  1.00  0.00     0.064 A 
ATOM     77  C   UNL     1      10.566  18.553  -6.810  1.00  0.00     0.173 A 
ATOM     78  C   UNL     1       9.481  20.174  -5.404  1.00  0.00     0.173 A 
ATOM     79  F   UNL     1      10.811  17.285  -7.172  1.00  0.00    -0.203 F 
ATOM     80  C   UNL     1      11.213  19.583  -7.489  1.00  0.00     0.198 A 
ATOM     81  C   UNL     1      10.102  21.201  -6.107  1.00  0.00     0.198 A 
ATOM     82  F   UNL     1       8.647  20.491  -4.403  1.00  0.00    -0.203 F 
ATOM     83  F   UNL     1      12.072  19.296  -8.476  1.00  0.00    -0.200 F 
ATOM     84  C   UNL     1      10.970  20.906  -7.146  1.00  0.00     0.200 A 
ATOM     85  F   UNL     1       9.850  22.478  -5.786  1.00  0.00    -0.200 F 
ATOM     86  F   UNL     1      11.575  21.896  -7.817  1.00  0.00    -0.200 F 
ENDBRANCH  53  76
ENDBRANCH  27  28
ENDBRANCH  19  22
ENDBRANCH  17  18
ENDBRANCH  16  17
ENDBRANCH   1  16
TORSDOF 14
