REMARK SMILES CC1(C)[C@H](O)CC[C@]2(C)[C@@H]1CC[C@@]1(C)Oc3oc(C(=O)NCCCCNC(=O)c4ccc(-c5c6nc(c(-c7c(F)c(F)c(F)c(F)c7F)c7ccc([nH]7)c(-c7c(F)c(F)c(F)c(F)c7F)c7nc(c(-c8c(F)c(F)c(F)c(F)c8F)c8ccc5[nH]8)C=C7)C=C6)cc4)cc(=O)c3C[C@H]21
REMARK SMILES IDX 24 1 23 2 22 3 21 4 19 5 20 6 18 8 1 9 2 10 3 11 4 12 10 13
REMARK SMILES IDX 6 14 8 15 11 16 7 17 9 18 97 19 12 20 13 21 96 22 14 23
REMARK SMILES IDX 15 24 95 25 16 26 93 27 17 28 92 29 94 30 5 31 25 33 26 34
REMARK SMILES IDX 27 35 28 37 29 38 30 39 91 40 31 41 90 42 32 43 33 44 34 45
REMARK SMILES IDX 84 46 35 47 89 48 83 49 85 50 36 51 88 52 82 53 81 54 37 56
REMARK SMILES IDX 69 57 49 58 68 59 50 60 53 61 67 62 86 63 51 64 52 65 66 67
REMARK SMILES IDX 87 68 54 69 38 70 39 71 47 72 40 73 41 74 45 75 48 76 42 77
REMARK SMILES IDX 43 78 46 79 44 80 70 81 71 82 79 83 72 84 73 85 77 86 80 87
REMARK SMILES IDX 74 88 75 89 78 90 76 91 55 92 56 93 64 94 57 95 58 96 62 97
REMARK SMILES IDX 65 98 59 99 60 100 63 101 61 102
REMARK H PARENT 21 7 5 32 26 36 85 55 53 66
REMARK Flexibility Score: inf
ROOT
ATOM      1  C   UNL     1       7.825   7.235  -7.051  1.00  0.00     0.023 C 
ENDROOT
BRANCH   1   2
ATOM      2  C   UNL     1       6.960   6.090  -6.541  1.00  0.00     0.023 C 
BRANCH   2   3
ATOM      3  C   UNL     1       5.788   5.682  -7.456  1.00  0.00     0.116 C 
BRANCH   3   4
ATOM      4  N   UNL     1       6.187   4.759  -8.536  1.00  0.00    -0.349 N 
ATOM      5  C   UNL     1       6.240   3.382  -8.683  1.00  0.00     0.287 C 
ATOM      6  O   UNL     1       6.498   2.944  -9.804  1.00  0.00    -0.266 OA
ATOM      7  H   UNL     1       6.488   5.234  -9.344  1.00  0.00     0.163 HD
BRANCH   5   8
ATOM      8  C   UNL     1       5.907   2.432  -7.564  1.00  0.00     0.199 A 
ATOM      9  C   UNL     1       1.505  -2.333  -0.361  1.00  0.00     0.014 C 
ATOM     10  C   UNL     1       0.933  -1.957  -1.765  1.00  0.00    -0.006 C 
ATOM     11  C   UNL     1      -0.459  -2.627  -1.829  1.00  0.00     0.014 C 
ATOM     12  C   UNL     1       0.647  -0.296  -1.585  1.00  0.00     0.120 C 
ATOM     13  C   UNL     1       2.121  -2.329  -3.021  1.00  0.00     0.004 C 
ATOM     14  C   UNL     1       1.889   0.577  -1.740  1.00  0.00     0.033 C 
ATOM     15  C   UNL     1       2.200  -0.996  -3.728  1.00  0.00    -0.022 C 
ATOM     16  C   UNL     1       2.370  -3.423  -4.107  1.00  0.00     0.009 C 
ATOM     17  C   UNL     1       2.870  -0.211  -2.526  1.00  0.00     0.010 C 
ATOM     18  C   UNL     1       0.772  -0.931  -4.423  1.00  0.00     0.012 C 
ATOM     19  C   UNL     1       2.976  -0.636  -4.975  1.00  0.00     0.044 C 
ATOM     20  C   UNL     1       3.326  -2.986  -5.406  1.00  0.00     0.049 C 
ATOM     21  C   UNL     1       4.079  -1.554  -5.408  1.00  0.00     0.113 C 
ATOM     22  C   UNL     1       3.150   0.862  -4.998  1.00  0.00     0.055 C 
ATOM     23  C   UNL     1       5.338  -1.663  -4.552  1.00  0.00     0.057 C 
ATOM     24  O   UNL     1       4.516  -1.005  -6.758  1.00  0.00    -0.458 OA
ATOM     25  C   UNL     1       4.273   1.208  -5.826  1.00  0.00     0.081 A 
ATOM     26  C   UNL     1       4.793   0.416  -6.765  1.00  0.00     0.292 A 
ATOM     27  C   UNL     1       4.864   2.498  -5.500  1.00  0.00     0.192 A 
ATOM     28  O   UNL     1       5.525   1.071  -7.800  1.00  0.00    -0.420 OA
ATOM     29  C   UNL     1       5.963   2.921  -6.328  1.00  0.00     0.105 A 
ATOM     30  O   UNL     1       4.472   3.225  -4.596  1.00  0.00    -0.289 OA
BRANCH  12  31
ATOM     31  O   UNL     1      -0.394   0.217  -2.426  1.00  0.00    -0.393 OA
ATOM     32  H   UNL     1      -0.115   0.167  -3.353  1.00  0.00     0.210 HD
ENDBRANCH  12  31
ENDBRANCH   5   8
ENDBRANCH   3   4
ENDBRANCH   2   3
ENDBRANCH   1   2
BRANCH   1  33
ATOM     33  C   UNL     1       7.138   8.589  -7.085  1.00  0.00     0.116 C 
BRANCH  33  34
ATOM     34  N   UNL     1       6.769   9.088  -5.767  1.00  0.00    -0.352 N 
ATOM     35  C   UNL     1       6.917  10.364  -5.285  1.00  0.00     0.251 C 
ATOM     36  H   UNL     1       6.366   8.434  -5.151  1.00  0.00     0.163 HD
ATOM     37  O   UNL     1       6.643  10.643  -4.117  1.00  0.00    -0.269 OA
BRANCH  35  38
ATOM     38  C   UNL     1       7.442  11.403  -6.188  1.00  0.00     0.039 A 
ATOM     39  C   UNL     1       8.570  12.133  -5.807  1.00  0.00     0.014 A 
ATOM     40  C   UNL     1       6.844  11.604  -7.436  1.00  0.00     0.014 A 
ATOM     41  C   UNL     1       9.131  13.044  -6.702  1.00  0.00     0.010 A 
ATOM     42  C   UNL     1       7.441  12.462  -8.349  1.00  0.00     0.010 A 
ATOM     43  C   UNL     1       8.575  13.203  -7.981  1.00  0.00    -0.014 A 
BRANCH  43  44
ATOM     44  C   UNL     1       9.085  14.224  -8.923  1.00  0.00     0.031 A 
ATOM     45  C   UNL     1       8.233  15.428  -9.203  1.00  0.00     0.074 A 
ATOM     46  C   UNL     1      10.258  14.050  -9.557  1.00  0.00     0.049 A 
ATOM     47  N   UNL     1       8.410  16.386 -10.075  1.00  0.00    -0.248 NA
ATOM     48  C   UNL     1       7.002  15.557  -8.406  1.00  0.00     0.031 C 
ATOM     49  C   UNL     1      11.167  12.921  -9.364  1.00  0.00     0.029 A 
ATOM     50  N   UNL     1      10.877  14.822 -10.507  1.00  0.00    -0.354 N 
ATOM     51  C   UNL     1       7.313  17.224  -9.934  1.00  0.00     0.074 A 
ATOM     52  C   UNL     1       6.446  16.633  -8.938  1.00  0.00     0.031 C 
ATOM     53  C   UNL     1      12.233  13.077 -10.167  1.00  0.00     0.029 A 
ATOM     54  C   UNL     1      12.062  14.295 -10.957  1.00  0.00     0.049 A 
ATOM     55  H   UNL     1      10.507  15.672 -10.836  1.00  0.00     0.167 HD
ATOM     56  C   UNL     1       7.064  18.396 -10.562  1.00  0.00     0.037 A 
ATOM     57  C   UNL     1      12.904  14.743 -11.909  1.00  0.00     0.037 A 
ATOM     58  C   UNL     1       7.936  18.983 -11.543  1.00  0.00     0.049 A 
ATOM     59  C   UNL     1      12.574  16.023 -12.634  1.00  0.00     0.074 A 
ATOM     60  C   UNL     1       7.787  20.178 -12.223  1.00  0.00     0.029 A 
ATOM     61  N   UNL     1       9.122  18.414 -11.985  1.00  0.00    -0.354 N 
ATOM     62  N   UNL     1      11.550  16.826 -12.476  1.00  0.00    -0.248 NA
ATOM     63  C   UNL     1      13.524  16.459 -13.667  1.00  0.00     0.031 C 
ATOM     64  C   UNL     1       8.856  20.308 -13.114  1.00  0.00     0.029 A 
ATOM     65  C   UNL     1       9.704  19.224 -12.947  1.00  0.00     0.049 A 
ATOM     66  H   UNL     1       9.495  17.562 -11.663  1.00  0.00     0.167 HD
ATOM     67  C   UNL     1      11.742  17.872 -13.370  1.00  0.00     0.074 A 
ATOM     68  C   UNL     1      12.996  17.613 -14.048  1.00  0.00     0.031 C 
ATOM     69  C   UNL     1      10.951  18.947 -13.614  1.00  0.00     0.037 A 
BRANCH  56  70
ATOM     70  C   UNL     1       5.802  19.122 -10.201  1.00  0.00     0.064 A 
ATOM     71  C   UNL     1       5.636  19.727  -8.946  1.00  0.00     0.173 A 
ATOM     72  C   UNL     1       4.764  19.255 -11.135  1.00  0.00     0.173 A 
ATOM     73  F   UNL     1       6.590  19.612  -8.009  1.00  0.00    -0.203 F 
ATOM     74  C   UNL     1       4.472  20.424  -8.634  1.00  0.00     0.198 A 
ATOM     75  C   UNL     1       3.615  19.980 -10.831  1.00  0.00     0.198 A 
ATOM     76  F   UNL     1       4.870  18.692 -12.349  1.00  0.00    -0.203 F 
ATOM     77  F   UNL     1       4.319  20.956  -7.413  1.00  0.00    -0.200 F 
ATOM     78  C   UNL     1       3.468  20.559  -9.580  1.00  0.00     0.200 A 
ATOM     79  F   UNL     1       2.651  20.120 -11.751  1.00  0.00    -0.200 F 
ATOM     80  F   UNL     1       2.356  21.245  -9.285  1.00  0.00    -0.200 F 
ENDBRANCH  56  70
BRANCH  57  81
ATOM     81  C   UNL     1      14.148  13.990 -12.217  1.00  0.00     0.064 A 
ATOM     82  C   UNL     1      15.406  14.525 -11.905  1.00  0.00     0.173 A 
ATOM     83  C   UNL     1      14.111  12.728 -12.829  1.00  0.00     0.173 A 
ATOM     84  F   UNL     1      15.495  15.739 -11.342  1.00  0.00    -0.203 F 
ATOM     85  C   UNL     1      16.578  13.834 -12.206  1.00  0.00     0.198 A 
ATOM     86  C   UNL     1      15.283  12.025 -13.102  1.00  0.00     0.198 A 
ATOM     87  F   UNL     1      12.934  12.171 -13.149  1.00  0.00    -0.203 F 
ATOM     88  F   UNL     1      17.768  14.390 -11.936  1.00  0.00    -0.200 F 
ATOM     89  C   UNL     1      16.516  12.582 -12.797  1.00  0.00     0.200 A 
ATOM     90  F   UNL     1      15.218  10.809 -13.661  1.00  0.00    -0.200 F 
ATOM     91  F   UNL     1      17.643  11.914 -13.078  1.00  0.00    -0.200 F 
ENDBRANCH  57  81
BRANCH  69  92
ATOM     92  C   UNL     1      11.426  19.933 -14.645  1.00  0.00     0.064 A 
ATOM     93  C   UNL     1      11.467  19.609 -16.009  1.00  0.00     0.173 A 
ATOM     94  C   UNL     1      11.807  21.231 -14.269  1.00  0.00     0.173 A 
ATOM     95  F   UNL     1      11.122  18.379 -16.422  1.00  0.00    -0.203 F 
ATOM     96  C   UNL     1      11.906  20.533 -16.953  1.00  0.00     0.198 A 
ATOM     97  C   UNL     1      12.209  22.165 -15.220  1.00  0.00     0.198 A 
ATOM     98  F   UNL     1      11.774  21.599 -12.979  1.00  0.00    -0.203 F 
ATOM     99  F   UNL     1      11.994  20.180 -18.243  1.00  0.00    -0.200 F 
ATOM    100  C   UNL     1      12.269  21.812 -16.559  1.00  0.00     0.200 A 
ATOM    101  F   UNL     1      12.539  23.407 -14.839  1.00  0.00    -0.200 F 
ATOM    102  F   UNL     1      12.685  22.703 -17.470  1.00  0.00    -0.200 F 
ENDBRANCH  69  92
ENDBRANCH  43  44
ENDBRANCH  35  38
ENDBRANCH  33  34
ENDBRANCH   1  33
TORSDOF 12
