REMARK SMILES Cc1nc(C[NH2+][C@@H](C(=O)NCCCCNC(=O)c2ccc(-c3c4nc(c(-c5c(F)c(F)c(F)c(F)c5F)c5ccc([nH]5)c(-c5c(F)c(F)c(F)c(F)c5F)c5nc(c(-c6c(F)c(F)c(F)c(F)c6F)c6ccc3[nH]6)C=C5)C=C4)cc2)c2ccccc2)sc1C
REMARK SMILES IDX 12 1 11 2 10 3 8 4 9 5 7 7 6 8 5 11 4 12 1 13 2 14 3 15
REMARK SMILES IDX 88 16 87 17 89 18 81 19 82 20 86 21 83 22 85 23 84 24 13 25
REMARK SMILES IDX 14 26 15 27 16 28 17 30 18 31 19 32 80 33 20 34 79 35 21 36
REMARK SMILES IDX 22 37 23 38 73 39 24 40 78 41 72 42 74 43 25 44 77 45 71 46
REMARK SMILES IDX 70 47 26 49 58 50 38 51 57 52 39 53 42 54 56 55 75 56 40 57
REMARK SMILES IDX 41 58 55 60 76 61 43 62 27 63 28 64 36 65 29 66 30 67 34 68
REMARK SMILES IDX 37 69 31 70 32 71 35 72 33 73 59 74 60 75 68 76 61 77 62 78
REMARK SMILES IDX 66 79 69 80 63 81 64 82 67 83 65 84 44 85 45 86 53 87 46 88
REMARK SMILES IDX 47 89 51 90 54 91 48 92 49 93 52 94 50 95
REMARK H PARENT 10 6 6 9 6 10 15 29 74 48 42 59
REMARK Flexibility Score: inf
ROOT
ATOM      1  C   UNL     1      -3.778   1.598  -1.145  1.00  0.00     0.023 C 
ENDROOT
BRANCH   1   2
ATOM      2  C   UNL     1      -4.006   3.103  -0.928  1.00  0.00     0.116 C 
BRANCH   2   3
ATOM      3  N   UNL     1      -4.521   3.334   0.406  1.00  0.00    -0.351 N 
ATOM      4  C   UNL     1      -3.878   3.622   1.578  1.00  0.00     0.283 C 
ATOM      5  O   UNL     1      -4.498   3.312   2.602  1.00  0.00    -0.268 OA
ATOM      6  H   UNL     1      -5.501   3.272   0.483  1.00  0.00     0.163 HD
BRANCH   4   7
ATOM      7  C   UNL     1      -2.456   4.291   1.618  1.00  0.00     0.304 C 
BRANCH   7   8
ATOM      8  N   UNL     1      -1.389   3.277   1.825  1.00  0.00    -0.326 N 
ATOM      9  H   UNL     1      -0.600   3.722   2.295  1.00  0.00     0.347 HD
ATOM     10  H   UNL     1      -1.780   2.522   2.389  1.00  0.00     0.347 HD
BRANCH   8  11
ATOM     11  C   UNL     1      -0.923   2.701   0.572  1.00  0.00     0.330 C 
BRANCH  11  12
ATOM     12  C   UNL     1      -0.044   1.487   0.676  1.00  0.00     0.148 A 
ATOM     13  C   UNL     1       3.142   0.009  -0.052  1.00  0.00     0.068 C 
ATOM     14  C   UNL     1       1.708   0.187   0.286  1.00  0.00     0.052 A 
ATOM     15  N   UNL     1       1.246   1.485   0.425  1.00  0.00    -0.240 NA
ATOM     16  C   UNL     1       0.742  -0.795   0.429  1.00  0.00     0.025 A 
ATOM     17  S   UNL     1      -0.746  -0.074   0.880  1.00  0.00    -0.118 S 
ATOM     18  C   UNL     1       0.852  -2.267   0.243  1.00  0.00     0.058 C 
ENDBRANCH  11  12
ENDBRANCH   8  11
ENDBRANCH   7   8
BRANCH   7  19
ATOM     19  C   UNL     1      -2.381   5.327   2.747  1.00  0.00     0.019 A 
ATOM     20  C   UNL     1      -2.514   4.940   4.093  1.00  0.00     0.010 A 
ATOM     21  C   UNL     1      -2.177   6.689   2.469  1.00  0.00     0.010 A 
ATOM     22  C   UNL     1      -2.464   5.878   5.125  1.00  0.00     0.001 A 
ATOM     23  C   UNL     1      -2.120   7.628   3.506  1.00  0.00     0.001 A 
ATOM     24  C   UNL     1      -2.267   7.222   4.832  1.00  0.00     0.000 A 
ENDBRANCH   7  19
ENDBRANCH   4   7
ENDBRANCH   2   3
ENDBRANCH   1   2
BRANCH   1  25
ATOM     25  C   UNL     1      -5.035   0.779  -1.405  1.00  0.00     0.023 C 
BRANCH  25  26
ATOM     26  C   UNL     1      -5.726   1.087  -2.720  1.00  0.00     0.116 C 
BRANCH  26  27
ATOM     27  N   UNL     1      -4.892   0.831  -3.886  1.00  0.00    -0.352 N 
ATOM     28  C   UNL     1      -5.207   0.151  -5.044  1.00  0.00     0.251 C 
ATOM     29  H   UNL     1      -3.977   1.193  -3.842  1.00  0.00     0.163 HD
ATOM     30  O   UNL     1      -4.359  -0.068  -5.891  1.00  0.00    -0.269 OA
BRANCH  28  31
ATOM     31  C   UNL     1      -6.588  -0.349  -5.217  1.00  0.00     0.039 A 
ATOM     32  C   UNL     1      -6.783  -1.675  -5.610  1.00  0.00     0.014 A 
ATOM     33  C   UNL     1      -7.678   0.469  -4.914  1.00  0.00     0.014 A 
ATOM     34  C   UNL     1      -8.074  -2.205  -5.611  1.00  0.00     0.010 A 
ATOM     35  C   UNL     1      -8.943  -0.090  -4.810  1.00  0.00     0.010 A 
ATOM     36  C   UNL     1      -9.157  -1.430  -5.164  1.00  0.00    -0.014 A 
BRANCH  36  37
ATOM     37  C   UNL     1     -10.532  -1.982  -5.087  1.00  0.00     0.031 A 
ATOM     38  C   UNL     1     -11.625  -1.355  -5.908  1.00  0.00     0.074 A 
ATOM     39  C   UNL     1     -10.811  -2.986  -4.233  1.00  0.00     0.049 A 
ATOM     40  N   UNL     1     -12.911  -1.597  -5.901  1.00  0.00    -0.248 NA
ATOM     41  C   UNL     1     -11.224  -0.282  -6.834  1.00  0.00     0.031 C 
ATOM     42  C   UNL     1      -9.849  -3.639  -3.343  1.00  0.00     0.029 A 
ATOM     43  N   UNL     1     -11.995  -3.627  -3.964  1.00  0.00    -0.354 N 
ATOM     44  C   UNL     1     -13.466  -0.700  -6.804  1.00  0.00     0.074 A 
ATOM     45  C   UNL     1     -12.394   0.140  -7.287  1.00  0.00     0.031 C 
ATOM     46  C   UNL     1     -10.474  -4.603  -2.647  1.00  0.00     0.029 A 
ATOM     47  C   UNL     1     -11.887  -4.612  -3.012  1.00  0.00     0.049 A 
ATOM     48  H   UNL     1     -12.843  -3.401  -4.411  1.00  0.00     0.167 HD
ATOM     49  C   UNL     1     -14.750  -0.609  -7.223  1.00  0.00     0.037 A 
ATOM     50  C   UNL     1     -12.827  -5.423  -2.491  1.00  0.00     0.037 A 
ATOM     51  C   UNL     1     -15.807  -1.471  -6.772  1.00  0.00     0.049 A 
ATOM     52  C   UNL     1     -14.246  -5.306  -2.985  1.00  0.00     0.074 A 
ATOM     53  C   UNL     1     -17.136  -1.483  -7.156  1.00  0.00     0.029 A 
ATOM     54  N   UNL     1     -15.646  -2.489  -5.844  1.00  0.00    -0.354 N 
ATOM     55  N   UNL     1     -14.748  -4.486  -3.875  1.00  0.00    -0.248 NA
ATOM     56  C   UNL     1     -15.227  -6.235  -2.406  1.00  0.00     0.031 C 
ATOM     57  C   UNL     1     -17.786  -2.496  -6.443  1.00  0.00     0.029 A 
ATOM     58  C   UNL     1     -16.853  -3.137  -5.644  1.00  0.00     0.049 A 
ATOM     59  H   UNL     1     -14.801  -2.717  -5.394  1.00  0.00     0.167 HD
ATOM     60  C   UNL     1     -16.090  -4.820  -3.988  1.00  0.00     0.074 A 
ATOM     61  C   UNL     1     -16.322  -5.929  -3.087  1.00  0.00     0.031 C 
ATOM     62  C   UNL     1     -17.049  -4.258  -4.763  1.00  0.00     0.037 A 
BRANCH  49  63
ATOM     63  C   UNL     1     -15.071   0.439  -8.247  1.00  0.00     0.064 A 
ATOM     64  C   UNL     1     -14.625   0.321  -9.573  1.00  0.00     0.173 A 
ATOM     65  C   UNL     1     -15.862   1.548  -7.916  1.00  0.00     0.173 A 
ATOM     66  F   UNL     1     -13.850  -0.712  -9.934  1.00  0.00    -0.203 F 
ATOM     67  C   UNL     1     -14.940   1.287 -10.524  1.00  0.00     0.198 A 
ATOM     68  C   UNL     1     -16.201   2.497  -8.877  1.00  0.00     0.198 A 
ATOM     69  F   UNL     1     -16.315   1.707  -6.664  1.00  0.00    -0.203 F 
ATOM     70  F   UNL     1     -14.465   1.176 -11.771  1.00  0.00    -0.200 F 
ATOM     71  C   UNL     1     -15.735   2.369 -10.178  1.00  0.00     0.200 A 
ATOM     72  F   UNL     1     -16.978   3.538  -8.545  1.00  0.00    -0.200 F 
ATOM     73  F   UNL     1     -16.048   3.292 -11.097  1.00  0.00    -0.200 F 
ENDBRANCH  49  63
BRANCH  50  74
ATOM     74  C   UNL     1     -12.467  -6.436  -1.463  1.00  0.00     0.064 A 
ATOM     75  C   UNL     1     -12.521  -7.807  -1.755  1.00  0.00     0.173 A 
ATOM     76  C   UNL     1     -12.103  -6.061  -0.162  1.00  0.00     0.173 A 
ATOM     77  F   UNL     1     -12.883  -8.216  -2.980  1.00  0.00    -0.203 F 
ATOM     78  C   UNL     1     -12.261  -8.763  -0.776  1.00  0.00     0.198 A 
ATOM     79  C   UNL     1     -11.814  -7.019   0.809  1.00  0.00     0.198 A 
ATOM     80  F   UNL     1     -12.029  -4.763   0.168  1.00  0.00    -0.203 F 
ATOM     81  F   UNL     1     -12.383 -10.066  -1.066  1.00  0.00    -0.200 F 
ATOM     82  C   UNL     1     -11.906  -8.368   0.505  1.00  0.00     0.200 A 
ATOM     83  F   UNL     1     -11.459  -6.633   2.042  1.00  0.00    -0.200 F 
ATOM     84  F   UNL     1     -11.665  -9.288   1.449  1.00  0.00    -0.200 F 
ENDBRANCH  50  74
BRANCH  62  85
ATOM     85  C   UNL     1     -18.419  -4.865  -4.709  1.00  0.00     0.064 A 
ATOM     86  C   UNL     1     -19.257  -4.690  -3.599  1.00  0.00     0.173 A 
ATOM     87  C   UNL     1     -18.913  -5.593  -5.802  1.00  0.00     0.173 A 
ATOM     88  F   UNL     1     -18.823  -4.013  -2.525  1.00  0.00    -0.203 F 
ATOM     89  C   UNL     1     -20.534  -5.244  -3.575  1.00  0.00     0.198 A 
ATOM     90  C   UNL     1     -20.200  -6.121  -5.786  1.00  0.00     0.198 A 
ATOM     91  F   UNL     1     -18.151  -5.781  -6.890  1.00  0.00    -0.203 F 
ATOM     92  F   UNL     1     -21.302  -5.103  -2.486  1.00  0.00    -0.200 F 
ATOM     93  C   UNL     1     -21.006  -5.952  -4.670  1.00  0.00     0.200 A 
ATOM     94  F   UNL     1     -20.660  -6.794  -6.849  1.00  0.00    -0.200 F 
ATOM     95  F   UNL     1     -22.239  -6.479  -4.648  1.00  0.00    -0.200 F 
ENDBRANCH  62  85
ENDBRANCH  36  37
ENDBRANCH  28  31
ENDBRANCH  26  27
ENDBRANCH  25  26
ENDBRANCH   1  25
TORSDOF 15
