REMARK SMILES CC1(C)CCSC[C@]1(Nc1ccccc1Br)C(=O)NCCCCNC(=O)c1ccc(-c2c3nc(c(-c4c(F)c(F)c(F)c(F)c4F)c4ccc([nH]4)c(-c4c(F)c(F)c(F)c(F)c4F)c4nc(c(-c5c(F)c(F)c(F)c(F)c5F)c5ccc2[nH]5)C=C4)C=C3)cc1
REMARK SMILES IDX 21 1 20 2 19 3 17 4 18 5 8 7 1 8 2 9 3 10 4 11 5 12 7 13
REMARK SMILES IDX 6 14 9 15 10 17 11 18 15 19 12 20 14 21 16 22 13 23 22 24
REMARK SMILES IDX 23 25 24 26 25 27 26 29 27 30 28 31 89 32 29 33 88 34 30 35
REMARK SMILES IDX 31 36 32 37 82 38 33 39 87 40 81 41 83 42 34 43 86 44 80 45
REMARK SMILES IDX 79 46 35 48 67 49 47 50 66 51 48 52 51 53 65 54 84 55 49 56
REMARK SMILES IDX 50 57 64 59 85 60 52 61 36 62 37 63 45 64 38 65 39 66 43 67
REMARK SMILES IDX 46 68 40 69 41 70 44 71 42 72 68 73 69 74 77 75 70 76 71 77
REMARK SMILES IDX 75 78 78 79 72 80 73 81 76 82 74 83 53 84 54 85 62 86 55 87
REMARK SMILES IDX 56 88 60 89 63 90 57 91 58 92 61 93 59 94
REMARK H PARENT 19 6 9 16 24 28 83 47 51 58
REMARK Flexibility Score: inf
ROOT
ATOM      1  C   UNL     1       0.350  -0.136   5.024  1.00  0.00     0.023 C 
ENDROOT
BRANCH   1   2
ATOM      2  C   UNL     1      -0.838  -0.202   4.065  1.00  0.00     0.116 C 
BRANCH   2   3
ATOM      3  N   UNL     1      -1.202   1.109   3.582  1.00  0.00    -0.354 N 
ATOM      4  C   UNL     1      -1.367   1.625   2.332  1.00  0.00     0.247 C 
ATOM      5  O   UNL     1      -1.802   2.784   2.346  1.00  0.00    -0.272 OA
ATOM      6  H   UNL     1      -1.363   1.762   4.300  1.00  0.00     0.163 HD
BRANCH   4   7
ATOM      7  C   UNL     1      -1.019   0.879   0.970  1.00  0.00     0.131 C 
ATOM      8  C   UNL     1       0.887   0.041  -0.664  1.00  0.00     0.014 C 
ATOM      9  C   UNL     1       0.566   0.675   0.725  1.00  0.00    -0.002 C 
ATOM     10  C   UNL     1       1.285  -0.262   1.712  1.00  0.00     0.014 C 
ATOM     11  C   UNL     1       1.289   2.049   0.836  1.00  0.00     0.020 C 
ATOM     12  C   UNL     1       1.012   3.024  -0.296  1.00  0.00     0.070 C 
ATOM     13  C   UNL     1      -1.529   1.778  -0.217  1.00  0.00     0.108 C 
ATOM     14  S   UNL     1      -0.731   3.401  -0.553  1.00  0.00    -0.159 SA
BRANCH   7  15
ATOM     15  N   UNL     1      -1.727  -0.449   0.861  1.00  0.00    -0.369 N 
ATOM     16  H   UNL     1      -1.386  -1.040   0.151  1.00  0.00     0.161 HD
BRANCH  15  17
ATOM     17  C   UNL     1      -2.783  -0.975   1.598  1.00  0.00     0.049 A 
ATOM     18  C   UNL     1      -2.568  -2.270   2.128  1.00  0.00     0.027 A 
ATOM     19  C   UNL     1      -3.995  -0.360   1.963  1.00  0.00     0.041 A 
ATOM     20  C   UNL     1      -3.446  -2.873   3.038  1.00  0.00     0.002 A 
ATOM     21  C   UNL     1      -4.880  -0.967   2.876  1.00  0.00     0.018 A 
ATOM     22  Br  UNL     1      -4.699   1.212   1.169  1.00  0.00    -0.049 Br
ATOM     23  C   UNL     1      -4.597  -2.210   3.429  1.00  0.00     0.001 A 
ENDBRANCH  15  17
ENDBRANCH   7  15
ENDBRANCH   4   7
ENDBRANCH   2   3
ENDBRANCH   1   2
BRANCH   1  24
ATOM     24  C   UNL     1      -0.018   0.185   6.465  1.00  0.00     0.023 C 
BRANCH  24  25
ATOM     25  C   UNL     1      -0.968  -0.808   7.115  1.00  0.00     0.116 C 
BRANCH  25  26
ATOM     26  N   UNL     1      -0.501  -2.188   7.059  1.00  0.00    -0.352 N 
ATOM     27  C   UNL     1      -0.502  -3.133   8.055  1.00  0.00     0.251 C 
ATOM     28  H   UNL     1      -0.136  -2.480   6.192  1.00  0.00     0.163 HD
ATOM     29  O   UNL     1       0.022  -4.229   7.883  1.00  0.00    -0.269 OA
BRANCH  27  30
ATOM     30  C   UNL     1      -1.115  -2.796   9.354  1.00  0.00     0.039 A 
ATOM     31  C   UNL     1      -0.393  -3.030  10.525  1.00  0.00     0.014 A 
ATOM     32  C   UNL     1      -2.368  -2.180   9.400  1.00  0.00     0.014 A 
ATOM     33  C   UNL     1      -0.903  -2.578  11.743  1.00  0.00     0.010 A 
ATOM     34  C   UNL     1      -2.824  -1.643  10.596  1.00  0.00     0.010 A 
ATOM     35  C   UNL     1      -2.102  -1.847  11.781  1.00  0.00    -0.014 A 
BRANCH  35  36
ATOM     36  C   UNL     1      -2.629  -1.307  13.057  1.00  0.00     0.031 A 
ATOM     37  C   UNL     1      -3.954  -1.787  13.582  1.00  0.00     0.074 A 
ATOM     38  C   UNL     1      -1.946  -0.347  13.709  1.00  0.00     0.049 A 
ATOM     39  N   UNL     1      -4.599  -1.422  14.661  1.00  0.00    -0.248 NA
ATOM     40  C   UNL     1      -4.667  -2.784  12.768  1.00  0.00     0.031 C 
ATOM     41  C   UNL     1      -0.689   0.255  13.258  1.00  0.00     0.029 A 
ATOM     42  N   UNL     1      -2.214   0.294  14.892  1.00  0.00    -0.354 N 
ATOM     43  C   UNL     1      -5.794  -2.128  14.641  1.00  0.00     0.074 A 
ATOM     44  C   UNL     1      -5.818  -2.890  13.413  1.00  0.00     0.031 C 
ATOM     45  C   UNL     1      -0.277   1.149  14.171  1.00  0.00     0.029 A 
ATOM     46  C   UNL     1      -1.251   1.203  15.256  1.00  0.00     0.049 A 
ATOM     47  H   UNL     1      -3.020   0.119  15.429  1.00  0.00     0.167 HD
ATOM     48  C   UNL     1      -6.769  -2.165  15.579  1.00  0.00     0.037 A 
ATOM     49  C   UNL     1      -1.162   1.982  16.351  1.00  0.00     0.037 A 
ATOM     50  C   UNL     1      -6.721  -1.436  16.817  1.00  0.00     0.049 A 
ATOM     51  C   UNL     1      -2.237   1.890  17.399  1.00  0.00     0.074 A 
ATOM     52  C   UNL     1      -7.620  -1.455  17.868  1.00  0.00     0.029 A 
ATOM     53  N   UNL     1      -5.708  -0.556  17.172  1.00  0.00    -0.354 N 
ATOM     54  N   UNL     1      -3.322   1.154  17.411  1.00  0.00    -0.248 NA
ATOM     55  C   UNL     1      -2.067   2.727  18.595  1.00  0.00     0.031 C 
ATOM     56  C   UNL     1      -7.170  -0.559  18.843  1.00  0.00     0.029 A 
ATOM     57  C   UNL     1      -5.967  -0.016  18.420  1.00  0.00     0.049 A 
ATOM     58  H   UNL     1      -4.921  -0.346  16.617  1.00  0.00     0.167 HD
ATOM     59  C   UNL     1      -3.950   1.418  18.620  1.00  0.00     0.074 A 
ATOM     60  C   UNL     1      -3.112   2.367  19.325  1.00  0.00     0.031 C 
ATOM     61  C   UNL     1      -5.115   0.922  19.105  1.00  0.00     0.037 A 
BRANCH  48  62
ATOM     62  C   UNL     1      -7.959  -3.038  15.305  1.00  0.00     0.064 A 
ATOM     63  C   UNL     1      -7.856  -4.439  15.297  1.00  0.00     0.173 A 
ATOM     64  C   UNL     1      -9.219  -2.472  15.063  1.00  0.00     0.173 A 
ATOM     65  F   UNL     1      -6.670  -5.030  15.505  1.00  0.00    -0.203 F 
ATOM     66  C   UNL     1      -8.963  -5.237  15.025  1.00  0.00     0.198 A 
ATOM     67  C   UNL     1     -10.331  -3.276  14.823  1.00  0.00     0.198 A 
ATOM     68  F   UNL     1      -9.373  -1.140  15.061  1.00  0.00    -0.203 F 
ATOM     69  F   UNL     1      -8.828  -6.569  14.966  1.00  0.00    -0.200 F 
ATOM     70  C   UNL     1     -10.201  -4.656  14.795  1.00  0.00     0.200 A 
ATOM     71  F   UNL     1     -11.529  -2.713  14.611  1.00  0.00    -0.200 F 
ATOM     72  F   UNL     1     -11.267  -5.426  14.537  1.00  0.00    -0.200 F 
ENDBRANCH  48  62
BRANCH  49  73
ATOM     73  C   UNL     1       0.012   2.873  16.537  1.00  0.00     0.064 A 
ATOM     74  C   UNL     1       0.976   2.595  17.516  1.00  0.00     0.173 A 
ATOM     75  C   UNL     1       0.196   4.017  15.746  1.00  0.00     0.173 A 
ATOM     76  F   UNL     1       0.835   1.523  18.308  1.00  0.00    -0.203 F 
ATOM     77  C   UNL     1       2.067   3.439  17.713  1.00  0.00     0.198 A 
ATOM     78  C   UNL     1       1.301   4.846  15.927  1.00  0.00     0.198 A 
ATOM     79  F   UNL     1      -0.694   4.323  14.791  1.00  0.00    -0.203 F 
ATOM     80  F   UNL     1       2.949   3.174  18.686  1.00  0.00    -0.200 F 
ATOM     81  C   UNL     1       2.232   4.561  16.915  1.00  0.00     0.200 A 
ATOM     82  F   UNL     1       1.465   5.921  15.144  1.00  0.00    -0.200 F 
ATOM     83  F   UNL     1       3.283   5.371  17.103  1.00  0.00    -0.200 F 
ENDBRANCH  49  73
BRANCH  61  84
ATOM     84  C   UNL     1      -5.534   1.376  20.472  1.00  0.00     0.064 A 
ATOM     85  C   UNL     1      -5.998   2.679  20.705  1.00  0.00     0.173 A 
ATOM     86  C   UNL     1      -5.495   0.486  21.556  1.00  0.00     0.173 A 
ATOM     87  F   UNL     1      -6.039   3.569  19.702  1.00  0.00    -0.203 F 
ATOM     88  C   UNL     1      -6.379   3.084  21.980  1.00  0.00     0.198 A 
ATOM     89  C   UNL     1      -5.906   0.886  22.824  1.00  0.00     0.198 A 
ATOM     90  F   UNL     1      -5.067  -0.773  21.384  1.00  0.00    -0.203 F 
ATOM     91  F   UNL     1      -6.769   4.348  22.191  1.00  0.00    -0.200 F 
ATOM     92  C   UNL     1      -6.339   2.186  23.037  1.00  0.00     0.200 A 
ATOM     93  F   UNL     1      -5.879   0.014  23.842  1.00  0.00    -0.200 F 
ATOM     94  F   UNL     1      -6.709   2.578  24.264  1.00  0.00    -0.200 F 
ENDBRANCH  61  84
ENDBRANCH  35  36
ENDBRANCH  27  30
ENDBRANCH  25  26
ENDBRANCH  24  25
ENDBRANCH   1  24
TORSDOF 13
