REMARK SMILES CC[NH2+][C@]1(C(=O)NCCCCNC(=O)c2ccc(-c3c4nc(c(-c5c(F)c(F)c(F)c(F)c5F)c5ccc([nH]5)c(-c5c(F)c(F)c(F)c(F)c5F)c5nc(c(-c6c(F)c(F)c(F)c(F)c6F)c6ccc3[nH]6)C=C5)C=C4)cc2)CC[C@H](SC2COC2)C1
REMARK SMILES IDX 9 1 8 2 7 3 5 4 6 5 4 7 78 8 86 9 79 10 80 11 3 12 2 15 1 16
REMARK SMILES IDX 81 17 82 18 83 19 85 20 84 21 10 22 11 23 12 24 13 25 14 27
REMARK SMILES IDX 15 28 16 29 77 30 17 31 76 32 18 33 19 34 20 35 70 36 21 37
REMARK SMILES IDX 75 38 69 39 71 40 22 41 74 42 68 43 67 44 23 46 55 47 35 48
REMARK SMILES IDX 54 49 36 50 39 51 53 52 72 53 37 54 38 55 52 57 73 58 40 59
REMARK SMILES IDX 24 60 25 61 33 62 26 63 27 64 31 65 34 66 28 67 29 68 32 69
REMARK SMILES IDX 30 70 56 71 57 72 65 73 58 74 59 75 63 76 66 77 60 78 61 79
REMARK SMILES IDX 64 80 62 81 41 82 42 83 50 84 43 85 44 86 48 87 51 88 45 89
REMARK SMILES IDX 46 90 49 91 47 92
REMARK H PARENT 7 6 3 13 3 14 12 26 71 45 39 56
REMARK Flexibility Score: inf
ROOT
ATOM      1  C   UNL     1       4.158  -1.464  -3.499  1.00  0.00     0.023 C 
ENDROOT
BRANCH   1   2
ATOM      2  C   UNL     1       2.774  -2.106  -3.355  1.00  0.00     0.116 C 
BRANCH   2   3
ATOM      3  N   UNL     1       1.994  -1.394  -2.366  1.00  0.00    -0.351 N 
ATOM      4  C   UNL     1       1.353  -0.196  -2.443  1.00  0.00     0.281 C 
ATOM      5  O   UNL     1       1.227   0.398  -1.363  1.00  0.00    -0.268 OA
ATOM      6  H   UNL     1       1.914  -1.850  -1.497  1.00  0.00     0.163 HD
BRANCH   4   7
ATOM      7  C   UNL     1       0.664   0.350  -3.736  1.00  0.00     0.176 C 
ATOM      8  C   UNL     1       0.816   1.884  -3.780  1.00  0.00     0.080 C 
ATOM      9  C   UNL     1       1.287   0.004  -5.101  1.00  0.00     0.093 C 
ATOM     10  C   UNL     1       0.446   2.287  -5.205  1.00  0.00     0.022 C 
ATOM     11  C   UNL     1       0.894   1.121  -6.091  1.00  0.00     0.054 C 
BRANCH   7  12
ATOM     12  N   UNL     1      -0.769  -0.056  -3.762  1.00  0.00    -0.334 N 
ATOM     13  H   UNL     1      -1.225   0.449  -4.522  1.00  0.00     0.347 HD
ATOM     14  H   UNL     1      -0.772  -1.068  -3.882  1.00  0.00     0.347 HD
BRANCH  12  15
ATOM     15  C   UNL     1      -1.517   0.208  -2.531  1.00  0.00     0.257 C 
ATOM     16  C   UNL     1      -3.008   0.055  -2.794  1.00  0.00     0.071 C 
ENDBRANCH  12  15
ENDBRANCH   7  12
BRANCH  11  17
ATOM     17  S   UNL     1      -0.398   0.509  -7.224  1.00  0.00    -0.150 SA
BRANCH  17  18
ATOM     18  C   UNL     1      -0.246   1.541  -8.707  1.00  0.00     0.098 C 
ATOM     19  C   UNL     1      -0.202   3.051  -8.513  1.00  0.00     0.177 C 
ATOM     20  C   UNL     1       1.143   1.705  -9.315  1.00  0.00     0.177 C 
ATOM     21  O   UNL     1       1.026   3.151  -9.281  1.00  0.00    -0.379 OA
ENDBRANCH  17  18
ENDBRANCH  11  17
ENDBRANCH   4   7
ENDBRANCH   2   3
ENDBRANCH   1   2
BRANCH   1  22
ATOM     22  C   UNL     1       5.110  -1.755  -2.334  1.00  0.00     0.023 C 
BRANCH  22  23
ATOM     23  C   UNL     1       5.423  -3.230  -2.118  1.00  0.00     0.116 C 
BRANCH  23  24
ATOM     24  N   UNL     1       5.965  -3.881  -3.300  1.00  0.00    -0.352 N 
ATOM     25  C   UNL     1       6.793  -4.976  -3.364  1.00  0.00     0.251 C 
ATOM     26  H   UNL     1       5.706  -3.487  -4.164  1.00  0.00     0.163 HD
ATOM     27  O   UNL     1       7.252  -5.351  -4.433  1.00  0.00    -0.269 OA
BRANCH  25  28
ATOM     28  C   UNL     1       7.160  -5.665  -2.111  1.00  0.00     0.039 A 
ATOM     29  C   UNL     1       8.511  -5.884  -1.839  1.00  0.00     0.014 A 
ATOM     30  C   UNL     1       6.176  -6.051  -1.197  1.00  0.00     0.014 A 
ATOM     31  C   UNL     1       8.883  -6.435  -0.612  1.00  0.00     0.010 A 
ATOM     32  C   UNL     1       6.552  -6.537   0.050  1.00  0.00     0.010 A 
ATOM     33  C   UNL     1       7.908  -6.732   0.353  1.00  0.00    -0.014 A 
BRANCH  33  34
ATOM     34  C   UNL     1       8.286  -7.247   1.691  1.00  0.00     0.031 A 
ATOM     35  C   UNL     1       7.888  -8.635   2.100  1.00  0.00     0.074 A 
ATOM     36  C   UNL     1       8.927  -6.439   2.557  1.00  0.00     0.049 A 
ATOM     37  N   UNL     1       8.066  -9.245   3.245  1.00  0.00    -0.248 NA
ATOM     38  C   UNL     1       7.166  -9.436   1.099  1.00  0.00     0.031 C 
ATOM     39  C   UNL     1       9.323  -5.056   2.288  1.00  0.00     0.029 A 
ATOM     40  N   UNL     1       9.349  -6.663   3.842  1.00  0.00    -0.354 N 
ATOM     41  C   UNL     1       7.467 -10.489   3.106  1.00  0.00     0.074 A 
ATOM     42  C   UNL     1       6.873 -10.529   1.787  1.00  0.00     0.031 C 
ATOM     43  C   UNL     1       9.954  -4.563   3.366  1.00  0.00     0.029 A 
ATOM     44  C   UNL     1       9.977  -5.582   4.411  1.00  0.00     0.049 A 
ATOM     45  H   UNL     1       9.215  -7.517   4.313  1.00  0.00     0.167 HD
ATOM     46  C   UNL     1       7.436 -11.514   3.990  1.00  0.00     0.037 A 
ATOM     47  C   UNL     1      10.509  -5.433   5.638  1.00  0.00     0.037 A 
ATOM     48  C   UNL     1       8.053 -11.478   5.290  1.00  0.00     0.049 A 
ATOM     49  C   UNL     1      10.458  -6.586   6.603  1.00  0.00     0.074 A 
ATOM     50  C   UNL     1       8.138 -12.485   6.234  1.00  0.00     0.029 A 
ATOM     51  N   UNL     1       8.692 -10.370   5.827  1.00  0.00    -0.354 N 
ATOM     52  N   UNL     1       9.954  -7.784   6.436  1.00  0.00    -0.248 NA
ATOM     53  C   UNL     1      11.055  -6.366   7.928  1.00  0.00     0.031 C 
ATOM     54  C   UNL     1       8.792 -11.974   7.361  1.00  0.00     0.029 A 
ATOM     55  C   UNL     1       9.155 -10.662   7.100  1.00  0.00     0.049 A 
ATOM     56  H   UNL     1       8.801  -9.504   5.372  1.00  0.00     0.167 HD
ATOM     57  C   UNL     1      10.198  -8.470   7.618  1.00  0.00     0.074 A 
ATOM     58  C   UNL     1      10.906  -7.556   8.491  1.00  0.00     0.031 C 
ATOM     59  C   UNL     1       9.867  -9.742   7.950  1.00  0.00     0.037 A 
BRANCH  46  60
ATOM     60  C   UNL     1       6.712 -12.761   3.576  1.00  0.00     0.064 A 
ATOM     61  C   UNL     1       7.213 -13.604   2.571  1.00  0.00     0.173 A 
ATOM     62  C   UNL     1       5.511 -13.128   4.200  1.00  0.00     0.173 A 
ATOM     63  F   UNL     1       8.351 -13.290   1.933  1.00  0.00    -0.203 F 
ATOM     64  C   UNL     1       6.521 -14.748   2.184  1.00  0.00     0.198 A 
ATOM     65  C   UNL     1       4.837 -14.290   3.832  1.00  0.00     0.198 A 
ATOM     66  F   UNL     1       4.989 -12.361   5.170  1.00  0.00    -0.203 F 
ATOM     67  F   UNL     1       6.991 -15.506   1.184  1.00  0.00    -0.200 F 
ATOM     68  C   UNL     1       5.338 -15.094   2.818  1.00  0.00     0.200 A 
ATOM     69  F   UNL     1       3.699 -14.629   4.452  1.00  0.00    -0.200 F 
ATOM     70  F   UNL     1       4.673 -16.196   2.445  1.00  0.00    -0.200 F 
ENDBRANCH  46  60
BRANCH  47  71
ATOM     71  C   UNL     1      11.173  -4.158   6.011  1.00  0.00     0.064 A 
ATOM     72  C   UNL     1      12.565  -4.096   6.166  1.00  0.00     0.173 A 
ATOM     73  C   UNL     1      10.440  -2.982   6.219  1.00  0.00     0.173 A 
ATOM     74  F   UNL     1      13.306  -5.201   5.997  1.00  0.00    -0.203 F 
ATOM     75  C   UNL     1      13.197  -2.911   6.534  1.00  0.00     0.198 A 
ATOM     76  C   UNL     1      11.075  -1.790   6.562  1.00  0.00     0.198 A 
ATOM     77  F   UNL     1       9.106  -2.987   6.077  1.00  0.00    -0.203 F 
ATOM     78  F   UNL     1      14.524  -2.890   6.717  1.00  0.00    -0.200 F 
ATOM     79  C   UNL     1      12.452  -1.757   6.727  1.00  0.00     0.200 A 
ATOM     80  F   UNL     1      10.354  -0.674   6.735  1.00  0.00    -0.200 F 
ATOM     81  F   UNL     1      13.060  -0.616   7.078  1.00  0.00    -0.200 F 
ENDBRANCH  47  71
BRANCH  59  82
ATOM     82  C   UNL     1      10.301 -10.233   9.300  1.00  0.00     0.064 A 
ATOM     83  C   UNL     1       9.679  -9.792  10.477  1.00  0.00     0.173 A 
ATOM     84  C   UNL     1      11.325 -11.184   9.412  1.00  0.00     0.173 A 
ATOM     85  F   UNL     1       8.706  -8.870  10.422  1.00  0.00    -0.203 F 
ATOM     86  C   UNL     1      10.084 -10.270  11.720  1.00  0.00     0.198 A 
ATOM     87  C   UNL     1      11.708 -11.681  10.655  1.00  0.00     0.198 A 
ATOM     88  F   UNL     1      11.947 -11.641   8.315  1.00  0.00    -0.203 F 
ATOM     89  F   UNL     1       9.507  -9.802  12.835  1.00  0.00    -0.200 F 
ATOM     90  C   UNL     1      11.092 -11.219  11.807  1.00  0.00     0.200 A 
ATOM     91  F   UNL     1      12.674 -12.607  10.736  1.00  0.00    -0.200 F 
ATOM     92  F   UNL     1      11.475 -11.683  13.005  1.00  0.00    -0.200 F 
ENDBRANCH  59  82
ENDBRANCH  33  34
ENDBRANCH  25  28
ENDBRANCH  23  24
ENDBRANCH  22  23
ENDBRANCH   1  22
TORSDOF 15
