REMARK SMILES Cc1noc(C)c1CNc1cnc(C(=O)NCCCCNC(=O)c2ccc(-c3c4nc(c(-c5c(F)c(F)c(F)c(F)c5F)c5ccc([nH]5)c(-c5c(F)c(F)c(F)c(F)c5F)c5nc(c(-c6c(F)c(F)c(F)c(F)c6F)c6ccc3[nH]6)C=C5)C=C4)cc2)cn1
REMARK SMILES IDX 18 1 17 2 16 3 14 4 15 5 13 7 10 8 11 9 88 10 12 11 87 12
REMARK SMILES IDX 9 13 8 15 7 16 1 17 2 18 3 19 4 20 5 21 6 22 19 23 20 24
REMARK SMILES IDX 21 25 22 26 23 28 24 29 25 30 86 31 26 32 85 33 27 34 28 35
REMARK SMILES IDX 29 36 79 37 30 38 84 39 78 40 80 41 31 42 83 43 77 44 76 45
REMARK SMILES IDX 32 47 64 48 44 49 63 50 45 51 48 52 62 53 81 54 46 55 47 56
REMARK SMILES IDX 61 58 82 59 49 60 33 61 34 62 42 63 35 64 36 65 40 66 43 67
REMARK SMILES IDX 37 68 38 69 41 70 39 71 65 72 66 73 74 74 67 75 68 76 72 77
REMARK SMILES IDX 75 78 69 79 70 80 73 81 71 82 50 83 51 84 59 85 52 86 53 87
REMARK SMILES IDX 57 88 60 89 54 90 55 91 58 92 56 93
REMARK H PARENT 16 6 9 14 21 27 80 46 48 57
REMARK Flexibility Score: inf
ROOT
ATOM      1  C   UNL     1      -3.566   9.044   0.902  1.00  0.00     0.023 C 
ENDROOT
BRANCH   1   2
ATOM      2  C   UNL     1      -4.203   7.734   1.363  1.00  0.00     0.116 C 
BRANCH   2   3
ATOM      3  N   UNL     1      -5.181   7.256   0.402  1.00  0.00    -0.351 N 
ATOM      4  C   UNL     1      -5.074   6.315  -0.598  1.00  0.00     0.271 C 
ATOM      5  O   UNL     1      -6.067   6.109  -1.298  1.00  0.00    -0.267 OA
ATOM      6  H   UNL     1      -6.068   7.676   0.477  1.00  0.00     0.163 HD
BRANCH   4   7
ATOM      7  C   UNL     1      -3.833   5.522  -0.843  1.00  0.00     0.146 A 
ATOM      8  C   UNL     1      -1.720   3.855  -1.224  1.00  0.00     0.144 A 
ATOM      9  C   UNL     1      -1.679   4.929  -0.336  1.00  0.00     0.158 A 
ATOM     10  N   UNL     1      -2.815   3.649  -1.980  1.00  0.00    -0.235 NA
ATOM     11  N   UNL     1      -2.714   5.778  -0.127  1.00  0.00    -0.246 NA
ATOM     12  C   UNL     1      -3.867   4.489  -1.769  1.00  0.00     0.147 A 
BRANCH   8  13
ATOM     13  N   UNL     1      -0.711   2.934  -1.368  1.00  0.00    -0.365 N 
ATOM     14  H   UNL     1      -0.479   2.607  -2.267  1.00  0.00     0.162 HD
BRANCH  13  15
ATOM     15  C   UNL     1       0.017   2.435  -0.216  1.00  0.00     0.156 C 
BRANCH  15  16
ATOM     16  C   UNL     1       0.056   0.953  -0.093  1.00  0.00     0.037 A 
ATOM     17  C   UNL     1      -2.493   0.365  -0.007  1.00  0.00     0.071 C 
ATOM     18  C   UNL     1      -1.043   0.054   0.004  1.00  0.00     0.086 A 
ATOM     19  N   UNL     1      -0.628  -1.213   0.117  1.00  0.00    -0.085 NA
ATOM     20  O   UNL     1       0.751  -1.162   0.101  1.00  0.00    -0.361 OA
ATOM     21  C   UNL     1       1.157   0.128  -0.022  1.00  0.00     0.138 A 
ATOM     22  C   UNL     1       2.614   0.359  -0.039  1.00  0.00     0.091 C 
ENDBRANCH  15  16
ENDBRANCH  13  15
ENDBRANCH   8  13
ENDBRANCH   4   7
ENDBRANCH   2   3
ENDBRANCH   1   2
BRANCH   1  23
ATOM     23  C   UNL     1      -4.482  10.264   1.046  1.00  0.00     0.023 C 
BRANCH  23  24
ATOM     24  C   UNL     1      -5.021  10.509   2.453  1.00  0.00     0.116 C 
BRANCH  24  25
ATOM     25  N   UNL     1      -3.978  10.626   3.461  1.00  0.00    -0.352 N 
ATOM     26  C   UNL     1      -3.936  11.446   4.562  1.00  0.00     0.251 C 
ATOM     27  H   UNL     1      -3.197  10.039   3.337  1.00  0.00     0.163 HD
ATOM     28  O   UNL     1      -2.930  11.501   5.263  1.00  0.00    -0.269 OA
BRANCH  26  29
ATOM     29  C   UNL     1      -5.102  12.296   4.875  1.00  0.00     0.039 A 
ATOM     30  C   UNL     1      -4.898  13.655   5.122  1.00  0.00     0.014 A 
ATOM     31  C   UNL     1      -6.392  11.760   4.885  1.00  0.00     0.014 A 
ATOM     32  C   UNL     1      -5.997  14.494   5.308  1.00  0.00     0.010 A 
ATOM     33  C   UNL     1      -7.488  12.608   4.997  1.00  0.00     0.010 A 
ATOM     34  C   UNL     1      -7.302  13.984   5.207  1.00  0.00    -0.014 A 
BRANCH  34  35
ATOM     35  C   UNL     1      -8.485  14.874   5.302  1.00  0.00     0.031 A 
ATOM     36  C   UNL     1      -9.468  14.709   6.424  1.00  0.00     0.074 A 
ATOM     37  C   UNL     1      -8.717  15.775   4.328  1.00  0.00     0.049 A 
ATOM     38  N   UNL     1     -10.594  15.340   6.639  1.00  0.00    -0.248 NA
ATOM     39  C   UNL     1      -9.160  13.671   7.420  1.00  0.00     0.031 C 
ATOM     40  C   UNL     1      -7.872  15.984   3.152  1.00  0.00     0.029 A 
ATOM     41  N   UNL     1      -9.744  16.671   4.165  1.00  0.00    -0.354 N 
ATOM     42  C   UNL     1     -11.136  14.765   7.781  1.00  0.00     0.074 A 
ATOM     43  C   UNL     1     -10.244  13.697   8.179  1.00  0.00     0.031 C 
ATOM     44  C   UNL     1      -8.405  16.956   2.396  1.00  0.00     0.029 A 
ATOM     45  C   UNL     1      -9.645  17.415   3.016  1.00  0.00     0.049 A 
ATOM     46  H   UNL     1     -10.481  16.770   4.810  1.00  0.00     0.167 HD
ATOM     47  C   UNL     1     -12.262  15.112   8.449  1.00  0.00     0.037 A 
ATOM     48  C   UNL     1     -10.466  18.357   2.514  1.00  0.00     0.037 A 
ATOM     49  C   UNL     1     -13.133  16.190   8.059  1.00  0.00     0.049 A 
ATOM     50  C   UNL     1     -11.703  18.739   3.279  1.00  0.00     0.074 A 
ATOM     51  C   UNL     1     -14.253  16.674   8.711  1.00  0.00     0.029 A 
ATOM     52  N   UNL     1     -12.984  16.946   6.905  1.00  0.00    -0.354 N 
ATOM     53  N   UNL     1     -12.161  18.249   4.405  1.00  0.00    -0.248 NA
ATOM     54  C   UNL     1     -12.530  19.810   2.708  1.00  0.00     0.031 C 
ATOM     55  C   UNL     1     -14.812  17.689   7.926  1.00  0.00     0.029 A 
ATOM     56  C   UNL     1     -14.009  17.875   6.811  1.00  0.00     0.049 A 
ATOM     57  H   UNL     1     -12.258  16.839   6.249  1.00  0.00     0.167 HD
ATOM     58  C   UNL     1     -13.317  18.963   4.690  1.00  0.00     0.074 A 
ATOM     59  C   UNL     1     -13.481  19.931   3.624  1.00  0.00     0.031 C 
ATOM     60  C   UNL     1     -14.164  18.828   5.740  1.00  0.00     0.037 A 
BRANCH  47  61
ATOM     61  C   UNL     1     -12.613  14.308   9.668  1.00  0.00     0.064 A 
ATOM     62  C   UNL     1     -11.833  14.356  10.835  1.00  0.00     0.173 A 
ATOM     63  C   UNL     1     -13.743  13.477   9.671  1.00  0.00     0.173 A 
ATOM     64  F   UNL     1     -10.735  15.125  10.882  1.00  0.00    -0.203 F 
ATOM     65  C   UNL     1     -12.145  13.569  11.940  1.00  0.00     0.198 A 
ATOM     66  C   UNL     1     -14.072  12.717  10.791  1.00  0.00     0.198 A 
ATOM     67  F   UNL     1     -14.528  13.398   8.587  1.00  0.00    -0.203 F 
ATOM     68  F   UNL     1     -11.346  13.581  13.016  1.00  0.00    -0.200 F 
ATOM     69  C   UNL     1     -13.267  12.754  11.919  1.00  0.00     0.200 A 
ATOM     70  F   UNL     1     -15.164  11.940  10.775  1.00  0.00    -0.200 F 
ATOM     71  F   UNL     1     -13.564  11.994  12.982  1.00  0.00    -0.200 F 
ENDBRANCH  47  61
BRANCH  48  72
ATOM     72  C   UNL     1     -10.116  19.021   1.232  1.00  0.00     0.064 A 
ATOM     73  C   UNL     1      -9.667  20.349   1.209  1.00  0.00     0.173 A 
ATOM     74  C   UNL     1     -10.184  18.332   0.013  1.00  0.00     0.173 A 
ATOM     75  F   UNL     1      -9.602  21.053   2.349  1.00  0.00    -0.203 F 
ATOM     76  C   UNL     1      -9.306  20.965   0.013  1.00  0.00     0.198 A 
ATOM     77  C   UNL     1      -9.800  18.942  -1.179  1.00  0.00     0.198 A 
ATOM     78  F   UNL     1     -10.601  17.058  -0.016  1.00  0.00    -0.203 F 
ATOM     79  F   UNL     1      -8.906  22.244   0.015  1.00  0.00    -0.200 F 
ATOM     80  C   UNL     1      -9.364  20.258  -1.179  1.00  0.00     0.200 A 
ATOM     81  F   UNL     1      -9.842  18.250  -2.327  1.00  0.00    -0.200 F 
ATOM     82  F   UNL     1      -9.002  20.846  -2.327  1.00  0.00    -0.200 F 
ENDBRANCH  48  72
BRANCH  60  83
ATOM     83  C   UNL     1     -15.337  19.763   5.801  1.00  0.00     0.064 A 
ATOM     84  C   UNL     1     -16.424  19.638   4.924  1.00  0.00     0.173 A 
ATOM     85  C   UNL     1     -15.393  20.769   6.778  1.00  0.00     0.173 A 
ATOM     86  F   UNL     1     -16.412  18.702   3.963  1.00  0.00    -0.203 F 
ATOM     87  C   UNL     1     -17.514  20.501   5.008  1.00  0.00     0.198 A 
ATOM     88  C   UNL     1     -16.498  21.610   6.878  1.00  0.00     0.198 A 
ATOM     89  F   UNL     1     -14.382  20.927   7.645  1.00  0.00    -0.203 F 
ATOM     90  F   UNL     1     -18.522  20.392   4.131  1.00  0.00    -0.200 F 
ATOM     91  C   UNL     1     -17.554  21.480   5.989  1.00  0.00     0.200 A 
ATOM     92  F   UNL     1     -16.540  22.547   7.836  1.00  0.00    -0.200 F 
ATOM     93  F   UNL     1     -18.608  22.304   6.074  1.00  0.00    -0.200 F 
ENDBRANCH  60  83
ENDBRANCH  34  35
ENDBRANCH  26  29
ENDBRANCH  24  25
ENDBRANCH  23  24
ENDBRANCH   1  23
TORSDOF 14
