REMARK SMILES N#Cc1ccc(-c2ccc(F)c(C(=O)NCCCCNC(=O)c3ccc(-c4c5nc(c(-c6c(F)c(F)c(F)c(F)c6F)c6ccc([nH]6)c(-c6c(F)c(F)c(F)c(F)c6F)c6nc(c(-c7c(F)c(F)c(F)c(F)c7F)c7ccc4[nH]7)C=C6)C=C5)cc3)c2)cc1
REMARK SMILES IDX 17 1 16 2 15 3 13 4 14 5 12 7 7 8 8 9 86 10 9 11 10 12 11 13
REMARK SMILES IDX 6 14 3 15 4 16 88 17 5 18 87 19 2 20 1 21 18 22 19 23 20 24
REMARK SMILES IDX 21 25 22 27 23 28 24 29 85 30 25 31 84 32 26 33 27 34 28 35
REMARK SMILES IDX 78 36 29 37 83 38 77 39 79 40 30 41 82 42 76 43 75 44 31 46
REMARK SMILES IDX 63 47 43 48 62 49 44 50 47 51 61 52 80 53 45 54 46 55 60 57
REMARK SMILES IDX 81 58 48 59 32 60 33 61 41 62 34 63 35 64 39 65 42 66 36 67
REMARK SMILES IDX 37 68 40 69 38 70 64 71 65 72 73 73 66 74 67 75 71 76 74 77
REMARK SMILES IDX 68 78 69 79 72 80 70 81 49 82 50 83 58 84 51 85 52 86 56 87
REMARK SMILES IDX 59 88 53 89 54 90 57 91 55 92
REMARK H PARENT 15 6 20 26 79 45 47 56
REMARK Flexibility Score: inf
ROOT
ATOM      1  C   UNL     1       9.798   1.988   0.934  1.00  0.00     0.023 C 
ENDROOT
BRANCH   1   2
ATOM      2  C   UNL     1       8.917   0.809   1.317  1.00  0.00     0.116 C 
BRANCH   2   3
ATOM      3  N   UNL     1       7.885   1.115   2.288  1.00  0.00    -0.352 N 
ATOM      4  C   UNL     1       6.536   0.844   2.297  1.00  0.00     0.254 C 
ATOM      5  O   UNL     1       5.895   1.218   3.281  1.00  0.00    -0.269 OA
ATOM      6  H   UNL     1       8.206   1.604   3.080  1.00  0.00     0.163 HD
BRANCH   4   7
ATOM      7  C   UNL     1       5.800   0.208   1.168  1.00  0.00     0.076 A 
ATOM      8  C   UNL     1       3.648  -0.033   0.010  1.00  0.00    -0.017 A 
ATOM      9  C   UNL     1       4.295  -0.766  -0.996  1.00  0.00     0.012 A 
ATOM     10  C   UNL     1       4.426   0.503   1.052  1.00  0.00     0.025 A 
ATOM     11  C   UNL     1       5.633  -1.113  -0.862  1.00  0.00     0.041 A 
ATOM     12  C   UNL     1       6.343  -0.701   0.262  1.00  0.00     0.135 A 
ATOM     13  F   UNL     1       7.532  -1.285   0.466  1.00  0.00    -0.206 F 
BRANCH   8  14
ATOM     14  C   UNL     1       2.182   0.045   0.021  1.00  0.00    -0.018 A 
ATOM     15  C   UNL     1      -0.638   0.081   0.017  1.00  0.00     0.052 A 
ATOM     16  C   UNL     1       0.086   1.278   0.030  1.00  0.00     0.020 A 
ATOM     17  C   UNL     1       0.042  -1.137   0.026  1.00  0.00     0.020 A 
ATOM     18  C   UNL     1       1.488   1.260   0.036  1.00  0.00     0.010 A 
ATOM     19  C   UNL     1       1.436  -1.151   0.030  1.00  0.00     0.010 A 
BRANCH  15  20
ATOM     20  C   UNL     1      -2.072   0.094  -0.011  1.00  0.00     0.099 C 
ATOM     21  N   UNL     1      -3.230   0.093  -0.043  1.00  0.00    -0.192 NA
ENDBRANCH  15  20
ENDBRANCH   8  14
ENDBRANCH   4   7
ENDBRANCH   2   3
ENDBRANCH   1   2
BRANCH   1  22
ATOM     22  C   UNL     1      10.767   2.483   1.995  1.00  0.00     0.023 C 
BRANCH  22  23
ATOM     23  C   UNL     1      11.644   1.415   2.631  1.00  0.00     0.116 C 
BRANCH  23  24
ATOM     24  N   UNL     1      12.424   0.646   1.670  1.00  0.00    -0.352 N 
ATOM     25  C   UNL     1      13.769   0.360   1.676  1.00  0.00     0.251 C 
ATOM     26  H   UNL     1      11.917   0.280   0.909  1.00  0.00     0.163 HD
ATOM     27  O   UNL     1      14.293  -0.201   0.719  1.00  0.00    -0.269 OA
BRANCH  25  28
ATOM     28  C   UNL     1      14.589   0.764   2.836  1.00  0.00     0.039 A 
ATOM     29  C   UNL     1      15.816   1.391   2.617  1.00  0.00     0.014 A 
ATOM     30  C   UNL     1      14.123   0.559   4.137  1.00  0.00     0.014 A 
ATOM     31  C   UNL     1      16.546   1.869   3.706  1.00  0.00     0.010 A 
ATOM     32  C   UNL     1      14.793   1.137   5.207  1.00  0.00     0.010 A 
ATOM     33  C   UNL     1      16.023   1.778   5.008  1.00  0.00    -0.014 A 
BRANCH  33  34
ATOM     34  C   UNL     1      16.766   2.318   6.174  1.00  0.00     0.031 A 
ATOM     35  C   UNL     1      17.200   1.396   7.280  1.00  0.00     0.074 A 
ATOM     36  C   UNL     1      17.021   3.638   6.254  1.00  0.00     0.049 A 
ATOM     37  N   UNL     1      17.843   1.677   8.385  1.00  0.00    -0.248 NA
ATOM     38  C   UNL     1      16.843  -0.026   7.144  1.00  0.00     0.031 C 
ATOM     39  C   UNL     1      16.606   4.639   5.271  1.00  0.00     0.029 A 
ATOM     40  N   UNL     1      17.694   4.366   7.204  1.00  0.00    -0.354 N 
ATOM     41  C   UNL     1      17.963   0.473   9.067  1.00  0.00     0.074 A 
ATOM     42  C   UNL     1      17.256  -0.525   8.297  1.00  0.00     0.031 C 
ATOM     43  C   UNL     1      17.073   5.840   5.643  1.00  0.00     0.029 A 
ATOM     44  C   UNL     1      17.778   5.706   6.915  1.00  0.00     0.049 A 
ATOM     45  H   UNL     1      18.079   3.965   8.017  1.00  0.00     0.167 HD
ATOM     46  C   UNL     1      18.636   0.214  10.211  1.00  0.00     0.037 A 
ATOM     47  C   UNL     1      18.357   6.713   7.596  1.00  0.00     0.037 A 
ATOM     48  C   UNL     1      19.351   1.210  10.965  1.00  0.00     0.049 A 
ATOM     49  C   UNL     1      19.075   6.408   8.883  1.00  0.00     0.074 A 
ATOM     50  C   UNL     1      20.098   1.043  12.117  1.00  0.00     0.029 A 
ATOM     51  N   UNL     1      19.403   2.559  10.644  1.00  0.00    -0.354 N 
ATOM     52  N   UNL     1      19.234   5.255   9.487  1.00  0.00    -0.248 NA
ATOM     53  C   UNL     1      19.701   7.540   9.579  1.00  0.00     0.031 C 
ATOM     54  C   UNL     1      20.543   2.300  12.532  1.00  0.00     0.029 A 
ATOM     55  C   UNL     1      20.146   3.240  11.595  1.00  0.00     0.049 A 
ATOM     56  H   UNL     1      18.976   2.971   9.859  1.00  0.00     0.167 HD
ATOM     57  C   UNL     1      20.002   5.516  10.615  1.00  0.00     0.074 A 
ATOM     58  C   UNL     1      20.287   6.936  10.603  1.00  0.00     0.031 C 
ATOM     59  C   UNL     1      20.431   4.654  11.570  1.00  0.00     0.037 A 
BRANCH  46  60
ATOM     60  C   UNL     1      18.645  -1.202  10.715  1.00  0.00     0.064 A 
ATOM     61  C   UNL     1      18.035  -1.529  11.935  1.00  0.00     0.173 A 
ATOM     62  C   UNL     1      19.311  -2.225  10.022  1.00  0.00     0.173 A 
ATOM     63  F   UNL     1      17.388  -0.590  12.642  1.00  0.00    -0.203 F 
ATOM     64  C   UNL     1      18.105  -2.821  12.449  1.00  0.00     0.198 A 
ATOM     65  C   UNL     1      19.345  -3.525  10.520  1.00  0.00     0.198 A 
ATOM     66  F   UNL     1      19.900  -1.972   8.843  1.00  0.00    -0.203 F 
ATOM     67  F   UNL     1      17.549  -3.099  13.636  1.00  0.00    -0.200 F 
ATOM     68  C   UNL     1      18.753  -3.819  11.738  1.00  0.00     0.200 A 
ATOM     69  F   UNL     1      19.945  -4.495   9.815  1.00  0.00    -0.200 F 
ATOM     70  F   UNL     1      18.806  -5.066  12.227  1.00  0.00    -0.200 F 
ENDBRANCH  46  60
BRANCH  47  71
ATOM     71  C   UNL     1      18.312   8.092   7.041  1.00  0.00     0.064 A 
ATOM     72  C   UNL     1      17.103   8.798   6.941  1.00  0.00     0.173 A 
ATOM     73  C   UNL     1      19.470   8.714   6.555  1.00  0.00     0.173 A 
ATOM     74  F   UNL     1      15.964   8.247   7.385  1.00  0.00    -0.203 F 
ATOM     75  C   UNL     1      17.052  10.059   6.350  1.00  0.00     0.198 A 
ATOM     76  C   UNL     1      19.423   9.989   5.995  1.00  0.00     0.198 A 
ATOM     77  F   UNL     1      20.654   8.090   6.646  1.00  0.00    -0.203 F 
ATOM     78  F   UNL     1      15.876  10.689   6.224  1.00  0.00    -0.200 F 
ATOM     79  C   UNL     1      18.212  10.655   5.881  1.00  0.00     0.200 A 
ATOM     80  F   UNL     1      20.550  10.572   5.566  1.00  0.00    -0.200 F 
ATOM     81  F   UNL     1      18.163  11.871   5.320  1.00  0.00    -0.200 F 
ENDBRANCH  47  71
BRANCH  59  82
ATOM     82  C   UNL     1      21.290   5.202  12.675  1.00  0.00     0.064 A 
ATOM     83  C   UNL     1      22.629   4.796  12.797  1.00  0.00     0.173 A 
ATOM     84  C   UNL     1      20.774   6.057  13.660  1.00  0.00     0.173 A 
ATOM     85  F   UNL     1      23.170   3.969  11.889  1.00  0.00    -0.203 F 
ATOM     86  C   UNL     1      23.410   5.209  13.871  1.00  0.00     0.198 A 
ATOM     87  C   UNL     1      21.571   6.500  14.712  1.00  0.00     0.198 A 
ATOM     88  F   UNL     1      19.503   6.483  13.587  1.00  0.00    -0.203 F 
ATOM     89  F   UNL     1      24.670   4.768  13.990  1.00  0.00    -0.200 F 
ATOM     90  C   UNL     1      22.883   6.066  14.824  1.00  0.00     0.200 A 
ATOM     91  F   UNL     1      21.069   7.351  15.617  1.00  0.00    -0.200 F 
ATOM     92  F   UNL     1      23.641   6.475  15.851  1.00  0.00    -0.200 F 
ENDBRANCH  59  82
ENDBRANCH  33  34
ENDBRANCH  25  28
ENDBRANCH  23  24
ENDBRANCH  22  23
ENDBRANCH   1  22
TORSDOF 13
