REMARK SMILES O=C(Cc1cccn1-c1ccc2c(c1)OCCO2)NCCCCNC(=O)c1ccc(-c2c3nc(c(-c4c(F)c(F)c(F)c(F)c4F)c4ccc([nH]4)c(-c4c(F)c(F)c(F)c(F)c4F)c4nc(c(-c5c(F)c(F)c(F)c(F)c5F)c5ccc2[nH]5)C=C4)C=C3)cc1
REMARK SMILES IDX 21 1 20 2 19 3 1 4 2 5 3 7 4 8 5 9 8 10 6 11 7 12 9 13 10 14
REMARK SMILES IDX 14 15 11 16 13 17 12 18 15 19 18 20 16 21 17 22 22 23 23 24
REMARK SMILES IDX 24 25 25 26 26 28 27 29 28 30 89 31 29 32 88 33 30 34 31 35
REMARK SMILES IDX 32 36 82 37 33 38 87 39 81 40 83 41 34 42 86 43 80 44 79 45
REMARK SMILES IDX 35 47 67 48 47 49 66 50 48 51 51 52 65 53 84 54 49 55 50 56
REMARK SMILES IDX 64 58 85 59 52 60 36 61 37 62 45 63 38 64 39 65 43 66 46 67
REMARK SMILES IDX 40 68 41 69 44 70 42 71 68 72 69 73 77 74 70 75 71 76 75 77
REMARK SMILES IDX 78 78 72 79 73 80 76 81 74 82 53 83 54 84 62 85 55 86 56 87
REMARK SMILES IDX 60 88 63 89 57 90 58 91 61 92 59 93
REMARK H PARENT 19 6 24 27 83 46 51 57
REMARK Flexibility Score: inf
ROOT
ATOM      1  C   UNL     1       2.316  -3.392   1.513  1.00  0.00     0.023 C 
ENDROOT
BRANCH   1   2
ATOM      2  C   UNL     1       2.060  -1.886   1.638  1.00  0.00     0.116 C 
BRANCH   2   3
ATOM      3  N   UNL     1       2.802  -1.111   0.662  1.00  0.00    -0.356 N 
ATOM      4  O   UNL     1       1.117   0.378   0.199  1.00  0.00    -0.275 OA
ATOM      5  C   UNL     1       2.270  -0.007   0.024  1.00  0.00     0.225 C 
ATOM      6  H   UNL     1       3.723  -1.383   0.446  1.00  0.00     0.163 HD
BRANCH   5   7
ATOM      7  C   UNL     1       3.229   0.693  -0.937  1.00  0.00     0.154 C 
BRANCH   7   8
ATOM      8  C   UNL     1       3.989   1.787  -0.239  1.00  0.00     0.032 A 
ATOM      9  C   UNL     1       3.676   3.139  -0.234  1.00  0.00     0.024 A 
ATOM     10  N   UNL     1       5.068   1.607   0.621  1.00  0.00    -0.320 N 
ATOM     11  C   UNL     1       4.517   3.783   0.694  1.00  0.00     0.020 A 
ATOM     12  C   UNL     1       5.327   2.816   1.238  1.00  0.00     0.091 A 
BRANCH  10  13
ATOM     13  C   UNL     1       5.784   0.416   0.902  1.00  0.00     0.049 A 
ATOM     14  C   UNL     1       6.082   0.105   2.234  1.00  0.00     0.031 A 
ATOM     15  C   UNL     1       6.178  -0.446  -0.128  1.00  0.00     0.077 A 
ATOM     16  C   UNL     1       6.730  -1.091   2.534  1.00  0.00     0.052 A 
ATOM     17  C   UNL     1       6.817  -1.646   0.185  1.00  0.00     0.163 A 
ATOM     18  C   UNL     1       7.099  -1.966   1.514  1.00  0.00     0.161 A 
ATOM     19  O   UNL     1       7.122  -2.476  -0.861  1.00  0.00    -0.486 OA
ATOM     20  O   UNL     1       7.684  -3.141   1.904  1.00  0.00    -0.486 OA
ATOM     21  C   UNL     1       7.330  -3.821  -0.416  1.00  0.00     0.271 C 
ATOM     22  C   UNL     1       8.241  -3.863   0.801  1.00  0.00     0.271 C 
ENDBRANCH  10  13
ENDBRANCH   7   8
ENDBRANCH   5   7
ENDBRANCH   2   3
ENDBRANCH   1   2
BRANCH   1  23
ATOM     23  C   UNL     1       3.771  -3.837   1.710  1.00  0.00     0.023 C 
BRANCH  23  24
ATOM     24  C   UNL     1       4.345  -3.572   3.100  1.00  0.00     0.116 C 
BRANCH  24  25
ATOM     25  N   UNL     1       3.843  -4.494   4.100  1.00  0.00    -0.352 N 
ATOM     26  C   UNL     1       4.340  -4.720   5.364  1.00  0.00     0.251 C 
ATOM     27  H   UNL     1       3.053  -5.021   3.844  1.00  0.00     0.163 HD
ATOM     28  O   UNL     1       4.116  -5.795   5.909  1.00  0.00    -0.269 OA
BRANCH  26  29
ATOM     29  C   UNL     1       5.146  -3.697   6.078  1.00  0.00     0.039 A 
ATOM     30  C   UNL     1       6.158  -4.140   6.941  1.00  0.00     0.014 A 
ATOM     31  C   UNL     1       4.852  -2.330   6.002  1.00  0.00     0.014 A 
ATOM     32  C   UNL     1       6.894  -3.222   7.687  1.00  0.00     0.010 A 
ATOM     33  C   UNL     1       5.608  -1.404   6.722  1.00  0.00     0.010 A 
ATOM     34  C   UNL     1       6.634  -1.849   7.563  1.00  0.00    -0.014 A 
BRANCH  34  35
ATOM     35  C   UNL     1       7.576  -0.891   8.197  1.00  0.00     0.031 A 
ATOM     36  C   UNL     1       8.904  -0.795   7.410  1.00  0.00     0.074 A 
ATOM     37  C   UNL     1       7.166  -0.277   9.352  1.00  0.00     0.049 A 
ATOM     38  N   UNL     1      10.095  -0.450   7.794  1.00  0.00    -0.248 NA
ATOM     39  C   UNL     1       8.914  -1.196   5.976  1.00  0.00     0.031 C 
ATOM     40  C   UNL     1       5.817  -0.412   9.941  1.00  0.00     0.029 A 
ATOM     41  N   UNL     1       7.773   0.569  10.265  1.00  0.00    -0.354 N 
ATOM     42  C   UNL     1      10.930  -0.415   6.649  1.00  0.00     0.074 A 
ATOM     43  C   UNL     1      10.168  -0.974   5.578  1.00  0.00     0.031 C 
ATOM     44  C   UNL     1       5.733   0.239  11.122  1.00  0.00     0.029 A 
ATOM     45  C   UNL     1       7.005   0.862  11.430  1.00  0.00     0.049 A 
ATOM     46  H   UNL     1       8.673   0.941  10.121  1.00  0.00     0.167 HD
ATOM     47  C   UNL     1      12.159   0.185   6.638  1.00  0.00     0.037 A 
ATOM     48  C   UNL     1       7.381   1.512  12.579  1.00  0.00     0.037 A 
ATOM     49  C   UNL     1      12.485   0.627   7.949  1.00  0.00     0.049 A 
ATOM     50  C   UNL     1       8.733   2.009  12.304  1.00  0.00     0.074 A 
ATOM     51  C   UNL     1      12.837  -0.046   9.088  1.00  0.00     0.029 A 
ATOM     52  N   UNL     1      12.120   1.907   8.273  1.00  0.00    -0.354 N 
ATOM     53  N   UNL     1       9.005   3.035  11.556  1.00  0.00    -0.248 NA
ATOM     54  C   UNL     1       9.876   1.261  12.844  1.00  0.00     0.031 C 
ATOM     55  C   UNL     1      12.207   0.695  10.107  1.00  0.00     0.029 A 
ATOM     56  C   UNL     1      11.698   1.886   9.576  1.00  0.00     0.049 A 
ATOM     57  H   UNL     1      12.153   2.693   7.681  1.00  0.00     0.167 HD
ATOM     58  C   UNL     1      10.334   2.836  11.279  1.00  0.00     0.074 A 
ATOM     59  C   UNL     1      10.860   1.984  12.321  1.00  0.00     0.031 C 
ATOM     60  C   UNL     1      10.755   2.890   9.993  1.00  0.00     0.037 A 
BRANCH  47  61
ATOM     61  C   UNL     1      13.063   0.657   5.526  1.00  0.00     0.064 A 
ATOM     62  C   UNL     1      14.395   1.027   5.856  1.00  0.00     0.173 A 
ATOM     63  C   UNL     1      12.590   1.115   4.291  1.00  0.00     0.173 A 
ATOM     64  F   UNL     1      14.970   0.594   6.990  1.00  0.00    -0.203 F 
ATOM     65  C   UNL     1      15.130   1.926   5.086  1.00  0.00     0.198 A 
ATOM     66  C   UNL     1      13.354   1.975   3.493  1.00  0.00     0.198 A 
ATOM     67  F   UNL     1      11.350   0.831   3.874  1.00  0.00    -0.203 F 
ATOM     68  F   UNL     1      16.317   2.368   5.524  1.00  0.00    -0.200 F 
ATOM     69  C   UNL     1      14.598   2.417   3.912  1.00  0.00     0.200 A 
ATOM     70  F   UNL     1      12.841   2.442   2.346  1.00  0.00    -0.200 F 
ATOM     71  F   UNL     1      15.264   3.340   3.205  1.00  0.00    -0.200 F 
ENDBRANCH  47  61
BRANCH  48  72
ATOM     72  C   UNL     1       6.863   1.772  13.985  1.00  0.00     0.064 A 
ATOM     73  C   UNL     1       5.565   1.535  14.449  1.00  0.00     0.173 A 
ATOM     74  C   UNL     1       7.755   2.243  14.998  1.00  0.00     0.173 A 
ATOM     75  F   UNL     1       4.577   1.223  13.604  1.00  0.00    -0.203 F 
ATOM     76  C   UNL     1       5.227   1.636  15.816  1.00  0.00     0.198 A 
ATOM     77  C   UNL     1       7.439   2.292  16.356  1.00  0.00     0.198 A 
ATOM     78  F   UNL     1       8.988   2.680  14.711  1.00  0.00    -0.203 F 
ATOM     79  F   UNL     1       3.969   1.392  16.209  1.00  0.00    -0.200 F 
ATOM     80  C   UNL     1       6.173   1.970  16.771  1.00  0.00     0.200 A 
ATOM     81  F   UNL     1       8.381   2.639  17.246  1.00  0.00    -0.200 F 
ATOM     82  F   UNL     1       5.864   1.997  18.074  1.00  0.00    -0.200 F 
ENDBRANCH  48  72
BRANCH  60  83
ATOM     83  C   UNL     1       9.886   3.740   9.092  1.00  0.00     0.064 A 
ATOM     84  C   UNL     1       9.816   5.123   9.314  1.00  0.00     0.173 A 
ATOM     85  C   UNL     1       9.038   3.227   8.095  1.00  0.00     0.173 A 
ATOM     86  F   UNL     1      10.601   5.690  10.242  1.00  0.00    -0.203 F 
ATOM     87  C   UNL     1       8.947   5.940   8.586  1.00  0.00     0.198 A 
ATOM     88  C   UNL     1       8.174   4.043   7.360  1.00  0.00     0.198 A 
ATOM     89  F   UNL     1       9.028   1.925   7.813  1.00  0.00    -0.203 F 
ATOM     90  F   UNL     1       8.913   7.258   8.828  1.00  0.00    -0.200 F 
ATOM     91  C   UNL     1       8.127   5.401   7.610  1.00  0.00     0.200 A 
ATOM     92  F   UNL     1       7.395   3.509   6.406  1.00  0.00    -0.200 F 
ATOM     93  F   UNL     1       7.306   6.189   6.901  1.00  0.00    -0.200 F 
ENDBRANCH  60  83
ENDBRANCH  34  35
ENDBRANCH  26  29
ENDBRANCH  24  25
ENDBRANCH  23  24
ENDBRANCH   1  23
TORSDOF 13
