REMARK SMILES [NH3+][C@]1(C(=O)NCCCCNC(=O)c2ccc(-c3c4nc(c(-c5c(F)c(F)c(F)c(F)c5F)c5ccc([nH]5)c(-c5c(F)c(F)c(F)c(F)c5F)c5nc(c(-c6c(F)c(F)c(F)c(F)c6F)c6ccc3[nH]6)C=C5)C=C4)cc2)CCC[C@@H](OC2CCC2)C1
REMARK SMILES IDX 7 1 6 2 5 3 3 4 4 5 2 7 76 8 85 9 77 10 79 11 78 12 1 13
REMARK SMILES IDX 80 17 81 18 82 19 84 20 83 21 8 22 9 23 10 24 11 25 12 27
REMARK SMILES IDX 13 28 14 29 75 30 15 31 74 32 16 33 17 34 18 35 68 36 19 37
REMARK SMILES IDX 73 38 67 39 69 40 20 41 72 42 66 43 65 44 21 46 53 47 33 48
REMARK SMILES IDX 52 49 34 50 37 51 51 52 70 53 35 54 36 55 50 57 71 58 38 59
REMARK SMILES IDX 22 60 23 61 31 62 24 63 25 64 29 65 32 66 26 67 27 68 30 69
REMARK SMILES IDX 28 70 54 71 55 72 63 73 56 74 57 75 61 76 64 77 58 78 59 79
REMARK SMILES IDX 62 80 60 81 39 82 40 83 48 84 41 85 42 86 46 87 49 88 43 89
REMARK SMILES IDX 44 90 47 91 45 92
REMARK H PARENT 5 6 1 14 1 15 1 16 10 26 69 45 37 56
REMARK Flexibility Score: inf
ROOT
ATOM      1  C   UNL     1      -1.697   3.448  -2.026  1.00  0.00     0.023 C 
ENDROOT
BRANCH   1   2
ATOM      2  C   UNL     1      -2.707   2.529  -1.337  1.00  0.00     0.116 C 
BRANCH   2   3
ATOM      3  N   UNL     1      -2.555   1.137  -1.679  1.00  0.00    -0.351 N 
ATOM      4  C   UNL     1      -2.047   0.060  -1.020  1.00  0.00     0.281 C 
ATOM      5  O   UNL     1      -2.305  -1.020  -1.573  1.00  0.00    -0.268 OA
ATOM      6  H   UNL     1      -2.888   0.919  -2.579  1.00  0.00     0.163 HD
BRANCH   4   7
ATOM      7  C   UNL     1      -1.301   0.122   0.385  1.00  0.00     0.176 C 
ATOM      8  C   UNL     1      -0.610  -1.267   0.603  1.00  0.00     0.079 C 
ATOM      9  C   UNL     1      -0.263   1.259   0.579  1.00  0.00     0.111 C 
ATOM     10  C   UNL     1       0.814  -1.245   1.161  1.00  0.00     0.010 C 
ATOM     11  C   UNL     1       1.038   0.946  -0.165  1.00  0.00     0.125 C 
ATOM     12  C   UNL     1       1.752  -0.194   0.556  1.00  0.00     0.032 C 
BRANCH   7  13
ATOM     13  N   UNL     1      -2.361   0.286   1.413  1.00  0.00    -0.345 N 
ATOM     14  H   UNL     1      -3.057  -0.452   1.304  1.00  0.00     0.345 HD
ATOM     15  H   UNL     1      -2.810   1.195   1.296  1.00  0.00     0.345 HD
ATOM     16  H   UNL     1      -1.946   0.229   2.342  1.00  0.00     0.345 HD
ENDBRANCH   7  13
BRANCH  11  17
ATOM     17  O   UNL     1       0.595   0.684  -1.483  1.00  0.00    -0.375 OA
BRANCH  17  18
ATOM     18  C   UNL     1       1.386   0.079  -2.513  1.00  0.00     0.118 C 
ATOM     19  C   UNL     1       1.611  -1.449  -2.479  1.00  0.00     0.032 C 
ATOM     20  C   UNL     1       0.537  -0.138  -3.795  1.00  0.00     0.032 C 
ATOM     21  C   UNL     1       0.458  -1.633  -3.467  1.00  0.00     0.005 C 
ENDBRANCH  17  18
ENDBRANCH  11  17
ENDBRANCH   4   7
ENDBRANCH   2   3
ENDBRANCH   1   2
BRANCH   1  22
ATOM     22  C   UNL     1      -1.717   3.474  -3.556  1.00  0.00     0.023 C 
BRANCH  22  23
ATOM     23  C   UNL     1      -3.074   3.654  -4.225  1.00  0.00     0.116 C 
BRANCH  23  24
ATOM     24  N   UNL     1      -3.820   4.803  -3.738  1.00  0.00    -0.352 N 
ATOM     25  C   UNL     1      -4.514   5.768  -4.424  1.00  0.00     0.251 C 
ATOM     26  H   UNL     1      -3.829   4.905  -2.759  1.00  0.00     0.163 HD
ATOM     27  O   UNL     1      -5.032   6.696  -3.804  1.00  0.00    -0.269 OA
BRANCH  25  28
ATOM     28  C   UNL     1      -4.608   5.737  -5.901  1.00  0.00     0.039 A 
ATOM     29  C   UNL     1      -4.452   6.939  -6.600  1.00  0.00     0.014 A 
ATOM     30  C   UNL     1      -4.848   4.553  -6.601  1.00  0.00     0.014 A 
ATOM     31  C   UNL     1      -4.455   6.940  -7.997  1.00  0.00     0.010 A 
ATOM     32  C   UNL     1      -4.775   4.542  -7.993  1.00  0.00     0.010 A 
ATOM     33  C   UNL     1      -4.573   5.734  -8.705  1.00  0.00    -0.014 A 
BRANCH  33  34
ATOM     34  C   UNL     1      -4.476   5.699 -10.187  1.00  0.00     0.031 A 
ATOM     35  C   UNL     1      -5.652   5.261 -11.014  1.00  0.00     0.074 A 
ATOM     36  C   UNL     1      -3.304   5.993 -10.785  1.00  0.00     0.049 A 
ATOM     37  N   UNL     1      -5.735   5.084 -12.309  1.00  0.00    -0.248 NA
ATOM     38  C   UNL     1      -6.893   4.956 -10.286  1.00  0.00     0.031 C 
ATOM     39  C   UNL     1      -2.077   6.388 -10.092  1.00  0.00     0.029 A 
ATOM     40  N   UNL     1      -2.950   5.992 -12.111  1.00  0.00    -0.354 N 
ATOM     41  C   UNL     1      -7.026   4.632 -12.546  1.00  0.00     0.074 A 
ATOM     42  C   UNL     1      -7.676   4.515 -11.259  1.00  0.00     0.031 C 
ATOM     43  C   UNL     1      -1.111   6.608 -10.998  1.00  0.00     0.029 A 
ATOM     44  C   UNL     1      -1.637   6.333 -12.331  1.00  0.00     0.049 A 
ATOM     45  H   UNL     1      -3.577   5.768 -12.836  1.00  0.00     0.167 HD
ATOM     46  C   UNL     1      -7.622   4.361 -13.732  1.00  0.00     0.037 A 
ATOM     47  C   UNL     1      -0.934   6.405 -13.478  1.00  0.00     0.037 A 
ATOM     48  C   UNL     1      -6.981   4.504 -15.013  1.00  0.00     0.049 A 
ATOM     49  C   UNL     1      -1.618   6.092 -14.781  1.00  0.00     0.074 A 
ATOM     50  C   UNL     1      -7.521   4.315 -16.273  1.00  0.00     0.029 A 
ATOM     51  N   UNL     1      -5.656   4.870 -15.196  1.00  0.00    -0.354 N 
ATOM     52  N   UNL     1      -2.859   5.731 -14.998  1.00  0.00    -0.248 NA
ATOM     53  C   UNL     1      -0.804   6.200 -15.999  1.00  0.00     0.031 C 
ATOM     54  C   UNL     1      -6.510   4.522 -17.218  1.00  0.00     0.029 A 
ATOM     55  C   UNL     1      -5.354   4.890 -16.548  1.00  0.00     0.049 A 
ATOM     56  H   UNL     1      -5.024   5.084 -14.472  1.00  0.00     0.167 HD
ATOM     57  C   UNL     1      -2.983   5.597 -16.374  1.00  0.00     0.074 A 
ATOM     58  C   UNL     1      -1.694   5.929 -16.943  1.00  0.00     0.031 C 
ATOM     59  C   UNL     1      -4.067   5.232 -17.100  1.00  0.00     0.037 A 
BRANCH  46  60
ATOM     60  C   UNL     1      -9.046   3.885 -13.700  1.00  0.00     0.064 A 
ATOM     61  C   UNL     1     -10.100   4.739 -13.342  1.00  0.00     0.173 A 
ATOM     62  C   UNL     1      -9.364   2.568 -14.067  1.00  0.00     0.173 A 
ATOM     63  F   UNL     1      -9.848   6.004 -12.973  1.00  0.00    -0.203 F 
ATOM     64  C   UNL     1     -11.416   4.285 -13.325  1.00  0.00     0.198 A 
ATOM     65  C   UNL     1     -10.685   2.127 -14.078  1.00  0.00     0.198 A 
ATOM     66  F   UNL     1      -8.396   1.712 -14.425  1.00  0.00    -0.203 F 
ATOM     67  F   UNL     1     -12.400   5.106 -12.932  1.00  0.00    -0.200 F 
ATOM     68  C   UNL     1     -11.709   2.983 -13.700  1.00  0.00     0.200 A 
ATOM     69  F   UNL     1     -10.968   0.872 -14.454  1.00  0.00    -0.200 F 
ATOM     70  F   UNL     1     -12.977   2.550 -13.689  1.00  0.00    -0.200 F 
ENDBRANCH  46  60
BRANCH  47  71
ATOM     71  C   UNL     1       0.495   6.811 -13.448  1.00  0.00     0.064 A 
ATOM     72  C   UNL     1       0.901   8.049 -13.966  1.00  0.00     0.173 A 
ATOM     73  C   UNL     1       1.482   5.974 -12.909  1.00  0.00     0.173 A 
ATOM     74  F   UNL     1      -0.004   8.875 -14.511  1.00  0.00    -0.203 F 
ATOM     75  C   UNL     1       2.242   8.426 -13.963  1.00  0.00     0.198 A 
ATOM     76  C   UNL     1       2.820   6.363 -12.882  1.00  0.00     0.198 A 
ATOM     77  F   UNL     1       1.146   4.780 -12.398  1.00  0.00    -0.203 F 
ATOM     78  F   UNL     1       2.608   9.595 -14.506  1.00  0.00    -0.200 F 
ATOM     79  C   UNL     1       3.200   7.585 -13.417  1.00  0.00     0.200 A 
ATOM     80  F   UNL     1       3.741   5.554 -12.341  1.00  0.00    -0.200 F 
ATOM     81  F   UNL     1       4.490   7.949 -13.412  1.00  0.00    -0.200 F 
ENDBRANCH  47  71
BRANCH  59  82
ATOM     82  C   UNL     1      -3.919   5.205 -18.593  1.00  0.00     0.064 A 
ATOM     83  C   UNL     1      -3.175   4.208 -19.242  1.00  0.00     0.173 A 
ATOM     84  C   UNL     1      -4.566   6.164 -19.387  1.00  0.00     0.173 A 
ATOM     85  F   UNL     1      -2.525   3.279 -18.526  1.00  0.00    -0.203 F 
ATOM     86  C   UNL     1      -3.066   4.187 -20.630  1.00  0.00     0.198 A 
ATOM     87  C   UNL     1      -4.479   6.122 -20.776  1.00  0.00     0.198 A 
ATOM     88  F   UNL     1      -5.295   7.135 -18.816  1.00  0.00    -0.203 F 
ATOM     89  F   UNL     1      -2.314   3.252 -21.226  1.00  0.00    -0.200 F 
ATOM     90  C   UNL     1      -3.725   5.138 -21.395  1.00  0.00     0.200 A 
ATOM     91  F   UNL     1      -5.127   7.034 -21.514  1.00  0.00    -0.200 F 
ATOM     92  F   UNL     1      -3.626   5.109 -22.732  1.00  0.00    -0.200 F 
ENDBRANCH  59  82
ENDBRANCH  33  34
ENDBRANCH  25  28
ENDBRANCH  23  24
ENDBRANCH  22  23
ENDBRANCH   1  22
TORSDOF 14
