REMARK SMILES CC(C)=CCc1cccc2c(C(=O)NCCCCNC(=O)c3ccc(-c4c5nc(c(-c6c(F)c(F)c(F)c(F)c6F)c6ccc([nH]6)c(-c6c(F)c(F)c(F)c(F)c6F)c6nc(c(-c7c(F)c(F)c(F)c(F)c7F)c7ccc4[nH]7)C=C6)C=C5)cc3)c[nH]c12
REMARK SMILES IDX 16 1 15 2 14 3 12 4 13 5 11 7 6 8 7 9 87 10 8 11 10 12 86 13
REMARK SMILES IDX 9 14 85 15 5 17 4 18 1 19 2 20 3 21 17 22 18 23 19 24 20 25
REMARK SMILES IDX 21 27 22 28 23 29 84 30 24 31 83 32 25 33 26 34 27 35 77 36
REMARK SMILES IDX 28 37 82 38 76 39 78 40 29 41 81 42 75 43 74 44 30 46 62 47
REMARK SMILES IDX 42 48 61 49 43 50 46 51 60 52 79 53 44 54 45 55 59 57 80 58
REMARK SMILES IDX 47 59 31 60 32 61 40 62 33 63 34 64 38 65 41 66 35 67 36 68
REMARK SMILES IDX 39 69 37 70 63 71 64 72 72 73 65 74 66 75 70 76 73 77 67 78
REMARK SMILES IDX 68 79 71 80 69 81 48 82 49 83 57 84 50 85 51 86 55 87 58 88
REMARK SMILES IDX 52 89 53 90 56 91 54 92
REMARK H PARENT 14 6 86 16 19 26 78 45 46 56
REMARK Flexibility Score: inf
ROOT
ATOM      1  C   UNL     1       7.228   3.931   6.696  1.00  0.00     0.023 C 
ENDROOT
BRANCH   1   2
ATOM      2  C   UNL     1       6.910   3.219   5.389  1.00  0.00     0.116 C 
BRANCH   2   3
ATOM      3  N   UNL     1       7.758   2.093   5.059  1.00  0.00    -0.352 N 
ATOM      4  C   UNL     1       7.454   0.950   4.348  1.00  0.00     0.253 C 
ATOM      5  O   UNL     1       8.352   0.118   4.208  1.00  0.00    -0.269 OA
ATOM      6  H   UNL     1       8.683   2.151   5.389  1.00  0.00     0.163 HD
BRANCH   4   7
ATOM      7  C   UNL     1       6.093   0.693   3.868  1.00  0.00     0.065 A 
ATOM      8  C   UNL     1       2.634   1.393   2.929  1.00  0.00    -0.020 A 
ATOM      9  C   UNL     1       2.636   2.796   2.765  1.00  0.00     0.006 A 
ATOM     10  C   UNL     1       3.886   0.818   3.244  1.00  0.00     0.050 A 
ATOM     11  C   UNL     1       3.809   3.535   2.728  1.00  0.00     0.001 A 
ATOM     12  C   UNL     1       5.074   1.556   3.332  1.00  0.00     0.012 A 
ATOM     13  N   UNL     1       4.227  -0.492   3.495  1.00  0.00    -0.360 N 
ATOM     14  C   UNL     1       5.033   2.911   2.943  1.00  0.00     0.011 A 
ATOM     15  C   UNL     1       5.539  -0.579   3.868  1.00  0.00     0.097 A 
ATOM     16  H   UNL     1       3.613  -1.258   3.417  1.00  0.00     0.166 HD
BRANCH   8  17
ATOM     17  C   UNL     1       1.345   0.597   2.812  1.00  0.00     0.065 C 
BRANCH  17  18
ATOM     18  C   UNL     1       0.346   1.227   1.873  1.00  0.00    -0.024 C 
ATOM     19  C   UNL     1       1.010  -0.045  -0.184  1.00  0.00     0.039 C 
ATOM     20  C   UNL     1       0.221   1.001   0.550  1.00  0.00    -0.080 C 
ATOM     21  C   UNL     1      -0.680   1.873  -0.282  1.00  0.00     0.039 C 
ENDBRANCH  17  18
ENDBRANCH   8  17
ENDBRANCH   4   7
ENDBRANCH   2   3
ENDBRANCH   1   2
BRANCH   1  22
ATOM     22  C   UNL     1       8.590   4.614   6.787  1.00  0.00     0.023 C 
BRANCH  22  23
ATOM     23  C   UNL     1       9.009   5.477   5.601  1.00  0.00     0.116 C 
BRANCH  23  24
ATOM     24  N   UNL     1       8.105   6.583   5.311  1.00  0.00    -0.352 N 
ATOM     25  C   UNL     1       8.345   7.938   5.262  1.00  0.00     0.251 C 
ATOM     26  H   UNL     1       7.176   6.319   5.121  1.00  0.00     0.163 HD
ATOM     27  O   UNL     1       7.421   8.719   5.049  1.00  0.00    -0.269 OA
BRANCH  25  28
ATOM     28  C   UNL     1       9.703   8.466   5.518  1.00  0.00     0.039 A 
ATOM     29  C   UNL     1       9.854   9.528   6.416  1.00  0.00     0.014 A 
ATOM     30  C   UNL     1      10.826   7.901   4.912  1.00  0.00     0.014 A 
ATOM     31  C   UNL     1      11.135   9.944   6.789  1.00  0.00     0.010 A 
ATOM     32  C   UNL     1      12.099   8.254   5.353  1.00  0.00     0.010 A 
ATOM     33  C   UNL     1      12.268   9.271   6.306  1.00  0.00    -0.014 A 
BRANCH  33  34
ATOM     34  C   UNL     1      13.634   9.595   6.798  1.00  0.00     0.031 A 
ATOM     35  C   UNL     1      14.687  10.084   5.841  1.00  0.00     0.074 A 
ATOM     36  C   UNL     1      13.954   9.364   8.088  1.00  0.00     0.049 A 
ATOM     37  N   UNL     1      15.957  10.318   6.055  1.00  0.00    -0.248 NA
ATOM     38  C   UNL     1      14.263  10.310   4.450  1.00  0.00     0.031 C 
ATOM     39  C   UNL     1      13.044   8.835   9.106  1.00  0.00     0.029 A 
ATOM     40  N   UNL     1      15.140   9.531   8.762  1.00  0.00    -0.354 N 
ATOM     41  C   UNL     1      16.485  10.692   4.826  1.00  0.00     0.074 A 
ATOM     42  C   UNL     1      15.411  10.609   3.861  1.00  0.00     0.031 C 
ATOM     43  C   UNL     1      13.697   8.740  10.276  1.00  0.00     0.029 A 
ATOM     44  C   UNL     1      15.081   9.162  10.085  1.00  0.00     0.049 A 
ATOM     45  H   UNL     1      15.956   9.882   8.337  1.00  0.00     0.167 HD
ATOM     46  C   UNL     1      17.745  11.093   4.534  1.00  0.00     0.037 A 
ATOM     47  C   UNL     1      16.037   9.155  11.034  1.00  0.00     0.037 A 
ATOM     48  C   UNL     1      18.802  11.219   5.503  1.00  0.00     0.049 A 
ATOM     49  C   UNL     1      17.424   9.623  10.683  1.00  0.00     0.074 A 
ATOM     50  C   UNL     1      20.090  11.689   5.316  1.00  0.00     0.029 A 
ATOM     51  N   UNL     1      18.691  10.875   6.841  1.00  0.00    -0.354 N 
ATOM     52  N   UNL     1      17.889  10.048   9.534  1.00  0.00    -0.248 NA
ATOM     53  C   UNL     1      18.419   9.618  11.766  1.00  0.00     0.031 C 
ATOM     54  C   UNL     1      20.772  11.592   6.533  1.00  0.00     0.029 A 
ATOM     55  C   UNL     1      19.894  11.107   7.489  1.00  0.00     0.049 A 
ATOM     56  H   UNL     1      17.878  10.520   7.268  1.00  0.00     0.167 HD
ATOM     57  C   UNL     1      19.216  10.390   9.762  1.00  0.00     0.074 A 
ATOM     58  C   UNL     1      19.479  10.137  11.162  1.00  0.00     0.031 C 
ATOM     59  C   UNL     1      20.134  10.869   8.888  1.00  0.00     0.037 A 
BRANCH  46  60
ATOM     60  C   UNL     1      18.054  11.444   3.108  1.00  0.00     0.064 A 
ATOM     61  C   UNL     1      17.543  12.605   2.510  1.00  0.00     0.173 A 
ATOM     62  C   UNL     1      18.918  10.640   2.349  1.00  0.00     0.173 A 
ATOM     63  F   UNL     1      16.704  13.401   3.190  1.00  0.00    -0.203 F 
ATOM     64  C   UNL     1      17.869  12.939   1.198  1.00  0.00     0.198 A 
ATOM     65  C   UNL     1      19.265  10.992   1.047  1.00  0.00     0.198 A 
ATOM     66  F   UNL     1      19.439   9.521   2.875  1.00  0.00    -0.203 F 
ATOM     67  F   UNL     1      17.337  14.033   0.635  1.00  0.00    -0.200 F 
ATOM     68  C   UNL     1      18.736  12.137   0.471  1.00  0.00     0.200 A 
ATOM     69  F   UNL     1      20.114  10.224   0.350  1.00  0.00    -0.200 F 
ATOM     70  F   UNL     1      19.060  12.468  -0.786  1.00  0.00    -0.200 F 
ENDBRANCH  46  60
BRANCH  47  71
ATOM     71  C   UNL     1      15.719   8.709  12.416  1.00  0.00     0.064 A 
ATOM     72  C   UNL     1      15.714   9.619  13.483  1.00  0.00     0.173 A 
ATOM     73  C   UNL     1      15.446   7.364  12.707  1.00  0.00     0.173 A 
ATOM     74  F   UNL     1      15.992  10.912  13.260  1.00  0.00    -0.203 F 
ATOM     75  C   UNL     1      15.479   9.197  14.790  1.00  0.00     0.198 A 
ATOM     76  C   UNL     1      15.181   6.949  14.011  1.00  0.00     0.198 A 
ATOM     77  F   UNL     1      15.434   6.453  11.723  1.00  0.00    -0.203 F 
ATOM     78  F   UNL     1      15.538  10.080  15.797  1.00  0.00    -0.200 F 
ATOM     79  C   UNL     1      15.209   7.863  15.053  1.00  0.00     0.200 A 
ATOM     80  F   UNL     1      14.907   5.660  14.258  1.00  0.00    -0.200 F 
ATOM     81  F   UNL     1      14.986   7.457  16.310  1.00  0.00    -0.200 F 
ENDBRANCH  47  71
BRANCH  59  82
ATOM     82  C   UNL     1      21.496  11.195   9.428  1.00  0.00     0.064 A 
ATOM     83  C   UNL     1      22.401  10.192   9.800  1.00  0.00     0.173 A 
ATOM     84  C   UNL     1      21.914  12.531   9.532  1.00  0.00     0.173 A 
ATOM     85  F   UNL     1      22.043   8.900   9.732  1.00  0.00    -0.203 F 
ATOM     86  C   UNL     1      23.668  10.514  10.280  1.00  0.00     0.198 A 
ATOM     87  C   UNL     1      23.191  12.848   9.984  1.00  0.00     0.198 A 
ATOM     88  F   UNL     1      21.087  13.528   9.182  1.00  0.00    -0.203 F 
ATOM     89  F   UNL     1      24.500   9.541  10.674  1.00  0.00    -0.200 F 
ATOM     90  C   UNL     1      24.064  11.841  10.365  1.00  0.00     0.200 A 
ATOM     91  F   UNL     1      23.577  14.130  10.052  1.00  0.00    -0.200 F 
ATOM     92  F   UNL     1      25.286  12.148  10.820  1.00  0.00    -0.200 F 
ENDBRANCH  59  82
ENDBRANCH  33  34
ENDBRANCH  25  28
ENDBRANCH  23  24
ENDBRANCH  22  23
ENDBRANCH   1  22
TORSDOF 13
