REMARK SMILES O=C(NCCCCNC(=O)c1cc(-c2ccoc2)n[nH]1)c1ccc(-c2c3nc(c(-c4c(F)c(F)c(F)c(F)c4F)c4ccc([nH]4)c(-c4c(F)c(F)c(F)c(F)c4F)c4nc(c(-c5c(F)c(F)c(F)c(F)c5F)c5ccc2[nH]5)C=C4)C=C3)cc1
REMARK SMILES IDX 5 1 4 2 3 3 1 4 2 5 21 7 22 8 83 9 23 10 82 11 24 12 25 13
REMARK SMILES IDX 26 14 76 15 27 16 81 17 75 18 77 19 28 20 80 21 74 22 73 23
REMARK SMILES IDX 29 25 61 26 41 27 60 28 42 29 45 30 59 31 78 32 43 33 44 34
REMARK SMILES IDX 58 36 79 37 46 38 30 39 31 40 39 41 32 42 33 43 37 44 40 45
REMARK SMILES IDX 34 46 35 47 38 48 36 49 62 50 63 51 71 52 64 53 65 54 69 55
REMARK SMILES IDX 72 56 66 57 67 58 70 59 68 60 47 61 48 62 56 63 49 64 50 65
REMARK SMILES IDX 54 66 57 67 51 68 52 69 55 70 53 71 6 72 7 73 8 74 9 75
REMARK SMILES IDX 10 77 11 78 12 79 20 80 13 81 19 82 14 84 15 85 18 86 16 87
REMARK SMILES IDX 17 88
REMARK H PARENT 3 6 77 24 45 35 8 76 20 83
REMARK Flexibility Score: inf
ROOT
ATOM      1  C   UNL     1       4.867   0.914  -2.601  1.00  0.00     0.023 C 
ENDROOT
BRANCH   1   2
ATOM      2  C   UNL     1       4.571   0.816  -1.111  1.00  0.00     0.116 C 
BRANCH   2   3
ATOM      3  N   UNL     1       3.150   0.818  -0.801  1.00  0.00    -0.352 N 
ATOM      4  O   UNL     1       1.227   0.044   0.104  1.00  0.00    -0.269 OA
ATOM      5  C   UNL     1       2.450  -0.020   0.037  1.00  0.00     0.251 C 
ATOM      6  H   UNL     1       2.616   1.512  -1.252  1.00  0.00     0.163 HD
BRANCH   5   7
ATOM      7  C   UNL     1       3.183  -1.026   0.836  1.00  0.00     0.039 A 
ATOM      8  C   UNL     1       4.347  -0.671   1.519  1.00  0.00     0.014 A 
ATOM      9  C   UNL     1       2.718  -2.344   0.876  1.00  0.00     0.014 A 
ATOM     10  C   UNL     1       5.130  -1.659   2.100  1.00  0.00     0.010 A 
ATOM     11  C   UNL     1       3.460  -3.323   1.547  1.00  0.00     0.010 A 
ATOM     12  C   UNL     1       4.691  -2.994   2.133  1.00  0.00    -0.014 A 
BRANCH  12  13
ATOM     13  C   UNL     1       5.523  -3.995   2.849  1.00  0.00     0.031 A 
ATOM     14  C   UNL     1       6.189  -5.131   2.124  1.00  0.00     0.074 A 
ATOM     15  C   UNL     1       5.733  -3.817   4.168  1.00  0.00     0.049 A 
ATOM     16  N   UNL     1       7.016  -6.033   2.594  1.00  0.00    -0.248 NA
ATOM     17  C   UNL     1       5.889  -5.284   0.693  1.00  0.00     0.031 C 
ATOM     18  C   UNL     1       5.117  -2.764   4.979  1.00  0.00     0.029 A 
ATOM     19  N   UNL     1       6.543  -4.484   5.049  1.00  0.00    -0.354 N 
ATOM     20  C   UNL     1       7.324  -6.864   1.524  1.00  0.00     0.074 A 
ATOM     21  C   UNL     1       6.576  -6.377   0.385  1.00  0.00     0.031 C 
ATOM     22  C   UNL     1       5.620  -2.813   6.220  1.00  0.00     0.029 A 
ATOM     23  C   UNL     1       6.548  -3.935   6.308  1.00  0.00     0.049 A 
ATOM     24  H   UNL     1       7.071  -5.278   4.804  1.00  0.00     0.167 HD
ATOM     25  C   UNL     1       8.162  -7.929   1.499  1.00  0.00     0.037 A 
ATOM     26  C   UNL     1       7.220  -4.296   7.415  1.00  0.00     0.037 A 
ATOM     27  C   UNL     1       8.914  -8.402   2.634  1.00  0.00     0.049 A 
ATOM     28  C   UNL     1       8.153  -5.469   7.349  1.00  0.00     0.074 A 
ATOM     29  C   UNL     1       9.795  -9.468   2.704  1.00  0.00     0.029 A 
ATOM     30  N   UNL     1       8.876  -7.834   3.899  1.00  0.00    -0.354 N 
ATOM     31  N   UNL     1       8.446  -6.233   6.325  1.00  0.00    -0.248 NA
ATOM     32  C   UNL     1       8.847  -5.831   8.591  1.00  0.00     0.031 C 
ATOM     33  C   UNL     1      10.266  -9.564   4.019  1.00  0.00     0.029 A 
ATOM     34  C   UNL     1       9.710  -8.534   4.758  1.00  0.00     0.049 A 
ATOM     35  H   UNL     1       8.337  -7.049   4.150  1.00  0.00     0.167 HD
ATOM     36  C   UNL     1       9.353  -7.169   6.798  1.00  0.00     0.074 A 
ATOM     37  C   UNL     1       9.594  -6.850   8.191  1.00  0.00     0.031 C 
ATOM     38  C   UNL     1       9.925  -8.208   6.144  1.00  0.00     0.037 A 
BRANCH  25  39
ATOM     39  C   UNL     1       8.316  -8.668   0.201  1.00  0.00     0.064 A 
ATOM     40  C   UNL     1       9.053  -8.131  -0.865  1.00  0.00     0.173 A 
ATOM     41  C   UNL     1       7.784  -9.958   0.048  1.00  0.00     0.173 A 
ATOM     42  F   UNL     1       9.572  -6.898  -0.772  1.00  0.00    -0.203 F 
ATOM     43  C   UNL     1       9.242  -8.854  -2.040  1.00  0.00     0.198 A 
ATOM     44  C   UNL     1       7.995 -10.686  -1.120  1.00  0.00     0.198 A 
ATOM     45  F   UNL     1       7.077 -10.519   1.040  1.00  0.00    -0.203 F 
ATOM     46  F   UNL     1       9.928  -8.310  -3.056  1.00  0.00    -0.200 F 
ATOM     47  C   UNL     1       8.722 -10.133  -2.164  1.00  0.00     0.200 A 
ATOM     48  F   UNL     1       7.501 -11.927  -1.233  1.00  0.00    -0.200 F 
ATOM     49  F   UNL     1       8.918 -10.833  -3.290  1.00  0.00    -0.200 F 
ENDBRANCH  25  39
BRANCH  26  50
ATOM     50  C   UNL     1       7.026  -3.535   8.676  1.00  0.00     0.064 A 
ATOM     51  C   UNL     1       8.051  -2.744   9.211  1.00  0.00     0.173 A 
ATOM     52  C   UNL     1       5.803  -3.575   9.362  1.00  0.00     0.173 A 
ATOM     53  F   UNL     1       9.243  -2.688   8.599  1.00  0.00    -0.203 F 
ATOM     54  C   UNL     1       7.865  -2.034  10.395  1.00  0.00     0.198 A 
ATOM     55  C   UNL     1       5.609  -2.840  10.528  1.00  0.00     0.198 A 
ATOM     56  F   UNL     1       4.789  -4.312   8.886  1.00  0.00    -0.203 F 
ATOM     57  F   UNL     1       8.874  -1.318  10.908  1.00  0.00    -0.200 F 
ATOM     58  C   UNL     1       6.643  -2.077  11.049  1.00  0.00     0.200 A 
ATOM     59  F   UNL     1       4.420  -2.870  11.146  1.00  0.00    -0.200 F 
ATOM     60  F   UNL     1       6.462  -1.386  12.182  1.00  0.00    -0.200 F 
ENDBRANCH  26  50
BRANCH  38  61
ATOM     61  C   UNL     1      10.860  -9.070   6.937  1.00  0.00     0.064 A 
ATOM     62  C   UNL     1      10.383  -9.954   7.916  1.00  0.00     0.173 A 
ATOM     63  C   UNL     1      12.244  -9.010   6.720  1.00  0.00     0.173 A 
ATOM     64  F   UNL     1       9.068 -10.032   8.171  1.00  0.00    -0.203 F 
ATOM     65  C   UNL     1      11.261 -10.725   8.672  1.00  0.00     0.198 A 
ATOM     66  C   UNL     1      13.117  -9.802   7.460  1.00  0.00     0.198 A 
ATOM     67  F   UNL     1      12.749  -8.183   5.793  1.00  0.00    -0.203 F 
ATOM     68  F   UNL     1      10.787 -11.521   9.640  1.00  0.00    -0.200 F 
ATOM     69  C   UNL     1      12.626 -10.651   8.442  1.00  0.00     0.200 A 
ATOM     70  F   UNL     1      14.436  -9.736   7.232  1.00  0.00    -0.200 F 
ATOM     71  F   UNL     1      13.471 -11.389   9.175  1.00  0.00    -0.200 F 
ENDBRANCH  38  61
ENDBRANCH  12  13
ENDBRANCH   5   7
ENDBRANCH   2   3
ENDBRANCH   1   2
BRANCH   1  72
ATOM     72  C   UNL     1       4.399   2.204  -3.270  1.00  0.00     0.023 C 
BRANCH  72  73
ATOM     73  C   UNL     1       4.897   3.491  -2.614  1.00  0.00     0.116 C 
BRANCH  73  74
ATOM     74  N   UNL     1       6.346   3.608  -2.662  1.00  0.00    -0.351 N 
ATOM     75  C   UNL     1       7.106   4.536  -3.330  1.00  0.00     0.269 C 
ATOM     76  H   UNL     1       6.847   2.934  -2.149  1.00  0.00     0.163 HD
ATOM     77  O   UNL     1       8.307   4.317  -3.491  1.00  0.00    -0.268 OA
BRANCH  75  78
ATOM     78  C   UNL     1       6.456   5.697  -3.852  1.00  0.00     0.123 A 
ATOM     79  C   UNL     1       5.535   6.563  -3.295  1.00  0.00     0.064 A 
ATOM     80  N   UNL     1       6.683   6.181  -5.109  1.00  0.00    -0.272 N 
ATOM     81  C   UNL     1       5.126   7.388  -4.361  1.00  0.00     0.096 A 
ATOM     82  N   UNL     1       5.811   7.139  -5.481  1.00  0.00    -0.175 NA
ATOM     83  H   UNL     1       7.412   5.860  -5.688  1.00  0.00     0.190 HD
BRANCH  81  84
ATOM     84  C   UNL     1       4.015   8.320  -4.280  1.00  0.00     0.040 A 
ATOM     85  C   UNL     1       3.684   9.136  -3.171  1.00  0.00     0.052 A 
ATOM     86  C   UNL     1       3.055   8.552  -5.236  1.00  0.00     0.205 A 
ATOM     87  C   UNL     1       2.536   9.807  -3.527  1.00  0.00     0.195 A 
ATOM     88  O   UNL     1       2.142   9.450  -4.778  1.00  0.00    -0.472 OA
ENDBRANCH  81  84
ENDBRANCH  75  78
ENDBRANCH  73  74
ENDBRANCH  72  73
ENDBRANCH   1  72
TORSDOF 12
