REMARK SMILES Cn1c(=O)c(=O)n(C)c2cc(S(=O)(=O)N3CCC[C@H]3C(=O)NCCCCNC(=O)c3ccc(-c4c5nc(c(-c6c(F)c(F)c(F)c(F)c6F)c6ccc([nH]6)c(-c6c(F)c(F)c(F)c(F)c6F)c6nc(c(-c7c(F)c(F)c(F)c(F)c7F)c7ccc4[nH]7)C=C6)C=C5)cc3)ccc21
REMARK SMILES IDX 24 1 23 2 22 3 20 4 21 5 19 7 15 8 16 9 17 10 18 11 12 12
REMARK SMILES IDX 13 13 14 14 11 15 1 16 2 17 3 18 95 19 4 20 5 21 9 22 94 23
REMARK SMILES IDX 6 24 7 25 10 26 93 27 8 28 25 29 26 30 27 31 28 32 29 34
REMARK SMILES IDX 30 35 31 36 92 37 32 38 91 39 33 40 34 41 35 42 85 43 36 44
REMARK SMILES IDX 90 45 84 46 86 47 37 48 89 49 83 50 82 51 38 53 70 54 50 55
REMARK SMILES IDX 69 56 51 57 54 58 68 59 87 60 52 61 53 62 67 64 88 65 55 66
REMARK SMILES IDX 39 67 40 68 48 69 41 70 42 71 46 72 49 73 43 74 44 75 47 76
REMARK SMILES IDX 45 77 71 78 72 79 80 80 73 81 74 82 78 83 81 84 75 85 76 86
REMARK SMILES IDX 79 87 77 88 56 89 57 90 65 91 58 92 59 93 63 94 66 95 60 96
REMARK SMILES IDX 61 97 64 98 62 99
REMARK H PARENT 22 6 27 33 86 52 54 63
REMARK Flexibility Score: inf
ROOT
ATOM      1  C   UNL     1       4.104   5.825  -3.747  1.00  0.00     0.023 C 
ENDROOT
BRANCH   1   2
ATOM      2  C   UNL     1       4.657   5.985  -2.329  1.00  0.00     0.116 C 
BRANCH   2   3
ATOM      3  N   UNL     1       4.369   7.296  -1.765  1.00  0.00    -0.355 N 
ATOM      4  C   UNL     1       3.321   7.677  -0.952  1.00  0.00     0.238 C 
ATOM      5  O   UNL     1       3.240   8.852  -0.601  1.00  0.00    -0.273 OA
ATOM      6  H   UNL     1       5.009   8.008  -1.996  1.00  0.00     0.163 HD
BRANCH   4   7
ATOM      7  C   UNL     1       2.308   6.606  -0.570  1.00  0.00     0.162 C 
ATOM      8  N   UNL     1       1.383   6.900   0.544  1.00  0.00    -0.185 NA
ATOM      9  C   UNL     1       0.028   7.101   0.014  1.00  0.00     0.103 C 
ATOM     10  C   UNL     1      -0.017   6.200  -1.202  1.00  0.00     0.019 C 
ATOM     11  C   UNL     1       1.391   6.289  -1.761  1.00  0.00     0.032 C 
BRANCH   8  12
ATOM     12  S   UNL     1       1.605   6.130   2.026  1.00  0.00     0.243 S 
ATOM     13  O   UNL     1       0.643   6.689   2.948  1.00  0.00    -0.207 OA
ATOM     14  O   UNL     1       3.024   6.121   2.318  1.00  0.00    -0.207 OA
BRANCH  12  15
ATOM     15  C   UNL     1       1.154   4.401   1.814  1.00  0.00     0.084 A 
ATOM     16  C   UNL     1       0.673  -0.475   0.316  1.00  0.00     0.154 C 
ATOM     17  N   UNL     1       0.293   0.256   1.517  1.00  0.00    -0.305 N 
ATOM     18  C   UNL     1      -0.358  -0.444   2.528  1.00  0.00     0.316 A 
ATOM     19  C   UNL     1       0.577   1.641   1.635  1.00  0.00     0.068 A 
ATOM     20  O   UNL     1      -0.644  -1.636   2.449  1.00  0.00    -0.263 OA
ATOM     21  C   UNL     1      -0.724   0.322   3.806  1.00  0.00     0.316 A 
ATOM     22  C   UNL     1       0.174   2.369   2.770  1.00  0.00     0.069 A 
ATOM     23  C   UNL     1       1.282   2.301   0.624  1.00  0.00     0.030 A 
ATOM     24  O   UNL     1      -1.230  -0.303   4.734  1.00  0.00    -0.263 OA
ATOM     25  N   UNL     1      -0.460   1.692   3.849  1.00  0.00    -0.305 N 
ATOM     26  C   UNL     1       0.443   3.755   2.834  1.00  0.00     0.050 A 
ATOM     27  C   UNL     1       1.590   3.654   0.726  1.00  0.00     0.024 A 
ATOM     28  C   UNL     1      -0.800   2.407   5.069  1.00  0.00     0.154 C 
ENDBRANCH  12  15
ENDBRANCH   8  12
ENDBRANCH   4   7
ENDBRANCH   2   3
ENDBRANCH   1   2
BRANCH   1  29
ATOM     29  C   UNL     1       4.903   6.550  -4.823  1.00  0.00     0.023 C 
BRANCH  29  30
ATOM     30  C   UNL     1       6.318   6.029  -5.014  1.00  0.00     0.116 C 
BRANCH  30  31
ATOM     31  N   UNL     1       6.378   4.630  -5.418  1.00  0.00    -0.352 N 
ATOM     32  C   UNL     1       7.274   4.027  -6.271  1.00  0.00     0.251 C 
ATOM     33  H   UNL     1       5.690   4.042  -5.030  1.00  0.00     0.163 HD
ATOM     34  O   UNL     1       7.137   2.851  -6.589  1.00  0.00    -0.269 OA
BRANCH  32  35
ATOM     35  C   UNL     1       8.373   4.834  -6.840  1.00  0.00     0.039 A 
ATOM     36  C   UNL     1       9.114   5.686  -6.021  1.00  0.00     0.014 A 
ATOM     37  C   UNL     1       8.612   4.791  -8.216  1.00  0.00     0.014 A 
ATOM     38  C   UNL     1       9.954   6.628  -6.598  1.00  0.00     0.010 A 
ATOM     39  C   UNL     1       9.537   5.671  -8.784  1.00  0.00     0.010 A 
ATOM     40  C   UNL     1      10.175   6.632  -7.986  1.00  0.00    -0.014 A 
BRANCH  40  41
ATOM     41  C   UNL     1      11.094   7.647  -8.557  1.00  0.00     0.031 A 
ATOM     42  C   UNL     1      10.597   8.709  -9.496  1.00  0.00     0.074 A 
ATOM     43  C   UNL     1      12.379   7.648  -8.155  1.00  0.00     0.049 A 
ATOM     44  N   UNL     1      11.250   9.720 -10.014  1.00  0.00    -0.248 NA
ATOM     45  C   UNL     1       9.191   8.627  -9.919  1.00  0.00     0.031 C 
ATOM     46  C   UNL     1      12.973   6.660  -7.253  1.00  0.00     0.029 A 
ATOM     47  N   UNL     1      13.404   8.521  -8.415  1.00  0.00    -0.354 N 
ATOM     48  C   UNL     1      10.346  10.376 -10.838  1.00  0.00     0.074 A 
ATOM     49  C   UNL     1       9.104   9.637 -10.774  1.00  0.00     0.031 C 
ATOM     50  C   UNL     1      14.231   7.022  -6.973  1.00  0.00     0.029 A 
ATOM     51  C   UNL     1      14.554   8.230  -7.726  1.00  0.00     0.049 A 
ATOM     52  H   UNL     1      13.322   9.281  -9.036  1.00  0.00     0.167 HD
ATOM     53  C   UNL     1      10.536  11.498 -11.572  1.00  0.00     0.037 A 
ATOM     54  C   UNL     1      15.741   8.864  -7.699  1.00  0.00     0.037 A 
ATOM     55  C   UNL     1      11.765  12.248 -11.605  1.00  0.00     0.049 A 
ATOM     56  C   UNL     1      15.929  10.101  -8.525  1.00  0.00     0.074 A 
ATOM     57  C   UNL     1      12.037  13.428 -12.274  1.00  0.00     0.029 A 
ATOM     58  N   UNL     1      12.929  11.887 -10.941  1.00  0.00    -0.354 N 
ATOM     59  N   UNL     1      15.057  10.726  -9.277  1.00  0.00    -0.248 NA
ATOM     60  C   UNL     1      17.264  10.712  -8.510  1.00  0.00     0.031 C 
ATOM     61  C   UNL     1      13.378  13.757 -12.053  1.00  0.00     0.029 A 
ATOM     62  C   UNL     1      13.930  12.807 -11.209  1.00  0.00     0.049 A 
ATOM     63  H   UNL     1      13.028  11.095 -10.364  1.00  0.00     0.167 HD
ATOM     64  C   UNL     1      15.734  11.805  -9.827  1.00  0.00     0.074 A 
ATOM     65  C   UNL     1      17.085  11.761  -9.304  1.00  0.00     0.031 C 
ATOM     66  C   UNL     1      15.274  12.742 -10.691  1.00  0.00     0.037 A 
BRANCH  53  67
ATOM     67  C   UNL     1       9.393  11.983 -12.417  1.00  0.00     0.064 A 
ATOM     68  C   UNL     1       8.255  12.575 -11.851  1.00  0.00     0.173 A 
ATOM     69  C   UNL     1       9.461  11.899 -13.816  1.00  0.00     0.173 A 
ATOM     70  F   UNL     1       8.135  12.670 -10.518  1.00  0.00    -0.203 F 
ATOM     71  C   UNL     1       7.217  13.044 -12.654  1.00  0.00     0.198 A 
ATOM     72  C   UNL     1       8.434  12.392 -14.617  1.00  0.00     0.198 A 
ATOM     73  F   UNL     1      10.531  11.348 -14.409  1.00  0.00    -0.203 F 
ATOM     74  F   UNL     1       6.120  13.568 -12.089  1.00  0.00    -0.200 F 
ATOM     75  C   UNL     1       7.310  12.958 -14.035  1.00  0.00     0.200 A 
ATOM     76  F   UNL     1       8.531  12.319 -15.951  1.00  0.00    -0.200 F 
ATOM     77  F   UNL     1       6.313  13.416 -14.805  1.00  0.00    -0.200 F 
ENDBRANCH  53  67
BRANCH  54  78
ATOM     78  C   UNL     1      16.819   8.327  -6.832  1.00  0.00     0.064 A 
ATOM     79  C   UNL     1      17.170   8.975  -5.641  1.00  0.00     0.173 A 
ATOM     80  C   UNL     1      17.447   7.108  -7.126  1.00  0.00     0.173 A 
ATOM     81  F   UNL     1      16.604  10.149  -5.325  1.00  0.00    -0.203 F 
ATOM     82  C   UNL     1      18.101   8.415  -4.768  1.00  0.00     0.198 A 
ATOM     83  C   UNL     1      18.358   6.537  -6.242  1.00  0.00     0.198 A 
ATOM     84  F   UNL     1      17.134   6.446  -8.250  1.00  0.00    -0.203 F 
ATOM     85  F   UNL     1      18.423   9.055  -3.636  1.00  0.00    -0.200 F 
ATOM     86  C   UNL     1      18.684   7.191  -5.063  1.00  0.00     0.200 A 
ATOM     87  F   UNL     1      18.901   5.344  -6.519  1.00  0.00    -0.200 F 
ATOM     88  F   UNL     1      19.553   6.638  -4.207  1.00  0.00    -0.200 F 
ENDBRANCH  54  78
BRANCH  66  89
ATOM     89  C   UNL     1      16.237  13.799 -11.139  1.00  0.00     0.064 A 
ATOM     90  C   UNL     1      17.235  13.518 -12.084  1.00  0.00     0.173 A 
ATOM     91  C   UNL     1      16.109  15.120 -10.686  1.00  0.00     0.173 A 
ATOM     92  F   UNL     1      17.404  12.267 -12.536  1.00  0.00    -0.203 F 
ATOM     93  C   UNL     1      18.074  14.524 -12.555  1.00  0.00     0.198 A 
ATOM     94  C   UNL     1      16.935  16.127 -11.176  1.00  0.00     0.198 A 
ATOM     95  F   UNL     1      15.165  15.437  -9.787  1.00  0.00    -0.203 F 
ATOM     96  F   UNL     1      19.036  14.231 -13.441  1.00  0.00    -0.200 F 
ATOM     97  C   UNL     1      17.917  15.828 -12.109  1.00  0.00     0.200 A 
ATOM     98  F   UNL     1      16.773  17.389 -10.754  1.00  0.00    -0.200 F 
ATOM     99  F   UNL     1      18.713  16.799 -12.578  1.00  0.00    -0.200 F 
ENDBRANCH  66  89
ENDBRANCH  40  41
ENDBRANCH  32  35
ENDBRANCH  30  31
ENDBRANCH  29  30
ENDBRANCH   1  29
TORSDOF 13
