REMARK SMILES Cc1c(CC(=O)N[C@@H](CCO)C(=O)NCCCCNC(=O)c2ccc(-c3c4nc(c(-c5c(F)c(F)c(F)c(F)c5F)c5ccc([nH]5)c(-c5c(F)c(F)c(F)c(F)c5F)c5nc(c(-c6c(F)c(F)c(F)c(F)c6F)c6ccc3[nH]6)C=C5)C=C4)cc2)cc(-c2ccc(S(C)(=O)=O)cc2)n1-c1ccc(F)cc1
REMARK SMILES IDX 15 1 14 2 12 3 13 4 8 6 7 7 5 8 6 9 4 11 3 12 1 13 2 14
REMARK SMILES IDX 97 15 85 16 86 17 98 18 99 19 104 20 100 21 103 22 101 23
REMARK SMILES IDX 102 24 87 25 88 26 96 27 89 28 95 29 90 30 91 31 92 32 93 33
REMARK SMILES IDX 94 34 9 35 10 36 11 37 16 39 17 40 18 41 19 42 20 43 21 45
REMARK SMILES IDX 22 46 23 47 84 48 24 49 83 50 25 51 26 52 27 53 77 54 28 55
REMARK SMILES IDX 82 56 76 57 78 58 29 59 81 60 75 61 74 62 30 64 62 65 42 66
REMARK SMILES IDX 61 67 43 68 46 69 60 70 79 71 44 72 45 73 59 75 80 76 47 77
REMARK SMILES IDX 31 78 32 79 40 80 33 81 34 82 38 83 41 84 35 85 36 86 39 87
REMARK SMILES IDX 37 88 63 89 64 90 72 91 65 92 66 93 70 94 73 95 67 96 68 97
REMARK SMILES IDX 71 98 69 99 48 100 49 101 57 102 50 103 51 104 55 105 58 106
REMARK SMILES IDX 52 107 53 108 56 109 54 110
REMARK H PARENT 14 5 7 10 11 38 19 44 78 63 46 74
REMARK Flexibility Score: inf
ROOT
ATOM      1  C   UNL     1      -5.774  -0.784   1.006  1.00  0.00     0.116 C 
ENDROOT
BRANCH   1   2
ATOM      2  N   UNL     1      -5.413  -0.718   2.413  1.00  0.00    -0.354 N 
ATOM      3  C   UNL     1      -4.356  -0.173   3.068  1.00  0.00     0.242 C 
ATOM      4  O   UNL     1      -4.532   0.069   4.267  1.00  0.00    -0.273 OA
ATOM      5  H   UNL     1      -6.063  -1.156   3.008  1.00  0.00     0.163 HD
BRANCH   3   6
ATOM      6  C   UNL     1      -3.053   0.254   2.381  1.00  0.00     0.173 C 
BRANCH   6   7
ATOM      7  N   UNL     1      -2.515  -0.799   1.520  1.00  0.00    -0.344 N 
ATOM      8  C   UNL     1      -1.354  -1.505   1.682  1.00  0.00     0.225 C 
ATOM      9  O   UNL     1      -1.200  -2.517   0.994  1.00  0.00    -0.275 OA
ATOM     10  H   UNL     1      -3.054  -1.028   0.728  1.00  0.00     0.164 HD
BRANCH   8  11
ATOM     11  C   UNL     1      -0.296  -1.054   2.685  1.00  0.00     0.137 C 
BRANCH  11  12
ATOM     12  C   UNL     1       0.206   0.329   2.389  1.00  0.00    -0.017 A 
ATOM     13  C   UNL     1       1.141   0.009  -0.014  1.00  0.00     0.065 C 
ATOM     14  C   UNL     1       0.749   0.791   1.199  1.00  0.00     0.024 A 
ATOM     15  N   UNL     1       0.948   2.163   1.314  1.00  0.00    -0.314 N 
ATOM     16  C   UNL     1       0.202   1.428   3.288  1.00  0.00     0.033 A 
ATOM     17  C   UNL     1       0.627   2.559   2.611  1.00  0.00     0.053 A 
BRANCH  15  18
ATOM     18  C   UNL     1       1.399   3.011   0.272  1.00  0.00     0.046 A 
ATOM     19  C   UNL     1       2.529   3.811   0.472  1.00  0.00     0.029 A 
ATOM     20  C   UNL     1       0.694   3.051  -0.939  1.00  0.00     0.029 A 
ATOM     21  C   UNL     1       2.971   4.636  -0.562  1.00  0.00     0.041 A 
ATOM     22  C   UNL     1       1.131   3.896  -1.958  1.00  0.00     0.041 A 
ATOM     23  C   UNL     1       2.268   4.672  -1.763  1.00  0.00     0.123 A 
ATOM     24  F   UNL     1       2.693   5.473  -2.749  1.00  0.00    -0.207 F 
ENDBRANCH  15  18
BRANCH  17  25
ATOM     25  C   UNL     1       0.629   3.941   3.107  1.00  0.00    -0.001 A 
ATOM     26  C   UNL     1      -0.093   4.949   2.450  1.00  0.00     0.011 A 
ATOM     27  C   UNL     1       1.335   4.260   4.275  1.00  0.00     0.011 A 
ATOM     28  C   UNL     1      -0.073   6.264   2.922  1.00  0.00     0.021 A 
ATOM     29  C   UNL     1       1.360   5.572   4.754  1.00  0.00     0.021 A 
ATOM     30  C   UNL     1       0.671   6.571   4.064  1.00  0.00     0.067 A 
BRANCH  30  31
ATOM     31  S   UNL     1       0.696   8.248   4.652  1.00  0.00     0.175 S 
ATOM     32  C   UNL     1       1.556   9.135   3.379  1.00  0.00     0.163 C 
ATOM     33  O   UNL     1      -0.666   8.707   4.696  1.00  0.00    -0.224 OA
ATOM     34  O   UNL     1       1.542   8.279   5.844  1.00  0.00    -0.224 OA
ENDBRANCH  30  31
ENDBRANCH  17  25
ENDBRANCH  11  12
ENDBRANCH   8  11
ENDBRANCH   6   7
BRANCH   6  35
ATOM     35  C   UNL     1      -3.042   1.660   1.758  1.00  0.00     0.063 C 
BRANCH  35  36
ATOM     36  C   UNL     1      -4.135   2.041   0.773  1.00  0.00     0.158 C 
BRANCH  36  37
ATOM     37  O   UNL     1      -5.362   2.369   1.404  1.00  0.00    -0.396 OA
ATOM     38  H   UNL     1      -5.692   1.598   1.891  1.00  0.00     0.210 HD
ENDBRANCH  36  37
ENDBRANCH  35  36
ENDBRANCH   6  35
ENDBRANCH   3   6
ENDBRANCH   1   2
BRANCH   1  39
ATOM     39  C   UNL     1      -6.617  -2.004   0.655  1.00  0.00     0.023 C 
BRANCH  39  40
ATOM     40  C   UNL     1      -7.867  -2.251   1.517  1.00  0.00     0.023 C 
BRANCH  40  41
ATOM     41  C   UNL     1      -8.642  -1.042   2.060  1.00  0.00     0.116 C 
BRANCH  41  42
ATOM     42  N   UNL     1      -9.688  -0.532   1.208  1.00  0.00    -0.352 N 
ATOM     43  C   UNL     1     -10.695   0.337   1.597  1.00  0.00     0.251 C 
ATOM     44  H   UNL     1      -9.686  -0.826   0.268  1.00  0.00     0.163 HD
ATOM     45  O   UNL     1     -11.497   0.752   0.765  1.00  0.00    -0.269 OA
BRANCH  43  46
ATOM     46  C   UNL     1     -10.860   0.700   3.046  1.00  0.00     0.039 A 
ATOM     47  C   UNL     1     -11.520  -0.196   3.868  1.00  0.00     0.014 A 
ATOM     48  C   UNL     1     -10.513   1.948   3.592  1.00  0.00     0.014 A 
ATOM     49  C   UNL     1     -11.787   0.146   5.214  1.00  0.00     0.010 A 
ATOM     50  C   UNL     1     -10.870   2.323   4.944  1.00  0.00     0.010 A 
ATOM     51  C   UNL     1     -11.550   1.440   5.799  1.00  0.00    -0.014 A 
BRANCH  51  52
ATOM     52  C   UNL     1     -12.483   1.822   7.021  1.00  0.00     0.031 A 
ATOM     53  C   UNL     1     -13.831   1.337   6.590  1.00  0.00     0.074 A 
ATOM     54  C   UNL     1     -12.477   2.487   8.238  1.00  0.00     0.049 A 
ATOM     55  N   UNL     1     -14.369   1.754   5.476  1.00  0.00    -0.248 NA
ATOM     56  C   UNL     1     -14.407   0.103   7.131  1.00  0.00     0.031 C 
ATOM     57  C   UNL     1     -11.371   3.220   8.871  1.00  0.00     0.029 A 
ATOM     58  N   UNL     1     -13.487   2.656   9.229  1.00  0.00    -0.354 N 
ATOM     59  C   UNL     1     -15.504   1.002   5.300  1.00  0.00     0.074 A 
ATOM     60  C   UNL     1     -15.344  -0.126   6.207  1.00  0.00     0.031 C 
ATOM     61  C   UNL     1     -11.699   3.629  10.132  1.00  0.00     0.029 A 
ATOM     62  C   UNL     1     -13.079   3.273  10.458  1.00  0.00     0.049 A 
ATOM     63  H   UNL     1     -14.416   2.365   9.079  1.00  0.00     0.167 HD
ATOM     64  C   UNL     1     -16.647   1.688   5.018  1.00  0.00     0.037 A 
ATOM     65  C   UNL     1     -13.790   3.545  11.619  1.00  0.00     0.037 A 
ATOM     66  C   UNL     1     -17.479   1.836   6.180  1.00  0.00     0.049 A 
ATOM     67  C   UNL     1     -15.215   3.558  11.264  1.00  0.00     0.074 A 
ATOM     68  C   UNL     1     -17.875   0.961   7.172  1.00  0.00     0.029 A 
ATOM     69  N   UNL     1     -17.584   3.104   6.712  1.00  0.00    -0.354 N 
ATOM     70  N   UNL     1     -15.764   4.574  10.674  1.00  0.00    -0.248 NA
ATOM     71  C   UNL     1     -16.126   2.482  11.646  1.00  0.00     0.031 C 
ATOM     72  C   UNL     1     -17.624   1.667   8.371  1.00  0.00     0.029 A 
ATOM     73  C   UNL     1     -17.472   3.018   8.081  1.00  0.00     0.049 A 
ATOM     74  H   UNL     1     -17.718   3.933   6.198  1.00  0.00     0.167 HD
ATOM     75  C   UNL     1     -16.896   4.037  10.155  1.00  0.00     0.074 A 
ATOM     76  C   UNL     1     -17.216   2.907  11.003  1.00  0.00     0.031 C 
ATOM     77  C   UNL     1     -17.069   4.186   8.820  1.00  0.00     0.037 A 
BRANCH  64  78
ATOM     78  C   UNL     1     -16.510   2.738   3.959  1.00  0.00     0.064 A 
ATOM     79  C   UNL     1     -17.177   2.560   2.744  1.00  0.00     0.173 A 
ATOM     80  C   UNL     1     -15.682   3.872   4.086  1.00  0.00     0.173 A 
ATOM     81  F   UNL     1     -18.039   1.542   2.593  1.00  0.00    -0.203 F 
ATOM     82  C   UNL     1     -16.973   3.438   1.681  1.00  0.00     0.198 A 
ATOM     83  C   UNL     1     -15.430   4.707   3.005  1.00  0.00     0.198 A 
ATOM     84  F   UNL     1     -15.152   4.207   5.274  1.00  0.00    -0.203 F 
ATOM     85  F   UNL     1     -17.654   3.271   0.538  1.00  0.00    -0.200 F 
ATOM     86  C   UNL     1     -16.073   4.487   1.800  1.00  0.00     0.200 A 
ATOM     87  F   UNL     1     -14.581   5.736   3.141  1.00  0.00    -0.200 F 
ATOM     88  F   UNL     1     -15.853   5.309   0.764  1.00  0.00    -0.200 F 
ENDBRANCH  64  78
BRANCH  65  89
ATOM     89  C   UNL     1     -13.630   3.975  13.088  1.00  0.00     0.064 A 
ATOM     90  C   UNL     1     -14.668   4.710  13.758  1.00  0.00     0.173 A 
ATOM     91  C   UNL     1     -12.725   3.354  13.956  1.00  0.00     0.173 A 
ATOM     92  F   UNL     1     -15.594   5.395  13.073  1.00  0.00    -0.203 F 
ATOM     93  C   UNL     1     -14.854   4.706  15.148  1.00  0.00     0.198 A 
ATOM     94  C   UNL     1     -12.891   3.387  15.362  1.00  0.00     0.198 A 
ATOM     95  F   UNL     1     -11.720   2.622  13.460  1.00  0.00    -0.203 F 
ATOM     96  F   UNL     1     -15.932   5.301  15.686  1.00  0.00    -0.200 F 
ATOM     97  C   UNL     1     -13.972   4.027  15.952  1.00  0.00     0.200 A 
ATOM     98  F   UNL     1     -12.031   2.726  16.151  1.00  0.00    -0.200 F 
ATOM     99  F   UNL     1     -14.179   3.961  17.276  1.00  0.00    -0.200 F 
ENDBRANCH  65  89
BRANCH  77 100
ATOM    100  C   UNL     1     -16.646   5.522   8.230  1.00  0.00     0.064 A 
ATOM    101  C   UNL     1     -15.390   6.159   8.389  1.00  0.00     0.173 A 
ATOM    102  C   UNL     1     -17.621   6.259   7.545  1.00  0.00     0.173 A 
ATOM    103  F   UNL     1     -14.334   5.524   8.914  1.00  0.00    -0.203 F 
ATOM    104  C   UNL     1     -15.176   7.482   7.991  1.00  0.00     0.198 A 
ATOM    105  C   UNL     1     -17.387   7.559   7.096  1.00  0.00     0.198 A 
ATOM    106  F   UNL     1     -18.819   5.708   7.295  1.00  0.00    -0.203 F 
ATOM    107  F   UNL     1     -13.999   8.078   8.236  1.00  0.00    -0.200 F 
ATOM    108  C   UNL     1     -16.177   8.182   7.346  1.00  0.00     0.200 A 
ATOM    109  F   UNL     1     -18.346   8.209   6.424  1.00  0.00    -0.200 F 
ATOM    110  F   UNL     1     -15.974   9.447   6.953  1.00  0.00    -0.200 F 
ENDBRANCH  77 100
ENDBRANCH  51  52
ENDBRANCH  43  46
ENDBRANCH  41  42
ENDBRANCH  40  41
ENDBRANCH  39  40
ENDBRANCH   1  39
TORSDOF 20
