REMARK SMILES Cc1cc(/C=C2/C(=O)NC(=S)[NH+]=C2NCCCCNC(=O)c2ccc(-c3c4nc(c(-c5c(F)c(F)c(F)c(F)c5F)c5ccc([nH]5)c(-c5c(F)c(F)c(F)c(F)c5F)c5nc(c(-c6c(F)c(F)c(F)c(F)c6F)c6ccc3[nH]6)C=C5)C=C4)cc2)c(C)n1-c1cccc(C(=O)[O-])c1
REMARK SMILES IDX 16 1 15 2 14 3 5 4 6 5 7 6 13 7 8 8 9 9 12 10 10 11 11 15
REMARK SMILES IDX 4 16 1 17 2 18 3 19 87 20 85 21 86 22 88 23 89 24 96 25
REMARK SMILES IDX 90 26 92 27 91 28 93 29 94 30 95 31 17 32 18 33 19 34 20 35
REMARK SMILES IDX 21 37 22 38 23 39 84 40 24 41 83 42 25 43 26 44 27 45 77 46
REMARK SMILES IDX 28 47 82 48 76 49 78 50 29 51 81 52 75 53 74 54 30 56 62 57
REMARK SMILES IDX 42 58 61 59 43 60 46 61 60 62 79 63 44 64 45 65 59 67 80 68
REMARK SMILES IDX 47 69 31 70 32 71 40 72 33 73 34 74 38 75 41 76 35 77 36 78
REMARK SMILES IDX 39 79 37 80 63 81 64 82 72 83 65 84 66 85 70 86 73 87 67 88
REMARK SMILES IDX 68 89 71 90 69 91 48 92 49 93 57 94 50 95 51 96 55 97 58 98
REMARK SMILES IDX 52 99 53 100 56 101 54 102
REMARK H PARENT 9 12 12 13 14 14 19 36 78 55 46 66
REMARK Flexibility Score: inf
ROOT
ATOM      1  C   UNL     1      -1.256   3.587  -0.421  1.00  0.00     0.039 C 
ENDROOT
BRANCH   1   2
ATOM      2  C   UNL     1      -1.478   4.049   1.031  1.00  0.00     0.194 C 
BRANCH   2   3
ATOM      3  N   UNL     1      -0.636   5.037   1.684  1.00  0.00    -0.305 N 
ATOM      4  C   UNL     1      -0.294   2.772   3.966  1.00  0.00     0.032 C 
ATOM      5  C   UNL     1      -0.753   4.040   4.070  1.00  0.00     0.128 C 
ATOM      6  C   UNL     1      -1.361   4.379   5.380  1.00  0.00     0.319 C 
ATOM      7  C   UNL     1      -0.667   5.179   3.077  1.00  0.00     0.234 C 
ATOM      8  O   UNL     1      -1.840   3.556   6.151  1.00  0.00    -0.250 OA
ATOM      9  N   UNL     1      -1.311   5.706   5.681  1.00  0.00    -0.229 N 
ATOM     10  N   UNL     1      -0.682   6.416   3.511  1.00  0.00    -0.236 N 
ATOM     11  C   UNL     1      -0.884   6.699   4.841  1.00  0.00     0.295 C 
ATOM     12  H   UNL     1      -1.607   5.975   6.581  1.00  0.00     0.268 HD
ATOM     13  H   UNL     1      -0.547   7.154   2.874  1.00  0.00     0.268 HD
ATOM     14  H   UNL     1      -0.043   5.609   1.145  1.00  0.00     0.256 HD
ATOM     15  S   UNL     1      -0.741   8.237   5.501  1.00  0.00    -0.005 S 
BRANCH   4  16
ATOM     16  C   UNL     1       0.413   2.159   2.885  1.00  0.00    -0.003 A 
ATOM     17  C   UNL     1       0.943  -0.454   0.318  1.00  0.00     0.065 C 
ATOM     18  C   UNL     1       0.914   0.754   1.192  1.00  0.00     0.020 A 
ATOM     19  C   UNL     1       0.159   0.888   2.348  1.00  0.00     0.031 A 
ATOM     20  N   UNL     1       1.640   1.940   1.010  1.00  0.00    -0.318 N 
ATOM     21  C   UNL     1       1.480   2.695   2.191  1.00  0.00     0.027 A 
ATOM     22  C   UNL     1       2.204   3.950   2.546  1.00  0.00     0.065 C 
BRANCH  20  23
ATOM     23  C   UNL     1       2.186   2.479  -0.222  1.00  0.00     0.046 A 
ATOM     24  C   UNL     1       3.148   4.019  -0.092  1.00  0.00     0.026 A 
ATOM     25  C   UNL     1       1.332   2.094  -1.766  1.00  0.00     0.036 A 
ATOM     26  C   UNL     1       3.157   5.207  -1.476  1.00  0.00     0.003 A 
ATOM     27  C   UNL     1       1.476   3.202  -3.194  1.00  0.00    -0.001 A 
ATOM     28  C   UNL     1       2.368   4.756  -3.061  1.00  0.00     0.010 A 
BRANCH  27  29
ATOM     29  C   UNL     1       0.790   2.914  -4.473  1.00  0.00     0.072 C 
ATOM     30  O   UNL     1       0.956   3.513  -5.517  1.00  0.00    -0.545 OA
ATOM     31  O   UNL     1      -0.145   1.956  -4.343  1.00  0.00    -0.545 OA
ENDBRANCH  27  29
ENDBRANCH  20  23
ENDBRANCH   4  16
ENDBRANCH   2   3
ENDBRANCH   1   2
BRANCH   1  32
ATOM     32  C   UNL     1      -0.296   4.123  -1.502  1.00  0.00     0.024 C 
BRANCH  32  33
ATOM     33  C   UNL     1       1.357   4.193  -1.241  1.00  0.00     0.116 C 
BRANCH  33  34
ATOM     34  N   UNL     1       3.100   3.229  -1.937  1.00  0.00    -0.352 N 
ATOM     35  C   UNL     1       4.662   3.332  -2.069  1.00  0.00     0.251 C 
ATOM     36  H   UNL     1       2.825   2.373  -2.339  1.00  0.00     0.163 HD
ATOM     37  O   UNL     1       5.198   2.321  -2.546  1.00  0.00    -0.269 OA
BRANCH  35  38
ATOM     38  C   UNL     1       5.622   4.582  -1.700  1.00  0.00     0.039 A 
ATOM     39  C   UNL     1       5.587   5.708  -2.504  1.00  0.00     0.014 A 
ATOM     40  C   UNL     1       6.386   4.782  -0.520  1.00  0.00     0.014 A 
ATOM     41  C   UNL     1       5.939   7.012  -1.968  1.00  0.00     0.010 A 
ATOM     42  C   UNL     1       6.955   6.118  -0.087  1.00  0.00     0.010 A 
ATOM     43  C   UNL     1       6.687   7.336  -0.758  1.00  0.00    -0.014 A 
BRANCH  43  44
ATOM     44  C   UNL     1       7.497   8.885  -0.763  1.00  0.00     0.031 A 
ATOM     45  C   UNL     1       7.860   8.886  -2.207  1.00  0.00     0.074 A 
ATOM     46  C   UNL     1       8.084   9.994  -0.065  1.00  0.00     0.049 A 
ATOM     47  N   UNL     1       8.536   7.834  -2.568  1.00  0.00    -0.248 NA
ATOM     48  C   UNL     1       7.162   9.550  -3.308  1.00  0.00     0.031 C 
ATOM     49  C   UNL     1       8.208  10.235   1.394  1.00  0.00     0.029 A 
ATOM     50  N   UNL     1       8.777  11.223  -0.505  1.00  0.00    -0.354 N 
ATOM     51  C   UNL     1       8.591   7.798  -3.927  1.00  0.00     0.074 A 
ATOM     52  C   UNL     1       7.573   8.773  -4.330  1.00  0.00     0.031 C 
ATOM     53  C   UNL     1       8.723  11.473   1.708  1.00  0.00     0.029 A 
ATOM     54  C   UNL     1       9.108  12.249   0.518  1.00  0.00     0.049 A 
ATOM     55  H   UNL     1       9.014  11.358  -1.451  1.00  0.00     0.167 HD
ATOM     56  C   UNL     1       9.883   7.629  -4.332  1.00  0.00     0.037 A 
ATOM     57  C   UNL     1       9.737  13.531   0.443  1.00  0.00     0.037 A 
ATOM     58  C   UNL     1      10.506   8.920  -4.461  1.00  0.00     0.049 A 
ATOM     59  C   UNL     1      10.629  13.413  -0.705  1.00  0.00     0.074 A 
ATOM     60  C   UNL     1      10.028  10.112  -4.981  1.00  0.00     0.029 A 
ATOM     61  N   UNL     1      11.470   9.249  -3.538  1.00  0.00    -0.354 N 
ATOM     62  N   UNL     1      11.766  12.796  -0.614  1.00  0.00    -0.248 NA
ATOM     63  C   UNL     1      10.338  14.044  -1.983  1.00  0.00     0.031 C 
ATOM     64  C   UNL     1      10.271  11.040  -3.952  1.00  0.00     0.029 A 
ATOM     65  C   UNL     1      11.329  10.569  -3.190  1.00  0.00     0.049 A 
ATOM     66  H   UNL     1      12.153   8.636  -3.182  1.00  0.00     0.167 HD
ATOM     67  C   UNL     1      11.974  12.435  -1.900  1.00  0.00     0.074 A 
ATOM     68  C   UNL     1      11.276  13.428  -2.706  1.00  0.00     0.031 C 
ATOM     69  C   UNL     1      12.087  11.101  -2.099  1.00  0.00     0.037 A 
BRANCH  56  70
ATOM     70  C   UNL     1      10.512   6.423  -3.632  1.00  0.00     0.064 A 
ATOM     71  C   UNL     1      10.716   5.258  -4.373  1.00  0.00     0.173 A 
ATOM     72  C   UNL     1      10.714   6.326  -2.228  1.00  0.00     0.173 A 
ATOM     73  F   UNL     1      10.600   5.287  -5.708  1.00  0.00    -0.203 F 
ATOM     74  C   UNL     1      11.037   4.051  -3.745  1.00  0.00     0.198 A 
ATOM     75  C   UNL     1      10.934   5.104  -1.599  1.00  0.00     0.198 A 
ATOM     76  F   UNL     1      10.693   7.417  -1.442  1.00  0.00    -0.203 F 
ATOM     77  F   UNL     1      11.273   2.960  -4.486  1.00  0.00    -0.200 F 
ATOM     78  C   UNL     1      11.101   3.965  -2.361  1.00  0.00     0.200 A 
ATOM     79  F   UNL     1      10.982   5.037  -0.260  1.00  0.00    -0.200 F 
ATOM     80  F   UNL     1      11.351   2.792  -1.763  1.00  0.00    -0.200 F 
ENDBRANCH  56  70
BRANCH  57  81
ATOM     81  C   UNL     1      10.137  14.963   1.103  1.00  0.00     0.064 A 
ATOM     82  C   UNL     1      11.382  15.653   0.782  1.00  0.00     0.173 A 
ATOM     83  C   UNL     1       9.172  15.856   1.599  1.00  0.00     0.173 A 
ATOM     84  F   UNL     1      12.454  14.992   0.325  1.00  0.00    -0.203 F 
ATOM     85  C   UNL     1      11.576  17.058   0.839  1.00  0.00     0.198 A 
ATOM     86  C   UNL     1       9.383  17.272   1.685  1.00  0.00     0.198 A 
ATOM     87  F   UNL     1       7.958  15.400   1.929  1.00  0.00    -0.203 F 
ATOM     88  F   UNL     1      12.722  17.609   0.398  1.00  0.00    -0.200 F 
ATOM     89  C   UNL     1      10.563  17.872   1.272  1.00  0.00     0.200 A 
ATOM     90  F   UNL     1       8.389  18.071   2.103  1.00  0.00    -0.200 F 
ATOM     91  F   UNL     1      10.705  19.209   1.258  1.00  0.00    -0.200 F 
ENDBRANCH  57  81
BRANCH  69  92
ATOM     92  C   UNL     1      12.885  10.302  -1.087  1.00  0.00     0.064 A 
ATOM     93  C   UNL     1      12.705  10.277   0.317  1.00  0.00     0.173 A 
ATOM     94  C   UNL     1      13.969   9.562  -1.576  1.00  0.00     0.173 A 
ATOM     95  F   UNL     1      11.651  10.851   0.911  1.00  0.00    -0.203 F 
ATOM     96  C   UNL     1      13.608   9.629   1.166  1.00  0.00     0.198 A 
ATOM     97  C   UNL     1      14.837   8.871  -0.733  1.00  0.00     0.198 A 
ATOM     98  F   UNL     1      14.183   9.486  -2.898  1.00  0.00    -0.203 F 
ATOM     99  F   UNL     1      13.437   9.679   2.496  1.00  0.00    -0.200 F 
ATOM    100  C   UNL     1      14.675   8.929   0.639  1.00  0.00     0.200 A 
ATOM    101  F   UNL     1      15.829   8.144  -1.262  1.00  0.00    -0.200 F 
ATOM    102  F   UNL     1      15.536   8.295   1.447  1.00  0.00    -0.200 F 
ENDBRANCH  69  92
ENDBRANCH  43  44
ENDBRANCH  35  38
ENDBRANCH  33  34
ENDBRANCH  32  33
ENDBRANCH   1  32
TORSDOF 13
