REMARK SMILES NNS(=O)(=O)c1ccc(O)c(C(=O)NCCCCNC(=O)c2ccc(-c3c4nc(c(-c5c(F)c(F)c(F)c(F)c5F)c5ccc([nH]5)c(-c5c(F)c(F)c(F)c(F)c5F)c5nc(c(-c6c(F)c(F)c(F)c(F)c6F)c6ccc3[nH]6)C=C5)C=C4)cc2)c1
REMARK SMILES IDX 16 1 15 2 14 3 12 4 13 5 11 7 6 8 7 9 85 10 8 11 9 12 3 13
REMARK SMILES IDX 4 14 5 15 2 16 1 18 10 21 17 23 18 24 19 25 20 26 21 28
REMARK SMILES IDX 22 29 23 30 84 31 24 32 83 33 25 34 26 35 27 36 77 37 28 38
REMARK SMILES IDX 82 39 76 40 78 41 29 42 81 43 75 44 74 45 30 47 62 48 42 49
REMARK SMILES IDX 61 50 43 51 46 52 60 53 79 54 44 55 45 56 59 58 80 59 47 60
REMARK SMILES IDX 31 61 32 62 40 63 33 64 34 65 38 66 41 67 35 68 36 69 39 70
REMARK SMILES IDX 37 71 63 72 64 73 72 74 65 75 66 76 70 77 73 78 67 79 68 80
REMARK SMILES IDX 71 81 69 82 48 83 49 84 57 85 50 86 51 87 55 88 58 89 52 90
REMARK SMILES IDX 53 91 56 92 54 93
REMARK H PARENT 14 6 2 17 1 19 1 20 10 22 19 27 78 46 46 57
REMARK Flexibility Score: inf
ROOT
ATOM      1  C   UNL     1      -4.836  -1.676   6.454  1.00  0.00     0.023 C 
ENDROOT
BRANCH   1   2
ATOM      2  C   UNL     1      -3.398  -2.163   6.245  1.00  0.00     0.116 C 
BRANCH   2   3
ATOM      3  N   UNL     1      -3.353  -3.123   5.170  1.00  0.00    -0.352 N 
ATOM      4  C   UNL     1      -3.174  -2.995   3.819  1.00  0.00     0.255 C 
ATOM      5  O   UNL     1      -3.284  -4.046   3.178  1.00  0.00    -0.269 OA
ATOM      6  H   UNL     1      -3.476  -4.054   5.466  1.00  0.00     0.163 HD
BRANCH   4   7
ATOM      7  C   UNL     1      -2.793  -1.745   3.078  1.00  0.00     0.082 A 
ATOM      8  C   UNL     1      -1.794  -0.941   0.989  1.00  0.00     0.084 A 
ATOM      9  C   UNL     1      -1.974   0.382   1.381  1.00  0.00     0.025 A 
ATOM     10  C   UNL     1      -2.187  -1.992   1.824  1.00  0.00     0.039 A 
ATOM     11  C   UNL     1      -2.571   0.649   2.605  1.00  0.00     0.048 A 
ATOM     12  C   UNL     1      -3.007  -0.401   3.429  1.00  0.00     0.128 A 
BRANCH   8  13
ATOM     13  S   UNL     1      -1.179  -1.272  -0.644  1.00  0.00     0.253 S 
ATOM     14  O   UNL     1      -1.490  -0.131  -1.483  1.00  0.00    -0.206 OA
ATOM     15  O   UNL     1      -1.588  -2.605  -1.021  1.00  0.00    -0.206 OA
BRANCH  13  16
ATOM     16  N   UNL     1       0.537  -1.337  -0.391  1.00  0.00    -0.150 NA
ATOM     17  H   UNL     1       0.734  -1.988   0.369  1.00  0.00     0.160 HD
BRANCH  16  18
ATOM     18  N   UNL     1       1.071  -0.070  -0.058  1.00  0.00    -0.257 NA
ATOM     19  H   UNL     1       2.078  -0.151   0.082  1.00  0.00     0.138 HD
ATOM     20  H   UNL     1       0.635   0.268   0.800  1.00  0.00     0.138 HD
ENDBRANCH  16  18
ENDBRANCH  13  16
ENDBRANCH   8  13
BRANCH  12  21
ATOM     21  O   UNL     1      -3.705  -0.023   4.536  1.00  0.00    -0.507 OA
ATOM     22  H   UNL     1      -3.821   0.886   4.729  1.00  0.00     0.293 HD
ENDBRANCH  12  21
ENDBRANCH   4   7
ENDBRANCH   2   3
ENDBRANCH   1   2
BRANCH   1  23
ATOM     23  C   UNL     1      -5.680  -2.570   7.361  1.00  0.00     0.023 C 
BRANCH  23  24
ATOM     24  C   UNL     1      -5.174  -2.658   8.792  1.00  0.00     0.116 C 
BRANCH  24  25
ATOM     25  N   UNL     1      -5.060  -1.362   9.443  1.00  0.00    -0.352 N 
ATOM     26  C   UNL     1      -5.205  -1.060  10.773  1.00  0.00     0.251 C 
ATOM     27  H   UNL     1      -4.851  -0.603   8.852  1.00  0.00     0.163 HD
ATOM     28  O   UNL     1      -5.192   0.106  11.153  1.00  0.00    -0.269 OA
BRANCH  26  29
ATOM     29  C   UNL     1      -5.417  -2.155  11.739  1.00  0.00     0.039 A 
ATOM     30  C   UNL     1      -6.430  -2.024  12.689  1.00  0.00     0.014 A 
ATOM     31  C   UNL     1      -4.638  -3.314  11.689  1.00  0.00     0.014 A 
ATOM     32  C   UNL     1      -6.685  -3.076  13.567  1.00  0.00     0.010 A 
ATOM     33  C   UNL     1      -4.957  -4.397  12.498  1.00  0.00     0.010 A 
ATOM     34  C   UNL     1      -5.967  -4.280  13.463  1.00  0.00    -0.014 A 
BRANCH  34  35
ATOM     35  C   UNL     1      -6.240  -5.407  14.388  1.00  0.00     0.031 A 
ATOM     36  C   UNL     1      -5.174  -5.875  15.339  1.00  0.00     0.074 A 
ATOM     37  C   UNL     1      -7.439  -6.018  14.354  1.00  0.00     0.049 A 
ATOM     38  N   UNL     1      -5.226  -6.826  16.238  1.00  0.00    -0.248 NA
ATOM     39  C   UNL     1      -3.865  -5.207  15.253  1.00  0.00     0.031 C 
ATOM     40  C   UNL     1      -8.529  -5.694  13.433  1.00  0.00     0.029 A 
ATOM     41  N   UNL     1      -7.944  -7.038  15.120  1.00  0.00    -0.354 N 
ATOM     42  C   UNL     1      -3.962  -6.871  16.813  1.00  0.00     0.074 A 
ATOM     43  C   UNL     1      -3.143  -5.907  16.114  1.00  0.00     0.031 C 
ATOM     44  C   UNL     1      -9.588  -6.469  13.716  1.00  0.00     0.029 A 
ATOM     45  C   UNL     1      -9.241  -7.367  14.812  1.00  0.00     0.049 A 
ATOM     46  H   UNL     1      -7.425  -7.491  15.825  1.00  0.00     0.167 HD
ATOM     47  C   UNL     1      -3.533  -7.623  17.854  1.00  0.00     0.037 A 
ATOM     48  C   UNL     1     -10.056  -8.288  15.359  1.00  0.00     0.037 A 
ATOM     49  C   UNL     1      -4.358  -8.570  18.556  1.00  0.00     0.049 A 
ATOM     50  C   UNL     1      -9.553  -9.112  16.514  1.00  0.00     0.074 A 
ATOM     51  C   UNL     1      -4.039  -9.347  19.655  1.00  0.00     0.029 A 
ATOM     52  N   UNL     1      -5.670  -8.873  18.220  1.00  0.00    -0.354 N 
ATOM     53  N   UNL     1      -8.383  -9.088  17.105  1.00  0.00    -0.248 NA
ATOM     54  C   UNL     1     -10.495 -10.081  17.088  1.00  0.00     0.031 C 
ATOM     55  C   UNL     1      -5.137 -10.162  19.948  1.00  0.00     0.029 A 
ATOM     56  C   UNL     1      -6.166  -9.844  19.076  1.00  0.00     0.049 A 
ATOM     57  H   UNL     1      -6.175  -8.460  17.483  1.00  0.00     0.167 HD
ATOM     58  C   UNL     1      -8.457 -10.013  18.138  1.00  0.00     0.074 A 
ATOM     59  C   UNL     1      -9.798 -10.560  18.107  1.00  0.00     0.031 C 
ATOM     60  C   UNL     1      -7.504 -10.380  19.031  1.00  0.00     0.037 A 
BRANCH  47  61
ATOM     61  C   UNL     1      -2.106  -7.448  18.294  1.00  0.00     0.064 A 
ATOM     62  C   UNL     1      -1.656  -6.256  18.885  1.00  0.00     0.173 A 
ATOM     63  C   UNL     1      -1.181  -8.492  18.144  1.00  0.00     0.173 A 
ATOM     64  F   UNL     1      -2.494  -5.220  19.040  1.00  0.00    -0.203 F 
ATOM     65  C   UNL     1      -0.328  -6.105  19.276  1.00  0.00     0.198 A 
ATOM     66  C   UNL     1       0.137  -8.350  18.570  1.00  0.00     0.198 A 
ATOM     67  F   UNL     1      -1.556  -9.654  17.588  1.00  0.00    -0.203 F 
ATOM     68  F   UNL     1       0.091  -4.937  19.782  1.00  0.00    -0.200 F 
ATOM     69  C   UNL     1       0.565  -7.154  19.127  1.00  0.00     0.200 A 
ATOM     70  F   UNL     1       0.996  -9.371  18.438  1.00  0.00    -0.200 F 
ATOM     71  F   UNL     1       1.841  -7.010  19.510  1.00  0.00    -0.200 F 
ENDBRANCH  47  61
BRANCH  48  72
ATOM     72  C   UNL     1     -11.442  -8.456  14.846  1.00  0.00     0.064 A 
ATOM     73  C   UNL     1     -12.551  -8.116  15.635  1.00  0.00     0.173 A 
ATOM     74  C   UNL     1     -11.689  -8.974  13.567  1.00  0.00     0.173 A 
ATOM     75  F   UNL     1     -12.369  -7.633  16.873  1.00  0.00    -0.203 F 
ATOM     76  C   UNL     1     -13.851  -8.318  15.177  1.00  0.00     0.198 A 
ATOM     77  C   UNL     1     -12.989  -9.143  13.096  1.00  0.00     0.198 A 
ATOM     78  F   UNL     1     -10.665  -9.308  12.768  1.00  0.00    -0.203 F 
ATOM     79  F   UNL     1     -14.891  -8.039  15.975  1.00  0.00    -0.200 F 
ATOM     80  C   UNL     1     -14.069  -8.826  13.906  1.00  0.00     0.200 A 
ATOM     81  F   UNL     1     -13.196  -9.618  11.860  1.00  0.00    -0.200 F 
ATOM     82  F   UNL     1     -15.320  -9.019  13.465  1.00  0.00    -0.200 F 
ENDBRANCH  48  72
BRANCH  60  83
ATOM     83  C   UNL     1      -7.895 -11.393  20.070  1.00  0.00     0.064 A 
ATOM     84  C   UNL     1      -8.179 -12.726  19.736  1.00  0.00     0.173 A 
ATOM     85  C   UNL     1      -7.984 -11.024  21.422  1.00  0.00     0.173 A 
ATOM     86  F   UNL     1      -8.120 -13.130  18.458  1.00  0.00    -0.203 F 
ATOM     87  C   UNL     1      -8.587 -13.637  20.707  1.00  0.00     0.198 A 
ATOM     88  C   UNL     1      -8.352 -11.947  22.396  1.00  0.00     0.198 A 
ATOM     89  F   UNL     1      -7.711  -9.766  21.800  1.00  0.00    -0.203 F 
ATOM     90  F   UNL     1      -8.928 -14.883  20.353  1.00  0.00    -0.200 F 
ATOM     91  C   UNL     1      -8.668 -13.248  22.036  1.00  0.00     0.200 A 
ATOM     92  F   UNL     1      -8.410 -11.575  23.681  1.00  0.00    -0.200 F 
ATOM     93  F   UNL     1      -9.064 -14.125  22.969  1.00  0.00    -0.200 F 
ENDBRANCH  60  83
ENDBRANCH  34  35
ENDBRANCH  26  29
ENDBRANCH  24  25
ENDBRANCH  23  24
ENDBRANCH   1  23
TORSDOF 15
