REMARK SMILES Cc1ccc(C)c(-n2nc(C)c(/C=C(/C#N)C(=O)NCCCCNC(=O)c3ccc(-c4c5nc(c(-c6c(F)c(F)c(F)c(F)c6F)c6ccc([nH]6)c(-c6c(F)c(F)c(F)c(F)c6F)c6nc(c(-c7c(F)c(F)c(F)c(F)c7F)c7ccc4[nH]7)C=C6)C=C5)cc3)c2Cl)c1
REMARK SMILES IDX 21 1 20 2 19 3 17 4 18 5 14 7 13 8 12 9 8 10 9 11 90 12
REMARK SMILES IDX 10 13 91 14 11 15 7 16 1 17 2 18 3 19 92 20 4 21 5 22 6 23
REMARK SMILES IDX 15 24 16 25 22 26 23 27 24 28 25 29 26 31 27 32 28 33 89 34
REMARK SMILES IDX 29 35 88 36 30 37 31 38 32 39 82 40 33 41 87 42 81 43 83 44
REMARK SMILES IDX 34 45 86 46 80 47 79 48 35 50 67 51 47 52 66 53 48 54 51 55
REMARK SMILES IDX 65 56 84 57 49 58 50 59 64 61 85 62 52 63 36 64 37 65 45 66
REMARK SMILES IDX 38 67 39 68 43 69 46 70 40 71 41 72 44 73 42 74 68 75 69 76
REMARK SMILES IDX 77 77 70 78 71 79 75 80 78 81 72 82 73 83 76 84 74 85 53 86
REMARK SMILES IDX 54 87 62 88 55 89 56 90 60 91 63 92 57 93 58 94 61 95 59 96
REMARK H PARENT 19 6 24 30 83 49 51 60
REMARK Flexibility Score: inf
ROOT
ATOM      1  C   UNL     1      -6.236   9.337  -1.470  1.00  0.00     0.023 C 
ENDROOT
BRANCH   1   2
ATOM      2  C   UNL     1      -5.140   9.021  -0.436  1.00  0.00     0.116 C 
BRANCH   2   3
ATOM      3  N   UNL     1      -5.068   7.592  -0.179  1.00  0.00    -0.351 N 
ATOM      4  C   UNL     1      -4.351   6.584  -0.756  1.00  0.00     0.261 C 
ATOM      5  O   UNL     1      -4.842   5.458  -0.695  1.00  0.00    -0.268 OA
ATOM      6  H   UNL     1      -5.651   7.292   0.555  1.00  0.00     0.163 HD
BRANCH   4   7
ATOM      7  C   UNL     1      -3.024   6.816  -1.421  1.00  0.00     0.117 C 
ATOM      8  C   UNL     1      -2.006   5.940  -1.329  1.00  0.00     0.038 C 
BRANCH   8   9
ATOM      9  C   UNL     1      -1.922   4.697  -0.594  1.00  0.00     0.036 A 
ATOM     10  N   UNL     1      -1.377   2.570  -0.151  1.00  0.00    -0.221 N 
ATOM     11  N   UNL     1      -2.215   2.928   0.848  1.00  0.00    -0.171 NA
ATOM     12  C   UNL     1      -1.174   3.620  -1.021  1.00  0.00     0.140 A 
ATOM     13  C   UNL     1      -2.499   4.221   0.627  1.00  0.00     0.069 A 
ATOM     14  Cl  UNL     1      -0.253   3.413  -2.452  1.00  0.00    -0.061 Cl
ATOM     15  C   UNL     1      -3.318   4.900   1.669  1.00  0.00     0.069 C 
BRANCH  10  16
ATOM     16  C   UNL     1      -0.738   1.304  -0.098  1.00  0.00     0.069 A 
ATOM     17  C   UNL     1       2.862   0.036  -0.021  1.00  0.00     0.044 C 
ATOM     18  C   UNL     1       1.363   0.068  -0.022  1.00  0.00    -0.049 A 
ATOM     19  C   UNL     1       0.638  -1.121   0.091  1.00  0.00     0.004 A 
ATOM     20  C   UNL     1       0.669   1.277  -0.129  1.00  0.00     0.032 A 
ATOM     21  C   UNL     1      -0.759  -1.099   0.126  1.00  0.00     0.006 A 
ATOM     22  C   UNL     1      -1.472   0.111   0.044  1.00  0.00    -0.025 A 
ATOM     23  C   UNL     1      -2.974   0.019   0.044  1.00  0.00     0.047 C 
ENDBRANCH  10  16
ENDBRANCH   8   9
BRANCH   7  24
ATOM     24  C   UNL     1      -3.058   7.979  -2.401  1.00  0.00     0.105 C 
ATOM     25  N   UNL     1      -3.086   8.943  -3.213  1.00  0.00    -0.192 NA
ENDBRANCH   7  24
ENDBRANCH   4   7
ENDBRANCH   2   3
ENDBRANCH   1   2
BRANCH   1  26
ATOM     26  C   UNL     1      -7.682   9.326  -0.936  1.00  0.00     0.023 C 
BRANCH  26  27
ATOM     27  C   UNL     1      -8.149  10.556  -0.140  1.00  0.00     0.116 C 
BRANCH  27  28
ATOM     28  N   UNL     1      -8.025  11.830  -0.871  1.00  0.00    -0.352 N 
ATOM     29  C   UNL     1      -7.515  13.086  -0.547  1.00  0.00     0.251 C 
ATOM     30  H   UNL     1      -8.379  11.783  -1.788  1.00  0.00     0.163 HD
ATOM     31  O   UNL     1      -7.770  14.044  -1.250  1.00  0.00    -0.269 OA
BRANCH  29  32
ATOM     32  C   UNL     1      -6.621  13.266   0.622  1.00  0.00     0.039 A 
ATOM     33  C   UNL     1      -6.058  14.481   1.025  1.00  0.00     0.014 A 
ATOM     34  C   UNL     1      -6.119  12.125   1.192  1.00  0.00     0.014 A 
ATOM     35  C   UNL     1      -4.951  14.454   1.896  1.00  0.00     0.010 A 
ATOM     36  C   UNL     1      -5.444  12.167   2.366  1.00  0.00     0.010 A 
ATOM     37  C   UNL     1      -4.593  13.241   2.484  1.00  0.00    -0.014 A 
BRANCH  37  38
ATOM     38  C   UNL     1      -3.420  12.958   3.294  1.00  0.00     0.031 A 
ATOM     39  C   UNL     1      -3.631  13.083   4.757  1.00  0.00     0.074 A 
ATOM     40  C   UNL     1      -2.416  12.170   2.849  1.00  0.00     0.049 A 
ATOM     41  N   UNL     1      -3.215  14.021   5.540  1.00  0.00    -0.248 NA
ATOM     42  C   UNL     1      -4.571  12.145   5.398  1.00  0.00     0.031 C 
ATOM     43  C   UNL     1      -2.284  11.469   1.566  1.00  0.00     0.029 A 
ATOM     44  N   UNL     1      -1.325  11.738   3.539  1.00  0.00    -0.354 N 
ATOM     45  C   UNL     1      -3.707  13.690   6.800  1.00  0.00     0.074 A 
ATOM     46  C   UNL     1      -4.762  12.746   6.571  1.00  0.00     0.031 C 
ATOM     47  C   UNL     1      -1.269  10.573   1.645  1.00  0.00     0.029 A 
ATOM     48  C   UNL     1      -0.608  10.717   2.933  1.00  0.00     0.049 A 
ATOM     49  H   UNL     1      -1.064  12.123   4.407  1.00  0.00     0.167 HD
ATOM     50  C   UNL     1      -3.019  13.975   7.941  1.00  0.00     0.037 A 
ATOM     51  C   UNL     1       0.414  10.022   3.494  1.00  0.00     0.037 A 
ATOM     52  C   UNL     1      -1.918  14.867   7.654  1.00  0.00     0.049 A 
ATOM     53  C   UNL     1       0.868  10.785   4.690  1.00  0.00     0.074 A 
ATOM     54  C   UNL     1      -1.805  16.115   7.069  1.00  0.00     0.029 A 
ATOM     55  N   UNL     1      -0.651  14.332   7.620  1.00  0.00    -0.354 N 
ATOM     56  N   UNL     1       1.471  11.941   4.642  1.00  0.00    -0.248 NA
ATOM     57  C   UNL     1       0.258  10.456   5.971  1.00  0.00     0.031 C 
ATOM     58  C   UNL     1      -0.617  16.047   6.280  1.00  0.00     0.029 A 
ATOM     59  C   UNL     1      -0.045  14.790   6.479  1.00  0.00     0.049 A 
ATOM     60  H   UNL     1      -0.253  13.732   8.291  1.00  0.00     0.167 HD
ATOM     61  C   UNL     1       0.970  12.650   5.724  1.00  0.00     0.074 A 
ATOM     62  C   UNL     1       0.305  11.655   6.559  1.00  0.00     0.031 C 
ATOM     63  C   UNL     1       0.885  14.012   5.694  1.00  0.00     0.037 A 
BRANCH  50  64
ATOM     64  C   UNL     1      -3.083  13.174   9.230  1.00  0.00     0.064 A 
ATOM     65  C   UNL     1      -2.351  13.644  10.341  1.00  0.00     0.173 A 
ATOM     66  C   UNL     1      -3.591  11.862   9.367  1.00  0.00     0.173 A 
ATOM     67  F   UNL     1      -1.831  14.880  10.345  1.00  0.00    -0.203 F 
ATOM     68  C   UNL     1      -2.050  12.828  11.435  1.00  0.00     0.198 A 
ATOM     69  C   UNL     1      -3.339  11.071  10.488  1.00  0.00     0.198 A 
ATOM     70  F   UNL     1      -4.264  11.233   8.401  1.00  0.00    -0.203 F 
ATOM     71  F   UNL     1      -1.229  13.279  12.391  1.00  0.00    -0.200 F 
ATOM     72  C   UNL     1      -2.534  11.537  11.502  1.00  0.00     0.200 A 
ATOM     73  F   UNL     1      -3.820   9.820  10.528  1.00  0.00    -0.200 F 
ATOM     74  F   UNL     1      -2.191  10.729  12.512  1.00  0.00    -0.200 F 
ENDBRANCH  50  64
BRANCH  51  75
ATOM     75  C   UNL     1       0.864   8.631   3.246  1.00  0.00     0.064 A 
ATOM     76  C   UNL     1       2.144   8.198   3.636  1.00  0.00     0.173 A 
ATOM     77  C   UNL     1      -0.045   7.627   2.868  1.00  0.00     0.173 A 
ATOM     78  F   UNL     1       3.058   9.086   4.052  1.00  0.00    -0.203 F 
ATOM     79  C   UNL     1       2.486   6.840   3.667  1.00  0.00     0.198 A 
ATOM     80  C   UNL     1       0.301   6.275   2.900  1.00  0.00     0.198 A 
ATOM     81  F   UNL     1      -1.312   7.928   2.546  1.00  0.00    -0.203 F 
ATOM     82  F   UNL     1       3.698   6.463   4.098  1.00  0.00    -0.200 F 
ATOM     83  C   UNL     1       1.560   5.879   3.307  1.00  0.00     0.200 A 
ATOM     84  F   UNL     1      -0.615   5.352   2.594  1.00  0.00    -0.200 F 
ATOM     85  F   UNL     1       1.862   4.576   3.388  1.00  0.00    -0.200 F 
ENDBRANCH  51  75
BRANCH  63  86
ATOM     86  C   UNL     1       1.609  14.741   4.598  1.00  0.00     0.064 A 
ATOM     87  C   UNL     1       1.300  14.609   3.233  1.00  0.00     0.173 A 
ATOM     88  C   UNL     1       2.532  15.732   4.957  1.00  0.00     0.173 A 
ATOM     89  F   UNL     1       0.358  13.754   2.818  1.00  0.00    -0.203 F 
ATOM     90  C   UNL     1       1.914  15.410   2.272  1.00  0.00     0.198 A 
ATOM     91  C   UNL     1       3.116  16.555   3.999  1.00  0.00     0.198 A 
ATOM     92  F   UNL     1       2.825  15.938   6.250  1.00  0.00    -0.203 F 
ATOM     93  F   UNL     1       1.604  15.260   0.976  1.00  0.00    -0.200 F 
ATOM     94  C   UNL     1       2.813  16.389   2.657  1.00  0.00     0.200 A 
ATOM     95  F   UNL     1       3.948  17.534   4.381  1.00  0.00    -0.200 F 
ATOM     96  F   UNL     1       3.366  17.193   1.738  1.00  0.00    -0.200 F 
ENDBRANCH  63  86
ENDBRANCH  37  38
ENDBRANCH  29  32
ENDBRANCH  27  28
ENDBRANCH  26  27
ENDBRANCH   1  26
TORSDOF 14
