REMARK SMILES Cc1cccc(-n2c(C)cc(/C=N\c3ccc(O)c(C(=O)NCCCCNC(=O)c4ccc(-c5c6nc(c(-c7c(F)c(F)c(F)c(F)c7F)c7ccc([nH]7)c(-c7c(F)c(F)c(F)c(F)c7F)c7nc(c(-c8c(F)c(F)c(F)c(F)c8F)c8ccc5[nH]8)C=C7)C=C6)cc4)c3)c2C)c1
REMARK SMILES IDX 24 1 23 2 22 3 20 4 21 5 19 7 14 8 15 9 93 10 16 11 17 12
REMARK SMILES IDX 13 13 12 14 11 15 7 16 8 17 94 18 9 19 10 20 95 21 6 22 1 23
REMARK SMILES IDX 2 24 3 25 96 26 4 27 5 28 18 29 25 31 26 32 27 33 28 34
REMARK SMILES IDX 29 36 30 37 31 38 92 39 32 40 91 41 33 42 34 43 35 44 85 45
REMARK SMILES IDX 36 46 90 47 84 48 86 49 37 50 89 51 83 52 82 53 38 55 70 56
REMARK SMILES IDX 50 57 69 58 51 59 54 60 68 61 87 62 52 63 53 64 67 66 88 67
REMARK SMILES IDX 55 68 39 69 40 70 48 71 41 72 42 73 46 74 49 75 43 76 44 77
REMARK SMILES IDX 47 78 45 79 71 80 72 81 80 82 73 83 74 84 78 85 81 86 75 87
REMARK SMILES IDX 76 88 79 89 77 90 56 91 57 92 65 93 58 94 59 95 63 96 66 97
REMARK SMILES IDX 60 98 61 99 64 100 62 101
REMARK H PARENT 22 6 18 30 27 35 86 54 54 65
REMARK Flexibility Score: inf
ROOT
ATOM      1  C   UNL     1      -3.929  -1.292   8.096  1.00  0.00     0.023 C 
ENDROOT
BRANCH   1   2
ATOM      2  C   UNL     1      -3.820  -1.094   6.588  1.00  0.00     0.116 C 
BRANCH   2   3
ATOM      3  N   UNL     1      -5.053  -0.785   5.878  1.00  0.00    -0.352 N 
ATOM      4  C   UNL     1      -5.343   0.157   4.911  1.00  0.00     0.255 C 
ATOM      5  O   UNL     1      -6.476   0.136   4.427  1.00  0.00    -0.269 OA
ATOM      6  H   UNL     1      -5.818  -1.350   6.134  1.00  0.00     0.163 HD
BRANCH   4   7
ATOM      7  C   UNL     1      -4.376   1.196   4.445  1.00  0.00     0.083 A 
ATOM      8  C   UNL     1      -4.061   3.365   3.365  1.00  0.00     0.064 A 
ATOM      9  C   UNL     1      -2.693   3.299   3.622  1.00  0.00     0.032 A 
ATOM     10  C   UNL     1      -4.906   2.379   3.901  1.00  0.00     0.046 A 
ATOM     11  C   UNL     1      -2.149   2.120   4.115  1.00  0.00     0.049 A 
ATOM     12  C   UNL     1      -2.989   1.041   4.384  1.00  0.00     0.128 A 
BRANCH   8  13
ATOM     13  N   UNL     1      -4.603   4.359   2.548  1.00  0.00    -0.256 NA
ATOM     14  C   UNL     1      -4.243   4.529   1.305  1.00  0.00     0.121 C 
BRANCH  14  15
ATOM     15  C   UNL     1      -3.272   3.808   0.471  1.00  0.00     0.014 A 
ATOM     16  N   UNL     1      -1.878   2.302  -0.493  1.00  0.00    -0.318 N 
ATOM     17  C   UNL     1      -1.646   3.520  -1.111  1.00  0.00     0.021 A 
ATOM     18  C   UNL     1      -3.000   2.445   0.333  1.00  0.00     0.029 A 
ATOM     19  C   UNL     1      -0.729   3.695  -2.274  1.00  0.00     0.065 C 
ATOM     20  C   UNL     1      -2.461   4.456  -0.507  1.00  0.00     0.033 A 
ATOM     21  C   UNL     1      -3.657   1.270   0.965  1.00  0.00     0.065 C 
BRANCH  16  22
ATOM     22  C   UNL     1      -1.061   1.136  -0.616  1.00  0.00     0.046 A 
ATOM     23  C   UNL     1       2.578   0.154  -0.011  1.00  0.00     0.044 C 
ATOM     24  C   UNL     1       1.112   0.081  -0.324  1.00  0.00    -0.049 A 
ATOM     25  C   UNL     1       0.516  -1.171  -0.526  1.00  0.00     0.003 A 
ATOM     26  C   UNL     1       0.318   1.238  -0.375  1.00  0.00     0.030 A 
ATOM     27  C   UNL     1      -0.844  -1.266  -0.815  1.00  0.00     0.002 A 
ATOM     28  C   UNL     1      -1.628  -0.115  -0.873  1.00  0.00     0.026 A 
ENDBRANCH  16  22
ENDBRANCH  14  15
ENDBRANCH   8  13
BRANCH  12  29
ATOM     29  O   UNL     1      -2.368  -0.181   4.379  1.00  0.00    -0.507 OA
ATOM     30  H   UNL     1      -1.433  -0.231   4.337  1.00  0.00     0.293 HD
ENDBRANCH  12  29
ENDBRANCH   4   7
ENDBRANCH   2   3
ENDBRANCH   1   2
BRANCH   1  31
ATOM     31  C   UNL     1      -4.893  -2.350   8.604  1.00  0.00     0.023 C 
BRANCH  31  32
ATOM     32  C   UNL     1      -4.676  -3.763   8.092  1.00  0.00     0.116 C 
BRANCH  32  33
ATOM     33  N   UNL     1      -3.575  -4.505   8.685  1.00  0.00    -0.352 N 
ATOM     34  C   UNL     1      -3.161  -5.807   8.454  1.00  0.00     0.251 C 
ATOM     35  H   UNL     1      -3.044  -4.008   9.349  1.00  0.00     0.163 HD
ATOM     36  O   UNL     1      -2.249  -6.273   9.139  1.00  0.00    -0.269 OA
BRANCH  34  37
ATOM     37  C   UNL     1      -3.704  -6.613   7.322  1.00  0.00     0.039 A 
ATOM     38  C   UNL     1      -2.866  -7.548   6.692  1.00  0.00     0.014 A 
ATOM     39  C   UNL     1      -4.960  -6.371   6.780  1.00  0.00     0.014 A 
ATOM     40  C   UNL     1      -3.198  -8.046   5.428  1.00  0.00     0.010 A 
ATOM     41  C   UNL     1      -5.236  -6.755   5.487  1.00  0.00     0.010 A 
ATOM     42  C   UNL     1      -4.334  -7.554   4.789  1.00  0.00    -0.014 A 
BRANCH  42  43
ATOM     43  C   UNL     1      -4.619  -7.694   3.370  1.00  0.00     0.031 A 
ATOM     44  C   UNL     1      -5.745  -8.518   2.887  1.00  0.00     0.074 A 
ATOM     45  C   UNL     1      -3.977  -6.873   2.509  1.00  0.00     0.049 A 
ATOM     46  N   UNL     1      -5.819  -8.991   1.688  1.00  0.00    -0.248 NA
ATOM     47  C   UNL     1      -6.893  -8.870   3.717  1.00  0.00     0.031 C 
ATOM     48  C   UNL     1      -4.341  -6.576   1.126  1.00  0.00     0.029 A 
ATOM     49  N   UNL     1      -2.729  -6.251   2.680  1.00  0.00    -0.354 N 
ATOM     50  C   UNL     1      -7.109  -9.425   1.498  1.00  0.00     0.074 A 
ATOM     51  C   UNL     1      -7.721  -9.395   2.807  1.00  0.00     0.031 C 
ATOM     52  C   UNL     1      -3.256  -6.119   0.483  1.00  0.00     0.029 A 
ATOM     53  C   UNL     1      -2.136  -6.245   1.397  1.00  0.00     0.049 A 
ATOM     54  H   UNL     1      -2.349  -5.895   3.516  1.00  0.00     0.167 HD
ATOM     55  C   UNL     1      -7.577  -9.621   0.233  1.00  0.00     0.037 A 
ATOM     56  C   UNL     1      -0.999  -6.956   1.147  1.00  0.00     0.037 A 
ATOM     57  C   UNL     1      -6.562  -9.318  -0.771  1.00  0.00     0.049 A 
ATOM     58  C   UNL     1      -1.155  -8.006   0.073  1.00  0.00     0.074 A 
ATOM     59  C   UNL     1      -6.339  -8.210  -1.573  1.00  0.00     0.029 A 
ATOM     60  N   UNL     1      -5.399 -10.078  -0.825  1.00  0.00    -0.354 N 
ATOM     61  N   UNL     1      -2.305  -8.475  -0.326  1.00  0.00    -0.248 NA
ATOM     62  C   UNL     1      -0.033  -8.622  -0.626  1.00  0.00     0.031 C 
ATOM     63  C   UNL     1      -5.029  -8.298  -2.100  1.00  0.00     0.029 A 
ATOM     64  C   UNL     1      -4.455  -9.463  -1.624  1.00  0.00     0.049 A 
ATOM     65  H   UNL     1      -5.266 -10.935  -0.359  1.00  0.00     0.167 HD
ATOM     66  C   UNL     1      -2.108  -9.424  -1.298  1.00  0.00     0.074 A 
ATOM     67  C   UNL     1      -0.667  -9.464  -1.462  1.00  0.00     0.031 C 
ATOM     68  C   UNL     1      -3.162 -10.081  -1.874  1.00  0.00     0.037 A 
BRANCH  55  69
ATOM     69  C   UNL     1      -9.046  -9.794  -0.064  1.00  0.00     0.064 A 
ATOM     70  C   UNL     1      -9.650  -9.195  -1.189  1.00  0.00     0.173 A 
ATOM     71  C   UNL     1      -9.919 -10.515   0.769  1.00  0.00     0.173 A 
ATOM     72  F   UNL     1      -8.930  -8.557  -2.119  1.00  0.00    -0.203 F 
ATOM     73  C   UNL     1     -11.031  -9.216  -1.396  1.00  0.00     0.198 A 
ATOM     74  C   UNL     1     -11.307 -10.494   0.592  1.00  0.00     0.198 A 
ATOM     75  F   UNL     1      -9.445 -11.275   1.768  1.00  0.00    -0.203 F 
ATOM     76  F   UNL     1     -11.551  -8.614  -2.475  1.00  0.00    -0.200 F 
ATOM     77  C   UNL     1     -11.864  -9.832  -0.485  1.00  0.00     0.200 A 
ATOM     78  F   UNL     1     -12.101 -11.109   1.480  1.00  0.00    -0.200 F 
ATOM     79  F   UNL     1     -13.192  -9.803  -0.653  1.00  0.00    -0.200 F 
ENDBRANCH  55  69
BRANCH  56  80
ATOM     80  C   UNL     1      -0.106  -7.048   2.332  1.00  0.00     0.064 A 
ATOM     81  C   UNL     1       0.445  -5.852   2.834  1.00  0.00     0.173 A 
ATOM     82  C   UNL     1      -0.126  -8.158   3.184  1.00  0.00     0.173 A 
ATOM     83  F   UNL     1       0.480  -4.756   2.059  1.00  0.00    -0.203 F 
ATOM     84  C   UNL     1       0.843  -5.738   4.164  1.00  0.00     0.198 A 
ATOM     85  C   UNL     1       0.289  -8.044   4.514  1.00  0.00     0.198 A 
ATOM     86  F   UNL     1      -0.659  -9.318   2.774  1.00  0.00    -0.203 F 
ATOM     87  F   UNL     1       1.250  -4.553   4.641  1.00  0.00    -0.200 F 
ATOM     88  C   UNL     1       0.737  -6.827   5.011  1.00  0.00     0.200 A 
ATOM     89  F   UNL     1       0.163  -9.090   5.343  1.00  0.00    -0.200 F 
ATOM     90  F   UNL     1       1.028  -6.697   6.313  1.00  0.00    -0.200 F 
ENDBRANCH  56  80
BRANCH  68  91
ATOM     91  C   UNL     1      -3.119 -11.280  -2.804  1.00  0.00     0.064 A 
ATOM     92  C   UNL     1      -2.041 -12.172  -2.911  1.00  0.00     0.173 A 
ATOM     93  C   UNL     1      -4.274 -11.649  -3.547  1.00  0.00     0.173 A 
ATOM     94  F   UNL     1      -0.931 -12.022  -2.180  1.00  0.00    -0.203 F 
ATOM     95  C   UNL     1      -2.090 -13.302  -3.737  1.00  0.00     0.198 A 
ATOM     96  C   UNL     1      -4.341 -12.808  -4.318  1.00  0.00     0.198 A 
ATOM     97  F   UNL     1      -5.394 -10.910  -3.531  1.00  0.00    -0.203 F 
ATOM     98  F   UNL     1      -1.014 -14.096  -3.835  1.00  0.00    -0.200 F 
ATOM     99  C   UNL     1      -3.242 -13.628  -4.427  1.00  0.00     0.200 A 
ATOM    100  F   UNL     1      -5.487 -13.131  -4.936  1.00  0.00    -0.200 F 
ATOM    101  F   UNL     1      -3.298 -14.738  -5.175  1.00  0.00    -0.200 F 
ENDBRANCH  68  91
ENDBRANCH  42  43
ENDBRANCH  34  37
ENDBRANCH  32  33
ENDBRANCH  31  32
ENDBRANCH   1  31
TORSDOF 15
