REMARK SMILES O=C(CC[C@@]1(c2ccccc2)NC(=O)N(CC(=O)Nc2cccc(F)c2)C1=O)NCCCCNC(=O)c1ccc(-c2c3nc(c(-c4c(F)c(F)c(F)c(F)c4F)c4ccc([nH]4)c(-c4c(F)c(F)c(F)c(F)c4F)c4nc(c(-c5c(F)c(F)c(F)c(F)c5F)c5ccc2[nH]5)C=C4)C=C3)cc1
REMARK SMILES IDX 30 1 29 2 1 3 2 4 3 6 4 7 5 8 12 9 27 10 13 11 15 13 28 14
REMARK SMILES IDX 14 15 6 16 7 17 11 18 8 19 10 20 9 21 16 22 17 23 18 24
REMARK SMILES IDX 19 25 20 27 21 28 26 29 22 30 24 31 23 32 25 33 31 34 32 35
REMARK SMILES IDX 33 36 34 37 35 38 36 40 37 41 38 42 99 43 39 44 98 45 40 46
REMARK SMILES IDX 41 47 42 48 92 49 43 50 97 51 91 52 93 53 44 54 96 55 90 56
REMARK SMILES IDX 89 57 45 59 77 60 57 61 76 62 58 63 61 64 75 65 94 66 59 67
REMARK SMILES IDX 60 68 74 70 95 71 62 72 46 73 47 74 55 75 48 76 49 77 53 78
REMARK SMILES IDX 56 79 50 80 51 81 54 82 52 83 78 84 79 85 87 86 80 87 81 88
REMARK SMILES IDX 85 89 88 90 82 91 83 92 86 93 84 94 63 95 64 96 72 97 65 98
REMARK SMILES IDX 66 99 70 100 73 101 67 102 68 103 71 104 69 105
REMARK H PARENT 29 5 12 12 19 26 34 39 93 58 61 69
REMARK Flexibility Score: inf
ROOT
ATOM      1  C   UNL     1       3.194   5.224   1.861  1.00  0.00     0.116 C 
ENDROOT
BRANCH   1   2
ATOM      2  N   UNL     1       4.051   4.195   1.293  1.00  0.00    -0.356 N 
ATOM      3  O   UNL     1       5.804   5.558   0.842  1.00  0.00    -0.275 OA
ATOM      4  C   UNL     1       5.323   4.423   0.863  1.00  0.00     0.220 C 
ATOM      5  H   UNL     1       3.692   3.282   1.216  1.00  0.00     0.163 HD
BRANCH   4   6
ATOM      6  C   UNL     1       6.171   3.267   0.328  1.00  0.00     0.103 C 
BRANCH   6   7
ATOM      7  C   UNL     1       5.931   1.753   0.472  1.00  0.00     0.053 C 
BRANCH   7   8
ATOM      8  C   UNL     1       4.546   1.049   0.356  1.00  0.00     0.147 C 
ATOM      9  N   UNL     1       4.723  -0.386   0.150  1.00  0.00    -0.319 N 
ATOM     10  C   UNL     1       4.020   0.951   1.819  1.00  0.00     0.261 C 
ATOM     11  C   UNL     1       4.428  -1.141   1.258  1.00  0.00     0.325 C 
ATOM     12  H   UNL     1       5.024  -0.774  -0.702  1.00  0.00     0.166 HD
ATOM     13  N   UNL     1       4.218  -0.306   2.300  1.00  0.00    -0.252 N 
ATOM     14  O   UNL     1       3.555   1.882   2.461  1.00  0.00    -0.271 OA
ATOM     15  O   UNL     1       4.352  -2.361   1.262  1.00  0.00    -0.248 OA
BRANCH   8  16
ATOM     16  C   UNL     1       3.534   1.526  -0.673  1.00  0.00    -0.013 A 
ATOM     17  C   UNL     1       2.214   1.030  -0.654  1.00  0.00     0.007 A 
ATOM     18  C   UNL     1       3.868   2.401  -1.717  1.00  0.00     0.007 A 
ATOM     19  C   UNL     1       1.258   1.467  -1.578  1.00  0.00     0.000 A 
ATOM     20  C   UNL     1       2.907   2.873  -2.614  1.00  0.00     0.000 A 
ATOM     21  C   UNL     1       1.598   2.414  -2.538  1.00  0.00     0.000 A 
ENDBRANCH   8  16
BRANCH  13  22
ATOM     22  C   UNL     1       4.035  -0.716   3.674  1.00  0.00     0.230 C 
BRANCH  22  23
ATOM     23  C   UNL     1       5.157  -0.314   4.657  1.00  0.00     0.244 C 
ATOM     24  O   UNL     1       4.934   0.529   5.534  1.00  0.00    -0.273 OA
ATOM     25  N   UNL     1       6.350  -0.988   4.726  1.00  0.00    -0.324 N 
ATOM     26  H   UNL     1       6.845  -0.860   5.567  1.00  0.00     0.170 HD
BRANCH  25  27
ATOM     27  C   UNL     1       6.979  -1.827   3.801  1.00  0.00     0.044 A 
ATOM     28  C   UNL     1       7.583  -3.004   4.245  1.00  0.00     0.026 A 
ATOM     29  C   UNL     1       7.114  -1.471   2.467  1.00  0.00     0.065 A 
ATOM     30  C   UNL     1       8.158  -3.890   3.325  1.00  0.00     0.005 A 
ATOM     31  C   UNL     1       7.669  -2.357   1.552  1.00  0.00     0.125 A 
ATOM     32  C   UNL     1       8.169  -3.581   1.966  1.00  0.00     0.039 A 
ATOM     33  F   UNL     1       7.715  -2.017   0.257  1.00  0.00    -0.207 F 
ENDBRANCH  25  27
ENDBRANCH  22  23
ENDBRANCH  13  22
ENDBRANCH   7   8
ENDBRANCH   6   7
ENDBRANCH   4   6
ENDBRANCH   1   2
BRANCH   1  34
ATOM     34  C   UNL     1       1.883   5.433   1.097  1.00  0.00     0.023 C 
BRANCH  34  35
ATOM     35  C   UNL     1       1.043   4.183   0.833  1.00  0.00     0.023 C 
BRANCH  35  36
ATOM     36  C   UNL     1       0.606   3.355   2.038  1.00  0.00     0.116 C 
BRANCH  36  37
ATOM     37  N   UNL     1      -0.426   4.000   2.826  1.00  0.00    -0.352 N 
ATOM     38  C   UNL     1      -1.673   3.573   3.210  1.00  0.00     0.251 C 
ATOM     39  H   UNL     1      -0.191   4.903   3.142  1.00  0.00     0.163 HD
ATOM     40  O   UNL     1      -2.412   4.361   3.799  1.00  0.00    -0.269 OA
BRANCH  38  41
ATOM     41  C   UNL     1      -2.179   2.206   2.913  1.00  0.00     0.039 A 
ATOM     42  C   UNL     1      -3.536   2.067   2.596  1.00  0.00     0.014 A 
ATOM     43  C   UNL     1      -1.386   1.059   3.010  1.00  0.00     0.014 A 
ATOM     44  C   UNL     1      -4.081   0.806   2.327  1.00  0.00     0.010 A 
ATOM     45  C   UNL     1      -1.915  -0.196   2.676  1.00  0.00     0.010 A 
ATOM     46  C   UNL     1      -3.269  -0.338   2.330  1.00  0.00    -0.014 A 
BRANCH  46  47
ATOM     47  C   UNL     1      -3.827  -1.673   1.966  1.00  0.00     0.031 A 
ATOM     48  C   UNL     1      -3.878  -2.792   2.971  1.00  0.00     0.074 A 
ATOM     49  C   UNL     1      -4.261  -1.895   0.709  1.00  0.00     0.049 A 
ATOM     50  N   UNL     1      -4.283  -4.030   2.817  1.00  0.00    -0.248 NA
ATOM     51  C   UNL     1      -3.396  -2.486   4.325  1.00  0.00     0.031 C 
ATOM     52  C   UNL     1      -4.247  -0.912  -0.375  1.00  0.00     0.029 A 
ATOM     53  N   UNL     1      -4.791  -3.022   0.126  1.00  0.00    -0.354 N 
ATOM     54  C   UNL     1      -4.097  -4.649   4.047  1.00  0.00     0.074 A 
ATOM     55  C   UNL     1      -3.495  -3.665   4.923  1.00  0.00     0.031 C 
ATOM     56  C   UNL     1      -4.757  -1.471  -1.483  1.00  0.00     0.029 A 
ATOM     57  C   UNL     1      -5.096  -2.864  -1.205  1.00  0.00     0.049 A 
ATOM     58  H   UNL     1      -4.938  -3.864   0.615  1.00  0.00     0.167 HD
ATOM     59  C   UNL     1      -4.417  -5.913   4.420  1.00  0.00     0.037 A 
ATOM     60  C   UNL     1      -5.580  -3.741  -2.106  1.00  0.00     0.037 A 
ATOM     61  C   UNL     1      -5.026  -6.892   3.555  1.00  0.00     0.049 A 
ATOM     62  C   UNL     1      -5.896  -5.149  -1.676  1.00  0.00     0.074 A 
ATOM     63  C   UNL     1      -5.425  -8.183   3.858  1.00  0.00     0.029 A 
ATOM     64  N   UNL     1      -5.318  -6.692   2.213  1.00  0.00    -0.354 N 
ATOM     65  N   UNL     1      -5.768  -5.703  -0.495  1.00  0.00    -0.248 NA
ATOM     66  C   UNL     1      -6.430  -6.053  -2.705  1.00  0.00     0.031 C 
ATOM     67  C   UNL     1      -5.906  -8.782   2.689  1.00  0.00     0.029 A 
ATOM     68  C   UNL     1      -5.867  -7.844   1.670  1.00  0.00     0.049 A 
ATOM     69  H   UNL     1      -5.159  -5.855   1.719  1.00  0.00     0.167 HD
ATOM     70  C   UNL     1      -6.231  -7.005  -0.631  1.00  0.00     0.074 A 
ATOM     71  C   UNL     1      -6.659  -7.155  -2.006  1.00  0.00     0.031 C 
ATOM     72  C   UNL     1      -6.296  -7.987   0.302  1.00  0.00     0.037 A 
BRANCH  59  73
ATOM     73  C   UNL     1      -4.108  -6.320   5.835  1.00  0.00     0.064 A 
ATOM     74  C   UNL     1      -4.810  -5.783   6.925  1.00  0.00     0.173 A 
ATOM     75  C   UNL     1      -3.130  -7.290   6.101  1.00  0.00     0.173 A 
ATOM     76  F   UNL     1      -5.752  -4.848   6.728  1.00  0.00    -0.203 F 
ATOM     77  C   UNL     1      -4.521  -6.177   8.230  1.00  0.00     0.198 A 
ATOM     78  C   UNL     1      -2.867  -7.706   7.404  1.00  0.00     0.198 A 
ATOM     79  F   UNL     1      -2.436  -7.846   5.097  1.00  0.00    -0.203 F 
ATOM     80  F   UNL     1      -5.168  -5.611   9.258  1.00  0.00    -0.200 F 
ATOM     81  C   UNL     1      -3.555  -7.143   8.468  1.00  0.00     0.200 A 
ATOM     82  F   UNL     1      -1.945  -8.653   7.631  1.00  0.00    -0.200 F 
ATOM     83  F   UNL     1      -3.283  -7.526   9.723  1.00  0.00    -0.200 F 
ENDBRANCH  59  73
BRANCH  60  84
ATOM     84  C   UNL     1      -5.803  -3.311  -3.513  1.00  0.00     0.064 A 
ATOM     85  C   UNL     1      -7.097  -3.208  -4.042  1.00  0.00     0.173 A 
ATOM     86  C   UNL     1      -4.726  -3.005  -4.359  1.00  0.00     0.173 A 
ATOM     87  F   UNL     1      -8.158  -3.513  -3.280  1.00  0.00    -0.203 F 
ATOM     88  C   UNL     1      -7.305  -2.834  -5.368  1.00  0.00     0.198 A 
ATOM     89  C   UNL     1      -4.938  -2.600  -5.676  1.00  0.00     0.198 A 
ATOM     90  F   UNL     1      -3.468  -3.084  -3.902  1.00  0.00    -0.203 F 
ATOM     91  F   UNL     1      -8.550  -2.793  -5.862  1.00  0.00    -0.200 F 
ATOM     92  C   UNL     1      -6.226  -2.524  -6.182  1.00  0.00     0.200 A 
ATOM     93  F   UNL     1      -3.893  -2.286  -6.453  1.00  0.00    -0.200 F 
ATOM     94  F   UNL     1      -6.427  -2.161  -7.456  1.00  0.00    -0.200 F 
ENDBRANCH  60  84
BRANCH  72  95
ATOM     95  C   UNL     1      -6.886  -9.304  -0.118  1.00  0.00     0.064 A 
ATOM     96  C   UNL     1      -6.215 -10.169  -0.997  1.00  0.00     0.173 A 
ATOM     97  C   UNL     1      -8.124  -9.723   0.394  1.00  0.00     0.173 A 
ATOM     98  F   UNL     1      -5.036  -9.812  -1.527  1.00  0.00    -0.203 F 
ATOM     99  C   UNL     1      -6.775 -11.390  -1.367  1.00  0.00     0.198 A 
ATOM    100  C   UNL     1      -8.665 -10.958   0.047  1.00  0.00     0.198 A 
ATOM    101  F   UNL     1      -8.805  -8.938   1.242  1.00  0.00    -0.203 F 
ATOM    102  F   UNL     1      -6.140 -12.176  -2.248  1.00  0.00    -0.200 F 
ATOM    103  C   UNL     1      -7.995 -11.787  -0.839  1.00  0.00     0.200 A 
ATOM    104  F   UNL     1      -9.836 -11.346   0.571  1.00  0.00    -0.200 F 
ATOM    105  F   UNL     1      -8.527 -12.965  -1.190  1.00  0.00    -0.200 F 
ENDBRANCH  72  95
ENDBRANCH  46  47
ENDBRANCH  38  41
ENDBRANCH  36  37
ENDBRANCH  35  36
ENDBRANCH  34  35
ENDBRANCH   1  34
TORSDOF 17
