REMARK SMILES C[C@H](C(=O)NCCCCNC(=O)c1ccc(-c2c3nc(c(-c4c(F)c(F)c(F)c(F)c4F)c4ccc([nH]4)c(-c4c(F)c(F)c(F)c(F)c4F)c4nc(c(-c5c(F)c(F)c(F)c(F)c5F)c5ccc2[nH]5)C=C4)C=C3)cc1)[C@H](C)[S@@](=O)C(C)(C)C
REMARK SMILES IDX 7 1 6 2 5 3 3 4 4 5 2 7 1 8 76 9 77 10 78 11 79 12 80 13
REMARK SMILES IDX 81 14 82 15 83 16 8 17 9 18 10 19 11 20 12 22 13 23 14 24
REMARK SMILES IDX 75 25 15 26 74 27 16 28 17 29 18 30 68 31 19 32 73 33 67 34
REMARK SMILES IDX 69 35 20 36 72 37 66 38 65 39 21 41 53 42 33 43 52 44 34 45
REMARK SMILES IDX 37 46 51 47 70 48 35 49 36 50 50 52 71 53 38 54 22 55 23 56
REMARK SMILES IDX 31 57 24 58 25 59 29 60 32 61 26 62 27 63 30 64 28 65 54 66
REMARK SMILES IDX 55 67 63 68 56 69 57 70 61 71 64 72 58 73 59 74 62 75 60 76
REMARK SMILES IDX 39 77 40 78 48 79 41 80 42 81 46 82 49 83 43 84 44 85 47 86
REMARK SMILES IDX 45 87
REMARK H PARENT 5 6 10 21 69 40 37 51
REMARK Flexibility Score: inf
ROOT
ATOM      1  C   UNL     1      -2.805   1.231   3.476  1.00  0.00     0.023 C 
ENDROOT
BRANCH   1   2
ATOM      2  C   UNL     1      -2.383   2.058   2.268  1.00  0.00     0.116 C 
BRANCH   2   3
ATOM      3  N   UNL     1      -1.003   1.785   1.906  1.00  0.00    -0.356 N 
ATOM      4  C   UNL     1      -0.477   1.358   0.723  1.00  0.00     0.224 C 
ATOM      5  O   UNL     1       0.741   1.198   0.683  1.00  0.00    -0.275 OA
ATOM      6  H   UNL     1      -0.347   1.931   2.626  1.00  0.00     0.163 HD
BRANCH   4   7
ATOM      7  C   UNL     1      -1.392   1.241  -0.495  1.00  0.00     0.090 C 
ATOM      8  C   UNL     1      -1.664   2.675  -0.929  1.00  0.00     0.019 C 
BRANCH   7   9
ATOM      9  C   UNL     1      -0.913   0.254  -1.592  1.00  0.00     0.089 C 
ATOM     10  C   UNL     1       0.561  -0.113  -1.716  1.00  0.00     0.023 C 
BRANCH   9  11
ATOM     11  S   UNL     1      -1.784   0.327  -3.194  1.00  0.00     0.030 S 
ATOM     12  O   UNL     1      -3.235   0.615  -2.949  1.00  0.00    -0.259 OA
BRANCH  11  13
ATOM     13  C   UNL     1      -1.065   1.630  -4.287  1.00  0.00     0.038 C 
ATOM     14  C   UNL     1      -1.685   3.020  -4.093  1.00  0.00     0.025 C 
ATOM     15  C   UNL     1       0.455   1.728  -4.215  1.00  0.00     0.025 C 
ATOM     16  C   UNL     1      -1.440   1.190  -5.724  1.00  0.00     0.025 C 
ENDBRANCH  11  13
ENDBRANCH   9  11
ENDBRANCH   7   9
ENDBRANCH   4   7
ENDBRANCH   2   3
ENDBRANCH   1   2
BRANCH   1  17
ATOM     17  C   UNL     1      -1.981   1.495   4.738  1.00  0.00     0.023 C 
BRANCH  17  18
ATOM     18  C   UNL     1      -1.896   2.960   5.157  1.00  0.00     0.116 C 
BRANCH  18  19
ATOM     19  N   UNL     1      -3.200   3.533   5.454  1.00  0.00    -0.352 N 
ATOM     20  C   UNL     1      -3.633   4.149   6.602  1.00  0.00     0.251 C 
ATOM     21  H   UNL     1      -3.864   3.470   4.730  1.00  0.00     0.163 HD
ATOM     22  O   UNL     1      -4.818   4.434   6.748  1.00  0.00    -0.269 OA
BRANCH  20  23
ATOM     23  C   UNL     1      -2.667   4.434   7.681  1.00  0.00     0.039 A 
ATOM     24  C   UNL     1      -2.965   4.015   8.980  1.00  0.00     0.014 A 
ATOM     25  C   UNL     1      -1.452   5.067   7.402  1.00  0.00     0.014 A 
ATOM     26  C   UNL     1      -2.003   4.146   9.983  1.00  0.00     0.010 A 
ATOM     27  C   UNL     1      -0.471   5.138   8.388  1.00  0.00     0.010 A 
ATOM     28  C   UNL     1      -0.730   4.658   9.681  1.00  0.00    -0.014 A 
BRANCH  28  29
ATOM     29  C   UNL     1       0.362   4.636  10.687  1.00  0.00     0.031 A 
ATOM     30  C   UNL     1       0.958   5.917  11.195  1.00  0.00     0.074 A 
ATOM     31  C   UNL     1       0.872   3.450  11.076  1.00  0.00     0.049 A 
ATOM     32  N   UNL     1       1.973   6.091  12.004  1.00  0.00    -0.248 NA
ATOM     33  C   UNL     1       0.351   7.168  10.717  1.00  0.00     0.031 C 
ATOM     34  C   UNL     1       0.411   2.139  10.612  1.00  0.00     0.029 A 
ATOM     35  N   UNL     1       1.902   3.153  11.934  1.00  0.00    -0.354 N 
ATOM     36  C   UNL     1       2.132   7.465  12.122  1.00  0.00     0.074 A 
ATOM     37  C   UNL     1       1.136   8.081  11.272  1.00  0.00     0.031 C 
ATOM     38  C   UNL     1       1.148   1.181  11.196  1.00  0.00     0.029 A 
ATOM     39  C   UNL     1       2.160   1.807  12.040  1.00  0.00     0.049 A 
ATOM     40  H   UNL     1       2.409   3.839  12.426  1.00  0.00     0.167 HD
ATOM     41  C   UNL     1       3.019   8.146  12.885  1.00  0.00     0.037 A 
ATOM     42  C   UNL     1       3.119   1.152  12.722  1.00  0.00     0.037 A 
ATOM     43  C   UNL     1       3.990   7.528  13.750  1.00  0.00     0.049 A 
ATOM     44  C   UNL     1       4.103   1.941  13.545  1.00  0.00     0.074 A 
ATOM     45  C   UNL     1       4.871   8.136  14.628  1.00  0.00     0.029 A 
ATOM     46  N   UNL     1       4.216   6.163  13.839  1.00  0.00    -0.354 N 
ATOM     47  N   UNL     1       4.182   3.237  13.720  1.00  0.00    -0.248 NA
ATOM     48  C   UNL     1       5.131   1.175  14.264  1.00  0.00     0.031 C 
ATOM     49  C   UNL     1       5.668   7.144  15.206  1.00  0.00     0.029 A 
ATOM     50  C   UNL     1       5.250   5.913  14.728  1.00  0.00     0.049 A 
ATOM     51  H   UNL     1       3.717   5.474  13.344  1.00  0.00     0.167 HD
ATOM     52  C   UNL     1       5.252   3.440  14.581  1.00  0.00     0.074 A 
ATOM     53  C   UNL     1       5.775   2.132  14.914  1.00  0.00     0.031 C 
ATOM     54  C   UNL     1       5.761   4.606  15.048  1.00  0.00     0.037 A 
BRANCH  41  55
ATOM     55  C   UNL     1       2.989   9.645  12.833  1.00  0.00     0.064 A 
ATOM     56  C   UNL     1       1.955  10.380  13.430  1.00  0.00     0.173 A 
ATOM     57  C   UNL     1       4.055  10.355  12.258  1.00  0.00     0.173 A 
ATOM     58  F   UNL     1       0.910   9.748  13.985  1.00  0.00    -0.203 F 
ATOM     59  C   UNL     1       1.983  11.773  13.444  1.00  0.00     0.198 A 
ATOM     60  C   UNL     1       4.092  11.746  12.298  1.00  0.00     0.198 A 
ATOM     61  F   UNL     1       5.072   9.699  11.680  1.00  0.00    -0.203 F 
ATOM     62  F   UNL     1       0.971  12.456  13.997  1.00  0.00    -0.200 F 
ATOM     63  C   UNL     1       3.056  12.454  12.888  1.00  0.00     0.200 A 
ATOM     64  F   UNL     1       5.136  12.402  11.773  1.00  0.00    -0.200 F 
ATOM     65  F   UNL     1       3.091  13.793  12.922  1.00  0.00    -0.200 F 
ENDBRANCH  41  55
BRANCH  42  66
ATOM     66  C   UNL     1       3.213  -0.331  12.649  1.00  0.00     0.064 A 
ATOM     67  C   UNL     1       2.962  -1.127  13.776  1.00  0.00     0.173 A 
ATOM     68  C   UNL     1       3.590  -0.980  11.464  1.00  0.00     0.173 A 
ATOM     69  F   UNL     1       2.621  -0.553  14.939  1.00  0.00    -0.203 F 
ATOM     70  C   UNL     1       3.117  -2.511  13.728  1.00  0.00     0.198 A 
ATOM     71  C   UNL     1       3.712  -2.366  11.409  1.00  0.00     0.198 A 
ATOM     72  F   UNL     1       3.838  -0.265  10.356  1.00  0.00    -0.203 F 
ATOM     73  F   UNL     1       2.931  -3.242  14.836  1.00  0.00    -0.200 F 
ATOM     74  C   UNL     1       3.487  -3.130  12.544  1.00  0.00     0.200 A 
ATOM     75  F   UNL     1       4.056  -2.961  10.258  1.00  0.00    -0.200 F 
ATOM     76  F   UNL     1       3.640  -4.460  12.500  1.00  0.00    -0.200 F 
ENDBRANCH  42  66
BRANCH  54  77
ATOM     77  C   UNL     1       6.935   4.519  15.979  1.00  0.00     0.064 A 
ATOM     78  C   UNL     1       8.207   4.150  15.520  1.00  0.00     0.173 A 
ATOM     79  C   UNL     1       6.795   4.847  17.336  1.00  0.00     0.173 A 
ATOM     80  F   UNL     1       8.389   3.811  14.234  1.00  0.00    -0.203 F 
ATOM     81  C   UNL     1       9.292   4.088  16.390  1.00  0.00     0.198 A 
ATOM     82  C   UNL     1       7.889   4.815  18.197  1.00  0.00     0.198 A 
ATOM     83  F   UNL     1       5.600   5.212  17.825  1.00  0.00    -0.203 F 
ATOM     84  F   UNL     1      10.488   3.686  15.939  1.00  0.00    -0.200 F 
ATOM     85  C   UNL     1       9.134   4.428  17.725  1.00  0.00     0.200 A 
ATOM     86  F   UNL     1       7.737   5.157  19.484  1.00  0.00    -0.200 F 
ATOM     87  F   UNL     1      10.181   4.377  18.559  1.00  0.00    -0.200 F 
ENDBRANCH  54  77
ENDBRANCH  28  29
ENDBRANCH  20  23
ENDBRANCH  18  19
ENDBRANCH  17  18
ENDBRANCH   1  17
TORSDOF 14
