REMARK SMILES CC(=O)c1cn(CC(=O)NCC(=O)NCC(=O)NCCCCNC(=O)c2ccc(-c3c4nc(c(-c5c(F)c(F)c(F)c(F)c5F)c5ccc([nH]5)c(-c5c(F)c(F)c(F)c(F)c5F)c5nc(c(-c6c(F)c(F)c(F)c(F)c6F)c6ccc3[nH]6)C=C5)C=C4)cc2)c2ccccc12
REMARK SMILES IDX 16 1 17 2 18 3 15 5 14 6 12 7 13 8 11 10 10 11 8 12 9 13
REMARK SMILES IDX 7 15 6 16 4 17 5 18 94 19 89 20 93 21 90 22 92 23 91 24 2 25
REMARK SMILES IDX 1 26 3 27 19 28 20 29 21 30 22 31 23 32 24 33 25 35 26 36
REMARK SMILES IDX 27 37 88 38 28 39 87 40 29 41 30 42 31 43 81 44 32 45 86 46
REMARK SMILES IDX 80 47 82 48 33 49 85 50 79 51 78 52 34 54 66 55 46 56 65 57
REMARK SMILES IDX 47 58 50 59 64 60 83 61 48 62 49 63 63 65 84 66 51 67 35 68
REMARK SMILES IDX 36 69 44 70 37 71 38 72 42 73 45 74 39 75 40 76 43 77 41 78
REMARK SMILES IDX 67 79 68 80 76 81 69 82 70 83 74 84 77 85 71 86 72 87 75 88
REMARK SMILES IDX 73 89 52 90 53 91 61 92 54 93 55 94 59 95 62 96 56 97 57 98
REMARK SMILES IDX 60 99 58 100
REMARK H PARENT 18 4 14 9 10 14 23 34 82 53 50 64
REMARK Flexibility Score: inf
ROOT
ATOM      1  C   UNL     1       3.232  -4.469   0.859  1.00  0.00     0.239 C 
ATOM      2  O   UNL     1       4.312  -3.937   0.601  1.00  0.00    -0.273 OA
ATOM      3  N   UNL     1       3.228  -5.779   1.238  1.00  0.00    -0.355 N 
ATOM      4  H   UNL     1       4.105  -6.185   1.422  1.00  0.00     0.163 HD
ENDROOT
BRANCH   1   5
ATOM      5  C   UNL     1       1.924  -3.668   0.919  1.00  0.00     0.216 C 
BRANCH   5   6
ATOM      6  N   UNL     1       0.814  -4.095   0.087  1.00  0.00    -0.346 N 
ATOM      7  C   UNL     1      -0.502  -4.259   0.412  1.00  0.00     0.239 C 
ATOM      8  O   UNL     1      -1.290  -4.446  -0.520  1.00  0.00    -0.273 OA
ATOM      9  H   UNL     1       1.044  -4.295  -0.849  1.00  0.00     0.164 HD
BRANCH   7  10
ATOM     10  C   UNL     1      -1.035  -4.114   1.862  1.00  0.00     0.216 C 
BRANCH  10  11
ATOM     11  N   UNL     1      -0.414  -4.979   2.860  1.00  0.00    -0.345 N 
ATOM     12  C   UNL     1       0.180  -4.725   4.060  1.00  0.00     0.240 C 
ATOM     13  O   UNL     1       0.769  -5.669   4.597  1.00  0.00    -0.273 OA
ATOM     14  H   UNL     1      -0.427  -5.934   2.620  1.00  0.00     0.164 HD
BRANCH  12  15
ATOM     15  C   UNL     1       0.049  -3.389   4.771  1.00  0.00     0.222 C 
BRANCH  15  16
ATOM     16  N   UNL     1       0.714  -2.279   4.108  1.00  0.00    -0.337 N 
ATOM     17  C   UNL     1       0.924  -0.568   2.697  1.00  0.00     0.043 A 
ATOM     18  C   UNL     1       0.044  -1.236   3.527  1.00  0.00     0.099 A 
ATOM     19  C   UNL     1       2.231  -1.068   3.003  1.00  0.00     0.010 A 
ATOM     20  C   UNL     1       2.071  -2.136   3.901  1.00  0.00     0.049 A 
ATOM     21  C   UNL     1       3.535  -0.754   2.564  1.00  0.00     0.011 A 
ATOM     22  C   UNL     1       3.158  -2.906   4.348  1.00  0.00     0.027 A 
ATOM     23  C   UNL     1       4.621  -1.520   2.999  1.00  0.00     0.001 A 
ATOM     24  C   UNL     1       4.432  -2.583   3.874  1.00  0.00     0.002 A 
BRANCH  17  25
ATOM     25  C   UNL     1       0.484   0.395   1.693  1.00  0.00     0.161 C 
ATOM     26  C   UNL     1       1.049   0.272   0.299  1.00  0.00     0.093 C 
ATOM     27  O   UNL     1      -0.442   1.178   1.923  1.00  0.00    -0.294 OA
ENDBRANCH  17  25
ENDBRANCH  15  16
ENDBRANCH  12  15
ENDBRANCH  10  11
ENDBRANCH   7  10
ENDBRANCH   5   6
ENDBRANCH   1   5
BRANCH   3  28
ATOM     28  C   UNL     1       2.080  -6.632   1.398  1.00  0.00     0.116 C 
BRANCH  28  29
ATOM     29  C   UNL     1       1.988  -7.630   0.259  1.00  0.00     0.023 C 
BRANCH  29  30
ATOM     30  C   UNL     1       3.035  -8.735   0.362  1.00  0.00     0.023 C 
BRANCH  30  31
ATOM     31  C   UNL     1       3.028  -9.467   1.711  1.00  0.00     0.116 C 
BRANCH  31  32
ATOM     32  N   UNL     1       1.716  -9.962   2.079  1.00  0.00    -0.352 N 
ATOM     33  C   UNL     1       1.023 -11.108   1.805  1.00  0.00     0.251 C 
ATOM     34  H   UNL     1       1.215  -9.336   2.650  1.00  0.00     0.163 HD
ATOM     35  O   UNL     1      -0.086 -11.219   2.334  1.00  0.00    -0.269 OA
BRANCH  33  36
ATOM     36  C   UNL     1       1.492 -12.181   0.889  1.00  0.00     0.039 A 
ATOM     37  C   UNL     1       2.646 -12.120   0.112  1.00  0.00     0.014 A 
ATOM     38  C   UNL     1       0.647 -13.297   0.744  1.00  0.00     0.014 A 
ATOM     39  C   UNL     1       2.885 -13.062  -0.872  1.00  0.00     0.010 A 
ATOM     40  C   UNL     1       0.902 -14.270  -0.218  1.00  0.00     0.010 A 
ATOM     41  C   UNL     1       1.986 -14.109  -1.073  1.00  0.00    -0.014 A 
BRANCH  41  42
ATOM     42  C   UNL     1       2.248 -14.964  -2.223  1.00  0.00     0.031 A 
ATOM     43  C   UNL     1       3.616 -15.554  -2.308  1.00  0.00     0.074 A 
ATOM     44  C   UNL     1       1.344 -15.191  -3.194  1.00  0.00     0.049 A 
ATOM     45  N   UNL     1       4.533 -15.328  -3.195  1.00  0.00    -0.248 NA
ATOM     46  C   UNL     1       4.041 -16.439  -1.215  1.00  0.00     0.031 C 
ATOM     47  C   UNL     1      -0.092 -14.907  -3.216  1.00  0.00     0.029 A 
ATOM     48  N   UNL     1       1.555 -15.807  -4.388  1.00  0.00    -0.354 N 
ATOM     49  C   UNL     1       5.611 -16.144  -2.856  1.00  0.00     0.074 A 
ATOM     50  C   UNL     1       5.287 -16.740  -1.584  1.00  0.00     0.031 C 
ATOM     51  C   UNL     1      -0.656 -15.550  -4.264  1.00  0.00     0.029 A 
ATOM     52  C   UNL     1       0.399 -16.146  -5.066  1.00  0.00     0.049 A 
ATOM     53  H   UNL     1       2.455 -15.996  -4.740  1.00  0.00     0.167 HD
ATOM     54  C   UNL     1       6.635 -16.395  -3.718  1.00  0.00     0.037 A 
ATOM     55  C   UNL     1       0.324 -16.921  -6.172  1.00  0.00     0.037 A 
ATOM     56  C   UNL     1       6.732 -15.401  -4.751  1.00  0.00     0.049 A 
ATOM     57  C   UNL     1       1.651 -16.891  -6.836  1.00  0.00     0.074 A 
ATOM     58  C   UNL     1       6.982 -14.042  -4.769  1.00  0.00     0.029 A 
ATOM     59  N   UNL     1       6.254 -15.691  -6.004  1.00  0.00    -0.354 N 
ATOM     60  N   UNL     1       2.144 -15.840  -7.429  1.00  0.00    -0.248 NA
ATOM     61  C   UNL     1       2.618 -17.914  -6.466  1.00  0.00     0.031 C 
ATOM     62  C   UNL     1       6.157 -13.529  -5.814  1.00  0.00     0.029 A 
ATOM     63  C   UNL     1       5.492 -14.615  -6.381  1.00  0.00     0.049 A 
ATOM     64  H   UNL     1       6.424 -16.508  -6.527  1.00  0.00     0.167 HD
ATOM     65  C   UNL     1       3.499 -15.875  -7.140  1.00  0.00     0.074 A 
ATOM     66  C   UNL     1       3.745 -17.216  -6.616  1.00  0.00     0.031 C 
ATOM     67  C   UNL     1       4.246 -14.734  -7.096  1.00  0.00     0.037 A 
BRANCH  54  68
ATOM     68  C   UNL     1       7.375 -17.705  -3.786  1.00  0.00     0.064 A 
ATOM     69  C   UNL     1       8.556 -17.809  -4.547  1.00  0.00     0.173 A 
ATOM     70  C   UNL     1       6.805 -18.927  -3.371  1.00  0.00     0.173 A 
ATOM     71  F   UNL     1       9.167 -16.711  -5.016  1.00  0.00    -0.203 F 
ATOM     72  C   UNL     1       9.087 -19.049  -4.916  1.00  0.00     0.198 A 
ATOM     73  C   UNL     1       7.365 -20.160  -3.698  1.00  0.00     0.198 A 
ATOM     74  F   UNL     1       5.629 -18.975  -2.731  1.00  0.00    -0.203 F 
ATOM     75  F   UNL     1      10.146 -19.102  -5.737  1.00  0.00    -0.200 F 
ATOM     76  C   UNL     1       8.488 -20.223  -4.496  1.00  0.00     0.200 A 
ATOM     77  F   UNL     1       6.758 -21.286  -3.298  1.00  0.00    -0.200 F 
ATOM     78  F   UNL     1       8.960 -21.410  -4.897  1.00  0.00    -0.200 F 
ENDBRANCH  54  68
BRANCH  55  79
ATOM     79  C   UNL     1      -0.676 -17.975  -6.444  1.00  0.00     0.064 A 
ATOM     80  C   UNL     1      -0.838 -18.497  -7.736  1.00  0.00     0.173 A 
ATOM     81  C   UNL     1      -1.278 -18.693  -5.391  1.00  0.00     0.173 A 
ATOM     82  F   UNL     1      -0.255 -17.896  -8.783  1.00  0.00    -0.203 F 
ATOM     83  C   UNL     1      -1.537 -19.687  -7.958  1.00  0.00     0.198 A 
ATOM     84  C   UNL     1      -1.980 -19.876  -5.616  1.00  0.00     0.198 A 
ATOM     85  F   UNL     1      -1.110 -18.315  -4.116  1.00  0.00    -0.203 F 
ATOM     86  F   UNL     1      -1.615 -20.194  -9.197  1.00  0.00    -0.200 F 
ATOM     87  C   UNL     1      -2.096 -20.381  -6.897  1.00  0.00     0.200 A 
ATOM     88  F   UNL     1      -2.482 -20.557  -4.576  1.00  0.00    -0.200 F 
ATOM     89  F   UNL     1      -2.708 -21.556  -7.102  1.00  0.00    -0.200 F 
ENDBRANCH  55  79
BRANCH  67  90
ATOM     90  C   UNL     1       3.610 -13.464  -7.582  1.00  0.00     0.064 A 
ATOM     91  C   UNL     1       2.486 -12.877  -6.975  1.00  0.00     0.173 A 
ATOM     92  C   UNL     1       4.238 -12.745  -8.607  1.00  0.00     0.173 A 
ATOM     93  F   UNL     1       1.898 -13.450  -5.917  1.00  0.00    -0.203 F 
ATOM     94  C   UNL     1       1.984 -11.652  -7.412  1.00  0.00     0.198 A 
ATOM     95  C   UNL     1       3.756 -11.505  -9.018  1.00  0.00     0.198 A 
ATOM     96  F   UNL     1       5.353 -13.225  -9.180  1.00  0.00    -0.203 F 
ATOM     97  F   UNL     1       0.903 -11.119  -6.823  1.00  0.00    -0.200 F 
ATOM     98  C   UNL     1       2.624 -10.965  -8.430  1.00  0.00     0.200 A 
ATOM     99  F   UNL     1       4.408 -10.818  -9.967  1.00  0.00    -0.200 F 
ATOM    100  F   UNL     1       2.166  -9.768  -8.824  1.00  0.00    -0.200 F 
ENDBRANCH  67  90
ENDBRANCH  41  42
ENDBRANCH  33  36
ENDBRANCH  31  32
ENDBRANCH  30  31
ENDBRANCH  29  30
ENDBRANCH  28  29
ENDBRANCH   3  28
TORSDOF 17
