REMARK SMILES O=C(NCCCCNC(=O)c1ccc(-c2c3nc(c(-c4c(F)c(F)c(F)c(F)c4F)c4ccc([nH]4)c(-c4c(F)c(F)c(F)c(F)c4F)c4nc(c(-c5c(F)c(F)c(F)c(F)c5F)c5ccc2[nH]5)C=C4)C=C3)cc1)C1=Cc2cc(S(F)(F)(F)(F)F)ccc2O[C@@H]1C(F)(F)F
REMARK SMILES IDX 6 1 5 2 4 3 3 4 1 5 2 6 74 8 75 9 89 10 76 11 88 12 77 13
REMARK SMILES IDX 87 14 78 15 86 16 85 17 90 18 91 19 92 20 93 21 79 22 80 23
REMARK SMILES IDX 81 24 82 25 83 26 84 27 7 28 8 29 9 30 10 32 11 33 12 34
REMARK SMILES IDX 73 35 13 36 72 37 14 38 15 39 16 40 66 41 17 42 71 43 65 44
REMARK SMILES IDX 67 45 18 46 70 47 64 48 63 49 19 51 51 52 31 53 50 54 32 55
REMARK SMILES IDX 35 56 49 57 68 58 33 59 34 60 48 62 69 63 36 64 20 65 21 66
REMARK SMILES IDX 29 67 22 68 23 69 27 70 30 71 24 72 25 73 28 74 26 75 52 76
REMARK SMILES IDX 53 77 61 78 54 79 55 80 59 81 62 82 56 83 57 84 60 85 58 86
REMARK SMILES IDX 37 87 38 88 46 89 39 90 40 91 44 92 47 93 41 94 42 95 45 96
REMARK SMILES IDX 43 97
REMARK H PARENT 3 7 8 31 67 50 35 61
REMARK Flexibility Score: inf
ROOT
ATOM      1  C   UNL     1       4.430   1.959   2.964  1.00  0.00     0.023 C 
ENDROOT
BRANCH   1   2
ATOM      2  C   UNL     1       4.937   1.619   1.571  1.00  0.00     0.023 C 
BRANCH   2   3
ATOM      3  C   UNL     1       4.430   0.243   1.170  1.00  0.00     0.116 C 
BRANCH   3   4
ATOM      4  N   UNL     1       2.960   0.243   1.170  1.00  0.00    -0.352 N 
ATOM      5  O   UNL     1       0.954  -0.059  -0.067  1.00  0.00    -0.270 OA
ATOM      6  C   UNL     1       2.225  -0.059  -0.067  1.00  0.00     0.251 C 
ATOM      7  H   UNL     1       2.468   0.446   1.998  1.00  0.00     0.163 HD
BRANCH   6   8
ATOM      8  C   UNL     1       2.985  -0.371  -1.345  1.00  0.00     0.067 C 
ATOM      9  C   UNL     1       4.345  -0.371  -1.345  1.00  0.00     0.025 C 
ATOM     10  C   UNL     1       2.225  -0.684  -2.624  1.00  0.00     0.314 C 
ATOM     11  C   UNL     1       5.105  -0.059  -0.067  1.00  0.00     0.019 A 
ATOM     12  O   UNL     1       3.492  -1.345   1.113  1.00  0.00    -0.475 OA
ATOM     13  C   UNL     1       6.210   0.776  -0.111  1.00  0.00     0.036 A 
ATOM     14  C   UNL     1       4.716  -0.627   1.069  1.00  0.00     0.128 A 
ATOM     15  C   UNL     1       7.017   0.720   1.050  1.00  0.00     0.107 A 
ATOM     16  C   UNL     1       5.487  -0.526   2.201  1.00  0.00     0.048 A 
ATOM     17  C   UNL     1       6.624   0.234   2.213  1.00  0.00     0.028 A 
BRANCH  10  18
ATOM     18  C   UNL     1       2.592  -2.079  -3.104  1.00  0.00     0.429 C 
ATOM     19  F   UNL     1       2.271  -2.968  -2.169  1.00  0.00    -0.167 F 
ATOM     20  F   UNL     1       1.927  -2.352  -4.223  1.00  0.00    -0.167 F 
ATOM     21  F   UNL     1       3.900  -2.136  -3.340  1.00  0.00    -0.167 F 
ENDBRANCH  10  18
BRANCH  15  22
ATOM     22  S   UNL     1       8.706   1.361   0.933  1.00  0.00     0.310 S 
ATOM     23  F   UNL     1       8.880   1.366   2.509  1.00  0.00    -0.094 F 
ATOM     24  F   UNL     1       8.130   2.822   1.060  1.00  0.00    -0.094 F 
ATOM     25  F   UNL     1      10.156   1.912   0.832  1.00  0.00    -0.094 F 
ATOM     26  F   UNL     1       9.275  -0.112   0.948  1.00  0.00    -0.094 F 
ATOM     27  F   UNL     1       7.250   0.785   1.148  1.00  0.00    -0.094 F 
ENDBRANCH  15  22
ENDBRANCH   6   8
ENDBRANCH   3   4
ENDBRANCH   2   3
ENDBRANCH   1   2
BRANCH   1  28
ATOM     28  C   UNL     1       4.937   0.924   3.954  1.00  0.00     0.116 C 
BRANCH  28  29
ATOM     29  N   UNL     1       6.407   0.924   3.954  1.00  0.00    -0.352 N 
ATOM     30  C   UNL     1       7.142   1.226   5.191  1.00  0.00     0.251 C 
ATOM     31  H   UNL     1       6.899   0.721   3.126  1.00  0.00     0.163 HD
ATOM     32  O   UNL     1       8.413   1.226   5.191  1.00  0.00    -0.269 OA
BRANCH  30  33
ATOM     33  C   UNL     1       6.382   1.538   6.470  1.00  0.00     0.039 A 
ATOM     34  C   UNL     1       6.811   2.584   7.270  1.00  0.00     0.014 A 
ATOM     35  C   UNL     1       5.347   0.783   6.819  1.00  0.00     0.014 A 
ATOM     36  C   UNL     1       6.258   2.574   8.572  1.00  0.00     0.010 A 
ATOM     37  C   UNL     1       4.768   0.920   8.058  1.00  0.00     0.010 A 
ATOM     38  C   UNL     1       5.182   1.894   8.924  1.00  0.00    -0.014 A 
BRANCH  38  39
ATOM     39  C   UNL     1       4.442   2.180  10.221  1.00  0.00     0.031 A 
ATOM     40  C   UNL     1       4.328   1.152  11.158  1.00  0.00     0.074 A 
ATOM     41  C   UNL     1       3.952   3.460  10.412  1.00  0.00     0.049 A 
ATOM     42  N   UNL     1       3.781   1.216  12.373  1.00  0.00    -0.248 NA
ATOM     43  C   UNL     1       4.817  -0.218  10.943  1.00  0.00     0.031 C 
ATOM     44  C   UNL     1       4.071   4.505   9.475  1.00  0.00     0.029 A 
ATOM     45  N   UNL     1       3.279   3.952  11.508  1.00  0.00    -0.354 N 
ATOM     46  C   UNL     1       3.876   0.034  12.985  1.00  0.00     0.074 A 
ATOM     47  C   UNL     1       4.538  -0.907  12.071  1.00  0.00     0.031 C 
ATOM     48  C   UNL     1       3.468   5.607   9.992  1.00  0.00     0.029 A 
ATOM     49  C   UNL     1       2.963   5.270  11.263  1.00  0.00     0.049 A 
ATOM     50  H   UNL     1       3.061   3.449  12.325  1.00  0.00     0.167 HD
ATOM     51  C   UNL     1       3.438  -0.296  14.268  1.00  0.00     0.037 A 
ATOM     52  C   UNL     1       2.272   6.145  12.086  1.00  0.00     0.037 A 
ATOM     53  C   UNL     1       2.785   0.591  15.109  1.00  0.00     0.049 A 
ATOM     54  C   UNL     1       1.782   5.798  13.348  1.00  0.00     0.074 A 
ATOM     55  C   UNL     1       2.344   0.277  16.409  1.00  0.00     0.029 A 
ATOM     56  N   UNL     1       2.447   1.902  14.854  1.00  0.00    -0.354 N 
ATOM     57  N   UNL     1       1.911   4.628  13.974  1.00  0.00    -0.248 NA
ATOM     58  C   UNL     1       1.021   6.707  14.215  1.00  0.00     0.031 C 
ATOM     59  C   UNL     1       1.740   1.380  16.927  1.00  0.00     0.029 A 
ATOM     60  C   UNL     1       1.794   2.401  15.959  1.00  0.00     0.049 A 
ATOM     61  H   UNL     1       2.640   2.397  14.025  1.00  0.00     0.167 HD
ATOM     62  C   UNL     1       1.328   4.681  15.173  1.00  0.00     0.074 A 
ATOM     63  C   UNL     1       0.740   6.017  15.342  1.00  0.00     0.031 C 
ATOM     64  C   UNL     1       1.265   3.670  16.134  1.00  0.00     0.037 A 
BRANCH  51  65
ATOM     65  C   UNL     1       3.691  -1.708  14.772  1.00  0.00     0.064 A 
ATOM     66  C   UNL     1       4.979  -2.216  14.777  1.00  0.00     0.173 A 
ATOM     67  C   UNL     1       2.652  -2.462  15.110  1.00  0.00     0.173 A 
ATOM     68  F   UNL     1       6.062  -1.448  14.696  1.00  0.00    -0.203 F 
ATOM     69  C   UNL     1       5.040  -3.626  14.876  1.00  0.00     0.198 A 
ATOM     70  C   UNL     1       2.807  -3.810  15.325  1.00  0.00     0.198 A 
ATOM     71  F   UNL     1       1.450  -1.908  15.241  1.00  0.00    -0.203 F 
ATOM     72  F   UNL     1       6.177  -4.223  14.532  1.00  0.00    -0.200 F 
ATOM     73  C   UNL     1       4.044  -4.391  15.287  1.00  0.00     0.200 A 
ATOM     74  F   UNL     1       1.738  -4.562  15.574  1.00  0.00    -0.200 F 
ATOM     75  F   UNL     1       4.236  -5.657  15.645  1.00  0.00    -0.200 F 
ENDBRANCH  51  65
BRANCH  52  76
ATOM     76  C   UNL     1       2.034   7.561  11.589  1.00  0.00     0.064 A 
ATOM     77  C   UNL     1       2.613   8.570  12.341  1.00  0.00     0.173 A 
ATOM     78  C   UNL     1       1.357   7.832  10.479  1.00  0.00     0.173 A 
ATOM     79  F   UNL     1       3.501   8.338  13.303  1.00  0.00    -0.203 F 
ATOM     80  C   UNL     1       2.175   9.869  11.992  1.00  0.00     0.198 A 
ATOM     81  C   UNL     1       1.080   9.131  10.128  1.00  0.00     0.198 A 
ATOM     82  F   UNL     1       0.942   6.836   9.701  1.00  0.00    -0.203 F 
ATOM     83  F   UNL     1       2.384  10.848  12.868  1.00  0.00    -0.200 F 
ATOM     84  C   UNL     1       1.571  10.177  10.859  1.00  0.00     0.200 A 
ATOM     85  F   UNL     1       0.324   9.375   9.061  1.00  0.00    -0.200 F 
ATOM     86  F   UNL     1       1.448  11.437  10.450  1.00  0.00    -0.200 F 
ENDBRANCH  52  76
BRANCH  64  87
ATOM     87  C   UNL     1       0.574   3.981  17.452  1.00  0.00     0.064 A 
ATOM     88  C   UNL     1      -0.746   4.399  17.439  1.00  0.00     0.173 A 
ATOM     89  C   UNL     1       1.256   3.888  18.588  1.00  0.00     0.173 A 
ATOM     90  F   UNL     1      -1.538   4.267  16.378  1.00  0.00    -0.203 F 
ATOM     91  C   UNL     1      -1.176   4.979  18.655  1.00  0.00     0.198 A 
ATOM     92  C   UNL     1       0.720   4.352  19.765  1.00  0.00     0.198 A 
ATOM     93  F   UNL     1       2.469   3.342  18.586  1.00  0.00    -0.203 F 
ATOM     94  F   UNL     1      -2.279   5.722  18.631  1.00  0.00    -0.200 F 
ATOM     95  C   UNL     1      -0.558   4.834  19.814  1.00  0.00     0.200 A 
ATOM     96  F   UNL     1       1.456   4.332  20.873  1.00  0.00    -0.200 F 
ATOM     97  F   UNL     1      -1.148   5.140  20.966  1.00  0.00    -0.200 F 
ENDBRANCH  64  87
ENDBRANCH  38  39
ENDBRANCH  30  33
ENDBRANCH  28  29
ENDBRANCH   1  28
TORSDOF 13
