REMARK SMILES O=C(NCCCCNC(=O)[C@@]1(Cc2ccccc2Cl)CCC[NH2+]1)c1ccc(-c2c3nc(c(-c4c(F)c(F)c(F)c(F)c4F)c4ccc([nH]4)c(-c4c(F)c(F)c(F)c(F)c4F)c4nc(c(-c5c(F)c(F)c(F)c(F)c5F)c5ccc2[nH]5)C=C4)C=C3)cc1
REMARK SMILES IDX 5 1 4 2 3 3 1 4 2 5 24 7 25 8 86 9 26 10 85 11 27 12 28 13
REMARK SMILES IDX 29 14 79 15 30 16 84 17 78 18 80 19 31 20 83 21 77 22 76 23
REMARK SMILES IDX 32 25 64 26 44 27 63 28 45 29 48 30 62 31 81 32 46 33 47 34
REMARK SMILES IDX 61 36 82 37 49 38 33 39 34 40 42 41 35 42 36 43 40 44 43 45
REMARK SMILES IDX 37 46 38 47 41 48 39 49 65 50 66 51 74 52 67 53 68 54 72 55
REMARK SMILES IDX 75 56 69 57 70 58 73 59 71 60 50 61 51 62 59 63 52 64 53 65
REMARK SMILES IDX 57 66 60 67 54 68 55 69 58 70 56 71 6 72 7 73 8 74 9 75
REMARK SMILES IDX 10 77 11 78 20 79 23 80 21 81 22 82 12 85 13 86 14 87 18 88
REMARK SMILES IDX 15 89 17 90 19 91 16 92
REMARK H PARENT 3 6 80 24 48 35 8 76 23 83 23 84
REMARK Flexibility Score: inf
ROOT
ATOM      1  C   UNL     1       5.563  10.179  -3.598  1.00  0.00     0.023 C 
ENDROOT
BRANCH   1   2
ATOM      2  C   UNL     1       4.290  11.009  -3.565  1.00  0.00     0.116 C 
BRANCH   2   3
ATOM      3  N   UNL     1       4.415  12.253  -2.817  1.00  0.00    -0.352 N 
ATOM      4  O   UNL     1       3.994  14.451  -2.419  1.00  0.00    -0.269 OA
ATOM      5  C   UNL     1       3.760  13.437  -3.066  1.00  0.00     0.251 C 
ATOM      6  H   UNL     1       5.034  12.246  -2.051  1.00  0.00     0.163 HD
BRANCH   5   7
ATOM      7  C   UNL     1       2.792  13.459  -4.177  1.00  0.00     0.039 A 
ATOM      8  C   UNL     1       1.776  12.502  -4.219  1.00  0.00     0.014 A 
ATOM      9  C   UNL     1       2.988  14.348  -5.235  1.00  0.00     0.014 A 
ATOM     10  C   UNL     1       1.049  12.336  -5.387  1.00  0.00     0.010 A 
ATOM     11  C   UNL     1       2.192  14.237  -6.375  1.00  0.00     0.010 A 
ATOM     12  C   UNL     1       1.241  13.209  -6.472  1.00  0.00    -0.014 A 
BRANCH  12  13
ATOM     13  C   UNL     1       0.384  13.063  -7.671  1.00  0.00     0.031 A 
ATOM     14  C   UNL     1       0.960  12.677  -9.003  1.00  0.00     0.074 A 
ATOM     15  C   UNL     1      -0.941  13.258  -7.528  1.00  0.00     0.049 A 
ATOM     16  N   UNL     1       0.347  12.524 -10.150  1.00  0.00    -0.248 NA
ATOM     17  C   UNL     1       2.410  12.439  -9.063  1.00  0.00     0.031 C 
ATOM     18  C   UNL     1      -1.601  13.640  -6.277  1.00  0.00     0.029 A 
ATOM     19  N   UNL     1      -1.968  13.146  -8.426  1.00  0.00    -0.354 N 
ATOM     20  C   UNL     1       1.334  12.201 -11.071  1.00  0.00     0.074 A 
ATOM     21  C   UNL     1       2.592  12.189 -10.354  1.00  0.00     0.031 C 
ATOM     22  C   UNL     1      -2.925  13.683  -6.474  1.00  0.00     0.029 A 
ATOM     23  C   UNL     1      -3.200  13.404  -7.878  1.00  0.00     0.049 A 
ATOM     24  H   UNL     1      -1.837  12.905  -9.371  1.00  0.00     0.167 HD
ATOM     25  C   UNL     1       1.195  11.938 -12.393  1.00  0.00     0.037 A 
ATOM     26  C   UNL     1      -4.417  13.436  -8.448  1.00  0.00     0.037 A 
ATOM     27  C   UNL     1      -0.068  11.926 -13.088  1.00  0.00     0.049 A 
ATOM     28  C   UNL     1      -4.536  13.145  -9.914  1.00  0.00     0.074 A 
ATOM     29  C   UNL     1      -0.319  11.639 -14.419  1.00  0.00     0.029 A 
ATOM     30  N   UNL     1      -1.294  12.214 -12.505  1.00  0.00    -0.354 N 
ATOM     31  N   UNL     1      -3.596  12.830 -10.771  1.00  0.00    -0.248 NA
ATOM     32  C   UNL     1      -5.882  13.223 -10.494  1.00  0.00     0.031 C 
ATOM     33  C   UNL     1      -1.690  11.790 -14.649  1.00  0.00     0.029 A 
ATOM     34  C   UNL     1      -2.301  12.129 -13.453  1.00  0.00     0.049 A 
ATOM     35  H   UNL     1      -1.428  12.445 -11.557  1.00  0.00     0.167 HD
ATOM     36  C   UNL     1      -4.235  12.664 -11.989  1.00  0.00     0.074 A 
ATOM     37  C   UNL     1      -5.647  12.889 -11.755  1.00  0.00     0.031 C 
ATOM     38  C   UNL     1      -3.699  12.359 -13.196  1.00  0.00     0.037 A 
BRANCH  25  39
ATOM     39  C   UNL     1       2.436  11.656 -13.189  1.00  0.00     0.064 A 
ATOM     40  C   UNL     1       3.124  10.440 -13.079  1.00  0.00     0.173 A 
ATOM     41  C   UNL     1       2.901  12.591 -14.128  1.00  0.00     0.173 A 
ATOM     42  F   UNL     1       2.726   9.517 -12.190  1.00  0.00    -0.203 F 
ATOM     43  C   UNL     1       4.239  10.173 -13.871  1.00  0.00     0.198 A 
ATOM     44  C   UNL     1       4.002  12.312 -14.934  1.00  0.00     0.198 A 
ATOM     45  F   UNL     1       2.275  13.768 -14.277  1.00  0.00    -0.203 F 
ATOM     46  F   UNL     1       4.899   9.015 -13.729  1.00  0.00    -0.200 F 
ATOM     47  C   UNL     1       4.672  11.105 -14.803  1.00  0.00     0.200 A 
ATOM     48  F   UNL     1       4.411  13.209 -15.841  1.00  0.00    -0.200 F 
ATOM     49  F   UNL     1       5.737  10.842 -15.572  1.00  0.00    -0.200 F 
ENDBRANCH  25  39
BRANCH  26  50
ATOM     50  C   UNL     1      -5.604  13.768  -7.622  1.00  0.00     0.064 A 
ATOM     51  C   UNL     1      -6.568  12.799  -7.322  1.00  0.00     0.173 A 
ATOM     52  C   UNL     1      -5.779  15.055  -7.089  1.00  0.00     0.173 A 
ATOM     53  F   UNL     1      -6.451  11.560  -7.822  1.00  0.00    -0.203 F 
ATOM     54  C   UNL     1      -7.671  13.105  -6.527  1.00  0.00     0.198 A 
ATOM     55  C   UNL     1      -6.865  15.351  -6.270  1.00  0.00     0.198 A 
ATOM     56  F   UNL     1      -4.878  16.015  -7.340  1.00  0.00    -0.203 F 
ATOM     57  F   UNL     1      -8.598  12.169  -6.282  1.00  0.00    -0.200 F 
ATOM     58  C   UNL     1      -7.814  14.378  -5.995  1.00  0.00     0.200 A 
ATOM     59  F   UNL     1      -6.988  16.577  -5.742  1.00  0.00    -0.200 F 
ATOM     60  F   UNL     1      -8.867  14.668  -5.220  1.00  0.00    -0.200 F 
ENDBRANCH  26  50
BRANCH  38  61
ATOM     61  C   UNL     1      -4.654  12.235 -14.345  1.00  0.00     0.064 A 
ATOM     62  C   UNL     1      -5.247  13.364 -14.928  1.00  0.00     0.173 A 
ATOM     63  C   UNL     1      -4.964  10.976 -14.878  1.00  0.00     0.173 A 
ATOM     64  F   UNL     1      -4.994  14.588 -14.439  1.00  0.00    -0.203 F 
ATOM     65  C   UNL     1      -6.138  13.234 -15.989  1.00  0.00     0.198 A 
ATOM     66  C   UNL     1      -5.835  10.851 -15.955  1.00  0.00     0.198 A 
ATOM     67  F   UNL     1      -4.418   9.867 -14.355  1.00  0.00    -0.203 F 
ATOM     68  F   UNL     1      -6.731  14.321 -16.500  1.00  0.00    -0.200 F 
ATOM     69  C   UNL     1      -6.427  11.979 -16.505  1.00  0.00     0.200 A 
ATOM     70  F   UNL     1      -6.108   9.640 -16.459  1.00  0.00    -0.200 F 
ATOM     71  F   UNL     1      -7.285  11.856 -17.526  1.00  0.00    -0.200 F 
ENDBRANCH  38  61
ENDBRANCH  12  13
ENDBRANCH   5   7
ENDBRANCH   2   3
ENDBRANCH   1   2
BRANCH   1  72
ATOM     72  C   UNL     1       6.081   9.773  -2.224  1.00  0.00     0.023 C 
BRANCH  72  73
ATOM     73  C   UNL     1       5.119   8.885  -1.431  1.00  0.00     0.116 C 
BRANCH  73  74
ATOM     74  N   UNL     1       5.380   7.482  -1.675  1.00  0.00    -0.351 N 
ATOM     75  C   UNL     1       5.993   6.543  -0.891  1.00  0.00     0.281 C 
ATOM     76  H   UNL     1       5.065   7.149  -2.547  1.00  0.00     0.163 HD
ATOM     77  O   UNL     1       6.067   5.407  -1.375  1.00  0.00    -0.268 OA
BRANCH  75  78
ATOM     78  C   UNL     1       6.555   6.875   0.542  1.00  0.00     0.179 C 
ATOM     79  C   UNL     1       7.528   8.062   0.516  1.00  0.00     0.085 C 
ATOM     80  N   UNL     1       5.402   7.328   1.363  1.00  0.00    -0.333 N 
ATOM     81  C   UNL     1       7.066   9.034   1.592  1.00  0.00     0.068 C 
ATOM     82  C   UNL     1       5.808   8.448   2.197  1.00  0.00     0.261 C 
ATOM     83  H   UNL     1       5.085   6.560   1.955  1.00  0.00     0.347 HD
ATOM     84  H   UNL     1       4.643   7.620   0.748  1.00  0.00     0.347 HD
BRANCH  78  85
ATOM     85  C   UNL     1       7.209   5.556   1.098  1.00  0.00     0.116 C 
BRANCH  85  86
ATOM     86  C   UNL     1       8.146   5.709   2.282  1.00  0.00    -0.023 A 
ATOM     87  C   UNL     1       9.523   5.863   2.019  1.00  0.00     0.005 A 
ATOM     88  C   UNL     1       7.714   5.779   3.612  1.00  0.00     0.044 A 
ATOM     89  C   UNL     1      10.418   6.197   3.033  1.00  0.00     0.000 A 
ATOM     90  C   UNL     1       8.612   6.129   4.627  1.00  0.00     0.021 A 
ATOM     91  Cl  UNL     1       6.089   5.416   4.072  1.00  0.00    -0.084 Cl
ATOM     92  C   UNL     1       9.956   6.359   4.334  1.00  0.00     0.002 A 
ENDBRANCH  85  86
ENDBRANCH  78  85
ENDBRANCH  75  78
ENDBRANCH  73  74
ENDBRANCH  72  73
ENDBRANCH   1  72
TORSDOF 13
