REMARK SMILES O=C(NCCCCNC(=O)[C@H]1[C@@H](C(=O)NN2CCOCC2)[C@H]2C=C[C@@H]1CC2)c1ccc(-c2c3nc(c(-c4c(F)c(F)c(F)c(F)c4F)c4ccc([nH]4)c(-c4c(F)c(F)c(F)c(F)c4F)c4nc(c(-c5c(F)c(F)c(F)c(F)c5F)c5ccc2[nH]5)C=C4)C=C3)cc1
REMARK SMILES IDX 5 1 4 2 3 3 1 4 2 5 28 7 29 8 90 9 30 10 89 11 31 12 32 13
REMARK SMILES IDX 33 14 83 15 34 16 88 17 82 18 84 19 35 20 87 21 81 22 80 23
REMARK SMILES IDX 36 25 68 26 48 27 67 28 49 29 52 30 66 31 85 32 50 33 51 34
REMARK SMILES IDX 65 36 86 37 53 38 37 39 38 40 46 41 39 42 40 43 44 44 47 45
REMARK SMILES IDX 41 46 42 47 45 48 43 49 69 50 70 51 78 52 71 53 72 54 76 55
REMARK SMILES IDX 79 56 73 57 74 58 77 59 75 60 54 61 55 62 63 63 56 64 57 65
REMARK SMILES IDX 61 66 64 67 58 68 59 69 62 70 60 71 6 72 7 73 8 74 9 75
REMARK SMILES IDX 10 77 11 78 12 79 25 80 22 81 24 82 26 83 23 84 27 85 13 86
REMARK SMILES IDX 14 87 15 88 16 90 17 91 21 92 18 93 20 94 19 95
REMARK H PARENT 3 6 84 24 52 35 8 76 15 89
REMARK Flexibility Score: inf
ROOT
ATOM      1  C   UNL     1       1.657   6.706   6.316  1.00  0.00     0.023 C 
ENDROOT
BRANCH   1   2
ATOM      2  C   UNL     1       1.751   6.763   7.825  1.00  0.00     0.116 C 
BRANCH   2   3
ATOM      3  N   UNL     1       1.717   8.146   8.285  1.00  0.00    -0.352 N 
ATOM      4  O   UNL     1       0.662  10.024   8.975  1.00  0.00    -0.269 OA
ATOM      5  C   UNL     1       0.698   8.798   8.916  1.00  0.00     0.251 C 
ATOM      6  H   UNL     1       2.530   8.676   8.121  1.00  0.00     0.163 HD
BRANCH   5   7
ATOM      7  C   UNL     1      -0.354   7.978   9.527  1.00  0.00     0.039 A 
ATOM      8  C   UNL     1       0.016   6.833  10.239  1.00  0.00     0.014 A 
ATOM      9  C   UNL     1      -1.692   8.331   9.369  1.00  0.00     0.014 A 
ATOM     10  C   UNL     1      -0.955   5.960  10.678  1.00  0.00     0.010 A 
ATOM     11  C   UNL     1      -2.670   7.524   9.942  1.00  0.00     0.010 A 
ATOM     12  C   UNL     1      -2.301   6.341  10.605  1.00  0.00    -0.014 A 
BRANCH  12  13
ATOM     13  C   UNL     1      -3.276   5.583  11.411  1.00  0.00     0.031 A 
ATOM     14  C   UNL     1      -4.408   4.844  10.777  1.00  0.00     0.074 A 
ATOM     15  C   UNL     1      -3.101   5.597  12.748  1.00  0.00     0.049 A 
ATOM     16  N   UNL     1      -5.371   4.178  11.358  1.00  0.00    -0.248 NA
ATOM     17  C   UNL     1      -4.482   4.855   9.307  1.00  0.00     0.031 C 
ATOM     18  C   UNL     1      -2.025   6.311  13.449  1.00  0.00     0.029 A 
ATOM     19  N   UNL     1      -3.806   5.000  13.756  1.00  0.00    -0.354 N 
ATOM     20  C   UNL     1      -6.181   3.714  10.333  1.00  0.00     0.074 A 
ATOM     21  C   UNL     1      -5.604   4.179   9.090  1.00  0.00     0.031 C 
ATOM     22  C   UNL     1      -2.120   6.079  14.763  1.00  0.00     0.029 A 
ATOM     23  C   UNL     1      -3.315   5.287  15.006  1.00  0.00     0.049 A 
ATOM     24  H   UNL     1      -4.588   4.421  13.601  1.00  0.00     0.167 HD
ATOM     25  C   UNL     1      -7.306   2.971  10.441  1.00  0.00     0.037 A 
ATOM     26  C   UNL     1      -3.806   4.991  16.221  1.00  0.00     0.037 A 
ATOM     27  C   UNL     1      -7.845   2.508  11.695  1.00  0.00     0.049 A 
ATOM     28  C   UNL     1      -5.078   4.201  16.295  1.00  0.00     0.074 A 
ATOM     29  C   UNL     1      -8.937   1.687  11.910  1.00  0.00     0.029 A 
ATOM     30  N   UNL     1      -7.340   2.838  12.945  1.00  0.00    -0.354 N 
ATOM     31  N   UNL     1      -5.801   3.708  15.319  1.00  0.00    -0.248 NA
ATOM     32  C   UNL     1      -5.611   3.936  17.635  1.00  0.00     0.031 C 
ATOM     33  C   UNL     1      -9.136   1.579  13.289  1.00  0.00     0.029 A 
ATOM     34  C   UNL     1      -8.131   2.279  13.936  1.00  0.00     0.049 A 
ATOM     35  H   UNL     1      -6.539   3.388  13.105  1.00  0.00     0.167 HD
ATOM     36  C   UNL     1      -6.868   3.067  15.925  1.00  0.00     0.074 A 
ATOM     37  C   UNL     1      -6.677   3.202  17.355  1.00  0.00     0.031 C 
ATOM     38  C   UNL     1      -7.920   2.434  15.353  1.00  0.00     0.037 A 
BRANCH  25  39
ATOM     39  C   UNL     1      -8.059   2.627   9.191  1.00  0.00     0.064 A 
ATOM     40  C   UNL     1      -7.586   1.674   8.279  1.00  0.00     0.173 A 
ATOM     41  C   UNL     1      -9.327   3.184   8.962  1.00  0.00     0.173 A 
ATOM     42  F   UNL     1      -6.376   1.120   8.446  1.00  0.00    -0.203 F 
ATOM     43  C   UNL     1      -8.355   1.291   7.182  1.00  0.00     0.198 A 
ATOM     44  C   UNL     1     -10.104   2.781   7.880  1.00  0.00     0.198 A 
ATOM     45  F   UNL     1      -9.826   4.099   9.807  1.00  0.00    -0.203 F 
ATOM     46  F   UNL     1      -7.877   0.391   6.312  1.00  0.00    -0.200 F 
ATOM     47  C   UNL     1      -9.618   1.835   6.991  1.00  0.00     0.200 A 
ATOM     48  F   UNL     1     -11.329   3.296   7.706  1.00  0.00    -0.200 F 
ATOM     49  F   UNL     1     -10.367   1.444   5.950  1.00  0.00    -0.200 F 
ENDBRANCH  25  39
BRANCH  26  50
ATOM     50  C   UNL     1      -3.131   5.498  17.443  1.00  0.00     0.064 A 
ATOM     51  C   UNL     1      -2.567   4.620  18.377  1.00  0.00     0.173 A 
ATOM     52  C   UNL     1      -3.055   6.874  17.713  1.00  0.00     0.173 A 
ATOM     53  F   UNL     1      -2.624   3.296  18.170  1.00  0.00    -0.203 F 
ATOM     54  C   UNL     1      -1.988   5.095  19.551  1.00  0.00     0.198 A 
ATOM     55  C   UNL     1      -2.439   7.350  18.867  1.00  0.00     0.198 A 
ATOM     56  F   UNL     1      -3.569   7.760  16.847  1.00  0.00    -0.203 F 
ATOM     57  F   UNL     1      -1.517   4.230  20.459  1.00  0.00    -0.200 F 
ATOM     58  C   UNL     1      -1.920   6.459  19.793  1.00  0.00     0.200 A 
ATOM     59  F   UNL     1      -2.356   8.669  19.084  1.00  0.00    -0.200 F 
ATOM     60  F   UNL     1      -1.367   6.915  20.925  1.00  0.00    -0.200 F 
ENDBRANCH  26  50
BRANCH  38  61
ATOM     61  C   UNL     1      -8.934   1.835  16.281  1.00  0.00     0.064 A 
ATOM     62  C   UNL     1      -9.804   2.642  17.030  1.00  0.00     0.173 A 
ATOM     63  C   UNL     1      -9.059   0.444  16.398  1.00  0.00     0.173 A 
ATOM     64  F   UNL     1      -9.708   3.979  16.968  1.00  0.00    -0.203 F 
ATOM     65  C   UNL     1     -10.746   2.075  17.882  1.00  0.00     0.198 A 
ATOM     66  C   UNL     1     -10.026  -0.120  17.224  1.00  0.00     0.198 A 
ATOM     67  F   UNL     1      -8.252  -0.370  15.700  1.00  0.00    -0.203 F 
ATOM     68  F   UNL     1     -11.530   2.864  18.629  1.00  0.00    -0.200 F 
ATOM     69  C   UNL     1     -10.863   0.696  17.971  1.00  0.00     0.200 A 
ATOM     70  F   UNL     1     -10.148  -1.452  17.297  1.00  0.00    -0.200 F 
ATOM     71  F   UNL     1     -11.778   0.151  18.784  1.00  0.00    -0.200 F 
ENDBRANCH  38  61
ENDBRANCH  12  13
ENDBRANCH   5   7
ENDBRANCH   2   3
ENDBRANCH   1   2
BRANCH   1  72
ATOM     72  C   UNL     1       2.742   7.527   5.651  1.00  0.00     0.023 C 
BRANCH  72  73
ATOM     73  C   UNL     1       4.133   7.351   6.260  1.00  0.00     0.116 C 
BRANCH  73  74
ATOM     74  N   UNL     1       4.515   5.963   6.396  1.00  0.00    -0.356 N 
ATOM     75  C   UNL     1       5.763   5.452   6.643  1.00  0.00     0.224 C 
ATOM     76  H   UNL     1       3.790   5.304   6.300  1.00  0.00     0.163 HD
ATOM     77  O   UNL     1       6.062   5.027   7.758  1.00  0.00    -0.275 OA
BRANCH  75  78
ATOM     78  C   UNL     1       6.701   5.271   5.437  1.00  0.00     0.098 C 
ATOM     79  C   UNL     1       6.152   5.741   4.077  1.00  0.00     0.100 C 
ATOM     80  C   UNL     1       8.027   6.053   5.746  1.00  0.00     0.025 C 
ATOM     81  C   UNL     1       6.714   7.236   3.847  1.00  0.00     0.025 C 
ATOM     82  C   UNL     1       7.612   7.460   6.109  1.00  0.00    -0.027 C 
ATOM     83  C   UNL     1       8.919   6.228   4.476  1.00  0.00     0.009 C 
ATOM     84  C   UNL     1       6.924   8.068   5.129  1.00  0.00    -0.027 C 
ATOM     85  C   UNL     1       8.183   7.081   3.401  1.00  0.00     0.009 C 
BRANCH  79  86
ATOM     86  C   UNL     1       4.663   5.508   3.673  1.00  0.00     0.238 C 
ATOM     87  O   UNL     1       4.156   6.244   2.814  1.00  0.00    -0.273 OA
ATOM     88  N   UNL     1       3.811   4.516   4.184  1.00  0.00    -0.288 N 
ATOM     89  H   UNL     1       2.853   4.648   4.000  1.00  0.00     0.185 HD
BRANCH  88  90
ATOM     90  N   UNL     1       4.133   3.337   4.937  1.00  0.00    -0.217 NA
ATOM     91  C   UNL     1       3.814   2.109   4.146  1.00  0.00     0.136 C 
ATOM     92  C   UNL     1       3.443   3.141   6.268  1.00  0.00     0.136 C 
ATOM     93  C   UNL     1       2.327   1.681   4.165  1.00  0.00     0.177 C 
ATOM     94  C   UNL     1       1.984   2.663   6.253  1.00  0.00     0.177 C 
ATOM     95  O   UNL     1       1.854   1.465   5.496  1.00  0.00    -0.379 OA
ENDBRANCH  88  90
ENDBRANCH  79  86
ENDBRANCH  75  78
ENDBRANCH  73  74
ENDBRANCH  72  73
ENDBRANCH   1  72
TORSDOF 13
