REMARK SMILES C[C@H](/N=C(\Cc1ccccc1)C(=O)OC(C)(C)C)C(=O)NCCCCNC(=O)c1ccc(-c2c3nc(c(-c4c(F)c(F)c(F)c(F)c4F)c4ccc([nH]4)c(-c4c(F)c(F)c(F)c(F)c4F)c4nc(c(-c5c(F)c(F)c(F)c(F)c5F)c5ccc2[nH]5)C=C4)C=C3)cc1
REMARK SMILES IDX 22 1 21 2 19 3 20 4 2 6 1 7 3 8 4 9 5 10 6 11 7 12 11 13
REMARK SMILES IDX 8 14 10 15 9 16 12 17 13 18 14 19 15 20 16 21 17 22 18 23
REMARK SMILES IDX 23 24 24 25 25 26 26 27 27 28 28 30 29 31 30 32 91 33 31 34
REMARK SMILES IDX 90 35 32 36 33 37 34 38 84 39 35 40 89 41 83 42 85 43 36 44
REMARK SMILES IDX 88 45 82 46 81 47 37 49 69 50 49 51 68 52 50 53 53 54 67 55
REMARK SMILES IDX 86 56 51 57 52 58 66 60 87 61 54 62 38 63 39 64 47 65 40 66
REMARK SMILES IDX 41 67 45 68 48 69 42 70 43 71 46 72 44 73 70 74 71 75 79 76
REMARK SMILES IDX 72 77 73 78 77 79 80 80 74 81 75 82 78 83 76 84 55 85 56 86
REMARK SMILES IDX 64 87 57 88 58 89 62 90 65 91 59 92 60 93 63 94 61 95
REMARK H PARENT 21 5 26 29 85 48 53 59
REMARK Flexibility Score: inf
ROOT
ATOM      1  C   UNL     1      -1.428   2.019   0.588  1.00  0.00     0.116 C 
ENDROOT
BRANCH   1   2
ATOM      2  N   UNL     1      -1.756   0.680   1.008  1.00  0.00    -0.354 N 
ATOM      3  C   UNL     1      -0.927  -0.350   1.352  1.00  0.00     0.244 C 
ATOM      4  O   UNL     1      -1.466  -1.397   1.728  1.00  0.00    -0.273 OA
ATOM      5  H   UNL     1      -2.718   0.478   1.054  1.00  0.00     0.163 HD
BRANCH   3   6
ATOM      6  C   UNL     1       0.608  -0.203   1.361  1.00  0.00     0.191 C 
ATOM      7  C   UNL     1       1.103   0.541   2.585  1.00  0.00     0.044 C 
BRANCH   6   8
ATOM      8  N   UNL     1       1.110   0.198   0.049  1.00  0.00    -0.269 NA
ATOM      9  C   UNL     1       1.718   1.221  -0.423  1.00  0.00     0.125 C 
BRANCH   9  10
ATOM     10  C   UNL     1       2.073   2.507   0.284  1.00  0.00     0.099 C 
BRANCH  10  11
ATOM     11  C   UNL     1       3.528   2.839   0.509  1.00  0.00    -0.042 A 
ATOM     12  C   UNL     1       3.809   4.008   1.241  1.00  0.00     0.004 A 
ATOM     13  C   UNL     1       4.599   2.088   0.014  1.00  0.00     0.004 A 
ATOM     14  C   UNL     1       5.121   4.422   1.460  1.00  0.00     0.000 A 
ATOM     15  C   UNL     1       5.914   2.514   0.220  1.00  0.00     0.000 A 
ATOM     16  C   UNL     1       6.175   3.679   0.941  1.00  0.00     0.000 A 
ENDBRANCH  10  11
ENDBRANCH   9  10
BRANCH   9  17
ATOM     17  C   UNL     1       2.061   1.146  -1.934  1.00  0.00     0.353 C 
ATOM     18  O   UNL     1       2.012   0.114  -2.565  1.00  0.00    -0.245 OA
BRANCH  17  19
ATOM     19  O   UNL     1       2.412   2.364  -2.393  1.00  0.00    -0.455 OA
BRANCH  19  20
ATOM     20  C   UNL     1       2.903   2.531  -3.747  1.00  0.00     0.104 C 
ATOM     21  C   UNL     1       4.137   1.660  -4.016  1.00  0.00     0.056 C 
ATOM     22  C   UNL     1       1.790   2.276  -4.767  1.00  0.00     0.056 C 
ATOM     23  C   UNL     1       3.324   4.006  -3.824  1.00  0.00     0.056 C 
ENDBRANCH  19  20
ENDBRANCH  17  19
ENDBRANCH   9  17
ENDBRANCH   6   8
ENDBRANCH   3   6
ENDBRANCH   1   2
BRANCH   1  24
ATOM     24  C   UNL     1      -1.482   2.185  -0.929  1.00  0.00     0.023 C 
BRANCH  24  25
ATOM     25  C   UNL     1      -2.881   2.470  -1.474  1.00  0.00     0.023 C 
BRANCH  25  26
ATOM     26  C   UNL     1      -3.535   3.735  -0.930  1.00  0.00     0.116 C 
BRANCH  26  27
ATOM     27  N   UNL     1      -2.775   4.950  -1.186  1.00  0.00    -0.352 N 
ATOM     28  C   UNL     1      -3.262   6.215  -1.420  1.00  0.00     0.251 C 
ATOM     29  H   UNL     1      -1.795   4.855  -1.192  1.00  0.00     0.163 HD
ATOM     30  O   UNL     1      -2.510   7.136  -1.717  1.00  0.00    -0.269 OA
BRANCH  28  31
ATOM     31  C   UNL     1      -4.721   6.432  -1.355  1.00  0.00     0.039 A 
ATOM     32  C   UNL     1      -5.369   7.012  -2.447  1.00  0.00     0.014 A 
ATOM     33  C   UNL     1      -5.451   5.980  -0.253  1.00  0.00     0.014 A 
ATOM     34  C   UNL     1      -6.763   7.069  -2.466  1.00  0.00     0.010 A 
ATOM     35  C   UNL     1      -6.840   5.963  -0.310  1.00  0.00     0.010 A 
ATOM     36  C   UNL     1      -7.510   6.505  -1.418  1.00  0.00    -0.014 A 
BRANCH  36  37
ATOM     37  C   UNL     1      -8.993   6.467  -1.463  1.00  0.00     0.031 A 
ATOM     38  C   UNL     1      -9.796   7.204  -0.428  1.00  0.00     0.074 A 
ATOM     39  C   UNL     1      -9.615   5.712  -2.390  1.00  0.00     0.049 A 
ATOM     40  N   UNL     1     -11.093   7.241  -0.256  1.00  0.00    -0.248 NA
ATOM     41  C   UNL     1      -9.037   7.978   0.567  1.00  0.00     0.031 C 
ATOM     42  C   UNL     1      -8.946   4.907  -3.414  1.00  0.00     0.029 A 
ATOM     43  N   UNL     1     -10.951   5.490  -2.615  1.00  0.00    -0.354 N 
ATOM     44  C   UNL     1     -11.302   8.025   0.871  1.00  0.00     0.074 A 
ATOM     45  C   UNL     1      -9.999   8.395   1.377  1.00  0.00     0.031 C 
ATOM     46  C   UNL     1      -9.874   4.304  -4.175  1.00  0.00     0.029 A 
ATOM     47  C   UNL     1     -11.200   4.645  -3.669  1.00  0.00     0.049 A 
ATOM     48  H   UNL     1     -11.664   5.897  -2.071  1.00  0.00     0.167 HD
ATOM     49  C   UNL     1     -12.475   8.421   1.418  1.00  0.00     0.037 A 
ATOM     50  C   UNL     1     -12.367   4.194  -4.168  1.00  0.00     0.037 A 
ATOM     51  C   UNL     1     -13.769   8.073   0.893  1.00  0.00     0.049 A 
ATOM     52  C   UNL     1     -13.657   4.645  -3.536  1.00  0.00     0.074 A 
ATOM     53  C   UNL     1     -15.016   8.482   1.332  1.00  0.00     0.029 A 
ATOM     54  N   UNL     1     -13.982   7.227  -0.185  1.00  0.00    -0.354 N 
ATOM     55  N   UNL     1     -13.844   5.453  -2.520  1.00  0.00    -0.248 NA
ATOM     56  C   UNL     1     -14.899   4.125  -4.124  1.00  0.00     0.031 C 
ATOM     57  C   UNL     1     -15.985   7.841   0.553  1.00  0.00     0.029 A 
ATOM     58  C   UNL     1     -15.341   7.079  -0.409  1.00  0.00     0.049 A 
ATOM     59  H   UNL     1     -13.272   6.795  -0.714  1.00  0.00     0.167 HD
ATOM     60  C   UNL     1     -15.220   5.564  -2.369  1.00  0.00     0.074 A 
ATOM     61  C   UNL     1     -15.820   4.751  -3.406  1.00  0.00     0.031 C 
ATOM     62  C   UNL     1     -15.923   6.274  -1.453  1.00  0.00     0.037 A 
BRANCH  49  63
ATOM     63  C   UNL     1     -12.413   9.278   2.649  1.00  0.00     0.064 A 
ATOM     64  C   UNL     1     -11.942  10.600   2.605  1.00  0.00     0.173 A 
ATOM     65  C   UNL     1     -12.861   8.784   3.883  1.00  0.00     0.173 A 
ATOM     66  F   UNL     1     -11.489  11.118   1.453  1.00  0.00    -0.203 F 
ATOM     67  C   UNL     1     -11.892  11.382   3.756  1.00  0.00     0.198 A 
ATOM     68  C   UNL     1     -12.842   9.581   5.025  1.00  0.00     0.198 A 
ATOM     69  F   UNL     1     -13.326   7.530   3.981  1.00  0.00    -0.203 F 
ATOM     70  F   UNL     1     -11.387  12.623   3.699  1.00  0.00    -0.200 F 
ATOM     71  C   UNL     1     -12.349  10.875   4.963  1.00  0.00     0.200 A 
ATOM     72  F   UNL     1     -13.297   9.094   6.188  1.00  0.00    -0.200 F 
ATOM     73  F   UNL     1     -12.308  11.632   6.068  1.00  0.00    -0.200 F 
ENDBRANCH  49  63
BRANCH  50  74
ATOM     74  C   UNL     1     -12.375   3.287  -5.346  1.00  0.00     0.064 A 
ATOM     75  C   UNL     1     -12.865   3.724  -6.585  1.00  0.00     0.173 A 
ATOM     76  C   UNL     1     -11.907   1.968  -5.259  1.00  0.00     0.173 A 
ATOM     77  F   UNL     1     -13.343   4.971  -6.713  1.00  0.00    -0.203 F 
ATOM     78  C   UNL     1     -12.910   2.870  -7.685  1.00  0.00     0.198 A 
ATOM     79  C   UNL     1     -11.923   1.124  -6.368  1.00  0.00     0.198 A 
ATOM     80  F   UNL     1     -11.423   1.502  -4.099  1.00  0.00    -0.203 F 
ATOM     81  F   UNL     1     -13.430   3.299  -8.843  1.00  0.00    -0.200 F 
ATOM     82  C   UNL     1     -12.434   1.572  -7.577  1.00  0.00     0.200 A 
ATOM     83  F   UNL     1     -11.449  -0.125  -6.263  1.00  0.00    -0.200 F 
ATOM     84  F   UNL     1     -12.474   0.751  -8.635  1.00  0.00    -0.200 F 
ENDBRANCH  50  74
BRANCH  62  85
ATOM     85  C   UNL     1     -17.421   6.241  -1.556  1.00  0.00     0.064 A 
ATOM     86  C   UNL     1     -18.159   5.094  -1.230  1.00  0.00     0.173 A 
ATOM     87  C   UNL     1     -18.129   7.389  -1.945  1.00  0.00     0.173 A 
ATOM     88  F   UNL     1     -17.528   3.966  -0.867  1.00  0.00    -0.203 F 
ATOM     89  C   UNL     1     -19.548   5.088  -1.317  1.00  0.00     0.198 A 
ATOM     90  C   UNL     1     -19.520   7.390  -1.998  1.00  0.00     0.198 A 
ATOM     91  F   UNL     1     -17.472   8.515  -2.259  1.00  0.00    -0.203 F 
ATOM     92  F   UNL     1     -20.230   3.966  -1.050  1.00  0.00    -0.200 F 
ATOM     93  C   UNL     1     -20.228   6.238  -1.692  1.00  0.00     0.200 A 
ATOM     94  F   UNL     1     -20.175   8.506  -2.345  1.00  0.00    -0.200 F 
ATOM     95  F   UNL     1     -21.566   6.233  -1.765  1.00  0.00    -0.200 F 
ENDBRANCH  62  85
ENDBRANCH  36  37
ENDBRANCH  28  31
ENDBRANCH  26  27
ENDBRANCH  25  26
ENDBRANCH  24  25
ENDBRANCH   1  24
TORSDOF 17
