REMARK SMILES O=C(NCCCCNC(=O)c1cc(/N=C/c2ccc([N+](=O)[O-])cc2)ccc1O)c1ccc(-c2c3nc(c(-c4c(F)c(F)c(F)c(F)c4F)c4ccc([nH]4)c(-c4c(F)c(F)c(F)c(F)c4F)c4nc(c(-c5c(F)c(F)c(F)c(F)c5F)c5ccc2[nH]5)C=C4)C=C3)cc1
REMARK SMILES IDX 6 1 5 2 4 3 3 4 1 5 2 6 29 8 30 9 91 10 31 11 90 12 32 13
REMARK SMILES IDX 33 14 34 15 84 16 35 17 89 18 83 19 85 20 36 21 88 22 82 23
REMARK SMILES IDX 81 24 37 26 69 27 49 28 68 29 50 30 53 31 67 32 86 33 51 34
REMARK SMILES IDX 52 35 66 37 87 38 54 39 38 40 39 41 47 42 40 43 41 44 45 45
REMARK SMILES IDX 48 46 42 47 43 48 46 49 44 50 70 51 71 52 79 53 72 54 73 55
REMARK SMILES IDX 77 56 80 57 74 58 75 59 78 60 76 61 55 62 56 63 64 64 57 65
REMARK SMILES IDX 58 66 62 67 65 68 59 69 60 70 63 71 61 72 7 73 8 74 9 75
REMARK SMILES IDX 10 77 11 78 12 79 27 80 13 81 26 82 25 83 28 84 14 86 15 87
REMARK SMILES IDX 16 88 17 89 24 90 18 91 23 92 19 93 20 94 21 95 22 96
REMARK H PARENT 3 7 85 25 53 36 8 76 28 85
REMARK Flexibility Score: inf
ROOT
ATOM      1  C   UNL     1       4.363  -2.816  -2.814  1.00  0.00     0.023 C 
ENDROOT
BRANCH   1   2
ATOM      2  C   UNL     1       4.860  -2.313  -1.462  1.00  0.00     0.023 C 
BRANCH   2   3
ATOM      3  C   UNL     1       4.556  -0.851  -1.160  1.00  0.00     0.116 C 
BRANCH   3   4
ATOM      4  N   UNL     1       3.129  -0.560  -1.108  1.00  0.00    -0.352 N 
ATOM      5  O   UNL     1       1.158   0.042  -0.186  1.00  0.00    -0.269 OA
ATOM      6  C   UNL     1       2.381  -0.016  -0.091  1.00  0.00     0.251 C 
ATOM      7  H   UNL     1       2.626  -0.786  -1.924  1.00  0.00     0.163 HD
BRANCH   6   8
ATOM      8  C   UNL     1       3.046   0.469   1.137  1.00  0.00     0.039 A 
ATOM      9  C   UNL     1       4.204   1.245   1.062  1.00  0.00     0.014 A 
ATOM     10  C   UNL     1       2.511   0.128   2.383  1.00  0.00     0.014 A 
ATOM     11  C   UNL     1       4.918   1.529   2.220  1.00  0.00     0.010 A 
ATOM     12  C   UNL     1       3.183   0.496   3.553  1.00  0.00     0.010 A 
ATOM     13  C   UNL     1       4.416   1.160   3.479  1.00  0.00    -0.014 A 
BRANCH  13  14
ATOM     14  C   UNL     1       5.191   1.512   4.697  1.00  0.00     0.031 A 
ATOM     15  C   UNL     1       5.787   0.448   5.576  1.00  0.00     0.074 A 
ATOM     16  C   UNL     1       5.399   2.813   4.977  1.00  0.00     0.049 A 
ATOM     17  N   UNL     1       6.537   0.584   6.642  1.00  0.00    -0.248 NA
ATOM     18  C   UNL     1       5.499  -0.950   5.223  1.00  0.00     0.031 C 
ATOM     19  C   UNL     1       4.862   3.934   4.203  1.00  0.00     0.029 A 
ATOM     20  N   UNL     1       6.137   3.413   5.964  1.00  0.00    -0.354 N 
ATOM     21  C   UNL     1       6.791  -0.703   7.098  1.00  0.00     0.074 A 
ATOM     22  C   UNL     1       6.096  -1.608   6.207  1.00  0.00     0.031 C 
ATOM     23  C   UNL     1       5.338   5.082   4.705  1.00  0.00     0.029 A 
ATOM     24  C   UNL     1       6.165   4.783   5.868  1.00  0.00     0.049 A 
ATOM     25  H   UNL     1       6.602   2.911   6.672  1.00  0.00     0.167 HD
ATOM     26  C   UNL     1       7.541  -1.092   8.157  1.00  0.00     0.037 A 
ATOM     27  C   UNL     1       6.785   5.698   6.635  1.00  0.00     0.037 A 
ATOM     28  C   UNL     1       8.255  -0.189   9.024  1.00  0.00     0.049 A 
ATOM     29  C   UNL     1       7.605   5.238   7.805  1.00  0.00     0.074 A 
ATOM     30  C   UNL     1       9.080  -0.490  10.095  1.00  0.00     0.029 A 
ATOM     31  N   UNL     1       8.228   1.194   8.919  1.00  0.00    -0.354 N 
ATOM     32  N   UNL     1       7.864   4.017   8.203  1.00  0.00    -0.248 NA
ATOM     33  C   UNL     1       8.214   6.285   8.634  1.00  0.00     0.031 C 
ATOM     34  C   UNL     1       9.519   0.712  10.663  1.00  0.00     0.029 A 
ATOM     35  C   UNL     1       9.003   1.761   9.920  1.00  0.00     0.049 A 
ATOM     36  H   UNL     1       7.732   1.699   8.235  1.00  0.00     0.167 HD
ATOM     37  C   UNL     1       8.676   4.146   9.320  1.00  0.00     0.074 A 
ATOM     38  C   UNL     1       8.885   5.565   9.523  1.00  0.00     0.031 C 
ATOM     39  C   UNL     1       9.199   3.175  10.108  1.00  0.00     0.037 A 
BRANCH  26  40
ATOM     40  C   UNL     1       7.618  -2.562   8.455  1.00  0.00     0.064 A 
ATOM     41  C   UNL     1       8.357  -3.441   7.650  1.00  0.00     0.173 A 
ATOM     42  C   UNL     1       6.980  -3.089   9.588  1.00  0.00     0.173 A 
ATOM     43  F   UNL     1       8.977  -2.989   6.549  1.00  0.00    -0.203 F 
ATOM     44  C   UNL     1       8.434  -4.798   7.955  1.00  0.00     0.198 A 
ATOM     45  C   UNL     1       7.081  -4.442   9.904  1.00  0.00     0.198 A 
ATOM     46  F   UNL     1       6.267  -2.290  10.396  1.00  0.00    -0.203 F 
ATOM     47  F   UNL     1       9.113  -5.627   7.149  1.00  0.00    -0.200 F 
ATOM     48  C   UNL     1       7.802  -5.296   9.085  1.00  0.00     0.200 A 
ATOM     49  F   UNL     1       6.479  -4.918  11.003  1.00  0.00    -0.200 F 
ATOM     50  F   UNL     1       7.883  -6.601   9.380  1.00  0.00    -0.200 F 
ENDBRANCH  26  40
BRANCH  27  51
ATOM     51  C   UNL     1       6.662   7.139   6.302  1.00  0.00     0.064 A 
ATOM     52  C   UNL     1       7.758   7.858   5.806  1.00  0.00     0.173 A 
ATOM     53  C   UNL     1       5.445   7.820   6.452  1.00  0.00     0.173 A 
ATOM     54  F   UNL     1       8.947   7.253   5.664  1.00  0.00    -0.203 F 
ATOM     55  C   UNL     1       7.643   9.207   5.480  1.00  0.00     0.198 A 
ATOM     56  C   UNL     1       5.325   9.162   6.100  1.00  0.00     0.198 A 
ATOM     57  F   UNL     1       4.367   7.173   6.919  1.00  0.00    -0.203 F 
ATOM     58  F   UNL     1       8.714   9.881   5.039  1.00  0.00    -0.200 F 
ATOM     59  C   UNL     1       6.425   9.856   5.620  1.00  0.00     0.200 A 
ATOM     60  F   UNL     1       4.142   9.780   6.221  1.00  0.00    -0.200 F 
ATOM     61  F   UNL     1       6.312  11.151   5.296  1.00  0.00    -0.200 F 
ENDBRANCH  27  51
BRANCH  39  62
ATOM     62  C   UNL     1      10.065   3.621  11.248  1.00  0.00     0.064 A 
ATOM     63  C   UNL     1       9.518   4.222  12.392  1.00  0.00     0.173 A 
ATOM     64  C   UNL     1      11.454   3.433  11.203  1.00  0.00     0.173 A 
ATOM     65  F   UNL     1       8.197   4.441  12.473  1.00  0.00    -0.203 F 
ATOM     66  C   UNL     1      10.335   4.644  13.437  1.00  0.00     0.198 A 
ATOM     67  C   UNL     1      12.265   3.832  12.261  1.00  0.00     0.198 A 
ATOM     68  F   UNL     1      12.023   2.859  10.132  1.00  0.00    -0.203 F 
ATOM     69  F   UNL     1       9.797   5.261  14.498  1.00  0.00    -0.200 F 
ATOM     70  C   UNL     1      11.706   4.444  13.373  1.00  0.00     0.200 A 
ATOM     71  F   UNL     1      13.588   3.630  12.202  1.00  0.00    -0.200 F 
ATOM     72  F   UNL     1      12.491   4.851  14.380  1.00  0.00    -0.200 F 
ENDBRANCH  39  62
ENDBRANCH  13  14
ENDBRANCH   6   8
ENDBRANCH   3   4
ENDBRANCH   2   3
ENDBRANCH   1   2
BRANCH   1  73
ATOM     73  C   UNL     1       4.783  -1.976  -4.015  1.00  0.00     0.116 C 
BRANCH  73  74
ATOM     74  N   UNL     1       6.224  -1.913  -4.185  1.00  0.00    -0.352 N 
ATOM     75  C   UNL     1       6.940  -2.098  -5.345  1.00  0.00     0.255 C 
ATOM     76  H   UNL     1       6.750  -1.714  -3.377  1.00  0.00     0.163 HD
ATOM     77  O   UNL     1       8.166  -2.042  -5.346  1.00  0.00    -0.269 OA
BRANCH  75  78
ATOM     78  C   UNL     1       6.215  -2.452  -6.577  1.00  0.00     0.083 A 
ATOM     79  C   UNL     1       6.393  -3.746  -7.079  1.00  0.00     0.046 A 
ATOM     80  C   UNL     1       5.318  -1.571  -7.189  1.00  0.00     0.128 A 
ATOM     81  C   UNL     1       5.634  -4.187  -8.161  1.00  0.00     0.064 A 
ATOM     82  C   UNL     1       4.545  -2.006  -8.261  1.00  0.00     0.049 A 
ATOM     83  C   UNL     1       4.688  -3.317  -8.725  1.00  0.00     0.032 A 
BRANCH  80  84
ATOM     84  O   UNL     1       5.161  -0.300  -6.711  1.00  0.00    -0.507 OA
ATOM     85  H   UNL     1       5.680  -0.004  -5.989  1.00  0.00     0.293 HD
ENDBRANCH  80  84
BRANCH  81  86
ATOM     86  N   UNL     1       5.791  -5.515  -8.591  1.00  0.00    -0.256 NA
ATOM     87  C   UNL     1       5.889  -5.734  -9.863  1.00  0.00     0.119 C 
BRANCH  87  88
ATOM     88  C   UNL     1       6.063  -7.091 -10.412  1.00  0.00    -0.007 A 
ATOM     89  C   UNL     1       5.984  -7.263 -11.799  1.00  0.00     0.017 A 
ATOM     90  C   UNL     1       6.318  -8.183  -9.574  1.00  0.00     0.017 A 
ATOM     91  C   UNL     1       6.170  -8.532 -12.354  1.00  0.00     0.086 A 
ATOM     92  C   UNL     1       6.511  -9.453 -10.124  1.00  0.00     0.086 A 
ATOM     93  C   UNL     1       6.440  -9.622 -11.514  1.00  0.00     0.269 A 
BRANCH  93  94
ATOM     94  N   UNL     1       6.658 -10.951 -12.101  1.00  0.00     0.062 N 
ATOM     95  O   UNL     1       6.591 -11.053 -13.334  1.00  0.00    -0.258 OA
ATOM     96  O   UNL     1       6.898 -11.890 -11.329  1.00  0.00    -0.258 OA
ENDBRANCH  93  94
ENDBRANCH  87  88
ENDBRANCH  81  86
ENDBRANCH  75  78
ENDBRANCH  73  74
ENDBRANCH   1  73
TORSDOF 15
