REMARK SMILES O=C(NCCCCNC(=O)[C@]1(NC(=O)C2CCN(C(=O)C3CC3)CC2)CCCc2ccccc21)c1ccc(-c2c3nc(c(-c4c(F)c(F)c(F)c(F)c4F)c4ccc([nH]4)c(-c4c(F)c(F)c(F)c(F)c4F)c4nc(c(-c5c(F)c(F)c(F)c(F)c5F)c5ccc2[nH]5)C=C4)C=C3)cc1
REMARK SMILES IDX 6 1 5 2 4 3 3 4 1 5 2 6 35 8 36 9 97 10 37 11 96 12 38 13
REMARK SMILES IDX 39 14 40 15 90 16 41 17 95 18 89 19 91 20 42 21 94 22 88 23
REMARK SMILES IDX 87 24 43 26 75 27 55 28 74 29 56 30 59 31 73 32 92 33 57 34
REMARK SMILES IDX 58 35 72 37 93 38 60 39 44 40 45 41 53 42 46 43 47 44 51 45
REMARK SMILES IDX 54 46 48 47 49 48 52 49 50 50 76 51 77 52 85 53 78 54 79 55
REMARK SMILES IDX 83 56 86 57 80 58 81 59 84 60 82 61 61 62 62 63 70 64 63 65
REMARK SMILES IDX 64 66 68 67 71 68 65 69 66 70 69 71 67 72 7 73 8 74 9 75
REMARK SMILES IDX 10 77 11 78 26 79 34 80 27 81 29 82 33 83 28 84 30 85 32 86
REMARK SMILES IDX 31 87 12 88 13 89 14 91 15 92 16 93 25 94 17 95 24 96 18 97
REMARK SMILES IDX 19 98 20 99 21 100 22 101 23 102
REMARK H PARENT 3 7 91 25 59 36 8 76 12 90
REMARK Flexibility Score: inf
ROOT
ATOM      1  C   UNL     1       4.175  -1.841   3.719  1.00  0.00     0.023 C 
ENDROOT
BRANCH   1   2
ATOM      2  C   UNL     1       5.375  -0.610   2.444  1.00  0.00     0.023 C 
BRANCH   2   3
ATOM      3  C   UNL     1       5.335  -0.359   0.603  1.00  0.00     0.116 C 
BRANCH   3   4
ATOM      4  N   UNL     1       4.435  -1.161  -0.333  1.00  0.00    -0.352 N 
ATOM      5  O   UNL     1       2.423  -1.418  -1.373  1.00  0.00    -0.269 OA
ATOM      6  C   UNL     1       3.423  -0.741  -1.175  1.00  0.00     0.251 C 
ATOM      7  H   UNL     1       4.602  -2.131  -0.338  1.00  0.00     0.163 HD
BRANCH   6   8
ATOM      8  C   UNL     1       3.635   0.516  -1.879  1.00  0.00     0.039 A 
ATOM      9  C   UNL     1       4.905   0.669  -2.428  1.00  0.00     0.014 A 
ATOM     10  C   UNL     1       2.656   1.513  -1.958  1.00  0.00     0.014 A 
ATOM     11  C   UNL     1       5.261   1.885  -2.950  1.00  0.00     0.010 A 
ATOM     12  C   UNL     1       3.009   2.741  -2.505  1.00  0.00     0.010 A 
ATOM     13  C   UNL     1       4.315   2.920  -2.986  1.00  0.00    -0.014 A 
BRANCH  13  14
ATOM     14  C   UNL     1       4.707   4.111  -3.736  1.00  0.00     0.031 A 
ATOM     15  C   UNL     1       5.281   5.297  -3.050  1.00  0.00     0.074 A 
ATOM     16  C   UNL     1       4.669   3.983  -5.071  1.00  0.00     0.049 A 
ATOM     17  N   UNL     1       5.866   6.338  -3.573  1.00  0.00    -0.248 NA
ATOM     18  C   UNL     1       5.209   5.312  -1.583  1.00  0.00     0.031 C 
ATOM     19  C   UNL     1       4.161   2.801  -5.779  1.00  0.00     0.029 A 
ATOM     20  N   UNL     1       5.087   4.818  -6.061  1.00  0.00    -0.354 N 
ATOM     21  C   UNL     1       6.249   7.129  -2.501  1.00  0.00     0.074 A 
ATOM     22  C   UNL     1       5.816   6.456  -1.295  1.00  0.00     0.031 C 
ATOM     23  C   UNL     1       4.308   2.986  -7.095  1.00  0.00     0.029 A 
ATOM     24  C   UNL     1       4.868   4.312  -7.314  1.00  0.00     0.049 A 
ATOM     25  H   UNL     1       5.504   5.694  -5.893  1.00  0.00     0.167 HD
ATOM     26  C   UNL     1       6.894   8.317  -2.547  1.00  0.00     0.037 A 
ATOM     27  C   UNL     1       5.072   4.884  -8.510  1.00  0.00     0.037 A 
ATOM     28  C   UNL     1       7.241   8.972  -3.781  1.00  0.00     0.049 A 
ATOM     29  C   UNL     1       5.703   6.239  -8.532  1.00  0.00     0.074 A 
ATOM     30  C   UNL     1       7.881  10.182  -3.971  1.00  0.00     0.029 A 
ATOM     31  N   UNL     1       6.939   8.475  -5.046  1.00  0.00    -0.354 N 
ATOM     32  N   UNL     1       6.105   6.972  -7.519  1.00  0.00    -0.248 NA
ATOM     33  C   UNL     1       5.916   6.847  -9.845  1.00  0.00     0.031 C 
ATOM     34  C   UNL     1       7.901  10.449  -5.344  1.00  0.00     0.029 A 
ATOM     35  C   UNL     1       7.338   9.375  -6.019  1.00  0.00     0.049 A 
ATOM     36  H   UNL     1       6.504   7.610  -5.223  1.00  0.00     0.167 HD
ATOM     37  C   UNL     1       6.636   8.125  -8.069  1.00  0.00     0.074 A 
ATOM     38  C   UNL     1       6.509   7.986  -9.510  1.00  0.00     0.031 C 
ATOM     39  C   UNL     1       7.183   9.197  -7.444  1.00  0.00     0.037 A 
BRANCH  26  40
ATOM     40  C   UNL     1       7.186   8.999  -1.243  1.00  0.00     0.064 A 
ATOM     41  C   UNL     1       8.147   8.508  -0.345  1.00  0.00     0.173 A 
ATOM     42  C   UNL     1       6.495  10.166  -0.885  1.00  0.00     0.173 A 
ATOM     43  F   UNL     1       8.823   7.384  -0.627  1.00  0.00    -0.203 F 
ATOM     44  C   UNL     1       8.386   9.146   0.871  1.00  0.00     0.198 A 
ATOM     45  C   UNL     1       6.754  10.816   0.319  1.00  0.00     0.198 A 
ATOM     46  F   UNL     1       5.563  10.676  -1.704  1.00  0.00    -0.203 F 
ATOM     47  F   UNL     1       9.274   8.632   1.733  1.00  0.00    -0.200 F 
ATOM     48  C   UNL     1       7.694  10.302   1.199  1.00  0.00     0.200 A 
ATOM     49  F   UNL     1       6.088  11.936   0.630  1.00  0.00    -0.200 F 
ATOM     50  F   UNL     1       7.923  10.915   2.369  1.00  0.00    -0.200 F 
ENDBRANCH  26  40
BRANCH  27  51
ATOM     51  C   UNL     1       4.638   4.155  -9.723  1.00  0.00     0.064 A 
ATOM     52  C   UNL     1       5.562   3.574 -10.596  1.00  0.00     0.173 A 
ATOM     53  C   UNL     1       3.272   3.917  -9.957  1.00  0.00     0.173 A 
ATOM     54  F   UNL     1       6.875   3.771 -10.410  1.00  0.00    -0.203 F 
ATOM     55  C   UNL     1       5.138   2.774 -11.657  1.00  0.00     0.198 A 
ATOM     56  C   UNL     1       2.852   3.096 -10.998  1.00  0.00     0.198 A 
ATOM     57  F   UNL     1       2.350   4.433  -9.130  1.00  0.00    -0.203 F 
ATOM     58  F   UNL     1       6.041   2.230 -12.484  1.00  0.00    -0.200 F 
ATOM     59  C   UNL     1       3.786   2.526 -11.849  1.00  0.00     0.200 A 
ATOM     60  F   UNL     1       1.548   2.834 -11.158  1.00  0.00    -0.200 F 
ATOM     61  F   UNL     1       3.384   1.730 -12.848  1.00  0.00    -0.200 F 
ENDBRANCH  27  51
BRANCH  39  62
ATOM     62  C   UNL     1       7.708  10.289  -8.324  1.00  0.00     0.064 A 
ATOM     63  C   UNL     1       6.847  11.169  -8.994  1.00  0.00     0.173 A 
ATOM     64  C   UNL     1       9.091  10.488  -8.447  1.00  0.00     0.173 A 
ATOM     65  F   UNL     1       5.518  11.003  -8.919  1.00  0.00    -0.203 F 
ATOM     66  C   UNL     1       7.355  12.205  -9.770  1.00  0.00     0.198 A 
ATOM     67  C   UNL     1       9.594  11.543  -9.199  1.00  0.00     0.198 A 
ATOM     68  F   UNL     1       9.950   9.672  -7.819  1.00  0.00    -0.203 F 
ATOM     69  F   UNL     1       6.519  13.014 -10.435  1.00  0.00    -0.200 F 
ATOM     70  C   UNL     1       8.726  12.398  -9.864  1.00  0.00     0.200 A 
ATOM     71  F   UNL     1      10.918  11.736  -9.277  1.00  0.00    -0.200 F 
ATOM     72  F   UNL     1       9.213  13.406 -10.600  1.00  0.00    -0.200 F 
ENDBRANCH  39  62
ENDBRANCH  13  14
ENDBRANCH   6   8
ENDBRANCH   3   4
ENDBRANCH   2   3
ENDBRANCH   1   2
BRANCH   1  73
ATOM     73  C   UNL     1       3.785  -3.679   3.485  1.00  0.00     0.116 C 
BRANCH  73  74
ATOM     74  N   UNL     1       4.832  -4.693   2.739  1.00  0.00    -0.354 N 
ATOM     75  C   UNL     1       6.175  -5.098   2.962  1.00  0.00     0.250 C 
ATOM     76  H   UNL     1       4.436  -5.124   1.947  1.00  0.00     0.163 HD
ATOM     77  O   UNL     1       6.935  -5.220   2.000  1.00  0.00    -0.272 OA
BRANCH  75  78
ATOM     78  C   UNL     1       6.494  -5.667   4.379  1.00  0.00     0.145 C 
ATOM     79  C   UNL     1       7.872  -5.414   5.073  1.00  0.00     0.044 C 
ATOM     80  C   UNL     1       6.156  -7.184   4.242  1.00  0.00    -0.010 A 
ATOM     81  C   UNL     1       8.883  -6.544   5.163  1.00  0.00     0.008 C 
ATOM     82  C   UNL     1       7.138  -8.152   4.543  1.00  0.00    -0.042 A 
ATOM     83  C   UNL     1       5.094  -7.602   3.406  1.00  0.00     0.007 A 
ATOM     84  C   UNL     1       8.219  -7.852   5.534  1.00  0.00     0.036 C 
ATOM     85  C   UNL     1       7.159  -9.385   3.867  1.00  0.00     0.004 A 
ATOM     86  C   UNL     1       5.160  -8.798   2.686  1.00  0.00     0.000 A 
ATOM     87  C   UNL     1       6.213  -9.675   2.891  1.00  0.00     0.000 A 
BRANCH  78  88
ATOM     88  N   UNL     1       5.623  -4.796   5.117  1.00  0.00    -0.338 N 
ATOM     89  C   UNL     1       5.861  -3.436   5.058  1.00  0.00     0.224 C 
ATOM     90  H   UNL     1       4.878  -5.157   5.650  1.00  0.00     0.164 HD
ATOM     91  O   UNL     1       5.826  -2.900   6.173  1.00  0.00    -0.275 OA
BRANCH  89  92
ATOM     92  C   UNL     1       6.100  -2.496   3.573  1.00  0.00     0.082 C 
ATOM     93  C   UNL     1       6.204  -0.837   4.506  1.00  0.00     0.035 C 
ATOM     94  C   UNL     1       4.872  -2.423   1.951  1.00  0.00     0.035 C 
ATOM     95  C   UNL     1       4.725   0.238   4.592  1.00  0.00     0.120 C 
ATOM     96  C   UNL     1       3.385  -1.035   2.019  1.00  0.00     0.120 C 
ATOM     97  N   UNL     1       3.598   0.305   3.272  1.00  0.00    -0.342 N 
ATOM     98  C   UNL     1       2.893   1.506   3.316  1.00  0.00     0.225 C 
ATOM     99  O   UNL     1       2.216   1.836   4.284  1.00  0.00    -0.275 OA
BRANCH  98 100
ATOM    100  C   UNL     1       3.401   2.593   2.429  1.00  0.00     0.079 C 
ATOM    101  C   UNL     1       3.524   2.458   0.953  1.00  0.00     0.014 C 
ATOM    102  C   UNL     1       2.445   3.323   1.508  1.00  0.00     0.014 C 
ENDBRANCH  98 100
ENDBRANCH  89  92
ENDBRANCH  78  88
ENDBRANCH  75  78
ENDBRANCH  73  74
ENDBRANCH   1  73
TORSDOF 14
