REMARK SMILES C[C@@H](CC(=O)NCCCCNC(=O)c1ccc(-c2c3nc(c(-c4c(F)c(F)c(F)c(F)c4F)c4ccc([nH]4)c(-c4c(F)c(F)c(F)c(F)c4F)c4nc(c(-c5c(F)c(F)c(F)c(F)c5F)c5ccc2[nH]5)C=C4)C=C3)cc1)CC(=O)N(C)C[C@H]1CCC[N@H+]1C
REMARK SMILES IDX 4 1 5 2 6 3 3 5 2 6 1 7 77 8 78 9 79 10 80 11 81 12 82 13
REMARK SMILES IDX 83 14 84 15 87 16 85 17 86 18 88 19 7 21 8 22 9 23 10 24
REMARK SMILES IDX 11 25 12 26 13 28 14 29 15 30 76 31 16 32 75 33 17 34 18 35
REMARK SMILES IDX 19 36 69 37 20 38 74 39 68 40 70 41 21 42 73 43 67 44 66 45
REMARK SMILES IDX 22 47 54 48 34 49 53 50 35 51 38 52 52 53 71 54 36 55 37 56
REMARK SMILES IDX 51 58 72 59 39 60 23 61 24 62 32 63 25 64 26 65 30 66 33 67
REMARK SMILES IDX 27 68 28 69 31 70 29 71 55 72 56 73 64 74 57 75 58 76 62 77
REMARK SMILES IDX 65 78 59 79 60 80 63 81 61 82 40 83 41 84 49 85 42 86 43 87
REMARK SMILES IDX 47 88 50 89 44 90 45 91 48 92 46 93
REMARK H PARENT 6 4 87 20 11 27 70 46 38 57
REMARK Flexibility Score: inf
ROOT
ATOM      1  C   UNL     1       0.471  -2.834   1.486  1.00  0.00     0.220 C 
ATOM      2  O   UNL     1      -0.435  -3.638   1.713  1.00  0.00    -0.275 OA
ATOM      3  N   UNL     1       1.024  -2.186   2.548  1.00  0.00    -0.356 N 
ATOM      4  H   UNL     1       0.677  -2.460   3.428  1.00  0.00     0.163 HD
ENDROOT
BRANCH   1   5
ATOM      5  C   UNL     1       0.949  -2.581   0.064  1.00  0.00     0.103 C 
BRANCH   5   6
ATOM      6  C   UNL     1       0.332  -1.378  -0.688  1.00  0.00     0.004 C 
ATOM      7  C   UNL     1       1.367  -0.260  -0.812  1.00  0.00     0.009 C 
BRANCH   6   8
ATOM      8  C   UNL     1      -1.051  -0.956  -0.150  1.00  0.00     0.104 C 
BRANCH   8   9
ATOM      9  C   UNL     1      -1.816   0.021  -1.043  1.00  0.00     0.222 C 
ATOM     10  O   UNL     1      -2.637  -0.437  -1.842  1.00  0.00    -0.275 OA
BRANCH   9  11
ATOM     11  N   UNL     1      -1.564   1.387  -0.950  1.00  0.00    -0.340 N 
ATOM     12  C   UNL     1      -1.008   2.022   0.239  1.00  0.00     0.147 C 
BRANCH  11  13
ATOM     13  C   UNL     1      -2.131   2.281  -1.971  1.00  0.00     0.184 C 
BRANCH  13  14
ATOM     14  C   UNL     1      -1.245   2.729  -3.176  1.00  0.00     0.203 C 
ATOM     15  C   UNL     1       0.004   3.524  -2.789  1.00  0.00     0.073 C 
ATOM     16  N   UNL     1      -0.750   1.808  -4.202  1.00  0.00    -0.333 N 
ATOM     17  C   UNL     1       1.201   2.682  -3.214  1.00  0.00     0.068 C 
ATOM     18  C   UNL     1       0.629   1.459  -3.907  1.00  0.00     0.262 C 
ATOM     19  C   UNL     1      -1.570   0.654  -4.516  1.00  0.00     0.333 C 
ATOM     20  H   UNL     1      -0.809   2.327  -5.078  1.00  0.00     0.348 HD
ENDBRANCH  13  14
ENDBRANCH  11  13
ENDBRANCH   9  11
ENDBRANCH   8   9
ENDBRANCH   6   8
ENDBRANCH   5   6
ENDBRANCH   1   5
BRANCH   3  21
ATOM     21  C   UNL     1       2.041  -1.156   2.585  1.00  0.00     0.116 C 
BRANCH  21  22
ATOM     22  C   UNL     1       1.417   0.237   2.548  1.00  0.00     0.023 C 
BRANCH  22  23
ATOM     23  C   UNL     1       0.806   0.722   3.854  1.00  0.00     0.023 C 
BRANCH  23  24
ATOM     24  C   UNL     1       1.839   1.084   4.903  1.00  0.00     0.116 C 
BRANCH  24  25
ATOM     25  N   UNL     1       2.741   2.155   4.491  1.00  0.00    -0.352 N 
ATOM     26  C   UNL     1       3.291   3.151   5.261  1.00  0.00     0.251 C 
ATOM     27  H   UNL     1       2.986   2.164   3.537  1.00  0.00     0.163 HD
ATOM     28  O   UNL     1       3.972   4.035   4.752  1.00  0.00    -0.269 OA
BRANCH  26  29
ATOM     29  C   UNL     1       2.998   3.169   6.707  1.00  0.00     0.039 A 
ATOM     30  C   UNL     1       2.546   4.352   7.293  1.00  0.00     0.014 A 
ATOM     31  C   UNL     1       3.071   1.989   7.449  1.00  0.00     0.014 A 
ATOM     32  C   UNL     1       2.081   4.328   8.607  1.00  0.00     0.010 A 
ATOM     33  C   UNL     1       2.505   1.943   8.713  1.00  0.00     0.010 A 
ATOM     34  C   UNL     1       2.011   3.113   9.309  1.00  0.00    -0.014 A 
BRANCH  34  35
ATOM     35  C   UNL     1       1.447   3.034  10.677  1.00  0.00     0.031 A 
ATOM     36  C   UNL     1       2.314   2.551  11.807  1.00  0.00     0.074 A 
ATOM     37  C   UNL     1       0.144   3.305  10.885  1.00  0.00     0.049 A 
ATOM     38  N   UNL     1       1.992   2.297  13.049  1.00  0.00    -0.248 NA
ATOM     39  C   UNL     1       3.722   2.269  11.483  1.00  0.00     0.031 C 
ATOM     40  C   UNL     1      -0.814   3.713   9.856  1.00  0.00     0.029 A 
ATOM     41  N   UNL     1      -0.603   3.266  12.035  1.00  0.00    -0.354 N 
ATOM     42  C   UNL     1       3.145   1.798  13.639  1.00  0.00     0.074 A 
ATOM     43  C   UNL     1       4.154   1.721  12.608  1.00  0.00     0.031 C 
ATOM     44  C   UNL     1      -2.012   3.920  10.427  1.00  0.00     0.029 A 
ATOM     45  C   UNL     1      -1.916   3.625  11.852  1.00  0.00     0.049 A 
ATOM     46  H   UNL     1      -0.232   3.005  12.909  1.00  0.00     0.167 HD
ATOM     47  C   UNL     1       3.355   1.466  14.935  1.00  0.00     0.037 A 
ATOM     48  C   UNL     1      -2.925   3.707  12.740  1.00  0.00     0.037 A 
ATOM     49  C   UNL     1       2.364   1.601  15.967  1.00  0.00     0.049 A 
ATOM     50  C   UNL     1      -2.655   3.375  14.183  1.00  0.00     0.074 A 
ATOM     51  C   UNL     1       2.493   1.368  17.324  1.00  0.00     0.029 A 
ATOM     52  N   UNL     1       1.058   2.017  15.752  1.00  0.00    -0.354 N 
ATOM     53  N   UNL     1      -1.542   2.971  14.745  1.00  0.00    -0.248 NA
ATOM     54  C   UNL     1      -3.781   3.518  15.116  1.00  0.00     0.031 C 
ATOM     55  C   UNL     1       1.256   1.615  17.928  1.00  0.00     0.029 A 
ATOM     56  C   UNL     1       0.368   2.040  16.952  1.00  0.00     0.049 A 
ATOM     57  H   UNL     1       0.679   2.261  14.877  1.00  0.00     0.167 HD
ATOM     58  C   UNL     1      -1.823   2.839  16.097  1.00  0.00     0.074 A 
ATOM     59  C   UNL     1      -3.209   3.219  16.274  1.00  0.00     0.031 C 
ATOM     60  C   UNL     1      -1.008   2.437  17.103  1.00  0.00     0.037 A 
BRANCH  47  61
ATOM     61  C   UNL     1       4.713   0.946  15.303  1.00  0.00     0.064 A 
ATOM     62  C   UNL     1       5.846   1.775  15.288  1.00  0.00     0.173 A 
ATOM     63  C   UNL     1       4.885  -0.393  15.684  1.00  0.00     0.173 A 
ATOM     64  F   UNL     1       5.739   3.059  14.914  1.00  0.00    -0.203 F 
ATOM     65  C   UNL     1       7.106   1.274  15.605  1.00  0.00     0.198 A 
ATOM     66  C   UNL     1       6.142  -0.883  16.032  1.00  0.00     0.198 A 
ATOM     67  F   UNL     1       3.836  -1.227  15.716  1.00  0.00    -0.203 F 
ATOM     68  F   UNL     1       8.181   2.069  15.524  1.00  0.00    -0.200 F 
ATOM     69  C   UNL     1       7.252  -0.052  15.983  1.00  0.00     0.200 A 
ATOM     70  F   UNL     1       6.280  -2.162  16.406  1.00  0.00    -0.200 F 
ATOM     71  F   UNL     1       8.464  -0.533  16.289  1.00  0.00    -0.200 F 
ENDBRANCH  47  61
BRANCH  48  72
ATOM     72  C   UNL     1      -4.268   4.166  12.300  1.00  0.00     0.064 A 
ATOM     73  C   UNL     1      -4.751   5.426  12.679  1.00  0.00     0.173 A 
ATOM     74  C   UNL     1      -5.092   3.365  11.499  1.00  0.00     0.173 A 
ATOM     75  F   UNL     1      -4.005   6.221  13.461  1.00  0.00    -0.203 F 
ATOM     76  C   UNL     1      -6.017   5.860  12.290  1.00  0.00     0.198 A 
ATOM     77  C   UNL     1      -6.348   3.809  11.089  1.00  0.00     0.198 A 
ATOM     78  F   UNL     1      -4.673   2.154  11.103  1.00  0.00    -0.203 F 
ATOM     79  F   UNL     1      -6.470   7.051  12.701  1.00  0.00    -0.200 F 
ATOM     80  C   UNL     1      -6.812   5.053  11.491  1.00  0.00     0.200 A 
ATOM     81  F   UNL     1      -7.109   3.033  10.306  1.00  0.00    -0.200 F 
ATOM     82  F   UNL     1      -8.028   5.471  11.115  1.00  0.00    -0.200 F 
ENDBRANCH  48  72
BRANCH  60  83
ATOM     83  C   UNL     1      -1.584   2.423  18.488  1.00  0.00     0.064 A 
ATOM     84  C   UNL     1      -2.502   1.444  18.891  1.00  0.00     0.173 A 
ATOM     85  C   UNL     1      -1.173   3.374  19.434  1.00  0.00     0.173 A 
ATOM     86  F   UNL     1      -2.935   0.523  18.016  1.00  0.00    -0.203 F 
ATOM     87  C   UNL     1      -3.006   1.429  20.188  1.00  0.00     0.198 A 
ATOM     88  C   UNL     1      -1.658   3.340  20.738  1.00  0.00     0.198 A 
ATOM     89  F   UNL     1      -0.291   4.326  19.097  1.00  0.00    -0.203 F 
ATOM     90  F   UNL     1      -3.915   0.510  20.541  1.00  0.00    -0.200 F 
ATOM     91  C   UNL     1      -2.578   2.372  21.112  1.00  0.00     0.200 A 
ATOM     92  F   UNL     1      -1.234   4.243  21.633  1.00  0.00    -0.200 F 
ATOM     93  F   UNL     1      -3.058   2.351  22.363  1.00  0.00    -0.200 F 
ENDBRANCH  60  83
ENDBRANCH  34  35
ENDBRANCH  26  29
ENDBRANCH  24  25
ENDBRANCH  23  24
ENDBRANCH  22  23
ENDBRANCH  21  22
ENDBRANCH   3  21
TORSDOF 17
