REMARK SMILES C[C@H](NS(=O)(=O)c1ccc(-c2cc(-c3ccccc3)c3cc([N+](=O)[O-])ccc3n2)cc1)C(=O)NCCCCNC(=O)c1ccc(-c2c3nc(c(-c4c(F)c(F)c(F)c(F)c4F)c4ccc([nH]4)c(-c4c(F)c(F)c(F)c(F)c4F)c4nc(c(-c5c(F)c(F)c(F)c(F)c5F)c5ccc2[nH]5)C=C4)C=C3)cc1
REMARK SMILES IDX 35 1 34 2 32 3 33 4 2 6 1 7 3 8 4 10 5 11 6 12 7 13 8 14
REMARK SMILES IDX 31 15 9 16 30 17 10 18 11 19 12 20 29 21 13 22 28 23 20 24
REMARK SMILES IDX 27 25 21 26 26 27 22 28 14 29 15 30 19 31 16 32 18 33 17 34
REMARK SMILES IDX 23 35 24 36 25 37 36 38 37 39 38 40 39 41 40 42 41 44 42 45
REMARK SMILES IDX 43 46 104 47 44 48 103 49 45 50 46 51 47 52 97 53 48 54
REMARK SMILES IDX 102 55 96 56 98 57 49 58 101 59 95 60 94 61 50 63 82 64
REMARK SMILES IDX 62 65 81 66 63 67 66 68 80 69 99 70 64 71 65 72 79 74 100 75
REMARK SMILES IDX 67 76 51 77 52 78 60 79 53 80 54 81 58 82 61 83 55 84 56 85
REMARK SMILES IDX 59 86 57 87 83 88 84 89 92 90 85 91 86 92 90 93 93 94 87 95
REMARK SMILES IDX 88 96 91 97 89 98 68 99 69 100 77 101 70 102 71 103 75 104
REMARK SMILES IDX 78 105 72 106 73 107 76 108 74 109
REMARK H PARENT 34 5 3 9 39 43 98 62 66 73
REMARK Flexibility Score: inf
ROOT
ATOM      1  C   UNL     1      -1.515  -0.844   1.440  1.00  0.00     0.116 C 
ENDROOT
BRANCH   1   2
ATOM      2  N   UNL     1      -1.519  -0.364   0.074  1.00  0.00    -0.355 N 
ATOM      3  C   UNL     1      -0.522  -0.309  -0.849  1.00  0.00     0.237 C 
ATOM      4  O   UNL     1      -0.722   0.426  -1.825  1.00  0.00    -0.273 OA
ATOM      5  H   UNL     1      -2.387  -0.019  -0.237  1.00  0.00     0.163 HD
BRANCH   3   6
ATOM      6  C   UNL     1       0.777  -1.123  -0.776  1.00  0.00     0.155 C 
ATOM      7  C   UNL     1       0.649  -2.553  -0.289  1.00  0.00     0.036 C 
BRANCH   6   8
ATOM      8  N   UNL     1       2.003  -0.415  -0.357  1.00  0.00    -0.199 NA
ATOM      9  H   UNL     1       1.912   0.522  -0.749  1.00  0.00     0.142 HD
BRANCH   8  10
ATOM     10  S   UNL     1       2.544  -0.176   1.205  1.00  0.00     0.241 S 
ATOM     11  O   UNL     1       3.601   0.797   1.116  1.00  0.00    -0.207 OA
ATOM     12  O   UNL     1       1.380   0.043   2.040  1.00  0.00    -0.207 OA
BRANCH  10  13
ATOM     13  C   UNL     1       3.302  -1.707   1.726  1.00  0.00     0.082 A 
ATOM     14  C   UNL     1       3.660  -2.685   0.797  1.00  0.00     0.022 A 
ATOM     15  C   UNL     1       3.281  -2.011   3.088  1.00  0.00     0.022 A 
ATOM     16  C   UNL     1       3.708  -4.030   1.201  1.00  0.00     0.012 A 
ATOM     17  C   UNL     1       3.420  -3.340   3.495  1.00  0.00     0.012 A 
ATOM     18  C   UNL     1       3.448  -4.385   2.537  1.00  0.00     0.000 A 
BRANCH  18  19
ATOM     19  C   UNL     1       2.613  -5.608   2.834  1.00  0.00     0.072 A 
ATOM     20  C   UNL     1       2.795  -6.360   3.993  1.00  0.00     0.038 A 
ATOM     21  N   UNL     1       1.343  -5.323   2.444  1.00  0.00    -0.248 NA
ATOM     22  C   UNL     1       1.765  -6.335   4.940  1.00  0.00    -0.007 A 
ATOM     23  C   UNL     1       0.543  -4.940   3.432  1.00  0.00     0.072 A 
ATOM     24  C   UNL     1       0.817  -5.316   4.751  1.00  0.00     0.015 A 
ATOM     25  C   UNL     1      -0.384  -3.951   3.186  1.00  0.00     0.036 A 
ATOM     26  C   UNL     1       0.350  -4.522   5.816  1.00  0.00     0.096 A 
ATOM     27  C   UNL     1      -0.752  -3.092   4.218  1.00  0.00     0.088 A 
ATOM     28  C   UNL     1      -0.293  -3.328   5.514  1.00  0.00     0.270 A 
BRANCH  22  29
ATOM     29  C   UNL     1       1.648  -7.216   6.117  1.00  0.00    -0.018 A 
ATOM     30  C   UNL     1       0.366  -7.725   6.444  1.00  0.00     0.009 A 
ATOM     31  C   UNL     1       2.710  -7.548   6.960  1.00  0.00     0.009 A 
ATOM     32  C   UNL     1       0.139  -8.476   7.595  1.00  0.00     0.001 A 
ATOM     33  C   UNL     1       2.486  -8.315   8.112  1.00  0.00     0.001 A 
ATOM     34  C   UNL     1       1.204  -8.765   8.435  1.00  0.00     0.000 A 
ENDBRANCH  22  29
BRANCH  28  35
ATOM     35  N   UNL     1      -0.186  -2.209   6.463  1.00  0.00     0.062 N 
ATOM     36  O   UNL     1       0.096  -2.476   7.639  1.00  0.00    -0.258 OA
ATOM     37  O   UNL     1      -0.256  -1.063   5.984  1.00  0.00    -0.258 OA
ENDBRANCH  28  35
ENDBRANCH  18  19
ENDBRANCH  10  13
ENDBRANCH   8  10
ENDBRANCH   6   8
ENDBRANCH   3   6
ENDBRANCH   1   2
BRANCH   1  38
ATOM     38  C   UNL     1      -1.728   0.306   2.429  1.00  0.00     0.023 C 
BRANCH  38  39
ATOM     39  C   UNL     1      -3.183   0.528   2.851  1.00  0.00     0.023 C 
BRANCH  39  40
ATOM     40  C   UNL     1      -3.784  -0.556   3.744  1.00  0.00     0.116 C 
BRANCH  40  41
ATOM     41  N   UNL     1      -3.092  -0.752   5.009  1.00  0.00    -0.352 N 
ATOM     42  C   UNL     1      -3.555  -1.346   6.159  1.00  0.00     0.251 C 
ATOM     43  H   UNL     1      -2.168  -0.414   5.046  1.00  0.00     0.163 HD
ATOM     44  O   UNL     1      -2.825  -1.560   7.119  1.00  0.00    -0.269 OA
BRANCH  42  45
ATOM     45  C   UNL     1      -4.977  -1.660   6.299  1.00  0.00     0.039 A 
ATOM     46  C   UNL     1      -5.628  -1.122   7.414  1.00  0.00     0.014 A 
ATOM     47  C   UNL     1      -5.667  -2.401   5.342  1.00  0.00     0.014 A 
ATOM     48  C   UNL     1      -7.006  -1.231   7.514  1.00  0.00     0.010 A 
ATOM     49  C   UNL     1      -7.051  -2.457   5.410  1.00  0.00     0.010 A 
ATOM     50  C   UNL     1      -7.724  -1.844   6.479  1.00  0.00    -0.014 A 
BRANCH  50  51
ATOM     51  C   UNL     1      -9.197  -1.795   6.474  1.00  0.00     0.031 A 
ATOM     52  C   UNL     1      -9.985  -3.050   6.662  1.00  0.00     0.074 A 
ATOM     53  C   UNL     1      -9.800  -0.616   6.230  1.00  0.00     0.049 A 
ATOM     54  N   UNL     1     -11.278  -3.225   6.613  1.00  0.00    -0.248 NA
ATOM     55  C   UNL     1      -9.214  -4.278   6.910  1.00  0.00     0.031 C 
ATOM     56  C   UNL     1      -9.107   0.653   5.986  1.00  0.00     0.029 A 
ATOM     57  N   UNL     1     -11.127  -0.293   6.140  1.00  0.00    -0.354 N 
ATOM     58  C   UNL     1     -11.476  -4.583   6.803  1.00  0.00     0.074 A 
ATOM     59  C   UNL     1     -10.171  -5.194   6.930  1.00  0.00     0.031 C 
ATOM     60  C   UNL     1     -10.018   1.620   5.795  1.00  0.00     0.029 A 
ATOM     61  C   UNL     1     -11.351   1.034   5.872  1.00  0.00     0.049 A 
ATOM     62  H   UNL     1     -11.851  -0.950   6.256  1.00  0.00     0.167 HD
ATOM     63  C   UNL     1     -12.650  -5.252   6.881  1.00  0.00     0.037 A 
ATOM     64  C   UNL     1     -12.509   1.697   5.707  1.00  0.00     0.037 A 
ATOM     65  C   UNL     1     -13.939  -4.621   6.780  1.00  0.00     0.049 A 
ATOM     66  C   UNL     1     -13.797   0.935   5.835  1.00  0.00     0.074 A 
ATOM     67  C   UNL     1     -15.193  -5.193   6.887  1.00  0.00     0.029 A 
ATOM     68  N   UNL     1     -14.132  -3.265   6.552  1.00  0.00    -0.354 N 
ATOM     69  N   UNL     1     -13.980  -0.343   6.064  1.00  0.00    -0.248 NA
ATOM     70  C   UNL     1     -15.038   1.706   5.690  1.00  0.00     0.031 C 
ATOM     71  C   UNL     1     -16.147  -4.186   6.700  1.00  0.00     0.029 A 
ATOM     72  C   UNL     1     -15.487  -2.982   6.508  1.00  0.00     0.049 A 
ATOM     73  H   UNL     1     -13.413  -2.603   6.438  1.00  0.00     0.167 HD
ATOM     74  C   UNL     1     -15.352  -0.529   6.110  1.00  0.00     0.074 A 
ATOM     75  C   UNL     1     -15.956   0.772   5.899  1.00  0.00     0.031 C 
ATOM     76  C   UNL     1     -16.053  -1.673   6.304  1.00  0.00     0.037 A 
BRANCH  63  77
ATOM     77  C   UNL     1     -12.581  -6.734   7.083  1.00  0.00     0.064 A 
ATOM     78  C   UNL     1     -12.180  -7.289   8.308  1.00  0.00     0.173 A 
ATOM     79  C   UNL     1     -12.919  -7.611   6.042  1.00  0.00     0.173 A 
ATOM     80  F   UNL     1     -11.827  -6.491   9.327  1.00  0.00    -0.203 F 
ATOM     81  C   UNL     1     -12.091  -8.669   8.474  1.00  0.00     0.198 A 
ATOM     82  C   UNL     1     -12.854  -8.991   6.220  1.00  0.00     0.198 A 
ATOM     83  F   UNL     1     -13.305  -7.131   4.851  1.00  0.00    -0.203 F 
ATOM     84  F   UNL     1     -11.655  -9.175   9.635  1.00  0.00    -0.200 F 
ATOM     85  C   UNL     1     -12.433  -9.518   7.432  1.00  0.00     0.200 A 
ATOM     86  F   UNL     1     -13.187  -9.811   5.214  1.00  0.00    -0.200 F 
ATOM     87  F   UNL     1     -12.344 -10.845   7.592  1.00  0.00    -0.200 F 
ENDBRANCH  63  77
BRANCH  64  88
ATOM     88  C   UNL     1     -12.495   3.157   5.440  1.00  0.00     0.064 A 
ATOM     89  C   UNL     1     -12.891   4.069   6.428  1.00  0.00     0.173 A 
ATOM     90  C   UNL     1     -12.070   3.671   4.207  1.00  0.00     0.173 A 
ATOM     91  F   UNL     1     -13.318   3.622   7.618  1.00  0.00    -0.203 F 
ATOM     92  C   UNL     1     -12.879   5.441   6.186  1.00  0.00     0.198 A 
ATOM     93  C   UNL     1     -12.037   5.044   3.974  1.00  0.00     0.198 A 
ATOM     94  F   UNL     1     -11.672   2.838   3.234  1.00  0.00    -0.203 F 
ATOM     95  F   UNL     1     -13.295   6.290   7.136  1.00  0.00    -0.200 F 
ATOM     96  C   UNL     1     -12.447   5.928   4.961  1.00  0.00     0.200 A 
ATOM     97  F   UNL     1     -11.608   5.511   2.794  1.00  0.00    -0.200 F 
ATOM     98  F   UNL     1     -12.432   7.247   4.730  1.00  0.00    -0.200 F 
ENDBRANCH  64  88
BRANCH  76  99
ATOM     99  C   UNL     1     -17.546  -1.557   6.321  1.00  0.00     0.064 A 
ATOM    100  C   UNL     1     -18.277  -1.387   5.138  1.00  0.00     0.173 A 
ATOM    101  C   UNL     1     -18.251  -1.660   7.529  1.00  0.00     0.173 A 
ATOM    102  F   UNL     1     -17.642  -1.266   3.963  1.00  0.00    -0.203 F 
ATOM    103  C   UNL     1     -19.666  -1.306   5.165  1.00  0.00     0.198 A 
ATOM    104  C   UNL     1     -19.640  -1.602   7.549  1.00  0.00     0.198 A 
ATOM    105  F   UNL     1     -17.591  -1.827   8.685  1.00  0.00    -0.203 F 
ATOM    106  F   UNL     1     -20.346  -1.107   4.028  1.00  0.00    -0.200 F 
ATOM    107  C   UNL     1     -20.346  -1.421   6.369  1.00  0.00     0.200 A 
ATOM    108  F   UNL     1     -20.297  -1.721   8.711  1.00  0.00    -0.200 F 
ATOM    109  F   UNL     1     -21.684  -1.349   6.392  1.00  0.00    -0.200 F 
ENDBRANCH  76  99
ENDBRANCH  50  51
ENDBRANCH  42  45
ENDBRANCH  40  41
ENDBRANCH  39  40
ENDBRANCH  38  39
ENDBRANCH   1  38
TORSDOF 17
