REMARK SMILES N#C/C(=C\c1ccc(Oc2ccccc2Cl)c([N+](=O)[O-])c1)C(=O)NCCCCNC(=O)c1ccc(-c2c3nc(c(-c4c(F)c(F)c(F)c(F)c4F)c4ccc([nH]4)c(-c4c(F)c(F)c(F)c(F)c4F)c4nc(c(-c5c(F)c(F)c(F)c(F)c5F)c5ccc2[nH]5)C=C4)C=C3)cc1
REMARK SMILES IDX 26 1 25 2 24 3 22 4 23 5 3 7 4 8 2 9 1 10 5 11 6 12 21 13
REMARK SMILES IDX 7 14 17 15 8 16 18 17 19 18 20 19 9 20 10 21 11 22 15 23
REMARK SMILES IDX 12 24 14 25 16 26 13 27 27 28 28 29 29 30 30 31 31 33 32 34
REMARK SMILES IDX 33 35 94 36 34 37 93 38 35 39 36 40 37 41 87 42 38 43 92 44
REMARK SMILES IDX 86 45 88 46 39 47 91 48 85 49 84 50 40 52 72 53 52 54 71 55
REMARK SMILES IDX 53 56 56 57 70 58 89 59 54 60 55 61 69 63 90 64 57 65 41 66
REMARK SMILES IDX 42 67 50 68 43 69 44 70 48 71 51 72 45 73 46 74 49 75 47 76
REMARK SMILES IDX 73 77 74 78 82 79 75 80 76 81 80 82 83 83 77 84 78 85 81 86
REMARK SMILES IDX 79 87 58 88 59 89 67 90 60 91 61 92 65 93 68 94 62 95 63 96
REMARK SMILES IDX 66 97 64 98
REMARK H PARENT 24 6 29 32 88 51 56 62
REMARK Flexibility Score: inf
ROOT
ATOM      1  C   UNL     1       7.556   0.839   0.098  1.00  0.00     0.023 C 
ENDROOT
BRANCH   1   2
ATOM      2  C   UNL     1       6.939  -0.473   0.594  1.00  0.00     0.116 C 
BRANCH   2   3
ATOM      3  N   UNL     1       5.862  -0.231   1.534  1.00  0.00    -0.351 N 
ATOM      4  C   UNL     1       4.519  -0.067   1.375  1.00  0.00     0.261 C 
ATOM      5  O   UNL     1       3.853   0.081   2.401  1.00  0.00    -0.268 OA
ATOM      6  H   UNL     1       6.160  -0.174   2.470  1.00  0.00     0.163 HD
BRANCH   4   7
ATOM      7  C   UNL     1       3.840  -0.064   0.049  1.00  0.00     0.117 C 
ATOM      8  C   UNL     1       4.398   0.138  -1.171  1.00  0.00     0.033 C 
BRANCH   7   9
ATOM      9  C   UNL     1       2.320  -0.064   0.049  1.00  0.00     0.105 C 
ATOM     10  N   UNL     1       1.059  -0.064   0.049  1.00  0.00    -0.192 NA
ENDBRANCH   7   9
BRANCH   8  11
ATOM     11  C   UNL     1       3.670   0.189  -2.463  1.00  0.00    -0.017 A 
ATOM     12  C   UNL     1       4.069  -0.650  -3.508  1.00  0.00     0.012 A 
ATOM     13  C   UNL     1       2.568   1.025  -2.672  1.00  0.00     0.098 A 
ATOM     14  C   UNL     1       3.359  -0.670  -4.719  1.00  0.00     0.055 A 
ATOM     15  C   UNL     1       1.810   0.929  -3.854  1.00  0.00     0.312 A 
ATOM     16  C   UNL     1       2.211   0.116  -4.917  1.00  0.00     0.204 A 
BRANCH  15  17
ATOM     17  N   UNL     1       0.541   1.627  -3.823  1.00  0.00     0.066 N 
ATOM     18  O   UNL     1      -0.484   0.935  -3.814  1.00  0.00    -0.258 OA
ATOM     19  O   UNL     1       0.583   2.862  -3.736  1.00  0.00    -0.258 OA
ENDBRANCH  15  17
BRANCH  16  20
ATOM     20  O   UNL     1       1.658  -0.069  -6.165  1.00  0.00    -0.449 OA
BRANCH  20  21
ATOM     21  C   UNL     1       0.688   0.772  -6.644  1.00  0.00     0.146 A 
ATOM     22  C   UNL     1      -0.559   0.186  -6.887  1.00  0.00     0.049 A 
ATOM     23  C   UNL     1       0.893   2.123  -6.947  1.00  0.00     0.083 A 
ATOM     24  C   UNL     1      -1.626   0.966  -7.330  1.00  0.00     0.004 A 
ATOM     25  C   UNL     1      -0.184   2.907  -7.370  1.00  0.00     0.024 A 
ATOM     26  Cl  UNL     1       2.443   2.869  -6.800  1.00  0.00    -0.080 Cl
ATOM     27  C   UNL     1      -1.444   2.330  -7.549  1.00  0.00     0.002 A 
ENDBRANCH  20  21
ENDBRANCH  16  20
ENDBRANCH   8  11
ENDBRANCH   4   7
ENDBRANCH   2   3
ENDBRANCH   1   2
BRANCH   1  28
ATOM     28  C   UNL     1       8.613   1.438   1.028  1.00  0.00     0.023 C 
BRANCH  28  29
ATOM     29  C   UNL     1       9.837   0.559   1.256  1.00  0.00     0.116 C 
BRANCH  29  30
ATOM     30  N   UNL     1      10.524   0.184   0.030  1.00  0.00    -0.352 N 
ATOM     31  C   UNL     1      11.843  -0.178  -0.123  1.00  0.00     0.251 C 
ATOM     32  H   UNL     1       9.979   0.189  -0.790  1.00  0.00     0.163 HD
ATOM     33  O   UNL     1      12.312  -0.384  -1.232  1.00  0.00    -0.269 OA
BRANCH  31  34
ATOM     34  C   UNL     1      12.698  -0.260   1.079  1.00  0.00     0.039 A 
ATOM     35  C   UNL     1      13.890   0.466   1.105  1.00  0.00     0.014 A 
ATOM     36  C   UNL     1      12.289  -0.997   2.192  1.00  0.00     0.014 A 
ATOM     37  C   UNL     1      14.640   0.511   2.280  1.00  0.00     0.010 A 
ATOM     38  C   UNL     1      13.000  -0.894   3.382  1.00  0.00     0.010 A 
ATOM     39  C   UNL     1      14.180  -0.136   3.438  1.00  0.00    -0.014 A 
BRANCH  39  40
ATOM     40  C   UNL     1      14.912  -0.026   4.723  1.00  0.00     0.031 A 
ATOM     41  C   UNL     1      15.526  -1.248   5.345  1.00  0.00     0.074 A 
ATOM     42  C   UNL     1      14.956   1.157   5.364  1.00  0.00     0.049 A 
ATOM     43  N   UNL     1      16.139  -1.372   6.495  1.00  0.00    -0.248 NA
ATOM     44  C   UNL     1      15.409  -2.504   4.588  1.00  0.00     0.031 C 
ATOM     45  C   UNL     1      14.346   2.400   4.889  1.00  0.00     0.029 A 
ATOM     46  N   UNL     1      15.528   1.505   6.562  1.00  0.00    -0.354 N 
ATOM     47  C   UNL     1      16.461  -2.717   6.606  1.00  0.00     0.074 A 
ATOM     48  C   UNL     1      15.933  -3.379   5.433  1.00  0.00     0.031 C 
ATOM     49  C   UNL     1      14.592   3.378   5.775  1.00  0.00     0.029 A 
ATOM     50  C   UNL     1      15.348   2.825   6.895  1.00  0.00     0.049 A 
ATOM     51  H   UNL     1      16.020   0.869   7.129  1.00  0.00     0.167 HD
ATOM     52  C   UNL     1      17.156  -3.340   7.588  1.00  0.00     0.037 A 
ATOM     53  C   UNL     1      15.745   3.510   7.984  1.00  0.00     0.037 A 
ATOM     54  C   UNL     1      17.709  -2.671   8.736  1.00  0.00     0.049 A 
ATOM     55  C   UNL     1      16.532   2.799   9.051  1.00  0.00     0.074 A 
ATOM     56  C   UNL     1      18.491  -3.198   9.748  1.00  0.00     0.029 A 
ATOM     57  N   UNL     1      17.535  -1.325   9.023  1.00  0.00    -0.354 N 
ATOM     58  N   UNL     1      16.898   1.542   9.109  1.00  0.00    -0.248 NA
ATOM     59  C   UNL     1      16.970   3.605  10.199  1.00  0.00     0.031 C 
ATOM     60  C   UNL     1      18.757  -2.180  10.669  1.00  0.00     0.029 A 
ATOM     61  C   UNL     1      18.180  -1.008  10.207  1.00  0.00     0.049 A 
ATOM     62  H   UNL     1      17.029  -0.689   8.467  1.00  0.00     0.167 HD
ATOM     63  C   UNL     1      17.628   1.410  10.282  1.00  0.00     0.074 A 
ATOM     64  C   UNL     1      17.666   2.720  10.899  1.00  0.00     0.031 C 
ATOM     65  C   UNL     1      18.214   0.304  10.802  1.00  0.00     0.037 A 
BRANCH  52  66
ATOM     66  C   UNL     1      17.363  -4.820   7.459  1.00  0.00     0.064 A 
ATOM     67  C   UNL     1      18.216  -5.361   6.485  1.00  0.00     0.173 A 
ATOM     68  C   UNL     1      16.727  -5.707   8.340  1.00  0.00     0.173 A 
ATOM     69  F   UNL     1      18.838  -4.557   5.610  1.00  0.00    -0.203 F 
ATOM     70  C   UNL     1      18.402  -6.737   6.380  1.00  0.00     0.198 A 
ATOM     71  C   UNL     1      16.939  -7.081   8.251  1.00  0.00     0.198 A 
ATOM     72  F   UNL     1      15.904  -5.242   9.291  1.00  0.00    -0.203 F 
ATOM     73  F   UNL     1      19.183  -7.233   5.410  1.00  0.00    -0.200 F 
ATOM     74  C   UNL     1      17.770  -7.595   7.267  1.00  0.00     0.200 A 
ATOM     75  F   UNL     1      16.335  -7.908   9.115  1.00  0.00    -0.200 F 
ATOM     76  F   UNL     1      17.954  -8.918   7.168  1.00  0.00    -0.200 F 
ENDBRANCH  52  66
BRANCH  53  77
ATOM     77  C   UNL     1      15.431   4.957   8.105  1.00  0.00     0.064 A 
ATOM     78  C   UNL     1      16.441   5.923   7.994  1.00  0.00     0.173 A 
ATOM     79  C   UNL     1      14.121   5.405   8.329  1.00  0.00     0.173 A 
ATOM     80  F   UNL     1      17.712   5.542   7.798  1.00  0.00    -0.203 F 
ATOM     81  C   UNL     1      16.156   7.281   8.122  1.00  0.00     0.198 A 
ATOM     82  C   UNL     1      13.834   6.765   8.431  1.00  0.00     0.198 A 
ATOM     83  F   UNL     1      13.119   4.521   8.436  1.00  0.00    -0.203 F 
ATOM     84  F   UNL     1      17.147   8.180   8.053  1.00  0.00    -0.200 F 
ATOM     85  C   UNL     1      14.852   7.701   8.335  1.00  0.00     0.200 A 
ATOM     86  F   UNL     1      12.570   7.167   8.622  1.00  0.00    -0.200 F 
ATOM     87  F   UNL     1      14.578   9.007   8.452  1.00  0.00    -0.200 F 
ENDBRANCH  53  77
BRANCH  65  88
ATOM     88  C   UNL     1      18.973   0.467  12.086  1.00  0.00     0.064 A 
ATOM     89  C   UNL     1      18.316   0.663  13.309  1.00  0.00     0.173 A 
ATOM     90  C   UNL     1      20.373   0.381  12.097  1.00  0.00     0.173 A 
ATOM     91  F   UNL     1      16.979   0.767  13.347  1.00  0.00    -0.203 F 
ATOM     92  C   UNL     1      19.035   0.790  14.494  1.00  0.00     0.198 A 
ATOM     93  C   UNL     1      21.087   0.479  13.287  1.00  0.00     0.198 A 
ATOM     94  F   UNL     1      21.048   0.187  10.954  1.00  0.00    -0.203 F 
ATOM     95  F   UNL     1      18.389   1.020  15.646  1.00  0.00    -0.200 F 
ATOM     96  C   UNL     1      20.419   0.690  14.483  1.00  0.00     0.200 A 
ATOM     97  F   UNL     1      22.423   0.369  13.277  1.00  0.00    -0.200 F 
ATOM     98  F   UNL     1      21.108   0.803  15.627  1.00  0.00    -0.200 F 
ENDBRANCH  65  88
ENDBRANCH  39  40
ENDBRANCH  31  34
ENDBRANCH  29  30
ENDBRANCH  28  29
ENDBRANCH   1  28
TORSDOF 16
