REMARK SMILES CC(C)OCCS(=O)(=O)N[C@@H]1COC[C@@H]1C(=O)NCCCCNC(=O)c1ccc(-c2c3nc(c(-c4c(F)c(F)c(F)c(F)c4F)c4ccc([nH]4)c(-c4c(F)c(F)c(F)c(F)c4F)c4nc(c(-c5c(F)c(F)c(F)c(F)c5F)c5ccc2[nH]5)C=C4)C=C3)cc1
REMARK SMILES IDX 16 1 17 2 18 3 15 5 11 6 12 7 13 8 14 9 10 10 7 12 8 13 9 14
REMARK SMILES IDX 6 15 5 16 4 17 2 18 1 19 3 20 19 21 20 22 21 23 22 24 23 25
REMARK SMILES IDX 24 26 25 28 26 29 27 30 88 31 28 32 87 33 29 34 30 35 31 36
REMARK SMILES IDX 81 37 32 38 86 39 80 40 82 41 33 42 85 43 79 44 78 45 34 47
REMARK SMILES IDX 66 48 46 49 65 50 47 51 50 52 64 53 83 54 48 55 49 56 63 58
REMARK SMILES IDX 84 59 51 60 35 61 36 62 44 63 37 64 38 65 42 66 45 67 39 68
REMARK SMILES IDX 40 69 43 70 41 71 67 72 68 73 76 74 69 75 70 76 74 77 77 78
REMARK SMILES IDX 71 79 72 80 75 81 73 82 52 83 53 84 61 85 54 86 55 87 59 88
REMARK SMILES IDX 62 89 56 90 57 91 60 92 58 93
REMARK H PARENT 18 4 10 11 23 27 82 46 50 57
REMARK Flexibility Score: inf
ROOT
ATOM      1  C   UNL     1       3.091  -0.972   3.735  1.00  0.00     0.227 C 
ATOM      2  O   UNL     1       2.886  -0.391   4.798  1.00  0.00    -0.275 OA
ATOM      3  N   UNL     1       4.192  -1.776   3.636  1.00  0.00    -0.356 N 
ATOM      4  H   UNL     1       4.505  -2.198   4.469  1.00  0.00     0.163 HD
ENDROOT
BRANCH   1   5
ATOM      5  C   UNL     1       2.150  -0.910   2.548  1.00  0.00     0.124 C 
ATOM      6  C   UNL     1       1.026   0.096   2.629  1.00  0.00     0.110 C 
ATOM      7  C   UNL     1       0.128  -0.504   3.693  1.00  0.00     0.181 C 
ATOM      8  O   UNL     1       0.166  -1.924   3.432  1.00  0.00    -0.379 OA
ATOM      9  C   UNL     1       1.319  -2.195   2.599  1.00  0.00     0.175 C 
BRANCH   6  10
ATOM     10  N   UNL     1       1.352   1.518   2.779  1.00  0.00    -0.209 NA
ATOM     11  H   UNL     1       0.627   1.931   3.365  1.00  0.00     0.141 HD
BRANCH  10  12
ATOM     12  S   UNL     1       1.477   2.477   1.397  1.00  0.00     0.214 S 
ATOM     13  O   UNL     1       1.995   1.640   0.346  1.00  0.00    -0.212 OA
ATOM     14  O   UNL     1       2.211   3.653   1.829  1.00  0.00    -0.212 OA
BRANCH  12  15
ATOM     15  C   UNL     1      -0.221   2.993   1.049  1.00  0.00     0.182 C 
BRANCH  15  16
ATOM     16  C   UNL     1      -0.648   2.771  -0.400  1.00  0.00     0.178 C 
BRANCH  16  17
ATOM     17  O   UNL     1      -1.749   1.884  -0.611  1.00  0.00    -0.378 OA
BRANCH  17  18
ATOM     18  C   UNL     1      -1.590   0.469  -0.506  1.00  0.00     0.112 C 
ATOM     19  C   UNL     1      -0.283  -0.108  -1.050  1.00  0.00     0.038 C 
ATOM     20  C   UNL     1      -1.962   0.034   0.904  1.00  0.00     0.038 C 
ENDBRANCH  17  18
ENDBRANCH  16  17
ENDBRANCH  15  16
ENDBRANCH  12  15
ENDBRANCH  10  12
ENDBRANCH   6  10
ENDBRANCH   1   5
BRANCH   3  21
ATOM     21  C   UNL     1       4.946  -2.073   2.433  1.00  0.00     0.116 C 
BRANCH  21  22
ATOM     22  C   UNL     1       5.904  -0.922   2.120  1.00  0.00     0.023 C 
BRANCH  22  23
ATOM     23  C   UNL     1       6.854  -0.563   3.271  1.00  0.00     0.023 C 
BRANCH  23  24
ATOM     24  C   UNL     1       7.594  -1.741   3.893  1.00  0.00     0.116 C 
BRANCH  24  25
ATOM     25  N   UNL     1       8.370  -2.502   2.929  1.00  0.00    -0.352 N 
ATOM     26  C   UNL     1       9.581  -3.122   3.117  1.00  0.00     0.251 C 
ATOM     27  H   UNL     1       7.979  -2.584   2.029  1.00  0.00     0.163 HD
ATOM     28  O   UNL     1      10.165  -3.656   2.182  1.00  0.00    -0.269 OA
BRANCH  26  29
ATOM     29  C   UNL     1      10.192  -3.093   4.459  1.00  0.00     0.039 A 
ATOM     30  C   UNL     1      11.491  -2.602   4.592  1.00  0.00     0.014 A 
ATOM     31  C   UNL     1       9.459  -3.488   5.582  1.00  0.00     0.014 A 
ATOM     32  C   UNL     1      12.038  -2.446   5.866  1.00  0.00     0.010 A 
ATOM     33  C   UNL     1       9.980  -3.266   6.853  1.00  0.00     0.010 A 
ATOM     34  C   UNL     1      11.273  -2.743   7.006  1.00  0.00    -0.014 A 
BRANCH  34  35
ATOM     35  C   UNL     1      11.813  -2.510   8.368  1.00  0.00     0.031 A 
ATOM     36  C   UNL     1      12.045  -3.671   9.293  1.00  0.00     0.074 A 
ATOM     37  C   UNL     1      12.040  -1.251   8.789  1.00  0.00     0.049 A 
ATOM     38  N   UNL     1      12.457  -3.671  10.535  1.00  0.00    -0.248 NA
ATOM     39  C   UNL     1      11.750  -5.009   8.758  1.00  0.00     0.031 C 
ATOM     40  C   UNL     1      11.810  -0.040   7.999  1.00  0.00     0.029 A 
ATOM     41  N   UNL     1      12.509  -0.779   9.989  1.00  0.00    -0.354 N 
ATOM     42  C   UNL     1      12.461  -5.002  10.930  1.00  0.00     0.074 A 
ATOM     43  C   UNL     1      11.953  -5.776   9.819  1.00  0.00     0.031 C 
ATOM     44  C   UNL     1      12.163   1.033   8.725  1.00  0.00     0.029 A 
ATOM     45  C   UNL     1      12.608   0.590  10.043  1.00  0.00     0.049 A 
ATOM     46  H   UNL     1      12.753  -1.366  10.741  1.00  0.00     0.167 HD
ATOM     47  C   UNL     1      12.876  -5.532  12.105  1.00  0.00     0.037 A 
ATOM     48  C   UNL     1      13.007   1.396  11.045  1.00  0.00     0.037 A 
ATOM     49  C   UNL     1      13.398  -4.758  13.200  1.00  0.00     0.049 A 
ATOM     50  C   UNL     1      13.447   0.782  12.347  1.00  0.00     0.074 A 
ATOM     51  C   UNL     1      13.893  -5.204  14.413  1.00  0.00     0.029 A 
ATOM     52  N   UNL     1      13.490  -3.374  13.215  1.00  0.00    -0.354 N 
ATOM     53  N   UNL     1      13.509  -0.483  12.687  1.00  0.00    -0.248 NA
ATOM     54  C   UNL     1      13.877   1.708  13.403  1.00  0.00     0.031 C 
ATOM     55  C   UNL     1      14.239  -4.087  15.181  1.00  0.00     0.029 A 
ATOM     56  C   UNL     1      14.013  -2.948  14.425  1.00  0.00     0.049 A 
ATOM     57  H   UNL     1      13.223  -2.782  12.475  1.00  0.00     0.167 HD
ATOM     58  C   UNL     1      14.013  -0.506  13.980  1.00  0.00     0.074 A 
ATOM     59  C   UNL     1      14.253   0.871  14.359  1.00  0.00     0.031 C 
ATOM     60  C   UNL     1      14.254  -1.572  14.782  1.00  0.00     0.037 A 
BRANCH  47  61
ATOM     61  C   UNL     1      12.786  -7.023  12.262  1.00  0.00     0.064 A 
ATOM     62  C   UNL     1      13.614  -7.890  11.532  1.00  0.00     0.173 A 
ATOM     63  C   UNL     1      11.884  -7.591  13.173  1.00  0.00     0.173 A 
ATOM     64  F   UNL     1      14.486  -7.399  10.638  1.00  0.00    -0.203 F 
ATOM     65  C   UNL     1      13.520  -9.271  11.686  1.00  0.00     0.198 A 
ATOM     66  C   UNL     1      11.815  -8.971  13.348  1.00  0.00     0.198 A 
ATOM     67  F   UNL     1      11.072  -6.809  13.900  1.00  0.00    -0.203 F 
ATOM     68  F   UNL     1      14.284 -10.080  10.939  1.00  0.00    -0.200 F 
ATOM     69  C   UNL     1      12.626  -9.809  12.599  1.00  0.00     0.200 A 
ATOM     70  F   UNL     1      10.960  -9.490  14.240  1.00  0.00    -0.200 F 
ATOM     71  F   UNL     1      12.541 -11.138  12.751  1.00  0.00    -0.200 F 
ENDBRANCH  47  61
BRANCH  48  72
ATOM     72  C   UNL     1      13.037   2.869  10.848  1.00  0.00     0.064 A 
ATOM     73  C   UNL     1      14.254   3.562  10.789  1.00  0.00     0.173 A 
ATOM     74  C   UNL     1      11.856   3.615  10.723  1.00  0.00     0.173 A 
ATOM     75  F   UNL     1      15.410   2.896  10.924  1.00  0.00    -0.203 F 
ATOM     76  C   UNL     1      14.289   4.946  10.632  1.00  0.00     0.198 A 
ATOM     77  C   UNL     1      11.893   4.996  10.537  1.00  0.00     0.198 A 
ATOM     78  F   UNL     1      10.665   3.001  10.769  1.00  0.00    -0.203 F 
ATOM     79  F   UNL     1      15.466   5.588  10.626  1.00  0.00    -0.200 F 
ATOM     80  C   UNL     1      13.109   5.661  10.501  1.00  0.00     0.200 A 
ATOM     81  F   UNL     1      10.750   5.681  10.396  1.00  0.00    -0.200 F 
ATOM     82  F   UNL     1      13.143   6.992  10.347  1.00  0.00    -0.200 F 
ENDBRANCH  48  72
BRANCH  60  83
ATOM     83  C   UNL     1      14.842  -1.297  16.136  1.00  0.00     0.064 A 
ATOM     84  C   UNL     1      14.090  -0.705  17.160  1.00  0.00     0.173 A 
ATOM     85  C   UNL     1      16.164  -1.671  16.423  1.00  0.00     0.173 A 
ATOM     86  F   UNL     1      12.827  -0.315  16.932  1.00  0.00    -0.203 F 
ATOM     87  C   UNL     1      14.648  -0.475  18.415  1.00  0.00     0.198 A 
ATOM     88  C   UNL     1      16.708  -1.469  17.688  1.00  0.00     0.198 A 
ATOM     89  F   UNL     1      16.924  -2.248  15.479  1.00  0.00    -0.203 F 
ATOM     90  F   UNL     1      13.926   0.136  19.365  1.00  0.00    -0.200 F 
ATOM     91  C   UNL     1      15.952  -0.864  18.680  1.00  0.00     0.200 A 
ATOM     92  F   UNL     1      17.963  -1.860  17.946  1.00  0.00    -0.200 F 
ATOM     93  F   UNL     1      16.484  -0.650  19.892  1.00  0.00    -0.200 F 
ENDBRANCH  60  83
ENDBRANCH  34  35
ENDBRANCH  26  29
ENDBRANCH  24  25
ENDBRANCH  23  24
ENDBRANCH  22  23
ENDBRANCH  21  22
ENDBRANCH   3  21
TORSDOF 17
