REMARK SMILES O=C(CC[NH+]1CCC(n2nccc2NC(=O)c2ccccc2Cl)CC1)NCCCCNC(=O)c1ccc(-c2c3nc(c(-c4c(F)c(F)c(F)c(F)c4F)c4ccc([nH]4)c(-c4c(F)c(F)c(F)c(F)c4F)c4nc(c(-c5c(F)c(F)c(F)c(F)c5F)c5ccc2[nH]5)C=C4)C=C3)cc1
REMARK SMILES IDX 27 1 26 2 1 3 2 4 3 6 4 7 5 8 6 9 25 10 7 12 24 13 8 14 9 15
REMARK SMILES IDX 10 16 13 17 11 18 12 19 14 20 15 21 16 23 17 24 18 25 22 26
REMARK SMILES IDX 19 27 21 28 23 29 20 30 28 31 29 32 30 33 31 34 32 35 33 37
REMARK SMILES IDX 34 38 35 39 96 40 36 41 95 42 37 43 38 44 39 45 89 46 40 47
REMARK SMILES IDX 94 48 88 49 90 50 41 51 93 52 87 53 86 54 42 56 74 57 54 58
REMARK SMILES IDX 73 59 55 60 58 61 72 62 91 63 56 64 57 65 71 67 92 68 59 69
REMARK SMILES IDX 43 70 44 71 52 72 45 73 46 74 50 75 53 76 47 77 48 78 51 79
REMARK SMILES IDX 49 80 75 81 76 82 84 83 77 84 78 85 82 86 85 87 79 88 80 89
REMARK SMILES IDX 83 90 81 91 60 92 61 93 69 94 62 95 63 96 67 97 70 98 64 99
REMARK SMILES IDX 65 100 68 101 66 102
REMARK H PARENT 26 5 5 11 14 22 31 36 90 55 58 66
REMARK Flexibility Score: inf
ROOT
ATOM      1  C   UNL     1       1.892  -1.879  -1.839  1.00  0.00     0.116 C 
ENDROOT
BRANCH   1   2
ATOM      2  N   UNL     1       2.202  -0.610  -1.178  1.00  0.00    -0.356 N 
ATOM      3  O   UNL     1       0.603  -0.864   0.456  1.00  0.00    -0.275 OA
ATOM      4  C   UNL     1       1.537  -0.224  -0.018  1.00  0.00     0.225 C 
ATOM      5  H   UNL     1       2.892  -0.020  -1.560  1.00  0.00     0.163 HD
BRANCH   4   6
ATOM      6  C   UNL     1       2.064   1.026   0.676  1.00  0.00     0.161 C 
BRANCH   6   7
ATOM      7  C   UNL     1       3.034   0.755   1.849  1.00  0.00     0.272 C 
BRANCH   7   8
ATOM      8  N   UNL     1       4.350   0.160   1.538  1.00  0.00    -0.334 N 
ATOM      9  C   UNL     1       4.249  -1.291   1.462  1.00  0.00     0.264 C 
ATOM     10  C   UNL     1       5.096   0.898   0.526  1.00  0.00     0.264 C 
ATOM     11  H   UNL     1       4.999   0.286   2.315  1.00  0.00     0.348 HD
ATOM     12  C   UNL     1       5.389  -1.972   0.746  1.00  0.00     0.089 C 
ATOM     13  C   UNL     1       6.251   0.154  -0.132  1.00  0.00     0.089 C 
ATOM     14  C   UNL     1       5.766  -1.219  -0.551  1.00  0.00     0.121 C 
BRANCH  14  15
ATOM     15  N   UNL     1       6.702  -2.003  -1.337  1.00  0.00    -0.246 N 
ATOM     16  N   UNL     1       6.446  -3.317  -1.329  1.00  0.00    -0.179 NA
ATOM     17  C   UNL     1       7.995  -1.765  -1.760  1.00  0.00     0.131 A 
ATOM     18  C   UNL     1       7.649  -3.824  -1.127  1.00  0.00     0.137 A 
ATOM     19  C   UNL     1       8.662  -2.902  -1.373  1.00  0.00     0.069 A 
BRANCH  17  20
ATOM     20  N   UNL     1       8.536  -0.644  -2.355  1.00  0.00    -0.307 N 
ATOM     21  C   UNL     1       9.850  -0.531  -2.920  1.00  0.00     0.258 C 
ATOM     22  H   UNL     1       7.965   0.157  -2.396  1.00  0.00     0.171 HD
ATOM     23  O   UNL     1      10.247   0.614  -3.091  1.00  0.00    -0.269 OA
BRANCH  21  24
ATOM     24  C   UNL     1      10.694  -1.686  -3.278  1.00  0.00     0.058 A 
ATOM     25  C   UNL     1      11.931  -1.827  -2.628  1.00  0.00     0.015 A 
ATOM     26  C   UNL     1      10.322  -2.601  -4.271  1.00  0.00     0.053 A 
ATOM     27  C   UNL     1      12.772  -2.896  -2.946  1.00  0.00     0.001 A 
ATOM     28  C   UNL     1      11.171  -3.668  -4.585  1.00  0.00     0.021 A 
ATOM     29  Cl  UNL     1       8.846  -2.453  -5.152  1.00  0.00    -0.083 Cl
ATOM     30  C   UNL     1      12.392  -3.816  -3.922  1.00  0.00     0.002 A 
ENDBRANCH  21  24
ENDBRANCH  17  20
ENDBRANCH  14  15
ENDBRANCH   7   8
ENDBRANCH   6   7
ENDBRANCH   4   6
ENDBRANCH   1   2
BRANCH   1  31
ATOM     31  C   UNL     1       2.190  -1.937  -3.353  1.00  0.00     0.023 C 
BRANCH  31  32
ATOM     32  C   UNL     1       3.630  -2.245  -3.816  1.00  0.00     0.023 C 
BRANCH  32  33
ATOM     33  C   UNL     1       4.186  -3.642  -3.492  1.00  0.00     0.116 C 
BRANCH  33  34
ATOM     34  N   UNL     1       3.848  -4.727  -4.420  1.00  0.00    -0.352 N 
ATOM     35  C   UNL     1       4.418  -6.003  -4.528  1.00  0.00     0.251 C 
ATOM     36  H   UNL     1       3.120  -4.533  -5.054  1.00  0.00     0.163 HD
ATOM     37  O   UNL     1       4.253  -6.652  -5.558  1.00  0.00    -0.269 OA
BRANCH  35  38
ATOM     38  C   UNL     1       5.231  -6.593  -3.419  1.00  0.00     0.039 A 
ATOM     39  C   UNL     1       6.268  -7.530  -3.603  1.00  0.00     0.014 A 
ATOM     40  C   UNL     1       4.938  -6.215  -2.130  1.00  0.00     0.014 A 
ATOM     41  C   UNL     1       7.065  -7.963  -2.504  1.00  0.00     0.010 A 
ATOM     42  C   UNL     1       5.801  -6.517  -1.099  1.00  0.00     0.010 A 
ATOM     43  C   UNL     1       6.855  -7.426  -1.226  1.00  0.00    -0.014 A 
BRANCH  43  44
ATOM     44  C   UNL     1       7.697  -7.640  -0.008  1.00  0.00     0.031 A 
ATOM     45  C   UNL     1       9.156  -7.250  -0.088  1.00  0.00     0.074 A 
ATOM     46  C   UNL     1       7.154  -7.671   1.241  1.00  0.00     0.049 A 
ATOM     47  N   UNL     1      10.191  -7.843  -0.612  1.00  0.00    -0.248 NA
ATOM     48  C   UNL     1       9.469  -5.861   0.327  1.00  0.00     0.031 C 
ATOM     49  C   UNL     1       5.738  -7.581   1.637  1.00  0.00     0.029 A 
ATOM     50  N   UNL     1       7.790  -7.665   2.456  1.00  0.00    -0.354 N 
ATOM     51  C   UNL     1      11.232  -6.917  -0.424  1.00  0.00     0.074 A 
ATOM     52  C   UNL     1      10.575  -5.656  -0.393  1.00  0.00     0.031 C 
ATOM     53  C   UNL     1       5.637  -7.319   2.959  1.00  0.00     0.029 A 
ATOM     54  C   UNL     1       6.953  -7.441   3.550  1.00  0.00     0.049 A 
ATOM     55  H   UNL     1       8.760  -7.807   2.549  1.00  0.00     0.167 HD
ATOM     56  C   UNL     1      12.360  -7.154   0.326  1.00  0.00     0.037 A 
ATOM     57  C   UNL     1       7.301  -7.417   4.859  1.00  0.00     0.037 A 
ATOM     58  C   UNL     1      12.351  -8.518   0.776  1.00  0.00     0.049 A 
ATOM     59  C   UNL     1       8.616  -8.085   4.978  1.00  0.00     0.074 A 
ATOM     60  C   UNL     1      12.511  -9.768   0.228  1.00  0.00     0.029 A 
ATOM     61  N   UNL     1      11.772  -8.677   2.006  1.00  0.00    -0.354 N 
ATOM     62  N   UNL     1       8.804  -9.349   4.728  1.00  0.00    -0.248 NA
ATOM     63  C   UNL     1       9.828  -7.281   5.096  1.00  0.00     0.031 C 
ATOM     64  C   UNL     1      11.861 -10.675   1.115  1.00  0.00     0.029 A 
ATOM     65  C   UNL     1      11.364  -9.965   2.204  1.00  0.00     0.049 A 
ATOM     66  H   UNL     1      11.663  -7.953   2.665  1.00  0.00     0.167 HD
ATOM     67  C   UNL     1      10.090  -9.410   4.243  1.00  0.00     0.074 A 
ATOM     68  C   UNL     1      10.726  -8.171   4.666  1.00  0.00     0.031 C 
ATOM     69  C   UNL     1      10.400 -10.271   3.234  1.00  0.00     0.037 A 
BRANCH  56  70
ATOM     70  C   UNL     1      13.206  -6.128   1.132  1.00  0.00     0.064 A 
ATOM     71  C   UNL     1      14.406  -6.591   1.724  1.00  0.00     0.173 A 
ATOM     72  C   UNL     1      12.829  -4.828   1.556  1.00  0.00     0.173 A 
ATOM     73  F   UNL     1      14.896  -7.799   1.409  1.00  0.00    -0.203 F 
ATOM     74  C   UNL     1      15.106  -5.863   2.699  1.00  0.00     0.198 A 
ATOM     75  C   UNL     1      13.556  -4.085   2.492  1.00  0.00     0.198 A 
ATOM     76  F   UNL     1      11.704  -4.218   1.178  1.00  0.00    -0.203 F 
ATOM     77  F   UNL     1      16.175  -6.405   3.297  1.00  0.00    -0.200 F 
ATOM     78  C   UNL     1      14.676  -4.611   3.087  1.00  0.00     0.200 A 
ATOM     79  F   UNL     1      13.107  -2.873   2.852  1.00  0.00    -0.200 F 
ATOM     80  F   UNL     1      15.309  -3.928   4.049  1.00  0.00    -0.200 F 
ENDBRANCH  56  70
BRANCH  57  81
ATOM     81  C   UNL     1       6.652  -6.824   6.050  1.00  0.00     0.064 A 
ATOM     82  C   UNL     1       6.923  -7.327   7.335  1.00  0.00     0.173 A 
ATOM     83  C   UNL     1       6.006  -5.578   5.984  1.00  0.00     0.173 A 
ATOM     84  F   UNL     1       7.554  -8.501   7.480  1.00  0.00    -0.203 F 
ATOM     85  C   UNL     1       6.629  -6.596   8.488  1.00  0.00     0.198 A 
ATOM     86  C   UNL     1       5.705  -4.851   7.139  1.00  0.00     0.198 A 
ATOM     87  F   UNL     1       5.756  -5.003   4.798  1.00  0.00    -0.203 F 
ATOM     88  F   UNL     1       6.987  -7.072   9.688  1.00  0.00    -0.200 F 
ATOM     89  C   UNL     1       6.037  -5.349   8.388  1.00  0.00     0.200 A 
ATOM     90  F   UNL     1       5.163  -3.629   7.033  1.00  0.00    -0.200 F 
ATOM     91  F   UNL     1       5.833  -4.610   9.487  1.00  0.00    -0.200 F 
ENDBRANCH  57  81
BRANCH  69  92
ATOM     92  C   UNL     1       9.566 -11.505   3.080  1.00  0.00     0.064 A 
ATOM     93  C   UNL     1       8.207 -11.520   2.730  1.00  0.00     0.173 A 
ATOM     94  C   UNL     1      10.213 -12.741   3.207  1.00  0.00     0.173 A 
ATOM     95  F   UNL     1       7.534 -10.384   2.521  1.00  0.00    -0.203 F 
ATOM     96  C   UNL     1       7.524 -12.720   2.542  1.00  0.00     0.198 A 
ATOM     97  C   UNL     1       9.541 -13.936   2.979  1.00  0.00     0.198 A 
ATOM     98  F   UNL     1      11.520 -12.785   3.510  1.00  0.00    -0.203 F 
ATOM     99  F   UNL     1       6.221 -12.706   2.221  1.00  0.00    -0.200 F 
ATOM    100  C   UNL     1       8.194 -13.926   2.655  1.00  0.00     0.200 A 
ATOM    101  F   UNL     1      10.208 -15.096   3.047  1.00  0.00    -0.200 F 
ATOM    102  F   UNL     1       7.549 -15.079   2.430  1.00  0.00    -0.200 F 
ENDBRANCH  69  92
ENDBRANCH  43  44
ENDBRANCH  35  38
ENDBRANCH  33  34
ENDBRANCH  32  33
ENDBRANCH  31  32
ENDBRANCH   1  31
TORSDOF 16
