REMARK SMILES Cc1ccccc1OCC(=O)N[C@@H](Cc1c[nH]c2ccccc12)C(=O)NCCCCNC(=O)c1ccc(-c2c3nc(c(-c4c(F)c(F)c(F)c(F)c4F)c4ccc([nH]4)c(-c4c(F)c(F)c(F)c(F)c4F)c4nc(c(-c5c(F)c(F)c(F)c(F)c5F)c5ccc2[nH]5)C=C4)C=C3)cc1
REMARK SMILES IDX 27 1 26 2 24 3 25 4 13 6 12 7 10 8 11 9 9 11 8 12 7 13 1 14
REMARK SMILES IDX 2 15 3 16 4 17 6 18 5 19 14 20 15 21 16 22 23 23 17 24 18 25
REMARK SMILES IDX 22 26 19 28 21 29 20 30 28 31 29 32 30 33 31 34 32 35 33 37
REMARK SMILES IDX 34 38 35 39 96 40 36 41 95 42 37 43 38 44 39 45 89 46 40 47
REMARK SMILES IDX 94 48 88 49 90 50 41 51 93 52 87 53 86 54 42 56 74 57 54 58
REMARK SMILES IDX 73 59 55 60 58 61 72 62 91 63 56 64 57 65 71 67 92 68 59 69
REMARK SMILES IDX 43 70 44 71 52 72 45 73 46 74 50 75 53 76 47 77 48 78 51 79
REMARK SMILES IDX 49 80 75 81 76 82 84 83 77 84 78 85 82 86 85 87 79 88 80 89
REMARK SMILES IDX 83 90 81 91 60 92 61 93 69 94 62 95 63 96 67 97 70 98 64 99
REMARK SMILES IDX 65 100 68 101 66 102
REMARK H PARENT 26 5 12 10 17 27 31 36 90 55 58 66
REMARK Flexibility Score: inf
ROOT
ATOM      1  C   UNL     1       3.387   2.785   5.225  1.00  0.00     0.116 C 
ENDROOT
BRANCH   1   2
ATOM      2  N   UNL     1       3.334   4.004   4.433  1.00  0.00    -0.354 N 
ATOM      3  C   UNL     1       2.463   4.403   3.454  1.00  0.00     0.242 C 
ATOM      4  O   UNL     1       2.369   5.623   3.269  1.00  0.00    -0.273 OA
ATOM      5  H   UNL     1       4.046   4.654   4.635  1.00  0.00     0.163 HD
BRANCH   3   6
ATOM      6  C   UNL     1       1.555   3.433   2.649  1.00  0.00     0.175 C 
BRANCH   6   7
ATOM      7  N   UNL     1       2.263   2.195   2.324  1.00  0.00    -0.341 N 
ATOM      8  C   UNL     1       2.959   1.948   1.180  1.00  0.00     0.258 C 
ATOM      9  O   UNL     1       3.993   1.281   1.250  1.00  0.00    -0.271 OA
ATOM     10  H   UNL     1       2.232   1.474   2.994  1.00  0.00     0.164 HD
BRANCH   8  11
ATOM     11  C   UNL     1       2.433   2.490  -0.151  1.00  0.00     0.329 C 
BRANCH  11  12
ATOM     12  O   UNL     1       1.069   2.289  -0.467  1.00  0.00    -0.484 OA
BRANCH  12  13
ATOM     13  C   UNL     1       0.455   1.078  -0.314  1.00  0.00     0.122 A 
ATOM     14  C   UNL     1       2.420  -0.596  -0.603  1.00  0.00     0.048 C 
ATOM     15  C   UNL     1       0.988  -0.220  -0.350  1.00  0.00    -0.009 A 
ATOM     16  C   UNL     1       0.118  -1.312  -0.122  1.00  0.00     0.007 A 
ATOM     17  C   UNL     1      -1.250  -1.137   0.072  1.00  0.00     0.001 A 
ATOM     18  C   UNL     1      -0.934   1.233  -0.141  1.00  0.00     0.047 A 
ATOM     19  C   UNL     1      -1.781   0.141   0.051  1.00  0.00     0.004 A 
ENDBRANCH  12  13
ENDBRANCH  11  12
ENDBRANCH   8  11
ENDBRANCH   6   7
BRANCH   6  20
ATOM     20  C   UNL     1       0.150   3.252   3.255  1.00  0.00     0.072 C 
BRANCH  20  21
ATOM     21  C   UNL     1       0.115   2.614   4.605  1.00  0.00    -0.020 A 
ATOM     22  C   UNL     1       0.101   3.271   5.821  1.00  0.00     0.087 A 
ATOM     23  C   UNL     1       0.147   1.212   4.888  1.00  0.00     0.003 A 
ATOM     24  N   UNL     1       0.219   2.336   6.815  1.00  0.00    -0.361 N 
ATOM     25  C   UNL     1       0.321   1.078   6.266  1.00  0.00     0.046 A 
ATOM     26  C   UNL     1       0.130   0.049   4.090  1.00  0.00     0.010 A 
ATOM     27  H   UNL     1       0.230   2.534   7.780  1.00  0.00     0.166 HD
ATOM     28  C   UNL     1       0.563  -0.160   6.869  1.00  0.00     0.026 A 
ATOM     29  C   UNL     1       0.317  -1.200   4.691  1.00  0.00     0.001 A 
ATOM     30  C   UNL     1       0.550  -1.298   6.059  1.00  0.00     0.002 A 
ENDBRANCH  20  21
ENDBRANCH   6  20
ENDBRANCH   3   6
ENDBRANCH   1   2
BRANCH   1  31
ATOM     31  C   UNL     1       4.756   2.106   5.277  1.00  0.00     0.023 C 
BRANCH  31  32
ATOM     32  C   UNL     1       5.840   2.862   6.044  1.00  0.00     0.023 C 
BRANCH  32  33
ATOM     33  C   UNL     1       5.532   3.132   7.513  1.00  0.00     0.116 C 
BRANCH  33  34
ATOM     34  N   UNL     1       5.725   2.012   8.419  1.00  0.00    -0.352 N 
ATOM     35  C   UNL     1       5.481   1.908   9.781  1.00  0.00     0.251 C 
ATOM     36  H   UNL     1       6.085   1.198   7.999  1.00  0.00     0.163 HD
ATOM     37  O   UNL     1       5.838   0.900  10.372  1.00  0.00    -0.269 OA
BRANCH  35  38
ATOM     38  C   UNL     1       4.659   2.923  10.507  1.00  0.00     0.039 A 
ATOM     39  C   UNL     1       3.868   2.481  11.582  1.00  0.00     0.014 A 
ATOM     40  C   UNL     1       4.501   4.225  10.048  1.00  0.00     0.014 A 
ATOM     41  C   UNL     1       2.766   3.232  11.991  1.00  0.00     0.010 A 
ATOM     42  C   UNL     1       3.348   4.913  10.357  1.00  0.00     0.010 A 
ATOM     43  C   UNL     1       2.440   4.375  11.267  1.00  0.00    -0.014 A 
BRANCH  43  44
ATOM     44  C   UNL     1       1.111   4.972  11.235  1.00  0.00     0.031 A 
ATOM     45  C   UNL     1       0.845   6.273  11.880  1.00  0.00     0.074 A 
ATOM     46  C   UNL     1       0.179   4.382  10.450  1.00  0.00     0.049 A 
ATOM     47  N   UNL     1      -0.328   6.688  12.224  1.00  0.00    -0.248 NA
ATOM     48  C   UNL     1       1.912   7.202  12.231  1.00  0.00     0.031 C 
ATOM     49  C   UNL     1      -1.073   4.952   9.967  1.00  0.00     0.029 A 
ATOM     50  N   UNL     1       0.095   3.028  10.094  1.00  0.00    -0.354 N 
ATOM     51  C   UNL     1      -0.212   8.010  12.596  1.00  0.00     0.074 A 
ATOM     52  C   UNL     1       1.210   8.265  12.635  1.00  0.00     0.031 C 
ATOM     53  C   UNL     1      -1.907   3.944   9.655  1.00  0.00     0.029 A 
ATOM     54  C   UNL     1      -1.271   2.713  10.103  1.00  0.00     0.049 A 
ATOM     55  H   UNL     1       0.842   2.422   9.881  1.00  0.00     0.167 HD
ATOM     56  C   UNL     1      -1.334   8.782  12.701  1.00  0.00     0.037 A 
ATOM     57  C   UNL     1      -1.848   1.802  10.939  1.00  0.00     0.037 A 
ATOM     58  C   UNL     1      -2.534   7.999  12.424  1.00  0.00     0.049 A 
ATOM     59  C   UNL     1      -2.985   2.386  11.741  1.00  0.00     0.074 A 
ATOM     60  C   UNL     1      -3.269   7.820  11.264  1.00  0.00     0.029 A 
ATOM     61  N   UNL     1      -2.943   7.010  13.311  1.00  0.00    -0.354 N 
ATOM     62  N   UNL     1      -3.078   3.649  12.043  1.00  0.00    -0.248 NA
ATOM     63  C   UNL     1      -4.049   1.577  12.325  1.00  0.00     0.031 C 
ATOM     64  C   UNL     1      -4.090   6.683  11.437  1.00  0.00     0.029 A 
ATOM     65  C   UNL     1      -3.871   6.181  12.708  1.00  0.00     0.049 A 
ATOM     66  H   UNL     1      -2.619   6.913  14.236  1.00  0.00     0.167 HD
ATOM     67  C   UNL     1      -4.153   3.828  12.871  1.00  0.00     0.074 A 
ATOM     68  C   UNL     1      -4.738   2.508  13.004  1.00  0.00     0.031 C 
ATOM     69  C   UNL     1      -4.450   5.046  13.408  1.00  0.00     0.037 A 
BRANCH  56  70
ATOM     70  C   UNL     1      -1.319  10.297  12.732  1.00  0.00     0.064 A 
ATOM     71  C   UNL     1      -2.372  11.044  12.156  1.00  0.00     0.173 A 
ATOM     72  C   UNL     1      -0.272  11.074  13.258  1.00  0.00     0.173 A 
ATOM     73  F   UNL     1      -3.496  10.457  11.728  1.00  0.00    -0.203 F 
ATOM     74  C   UNL     1      -2.311  12.431  11.995  1.00  0.00     0.198 A 
ATOM     75  C   UNL     1      -0.183  12.456  13.049  1.00  0.00     0.198 A 
ATOM     76  F   UNL     1       0.670  10.530  14.040  1.00  0.00    -0.203 F 
ATOM     77  F   UNL     1      -3.338  13.080  11.427  1.00  0.00    -0.200 F 
ATOM     78  C   UNL     1      -1.197  13.133  12.402  1.00  0.00     0.200 A 
ATOM     79  F   UNL     1       0.895  13.126  13.481  1.00  0.00    -0.200 F 
ATOM     80  F   UNL     1      -1.113  14.454  12.200  1.00  0.00    -0.200 F 
ENDBRANCH  56  70
BRANCH  57  81
ATOM     81  C   UNL     1      -0.934   0.775  11.503  1.00  0.00     0.064 A 
ATOM     82  C   UNL     1      -0.425  -0.226  10.664  1.00  0.00     0.173 A 
ATOM     83  C   UNL     1      -0.302   0.970  12.738  1.00  0.00     0.173 A 
ATOM     84  F   UNL     1      -1.014  -0.464   9.484  1.00  0.00    -0.203 F 
ATOM     85  C   UNL     1       0.744  -0.914  10.986  1.00  0.00     0.198 A 
ATOM     86  C   UNL     1       0.858   0.269  13.067  1.00  0.00     0.198 A 
ATOM     87  F   UNL     1      -0.726   1.930  13.571  1.00  0.00    -0.203 F 
ATOM     88  F   UNL     1       1.278  -1.773  10.107  1.00  0.00    -0.200 F 
ATOM     89  C   UNL     1       1.400  -0.645  12.177  1.00  0.00     0.200 A 
ATOM     90  F   UNL     1       1.512   0.563  14.199  1.00  0.00    -0.200 F 
ATOM     91  F   UNL     1       2.579  -1.223  12.443  1.00  0.00    -0.200 F 
ENDBRANCH  57  81
BRANCH  69  92
ATOM     92  C   UNL     1      -5.386   5.274  14.565  1.00  0.00     0.064 A 
ATOM     93  C   UNL     1      -5.609   4.325  15.578  1.00  0.00     0.173 A 
ATOM     94  C   UNL     1      -5.979   6.541  14.773  1.00  0.00     0.173 A 
ATOM     95  F   UNL     1      -4.998   3.133  15.563  1.00  0.00    -0.203 F 
ATOM     96  C   UNL     1      -6.425   4.596  16.678  1.00  0.00     0.198 A 
ATOM     97  C   UNL     1      -6.746   6.826  15.902  1.00  0.00     0.198 A 
ATOM     98  F   UNL     1      -5.805   7.546  13.902  1.00  0.00    -0.203 F 
ATOM     99  F   UNL     1      -6.641   3.640  17.593  1.00  0.00    -0.200 F 
ATOM    100  C   UNL     1      -6.984   5.848  16.845  1.00  0.00     0.200 A 
ATOM    101  F   UNL     1      -7.233   8.062  16.081  1.00  0.00    -0.200 F 
ATOM    102  F   UNL     1      -7.729   6.117  17.925  1.00  0.00    -0.200 F 
ENDBRANCH  69  92
ENDBRANCH  43  44
ENDBRANCH  35  38
ENDBRANCH  33  34
ENDBRANCH  32  33
ENDBRANCH  31  32
ENDBRANCH   1  31
TORSDOF 17
