REMARK SMILES CC1(C)[C@H](C(=O)N(Cc2ccccc2)Cc2ccccc2)CC[C@@]1(C)C(=O)NCCCCNC(=O)c1ccc(-c2c3nc(c(-c4c(F)c(F)c(F)c(F)c4F)c4ccc([nH]4)c(-c4c(F)c(F)c(F)c(F)c4F)c4nc(c(-c5c(F)c(F)c(F)c(F)c5F)c5ccc2[nH]5)C=C4)C=C3)cc1
REMARK SMILES IDX 30 1 29 2 28 3 26 4 27 5 24 7 1 8 2 9 3 10 4 11 22 12 23 13
REMARK SMILES IDX 25 14 5 15 6 16 7 17 8 18 9 19 10 20 14 21 11 22 13 23 12 24
REMARK SMILES IDX 15 25 16 26 17 27 21 28 18 29 20 30 19 31 31 32 32 33 33 34
REMARK SMILES IDX 34 35 35 37 36 38 37 39 98 40 38 41 97 42 39 43 40 44 41 45
REMARK SMILES IDX 91 46 42 47 96 48 90 49 92 50 43 51 95 52 89 53 88 54 44 56
REMARK SMILES IDX 76 57 56 58 75 59 57 60 60 61 74 62 93 63 58 64 59 65 73 67
REMARK SMILES IDX 94 68 61 69 45 70 46 71 54 72 47 73 48 74 52 75 55 76 49 77
REMARK SMILES IDX 50 78 53 79 51 80 77 81 78 82 86 83 79 84 80 85 84 86 87 87
REMARK SMILES IDX 81 88 82 89 85 90 83 91 62 92 63 93 71 94 64 95 65 96 69 97
REMARK SMILES IDX 72 98 66 99 67 100 70 101 68 102
REMARK H PARENT 28 6 33 36 92 55 60 66
REMARK Flexibility Score: inf
ROOT
ATOM      1  C   UNL     1       4.110  -3.638   1.594  1.00  0.00     0.023 C 
ENDROOT
BRANCH   1   2
ATOM      2  C   UNL     1       2.741  -3.742   2.253  1.00  0.00     0.116 C 
BRANCH   2   3
ATOM      3  N   UNL     1       2.331  -2.501   2.866  1.00  0.00    -0.356 N 
ATOM      4  C   UNL     1       1.200  -1.765   2.821  1.00  0.00     0.226 C 
ATOM      5  O   UNL     1       1.207  -0.790   3.585  1.00  0.00    -0.274 OA
ATOM      6  H   UNL     1       3.025  -2.106   3.441  1.00  0.00     0.163 HD
BRANCH   4   7
ATOM      7  C   UNL     1       0.011  -1.990   1.844  1.00  0.00     0.052 C 
ATOM      8  C   UNL     1       1.480  -0.404   0.340  1.00  0.00     0.013 C 
ATOM      9  C   UNL     1       0.294  -1.399   0.398  1.00  0.00    -0.010 C 
ATOM     10  C   UNL     1      -0.903  -0.610  -0.115  1.00  0.00     0.013 C 
ATOM     11  C   UNL     1       0.635  -2.655  -0.455  1.00  0.00     0.085 C 
ATOM     12  C   UNL     1      -0.115  -3.835   0.154  1.00  0.00     0.015 C 
ATOM     13  C   UNL     1      -0.415  -3.461   1.610  1.00  0.00     0.018 C 
ATOM     14  C   UNL     1      -1.191  -1.313   2.572  1.00  0.00     0.022 C 
BRANCH  11  15
ATOM     15  C   UNL     1       0.772  -2.643  -2.003  1.00  0.00     0.226 C 
ATOM     16  O   UNL     1       1.928  -2.823  -2.422  1.00  0.00    -0.275 OA
ATOM     17  N   UNL     1      -0.273  -2.520  -2.914  1.00  0.00    -0.334 N 
BRANCH  17  18
ATOM     18  C   UNL     1      -1.701  -2.600  -2.601  1.00  0.00     0.155 C 
BRANCH  18  19
ATOM     19  C   UNL     1      -2.580  -1.412  -2.944  1.00  0.00    -0.029 A 
ATOM     20  C   UNL     1      -2.094  -0.104  -3.063  1.00  0.00     0.005 A 
ATOM     21  C   UNL     1      -3.972  -1.593  -2.975  1.00  0.00     0.005 A 
ATOM     22  C   UNL     1      -2.953   0.991  -3.167  1.00  0.00     0.000 A 
ATOM     23  C   UNL     1      -4.837  -0.501  -3.094  1.00  0.00     0.000 A 
ATOM     24  C   UNL     1      -4.327   0.792  -3.175  1.00  0.00     0.000 A 
ENDBRANCH  18  19
ENDBRANCH  17  18
BRANCH  17  25
ATOM     25  C   UNL     1       0.067  -2.681  -4.348  1.00  0.00     0.155 C 
BRANCH  25  26
ATOM     26  C   UNL     1       0.792  -1.509  -4.976  1.00  0.00    -0.029 A 
ATOM     27  C   UNL     1       2.188  -1.518  -5.112  1.00  0.00     0.005 A 
ATOM     28  C   UNL     1       0.093  -0.382  -5.424  1.00  0.00     0.005 A 
ATOM     29  C   UNL     1       2.867  -0.399  -5.598  1.00  0.00     0.000 A 
ATOM     30  C   UNL     1       0.771   0.754  -5.868  1.00  0.00     0.000 A 
ATOM     31  C   UNL     1       2.160   0.748  -5.946  1.00  0.00     0.000 A 
ENDBRANCH  25  26
ENDBRANCH  17  25
ENDBRANCH  11  15
ENDBRANCH   4   7
ENDBRANCH   2   3
ENDBRANCH   1   2
BRANCH   1  32
ATOM     32  C   UNL     1       5.263  -3.339   2.549  1.00  0.00     0.023 C 
BRANCH  32  33
ATOM     33  C   UNL     1       5.306  -4.204   3.802  1.00  0.00     0.116 C 
BRANCH  33  34
ATOM     34  N   UNL     1       5.314  -5.632   3.514  1.00  0.00    -0.352 N 
ATOM     35  C   UNL     1       6.132  -6.611   4.020  1.00  0.00     0.251 C 
ATOM     36  H   UNL     1       4.639  -5.937   2.865  1.00  0.00     0.163 HD
ATOM     37  O   UNL     1       6.074  -7.759   3.590  1.00  0.00    -0.269 OA
BRANCH  35  38
ATOM     38  C   UNL     1       7.114  -6.258   5.061  1.00  0.00     0.039 A 
ATOM     39  C   UNL     1       8.448  -6.631   4.882  1.00  0.00     0.014 A 
ATOM     40  C   UNL     1       6.728  -5.506   6.173  1.00  0.00     0.014 A 
ATOM     41  C   UNL     1       9.412  -6.180   5.783  1.00  0.00     0.010 A 
ATOM     42  C   UNL     1       7.700  -4.987   7.020  1.00  0.00     0.010 A 
ATOM     43  C   UNL     1       9.051  -5.319   6.833  1.00  0.00    -0.014 A 
BRANCH  43  44
ATOM     44  C   UNL     1      10.075  -4.747   7.742  1.00  0.00     0.031 A 
ATOM     45  C   UNL     1      10.044  -5.071   9.208  1.00  0.00     0.074 A 
ATOM     46  C   UNL     1      10.986  -3.881   7.259  1.00  0.00     0.049 A 
ATOM     47  N   UNL     1      10.811  -4.627  10.172  1.00  0.00    -0.248 NA
ATOM     48  C   UNL     1       8.989  -5.993   9.658  1.00  0.00     0.031 C 
ATOM     49  C   UNL     1      11.078  -3.439   5.866  1.00  0.00     0.029 A 
ATOM     50  N   UNL     1      12.002  -3.207   7.888  1.00  0.00    -0.354 N 
ATOM     51  C   UNL     1      10.320  -5.199  11.337  1.00  0.00     0.074 A 
ATOM     52  C   UNL     1       9.154  -5.973  10.972  1.00  0.00     0.031 C 
ATOM     53  C   UNL     1      12.110  -2.590   5.741  1.00  0.00     0.029 A 
ATOM     54  C   UNL     1      12.729  -2.398   7.049  1.00  0.00     0.049 A 
ATOM     55  H   UNL     1      12.193  -3.295   8.850  1.00  0.00     0.167 HD
ATOM     56  C   UNL     1      10.814  -5.109  12.595  1.00  0.00     0.037 A 
ATOM     57  C   UNL     1      13.774  -1.590   7.308  1.00  0.00     0.037 A 
ATOM     58  C   UNL     1      11.989  -4.358  12.948  1.00  0.00     0.049 A 
ATOM     59  C   UNL     1      14.309  -1.512   8.711  1.00  0.00     0.074 A 
ATOM     60  C   UNL     1      12.615  -4.261  14.178  1.00  0.00     0.029 A 
ATOM     61  N   UNL     1      12.714  -3.568  12.066  1.00  0.00    -0.354 N 
ATOM     62  N   UNL     1      13.890  -2.124   9.792  1.00  0.00    -0.248 NA
ATOM     63  C   UNL     1      15.469  -0.636   8.929  1.00  0.00     0.031 C 
ATOM     64  C   UNL     1      13.688  -3.372  14.053  1.00  0.00     0.029 A 
ATOM     65  C   UNL     1      13.765  -2.958  12.732  1.00  0.00     0.049 A 
ATOM     66  H   UNL     1      12.511  -3.457  11.109  1.00  0.00     0.167 HD
ATOM     67  C   UNL     1      14.745  -1.728  10.812  1.00  0.00     0.074 A 
ATOM     68  C   UNL     1      15.719  -0.837  10.216  1.00  0.00     0.031 C 
ATOM     69  C   UNL     1      14.726  -2.073  12.123  1.00  0.00     0.037 A 
BRANCH  56  70
ATOM     70  C   UNL     1      10.080  -5.845  13.679  1.00  0.00     0.064 A 
ATOM     71  C   UNL     1      10.055  -7.248  13.732  1.00  0.00     0.173 A 
ATOM     72  C   UNL     1       9.406  -5.140  14.687  1.00  0.00     0.173 A 
ATOM     73  F   UNL     1      10.673  -7.971  12.786  1.00  0.00    -0.203 F 
ATOM     74  C   UNL     1       9.350  -7.916  14.730  1.00  0.00     0.198 A 
ATOM     75  C   UNL     1       8.731  -5.812  15.704  1.00  0.00     0.198 A 
ATOM     76  F   UNL     1       9.401  -3.799  14.689  1.00  0.00    -0.203 F 
ATOM     77  F   UNL     1       9.290  -9.255  14.724  1.00  0.00    -0.200 F 
ATOM     78  C   UNL     1       8.694  -7.198  15.718  1.00  0.00     0.200 A 
ATOM     79  F   UNL     1       8.108  -5.116  16.666  1.00  0.00    -0.200 F 
ATOM     80  F   UNL     1       8.019  -7.842  16.680  1.00  0.00    -0.200 F 
ENDBRANCH  56  70
BRANCH  57  81
ATOM     81  C   UNL     1      14.402  -0.818   6.204  1.00  0.00     0.064 A 
ATOM     82  C   UNL     1      15.681  -1.147   5.733  1.00  0.00     0.173 A 
ATOM     83  C   UNL     1      13.736   0.254   5.591  1.00  0.00     0.173 A 
ATOM     84  F   UNL     1      16.365  -2.151   6.301  1.00  0.00    -0.203 F 
ATOM     85  C   UNL     1      16.277  -0.423   4.702  1.00  0.00     0.198 A 
ATOM     86  C   UNL     1      14.322   0.959   4.541  1.00  0.00     0.198 A 
ATOM     87  F   UNL     1      12.509   0.604   6.000  1.00  0.00    -0.203 F 
ATOM     88  F   UNL     1      17.517  -0.733   4.299  1.00  0.00    -0.200 F 
ATOM     89  C   UNL     1      15.594   0.624   4.102  1.00  0.00     0.200 A 
ATOM     90  F   UNL     1      13.653   1.960   3.954  1.00  0.00    -0.200 F 
ATOM     91  F   UNL     1      16.165   1.315   3.106  1.00  0.00    -0.200 F 
ENDBRANCH  57  81
BRANCH  69  92
ATOM     92  C   UNL     1      15.806  -1.506  12.998  1.00  0.00     0.064 A 
ATOM     93  C   UNL     1      15.829  -0.150  13.357  1.00  0.00     0.173 A 
ATOM     94  C   UNL     1      16.810  -2.340  13.516  1.00  0.00     0.173 A 
ATOM     95  F   UNL     1      14.901   0.691  12.875  1.00  0.00    -0.203 F 
ATOM     96  C   UNL     1      16.831   0.355  14.180  1.00  0.00     0.198 A 
ATOM     97  C   UNL     1      17.792  -1.837  14.365  1.00  0.00     0.198 A 
ATOM     98  F   UNL     1      16.830  -3.646  13.210  1.00  0.00    -0.203 F 
ATOM     99  F   UNL     1      16.861   1.663  14.470  1.00  0.00    -0.200 F 
ATOM    100  C   UNL     1      17.806  -0.489  14.690  1.00  0.00     0.200 A 
ATOM    101  F   UNL     1      18.724  -2.657  14.868  1.00  0.00    -0.200 F 
ATOM    102  F   UNL     1      18.766  -0.002  15.489  1.00  0.00    -0.200 F 
ENDBRANCH  69  92
ENDBRANCH  43  44
ENDBRANCH  35  38
ENDBRANCH  33  34
ENDBRANCH  32  33
ENDBRANCH   1  32
TORSDOF 16
