REMARK SMILES C[C@H]1[C@H](C(=O)NCCCCNC(=O)c2ccc(-c3c4nc(c(-c5c(F)c(F)c(F)c(F)c5F)c5ccc([nH]5)c(-c5c(F)c(F)c(F)c(F)c5F)c5nc(c(-c6c(F)c(F)c(F)c(F)c6F)c6ccc3[nH]6)C=C5)C=C4)cc2)CC[N@@H+]1Cc1ccc(C(F)(F)F)cc1
REMARK SMILES IDX 8 1 7 2 6 3 4 4 5 5 3 7 1 8 2 9 79 10 77 11 78 12 80 14
REMARK SMILES IDX 81 15 82 16 90 17 83 18 89 19 84 20 85 21 86 22 87 23 88 24
REMARK SMILES IDX 9 25 10 26 11 27 12 28 13 30 14 31 15 32 76 33 16 34 75 35
REMARK SMILES IDX 17 36 18 37 19 38 69 39 20 40 74 41 68 42 70 43 21 44 73 45
REMARK SMILES IDX 67 46 66 47 22 49 54 50 34 51 53 52 35 53 38 54 52 55 71 56
REMARK SMILES IDX 36 57 37 58 51 60 72 61 39 62 23 63 24 64 32 65 25 66 26 67
REMARK SMILES IDX 30 68 33 69 27 70 28 71 31 72 29 73 55 74 56 75 64 76 57 77
REMARK SMILES IDX 58 78 62 79 65 80 59 81 60 82 63 83 61 84 40 85 41 86 49 87
REMARK SMILES IDX 42 88 43 89 47 90 50 91 44 92 45 93 48 94 46 95
REMARK H PARENT 6 6 79 13 11 29 70 48 38 59
REMARK Flexibility Score: inf
ROOT
ATOM      1  C   UNL     1       0.713   0.670   4.116  1.00  0.00     0.023 C 
ENDROOT
BRANCH   1   2
ATOM      2  C   UNL     1      -0.328   1.383   3.246  1.00  0.00     0.116 C 
BRANCH   2   3
ATOM      3  N   UNL     1       0.263   2.420   2.435  1.00  0.00    -0.356 N 
ATOM      4  C   UNL     1       0.562   2.454   1.112  1.00  0.00     0.229 C 
ATOM      5  O   UNL     1       1.023   3.522   0.690  1.00  0.00    -0.275 OA
ATOM      6  H   UNL     1       0.489   3.243   2.925  1.00  0.00     0.163 HD
BRANCH   4   7
ATOM      7  C   UNL     1       0.305   1.317   0.127  1.00  0.00     0.142 C 
ATOM      8  C   UNL     1       2.074  -0.450  -0.110  1.00  0.00     0.076 C 
ATOM      9  C   UNL     1       0.699  -0.127   0.489  1.00  0.00     0.193 C 
ATOM     10  N   UNL     1      -0.307  -0.999  -0.157  1.00  0.00    -0.328 N 
ATOM     11  C   UNL     1      -1.134   1.207  -0.350  1.00  0.00     0.081 C 
ATOM     12  C   UNL     1      -1.127  -0.158  -1.023  1.00  0.00     0.263 C 
ATOM     13  H   UNL     1       0.192  -1.684  -0.724  1.00  0.00     0.348 HD
BRANCH  10  14
ATOM     14  C   UNL     1      -1.011  -1.990   0.677  1.00  0.00     0.299 C 
BRANCH  14  15
ATOM     15  C   UNL     1      -2.052  -1.510   1.678  1.00  0.00     0.006 A 
ATOM     16  C   UNL     1      -1.874  -1.723   3.052  1.00  0.00     0.010 A 
ATOM     17  C   UNL     1      -3.231  -0.867   1.276  1.00  0.00     0.010 A 
ATOM     18  C   UNL     1      -2.748  -1.147   3.982  1.00  0.00     0.013 A 
ATOM     19  C   UNL     1      -4.072  -0.242   2.200  1.00  0.00     0.013 A 
ATOM     20  C   UNL     1      -3.805  -0.330   3.567  1.00  0.00     0.056 A 
BRANCH  20  21
ATOM     21  C   UNL     1      -4.568   0.509   4.561  1.00  0.00     0.416 C 
ATOM     22  F   UNL     1      -4.878  -0.149   5.710  1.00  0.00    -0.166 F 
ATOM     23  F   UNL     1      -3.842   1.600   4.951  1.00  0.00    -0.166 F 
ATOM     24  F   UNL     1      -5.741   1.004   4.078  1.00  0.00    -0.166 F 
ENDBRANCH  20  21
ENDBRANCH  14  15
ENDBRANCH  10  14
ENDBRANCH   4   7
ENDBRANCH   2   3
ENDBRANCH   1   2
BRANCH   1  25
ATOM     25  C   UNL     1       0.868   1.237   5.534  1.00  0.00     0.023 C 
BRANCH  25  26
ATOM     26  C   UNL     1      -0.362   1.099   6.432  1.00  0.00     0.116 C 
BRANCH  26  27
ATOM     27  N   UNL     1      -0.785  -0.274   6.651  1.00  0.00    -0.352 N 
ATOM     28  C   UNL     1      -1.639  -0.789   7.608  1.00  0.00     0.251 C 
ATOM     29  H   UNL     1      -0.408  -0.935   6.026  1.00  0.00     0.163 HD
ATOM     30  O   UNL     1      -1.886  -1.980   7.621  1.00  0.00    -0.269 OA
BRANCH  28  31
ATOM     31  C   UNL     1      -2.174   0.098   8.669  1.00  0.00     0.039 A 
ATOM     32  C   UNL     1      -2.061  -0.340   9.993  1.00  0.00     0.014 A 
ATOM     33  C   UNL     1      -2.689   1.364   8.391  1.00  0.00     0.014 A 
ATOM     34  C   UNL     1      -2.320   0.547  11.037  1.00  0.00     0.010 A 
ATOM     35  C   UNL     1      -2.885   2.270   9.430  1.00  0.00     0.010 A 
ATOM     36  C   UNL     1      -2.654   1.881  10.757  1.00  0.00    -0.014 A 
BRANCH  36  37
ATOM     37  C   UNL     1      -2.626   2.906  11.827  1.00  0.00     0.031 A 
ATOM     38  C   UNL     1      -3.877   3.602  12.264  1.00  0.00     0.074 A 
ATOM     39  C   UNL     1      -1.431   3.265  12.336  1.00  0.00     0.049 A 
ATOM     40  N   UNL     1      -4.024   4.544  13.160  1.00  0.00    -0.248 NA
ATOM     41  C   UNL     1      -5.122   3.208  11.591  1.00  0.00     0.031 C 
ATOM     42  C   UNL     1      -0.138   2.708  11.927  1.00  0.00     0.029 A 
ATOM     43  N   UNL     1      -1.102   4.189  13.295  1.00  0.00    -0.354 N 
ATOM     44  C   UNL     1      -5.375   4.858  13.158  1.00  0.00     0.074 A 
ATOM     45  C   UNL     1      -5.998   4.039  12.139  1.00  0.00     0.031 C 
ATOM     46  C   UNL     1       0.838   3.285  12.644  1.00  0.00     0.029 A 
ATOM     47  C   UNL     1       0.246   4.269  13.543  1.00  0.00     0.049 A 
ATOM     48  H   UNL     1      -1.770   4.743  13.761  1.00  0.00     0.167 HD
ATOM     49  C   UNL     1      -6.035   5.738  13.949  1.00  0.00     0.037 A 
ATOM     50  C   UNL     1       0.929   5.049  14.401  1.00  0.00     0.037 A 
ATOM     51  C   UNL     1      -5.407   6.543  14.964  1.00  0.00     0.049 A 
ATOM     52  C   UNL     1       0.170   5.999  15.282  1.00  0.00     0.074 A 
ATOM     53  C   UNL     1      -5.994   7.422  15.857  1.00  0.00     0.029 A 
ATOM     54  N   UNL     1      -4.042   6.570  15.216  1.00  0.00    -0.354 N 
ATOM     55  N   UNL     1      -1.120   6.224  15.334  1.00  0.00    -0.248 NA
ATOM     56  C   UNL     1       0.958   6.796  16.231  1.00  0.00     0.031 C 
ATOM     57  C   UNL     1      -4.981   8.007  16.627  1.00  0.00     0.029 A 
ATOM     58  C   UNL     1      -3.767   7.464  16.239  1.00  0.00     0.049 A 
ATOM     59  H   UNL     1      -3.369   6.034  14.739  1.00  0.00     0.167 HD
ATOM     60  C   UNL     1      -1.303   7.168  16.333  1.00  0.00     0.074 A 
ATOM     61  C   UNL     1       0.009   7.464  16.872  1.00  0.00     0.031 C 
ATOM     62  C   UNL     1      -2.454   7.740  16.764  1.00  0.00     0.037 A 
BRANCH  49  63
ATOM     63  C   UNL     1      -7.515   5.868  13.748  1.00  0.00     0.064 A 
ATOM     64  C   UNL     1      -8.398   4.848  14.134  1.00  0.00     0.173 A 
ATOM     65  C   UNL     1      -8.062   7.033  13.188  1.00  0.00     0.173 A 
ATOM     66  F   UNL     1      -7.924   3.710  14.663  1.00  0.00    -0.203 F 
ATOM     67  C   UNL     1      -9.771   4.977  13.940  1.00  0.00     0.198 A 
ATOM     68  C   UNL     1      -9.437   7.169  13.020  1.00  0.00     0.198 A 
ATOM     69  F   UNL     1      -7.262   8.040  12.808  1.00  0.00    -0.203 F 
ATOM     70  F   UNL     1     -10.590   3.970  14.274  1.00  0.00    -0.200 F 
ATOM     71  C   UNL     1     -10.290   6.138  13.389  1.00  0.00     0.200 A 
ATOM     72  F   UNL     1      -9.939   8.296  12.496  1.00  0.00    -0.200 F 
ATOM     73  F   UNL     1     -11.611   6.262  13.205  1.00  0.00    -0.200 F 
ENDBRANCH  49  63
BRANCH  50  74
ATOM     74  C   UNL     1       2.406   4.929  14.494  1.00  0.00     0.064 A 
ATOM     75  C   UNL     1       3.008   4.334  15.612  1.00  0.00     0.173 A 
ATOM     76  C   UNL     1       3.244   5.389  13.468  1.00  0.00     0.173 A 
ATOM     77  F   UNL     1       2.248   3.894  16.625  1.00  0.00    -0.203 F 
ATOM     78  C   UNL     1       4.393   4.218  15.707  1.00  0.00     0.198 A 
ATOM     79  C   UNL     1       4.628   5.251  13.554  1.00  0.00     0.198 A 
ATOM     80  F   UNL     1       2.716   5.957  12.374  1.00  0.00    -0.203 F 
ATOM     81  F   UNL     1       4.944   3.677  16.802  1.00  0.00    -0.200 F 
ATOM     82  C   UNL     1       5.202   4.671  14.676  1.00  0.00     0.200 A 
ATOM     83  F   UNL     1       5.405   5.677  12.549  1.00  0.00    -0.200 F 
ATOM     84  F   UNL     1       6.533   4.554  14.765  1.00  0.00    -0.200 F 
ENDBRANCH  50  74
BRANCH  62  85
ATOM     85  C   UNL     1      -2.344   8.724  17.888  1.00  0.00     0.064 A 
ATOM     86  C   UNL     1      -1.833  10.014  17.685  1.00  0.00     0.173 A 
ATOM     87  C   UNL     1      -2.788   8.384  19.175  1.00  0.00     0.173 A 
ATOM     88  F   UNL     1      -1.379  10.377  16.476  1.00  0.00    -0.203 F 
ATOM     89  C   UNL     1      -1.751  10.923  18.736  1.00  0.00     0.198 A 
ATOM     90  C   UNL     1      -2.727   9.304  20.218  1.00  0.00     0.198 A 
ATOM     91  F   UNL     1      -3.287   7.163  19.417  1.00  0.00    -0.203 F 
ATOM     92  F   UNL     1      -1.221  12.136  18.530  1.00  0.00    -0.200 F 
ATOM     93  C   UNL     1      -2.204  10.569  19.999  1.00  0.00     0.200 A 
ATOM     94  F   UNL     1      -3.172   8.964  21.435  1.00  0.00    -0.200 F 
ATOM     95  F   UNL     1      -2.129  11.448  21.008  1.00  0.00    -0.200 F 
ENDBRANCH  62  85
ENDBRANCH  36  37
ENDBRANCH  28  31
ENDBRANCH  26  27
ENDBRANCH  25  26
ENDBRANCH   1  25
TORSDOF 14
