REMARK SMILES CCC[NH+]1CCN(c2cc(C(=O)NCCCCNC(=O)c3ccc(-c4c5nc(c(-c6c(F)c(F)c(F)c(F)c6F)c6ccc([nH]6)c(-c6c(F)c(F)c(F)c(F)c6F)c6nc(c(-c7c(F)c(F)c(F)c(F)c7F)c7ccc4[nH]7)C=C6)C=C5)cc3)c3cc(NC(=O)c4ccc(F)cc4)ccc3n2)CC1
REMARK SMILES IDX 15 1 14 2 13 3 11 4 12 5 10 7 8 8 9 9 100 10 99 11 84 12
REMARK SMILES IDX 98 13 85 14 97 15 86 16 7 17 4 18 5 19 102 20 6 22 101 23
REMARK SMILES IDX 3 24 2 25 1 26 87 27 88 28 89 30 90 31 91 32 96 33 92 34
REMARK SMILES IDX 95 35 93 36 94 37 16 38 17 39 18 40 19 41 20 43 21 44 22 45
REMARK SMILES IDX 83 46 23 47 82 48 24 49 25 50 26 51 76 52 27 53 81 54 75 55
REMARK SMILES IDX 77 56 28 57 80 58 74 59 73 60 29 62 61 63 41 64 60 65 42 66
REMARK SMILES IDX 45 67 59 68 78 69 43 70 44 71 58 73 79 74 46 75 30 76 31 77
REMARK SMILES IDX 39 78 32 79 33 80 37 81 40 82 34 83 35 84 38 85 36 86 62 87
REMARK SMILES IDX 63 88 71 89 64 90 65 91 69 92 72 93 66 94 67 95 70 96 68 97
REMARK SMILES IDX 47 98 48 99 56 100 49 101 50 102 54 103 57 104 51 105 52 106
REMARK SMILES IDX 55 107 53 108
REMARK H PARENT 13 6 4 21 87 29 18 42 77 61 45 72
REMARK Flexibility Score: inf
ROOT
ATOM      1  C   UNL     1       7.010   2.014   9.433  1.00  0.00     0.023 C 
ENDROOT
BRANCH   1   2
ATOM      2  C   UNL     1       6.283   2.445   8.160  1.00  0.00     0.116 C 
BRANCH   2   3
ATOM      3  N   UNL     1       6.792   1.899   6.908  1.00  0.00    -0.352 N 
ATOM      4  C   UNL     1       6.176   1.533   5.720  1.00  0.00     0.252 C 
ATOM      5  O   UNL     1       6.912   1.129   4.817  1.00  0.00    -0.269 OA
ATOM      6  H   UNL     1       7.767   1.762   6.904  1.00  0.00     0.163 HD
BRANCH   4   7
ATOM      7  C   UNL     1       4.695   1.547   5.455  1.00  0.00     0.052 A 
ATOM      8  C   UNL     1       2.867   0.529   4.232  1.00  0.00     0.130 A 
ATOM      9  C   UNL     1       4.205   0.536   4.606  1.00  0.00     0.061 A 
ATOM     10  N   UNL     1       1.999   1.392   4.793  1.00  0.00    -0.231 NA
ATOM     11  C   UNL     1       2.441   2.378   5.572  1.00  0.00     0.074 A 
ATOM     12  C   UNL     1       3.800   2.563   5.847  1.00  0.00     0.015 A 
ATOM     13  C   UNL     1       1.517   3.290   6.066  1.00  0.00     0.031 A 
ATOM     14  C   UNL     1       4.178   3.793   6.408  1.00  0.00     0.037 A 
ATOM     15  C   UNL     1       1.914   4.465   6.711  1.00  0.00     0.028 A 
ATOM     16  C   UNL     1       3.265   4.765   6.804  1.00  0.00     0.042 A 
BRANCH   8  17
ATOM     17  N   UNL     1       2.373  -0.277   3.240  1.00  0.00    -0.345 N 
ATOM     18  N   UNL     1       0.472  -2.045   1.856  1.00  0.00    -0.332 N 
ATOM     19  C   UNL     1       1.461  -2.546   2.853  1.00  0.00     0.284 C 
ATOM     20  C   UNL     1       0.155  -0.645   2.208  1.00  0.00     0.284 C 
ATOM     21  H   UNL     1      -0.403  -2.568   1.882  1.00  0.00     0.348 HD
ATOM     22  C   UNL     1       2.740  -1.676   3.048  1.00  0.00     0.179 C 
ATOM     23  C   UNL     1       1.382   0.280   2.310  1.00  0.00     0.179 C 
BRANCH  18  24
ATOM     24  C   UNL     1       0.970  -2.251   0.486  1.00  0.00     0.262 C 
BRANCH  24  25
ATOM     25  C   UNL     1       0.099  -1.716  -0.665  1.00  0.00     0.058 C 
ATOM     26  C   UNL     1       0.464  -0.307  -1.120  1.00  0.00     0.010 C 
ENDBRANCH  24  25
ENDBRANCH  18  24
ENDBRANCH   8  17
BRANCH  16  27
ATOM     27  N   UNL     1       3.644   6.026   7.293  1.00  0.00    -0.322 N 
ATOM     28  C   UNL     1       4.840   6.713   7.221  1.00  0.00     0.255 C 
ATOM     29  H   UNL     1       2.931   6.505   7.773  1.00  0.00     0.170 HD
ATOM     30  O   UNL     1       5.018   7.718   7.905  1.00  0.00    -0.269 OA
BRANCH  28  31
ATOM     31  C   UNL     1       5.930   6.284   6.314  1.00  0.00     0.040 A 
ATOM     32  C   UNL     1       7.192   6.061   6.874  1.00  0.00     0.017 A 
ATOM     33  C   UNL     1       5.710   6.018   4.956  1.00  0.00     0.017 A 
ATOM     34  C   UNL     1       8.208   5.491   6.105  1.00  0.00     0.040 A 
ATOM     35  C   UNL     1       6.724   5.432   4.194  1.00  0.00     0.040 A 
ATOM     36  C   UNL     1       7.958   5.162   4.778  1.00  0.00     0.123 A 
ATOM     37  F   UNL     1       8.919   4.569   4.060  1.00  0.00    -0.207 F 
ENDBRANCH  28  31
ENDBRANCH  16  27
ENDBRANCH   4   7
ENDBRANCH   2   3
ENDBRANCH   1   2
BRANCH   1  38
ATOM     38  C   UNL     1       8.415   2.568   9.709  1.00  0.00     0.023 C 
BRANCH  38  39
ATOM     39  C   UNL     1       8.673   4.082   9.710  1.00  0.00     0.116 C 
BRANCH  39  40
ATOM     40  N   UNL     1       7.690   4.926  10.353  1.00  0.00    -0.352 N 
ATOM     41  C   UNL     1       7.855   6.219  10.840  1.00  0.00     0.251 C 
ATOM     42  H   UNL     1       6.792   4.537  10.459  1.00  0.00     0.163 HD
ATOM     43  O   UNL     1       6.927   6.795  11.379  1.00  0.00    -0.269 OA
BRANCH  41  44
ATOM     44  C   UNL     1       9.190   6.868  10.774  1.00  0.00     0.039 A 
ATOM     45  C   UNL     1       9.759   7.319  11.968  1.00  0.00     0.014 A 
ATOM     46  C   UNL     1       9.901   6.994   9.579  1.00  0.00     0.014 A 
ATOM     47  C   UNL     1      11.085   7.766  11.982  1.00  0.00     0.010 A 
ATOM     48  C   UNL     1      11.236   7.404   9.595  1.00  0.00     0.010 A 
ATOM     49  C   UNL     1      11.854   7.744  10.806  1.00  0.00    -0.014 A 
BRANCH  49  50
ATOM     50  C   UNL     1      13.329   7.912  10.868  1.00  0.00     0.031 A 
ATOM     51  C   UNL     1      14.018   9.102  10.271  1.00  0.00     0.074 A 
ATOM     52  C   UNL     1      14.060   6.921  11.419  1.00  0.00     0.049 A 
ATOM     53  N   UNL     1      15.296   9.390  10.250  1.00  0.00    -0.248 NA
ATOM     54  C   UNL     1      13.167  10.089   9.592  1.00  0.00     0.031 C 
ATOM     55  C   UNL     1      13.511   5.676  11.963  1.00  0.00     0.029 A 
ATOM     56  N   UNL     1      15.413   6.794  11.607  1.00  0.00    -0.354 N 
ATOM     57  C   UNL     1      15.403  10.595   9.570  1.00  0.00     0.074 A 
ATOM     58  C   UNL     1      14.066  10.957   9.146  1.00  0.00     0.031 C 
ATOM     59  C   UNL     1      14.513   4.925  12.444  1.00  0.00     0.029 A 
ATOM     60  C   UNL     1      15.777   5.619  12.219  1.00  0.00     0.049 A 
ATOM     61  H   UNL     1      16.063   7.481  11.329  1.00  0.00     0.167 HD
ATOM     62  C   UNL     1      16.514  11.339   9.340  1.00  0.00     0.037 A 
ATOM     63  C   UNL     1      16.991   5.151  12.563  1.00  0.00     0.037 A 
ATOM     64  C   UNL     1      17.844  10.969   9.754  1.00  0.00     0.049 A 
ATOM     65  C   UNL     1      18.204   5.998  12.301  1.00  0.00     0.074 A 
ATOM     66  C   UNL     1      19.026  11.674   9.600  1.00  0.00     0.029 A 
ATOM     67  N   UNL     1      18.171   9.784  10.398  1.00  0.00    -0.354 N 
ATOM     68  N   UNL     1      18.281   7.178  11.736  1.00  0.00    -0.248 NA
ATOM     69  C   UNL     1      19.498   5.455  12.737  1.00  0.00     0.031 C 
ATOM     70  C   UNL     1      20.072  10.900  10.114  1.00  0.00     0.029 A 
ATOM     71  C   UNL     1      19.537   9.731  10.632  1.00  0.00     0.049 A 
ATOM     72  H   UNL     1      17.528   9.083  10.652  1.00  0.00     0.167 HD
ATOM     73  C   UNL     1      19.623   7.529  11.768  1.00  0.00     0.074 A 
ATOM     74  C   UNL     1      20.323   6.446  12.426  1.00  0.00     0.031 C 
ATOM     75  C   UNL     1      20.221   8.648  11.291  1.00  0.00     0.037 A 
BRANCH  62  76
ATOM     76  C   UNL     1      16.335  12.641   8.614  1.00  0.00     0.064 A 
ATOM     77  C   UNL     1      15.705  13.736   9.225  1.00  0.00     0.173 A 
ATOM     78  C   UNL     1      16.835  12.815   7.314  1.00  0.00     0.173 A 
ATOM     79  F   UNL     1      15.206  13.621  10.465  1.00  0.00    -0.203 F 
ATOM     80  C   UNL     1      15.556  14.946   8.552  1.00  0.00     0.198 A 
ATOM     81  C   UNL     1      16.709  14.035   6.654  1.00  0.00     0.198 A 
ATOM     82  F   UNL     1      17.457  11.805   6.688  1.00  0.00    -0.203 F 
ATOM     83  F   UNL     1      14.912  15.963   9.141  1.00  0.00    -0.200 F 
ATOM     84  C   UNL     1      16.062  15.096   7.270  1.00  0.00     0.200 A 
ATOM     85  F   UNL     1      17.212  14.184   5.421  1.00  0.00    -0.200 F 
ATOM     86  F   UNL     1      15.923  16.263   6.626  1.00  0.00    -0.200 F 
ENDBRANCH  62  76
BRANCH  63  87
ATOM     87  C   UNL     1      17.112   3.824  13.222  1.00  0.00     0.064 A 
ATOM     88  C   UNL     1      17.477   3.720  14.572  1.00  0.00     0.173 A 
ATOM     89  C   UNL     1      16.862   2.637  12.520  1.00  0.00     0.173 A 
ATOM     90  F   UNL     1      17.743   4.827  15.280  1.00  0.00    -0.203 F 
ATOM     91  C   UNL     1      17.609   2.477  15.187  1.00  0.00     0.198 A 
ATOM     92  C   UNL     1      16.966   1.396  13.144  1.00  0.00     0.198 A 
ATOM     93  F   UNL     1      16.500   2.683  11.229  1.00  0.00    -0.203 F 
ATOM     94  F   UNL     1      18.002   2.404  16.466  1.00  0.00    -0.200 F 
ATOM     95  C   UNL     1      17.347   1.316  14.475  1.00  0.00     0.200 A 
ATOM     96  F   UNL     1      16.696   0.278  12.457  1.00  0.00    -0.200 F 
ATOM     97  F   UNL     1      17.469   0.122  15.069  1.00  0.00    -0.200 F 
ENDBRANCH  63  87
BRANCH  75  98
ATOM     98  C   UNL     1      21.704   8.768  11.487  1.00  0.00     0.064 A 
ATOM     99  C   UNL     1      22.608   7.991  10.748  1.00  0.00     0.173 A 
ATOM    100  C   UNL     1      22.228   9.695  12.401  1.00  0.00     0.173 A 
ATOM    101  F   UNL     1      22.156   7.078   9.875  1.00  0.00    -0.203 F 
ATOM    102  C   UNL     1      23.982   8.121  10.933  1.00  0.00     0.198 A 
ATOM    103  C   UNL     1      23.602   9.842  12.564  1.00  0.00     0.198 A 
ATOM    104  F   UNL     1      21.406  10.464  13.130  1.00  0.00    -0.203 F 
ATOM    105  F   UNL     1      24.826   7.336  10.250  1.00  0.00    -0.200 F 
ATOM    106  C   UNL     1      24.478   9.051  11.835  1.00  0.00     0.200 A 
ATOM    107  F   UNL     1      24.081  10.748  13.428  1.00  0.00    -0.200 F 
ATOM    108  F   UNL     1      25.801   9.179  12.008  1.00  0.00    -0.200 F 
ENDBRANCH  75  98
ENDBRANCH  49  50
ENDBRANCH  41  44
ENDBRANCH  39  40
ENDBRANCH  38  39
ENDBRANCH   1  38
TORSDOF 16
