REMARK SMILES NS(=O)(=O)c1ccc(-n2nc(C(=O)NCCCCNC(=O)c3ccc(-c4c5nc(c(-c6c(F)c(F)c(F)c(F)c6F)c6ccc([nH]6)c(-c6c(F)c(F)c(F)c(F)c6F)c6nc(c(-c7c(F)c(F)c(F)c(F)c7F)c7ccc4[nH]7)C=C6)C=C5)cc3)c(Cl)c2-c2ccc(Cl)cc2)cc1
REMARK SMILES IDX 16 1 15 2 14 3 12 4 13 5 11 7 9 8 10 9 87 10 85 11 86 12
REMARK SMILES IDX 8 13 5 14 6 15 96 16 7 17 95 18 2 19 3 20 4 21 1 22 88 25
REMARK SMILES IDX 89 26 94 27 90 28 93 29 91 30 92 31 17 32 18 33 19 34 20 35
REMARK SMILES IDX 21 37 22 38 23 39 84 40 24 41 83 42 25 43 26 44 27 45 77 46
REMARK SMILES IDX 28 47 82 48 76 49 78 50 29 51 81 52 75 53 74 54 30 56 62 57
REMARK SMILES IDX 42 58 61 59 43 60 46 61 60 62 79 63 44 64 45 65 59 67 80 68
REMARK SMILES IDX 47 69 31 70 32 71 40 72 33 73 34 74 38 75 41 76 35 77 36 78
REMARK SMILES IDX 39 79 37 80 63 81 64 82 72 83 65 84 66 85 70 86 73 87 67 88
REMARK SMILES IDX 68 89 71 90 69 91 48 92 49 93 57 94 50 95 51 96 55 97 58 98
REMARK SMILES IDX 52 99 53 100 56 101 54 102
REMARK H PARENT 14 6 1 23 1 24 19 36 78 55 46 66
REMARK Flexibility Score: inf
ROOT
ATOM      1  C   UNL     1       1.270   9.761   8.165  1.00  0.00     0.023 C 
ENDROOT
BRANCH   1   2
ATOM      2  C   UNL     1       2.114   9.936   6.889  1.00  0.00     0.116 C 
BRANCH   2   3
ATOM      3  N   UNL     1       3.196   8.965   6.814  1.00  0.00    -0.351 N 
ATOM      4  C   UNL     1       3.358   7.757   6.158  1.00  0.00     0.273 C 
ATOM      5  O   UNL     1       4.475   7.245   6.294  1.00  0.00    -0.267 OA
ATOM      6  H   UNL     1       3.983   9.223   7.346  1.00  0.00     0.163 HD
BRANCH   4   7
ATOM      7  C   UNL     1       2.328   7.144   5.285  1.00  0.00     0.169 A 
ATOM      8  N   UNL     1       1.586   6.008   3.603  1.00  0.00    -0.231 N 
ATOM      9  N   UNL     1       2.708   6.277   4.309  1.00  0.00    -0.160 NA
ATOM     10  C   UNL     1       0.500   6.707   4.074  1.00  0.00     0.094 A 
ATOM     11  C   UNL     1       0.916   7.207   5.290  1.00  0.00     0.100 A 
ATOM     12  Cl  UNL     1      -0.184   7.694   6.485  1.00  0.00    -0.079 Cl
BRANCH   8  13
ATOM     13  C   UNL     1       1.545   5.009   2.603  1.00  0.00     0.065 A 
ATOM     14  C   UNL     1       1.005   2.990   0.772  1.00  0.00     0.082 A 
ATOM     15  C   UNL     1       1.505   2.657   2.036  1.00  0.00     0.024 A 
ATOM     16  C   UNL     1       0.816   4.328   0.407  1.00  0.00     0.024 A 
ATOM     17  C   UNL     1       1.800   3.675   2.953  1.00  0.00     0.030 A 
ATOM     18  C   UNL     1       1.065   5.339   1.332  1.00  0.00     0.030 A 
BRANCH  14  19
ATOM     19  S   UNL     1       0.567   1.757  -0.419  1.00  0.00     0.238 S 
ATOM     20  O   UNL     1       1.234   2.079  -1.667  1.00  0.00    -0.207 OA
ATOM     21  O   UNL     1      -0.848   1.527  -0.331  1.00  0.00    -0.207 OA
BRANCH  19  22
ATOM     22  N   UNL     1       1.302   0.345   0.116  1.00  0.00    -0.225 NA
ATOM     23  H   UNL     1       1.089  -0.415  -0.530  1.00  0.00     0.137 HD
ATOM     24  H   UNL     1       0.951   0.110   1.044  1.00  0.00     0.137 HD
ENDBRANCH  19  22
ENDBRANCH  14  19
ENDBRANCH   8  13
BRANCH  10  25
ATOM     25  C   UNL     1      -0.871   6.689   3.583  1.00  0.00     0.002 A 
ATOM     26  C   UNL     1      -1.375   7.849   2.978  1.00  0.00     0.012 A 
ATOM     27  C   UNL     1      -1.744   5.667   3.973  1.00  0.00     0.012 A 
ATOM     28  C   UNL     1      -2.750   8.014   2.822  1.00  0.00     0.021 A 
ATOM     29  C   UNL     1      -3.120   5.837   3.819  1.00  0.00     0.021 A 
ATOM     30  C   UNL     1      -3.617   7.017   3.265  1.00  0.00     0.041 A 
ATOM     31  Cl  UNL     1      -5.316   7.270   3.182  1.00  0.00    -0.084 Cl
ENDBRANCH  10  25
ENDBRANCH   4   7
ENDBRANCH   2   3
ENDBRANCH   1   2
BRANCH   1  32
ATOM     32  C   UNL     1       1.703  10.504   9.431  1.00  0.00     0.023 C 
BRANCH  32  33
ATOM     33  C   UNL     1       1.467  12.005   9.400  1.00  0.00     0.116 C 
BRANCH  33  34
ATOM     34  N   UNL     1       0.051  12.399   9.277  1.00  0.00    -0.352 N 
ATOM     35  C   UNL     1      -0.458  13.665   9.004  1.00  0.00     0.251 C 
ATOM     36  H   UNL     1      -0.611  11.682   9.402  1.00  0.00     0.163 HD
ATOM     37  O   UNL     1      -1.602  13.987   9.293  1.00  0.00    -0.269 OA
BRANCH  35  38
ATOM     38  C   UNL     1       0.427  14.605   8.302  1.00  0.00     0.039 A 
ATOM     39  C   UNL     1       0.598  15.947   8.656  1.00  0.00     0.014 A 
ATOM     40  C   UNL     1       1.205  14.018   7.319  1.00  0.00     0.014 A 
ATOM     41  C   UNL     1       1.627  16.662   8.042  1.00  0.00     0.010 A 
ATOM     42  C   UNL     1       2.389  14.604   7.012  1.00  0.00     0.010 A 
ATOM     43  C   UNL     1       2.523  15.964   7.222  1.00  0.00    -0.014 A 
BRANCH  43  44
ATOM     44  C   UNL     1       3.667  16.565   6.561  1.00  0.00     0.031 A 
ATOM     45  C   UNL     1       4.653  17.200   7.465  1.00  0.00     0.074 A 
ATOM     46  C   UNL     1       3.940  16.291   5.264  1.00  0.00     0.049 A 
ATOM     47  N   UNL     1       4.942  18.454   7.550  1.00  0.00    -0.248 NA
ATOM     48  C   UNL     1       5.303  16.366   8.488  1.00  0.00     0.031 C 
ATOM     49  C   UNL     1       3.239  15.390   4.332  1.00  0.00     0.029 A 
ATOM     50  N   UNL     1       5.007  16.690   4.527  1.00  0.00    -0.354 N 
ATOM     51  C   UNL     1       5.958  18.549   8.495  1.00  0.00     0.074 A 
ATOM     52  C   UNL     1       5.998  17.278   9.171  1.00  0.00     0.031 C 
ATOM     53  C   UNL     1       4.023  15.134   3.263  1.00  0.00     0.029 A 
ATOM     54  C   UNL     1       5.190  15.987   3.341  1.00  0.00     0.049 A 
ATOM     55  H   UNL     1       5.604  17.420   4.810  1.00  0.00     0.167 HD
ATOM     56  C   UNL     1       6.845  19.583   8.464  1.00  0.00     0.037 A 
ATOM     57  C   UNL     1       6.265  16.087   2.522  1.00  0.00     0.037 A 
ATOM     58  C   UNL     1       6.363  20.653   7.622  1.00  0.00     0.049 A 
ATOM     59  C   UNL     1       6.913  17.393   2.831  1.00  0.00     0.074 A 
ATOM     60  C   UNL     1       5.226  21.440   7.625  1.00  0.00     0.029 A 
ATOM     61  N   UNL     1       6.875  20.759   6.350  1.00  0.00    -0.354 N 
ATOM     62  N   UNL     1       6.337  18.547   2.613  1.00  0.00    -0.248 NA
ATOM     63  C   UNL     1       7.947  17.395   3.858  1.00  0.00     0.031 C 
ATOM     64  C   UNL     1       4.837  21.522   6.253  1.00  0.00     0.029 A 
ATOM     65  C   UNL     1       5.806  20.863   5.494  1.00  0.00     0.049 A 
ATOM     66  H   UNL     1       7.828  20.762   6.101  1.00  0.00     0.167 HD
ATOM     67  C   UNL     1       6.627  19.310   3.736  1.00  0.00     0.074 A 
ATOM     68  C   UNL     1       7.664  18.561   4.447  1.00  0.00     0.031 C 
ATOM     69  C   UNL     1       5.797  20.312   4.158  1.00  0.00     0.037 A 
BRANCH  56  70
ATOM     70  C   UNL     1       8.290  19.484   8.881  1.00  0.00     0.064 A 
ATOM     71  C   UNL     1       9.062  20.662   8.949  1.00  0.00     0.173 A 
ATOM     72  C   UNL     1       9.019  18.276   8.926  1.00  0.00     0.173 A 
ATOM     73  F   UNL     1       8.474  21.867   8.904  1.00  0.00    -0.203 F 
ATOM     74  C   UNL     1      10.458  20.628   8.969  1.00  0.00     0.198 A 
ATOM     75  C   UNL     1      10.410  18.247   9.002  1.00  0.00     0.198 A 
ATOM     76  F   UNL     1       8.435  17.082   8.780  1.00  0.00    -0.203 F 
ATOM     77  F   UNL     1      11.151  21.773   8.899  1.00  0.00    -0.200 F 
ATOM     78  C   UNL     1      11.132  19.421   8.988  1.00  0.00     0.200 A 
ATOM     79  F   UNL     1      11.044  17.066   9.003  1.00  0.00    -0.200 F 
ATOM     80  F   UNL     1      12.469  19.385   8.941  1.00  0.00    -0.200 F 
ENDBRANCH  56  70
BRANCH  57  81
ATOM     81  C   UNL     1       6.950  14.971   1.821  1.00  0.00     0.064 A 
ATOM     82  C   UNL     1       7.876  15.208   0.794  1.00  0.00     0.173 A 
ATOM     83  C   UNL     1       6.902  13.652   2.321  1.00  0.00     0.173 A 
ATOM     84  F   UNL     1       8.025  16.444   0.296  1.00  0.00    -0.203 F 
ATOM     85  C   UNL     1       8.710  14.193   0.306  1.00  0.00     0.198 A 
ATOM     86  C   UNL     1       7.729  12.640   1.831  1.00  0.00     0.198 A 
ATOM     87  F   UNL     1       6.114  13.337   3.360  1.00  0.00    -0.203 F 
ATOM     88  F   UNL     1       9.619  14.470  -0.640  1.00  0.00    -0.200 F 
ATOM     89  C   UNL     1       8.641  12.912   0.830  1.00  0.00     0.200 A 
ATOM     90  F   UNL     1       7.676  11.417   2.377  1.00  0.00    -0.200 F 
ATOM     91  F   UNL     1       9.476  11.955   0.402  1.00  0.00    -0.200 F 
ENDBRANCH  57  81
BRANCH  69  92
ATOM     92  C   UNL     1       4.643  20.711   3.274  1.00  0.00     0.064 A 
ATOM     93  C   UNL     1       3.576  19.858   2.938  1.00  0.00     0.173 A 
ATOM     94  C   UNL     1       4.517  22.057   2.908  1.00  0.00     0.173 A 
ATOM     95  F   UNL     1       3.563  18.582   3.336  1.00  0.00    -0.203 F 
ATOM     96  C   UNL     1       2.460  20.321   2.242  1.00  0.00     0.198 A 
ATOM     97  C   UNL     1       3.386  22.527   2.243  1.00  0.00     0.198 A 
ATOM     98  F   UNL     1       5.471  22.936   3.252  1.00  0.00    -0.203 F 
ATOM     99  F   UNL     1       1.460  19.480   1.938  1.00  0.00    -0.200 F 
ATOM    100  C   UNL     1       2.362  21.658   1.902  1.00  0.00     0.200 A 
ATOM    101  F   UNL     1       3.275  23.832   1.962  1.00  0.00    -0.200 F 
ATOM    102  F   UNL     1       1.270  22.116   1.274  1.00  0.00    -0.200 F 
ENDBRANCH  69  92
ENDBRANCH  43  44
ENDBRANCH  35  38
ENDBRANCH  33  34
ENDBRANCH  32  33
ENDBRANCH   1  32
TORSDOF 15
