REMARK SMILES C[C@H]1CC[C@@H]([C@H](C(=O)NCCCCNC(=O)c2ccc(-c3c4nc(c(-c5c(F)c(F)c(F)c(F)c5F)c5ccc([nH]5)c(-c5c(F)c(F)c(F)c(F)c5F)c5nc(c(-c6c(F)c(F)c(F)c(F)c6F)c6ccc3[nH]6)C=C5)C=C4)cc2)[C@@H]2CCS(=O)(=O)C2)C[C@@H]1C
REMARK SMILES IDX 12 1 11 2 10 3 9 4 7 5 8 6 6 8 5 9 1 10 2 11 3 12 88 13 4 14
REMARK SMILES IDX 87 15 89 16 80 17 81 18 86 19 82 20 83 21 84 22 85 23 13 24
REMARK SMILES IDX 14 25 15 26 16 28 17 29 18 30 79 31 19 32 78 33 20 34 21 35
REMARK SMILES IDX 22 36 72 37 23 38 77 39 71 40 73 41 24 42 76 43 70 44 69 45
REMARK SMILES IDX 25 47 57 48 37 49 56 50 38 51 41 52 55 53 74 54 39 55 40 56
REMARK SMILES IDX 54 58 75 59 42 60 26 61 27 62 35 63 28 64 29 65 33 66 36 67
REMARK SMILES IDX 30 68 31 69 34 70 32 71 58 72 59 73 67 74 60 75 61 76 65 77
REMARK SMILES IDX 68 78 62 79 63 80 66 81 64 82 43 83 44 84 52 85 45 86 46 87
REMARK SMILES IDX 50 88 53 89 47 90 48 91 51 92 49 93
REMARK H PARENT 9 7 14 27 73 46 41 57
REMARK Flexibility Score: inf
ROOT
ATOM      1  C   UNL     1      -6.217   2.685   4.119  1.00  0.00     0.023 C 
ENDROOT
BRANCH   1   2
ATOM      2  C   UNL     1      -5.325   3.465   3.160  1.00  0.00     0.023 C 
BRANCH   2   3
ATOM      3  C   UNL     1      -4.031   4.023   3.736  1.00  0.00     0.116 C 
BRANCH   3   4
ATOM      4  N   UNL     1      -3.175   2.967   4.234  1.00  0.00    -0.356 N 
ATOM      5  C   UNL     1      -2.110   2.309   3.715  1.00  0.00     0.223 C 
ATOM      6  O   UNL     1      -1.635   1.414   4.420  1.00  0.00    -0.275 OA
ATOM      7  H   UNL     1      -3.416   2.664   5.139  1.00  0.00     0.163 HD
BRANCH   5   8
ATOM      8  C   UNL     1      -1.508   2.638   2.329  1.00  0.00     0.085 C 
BRANCH   8   9
ATOM      9  C   UNL     1       0.057   2.301   2.408  1.00  0.00     0.002 C 
ATOM     10  C   UNL     1       1.115   1.405  -1.749  1.00  0.00     0.008 C 
ATOM     11  C   UNL     1       1.378   1.576  -0.243  1.00  0.00    -0.011 C 
ATOM     12  C   UNL     1       1.015   3.026   0.142  1.00  0.00     0.004 C 
ATOM     13  C   UNL     1       0.590   0.526   0.569  1.00  0.00    -0.011 C 
ATOM     14  C   UNL     1       0.962   3.277   1.640  1.00  0.00     0.005 C 
ATOM     15  C   UNL     1       0.501   0.859   2.071  1.00  0.00     0.008 C 
ATOM     16  C   UNL     1       1.036  -0.922   0.365  1.00  0.00     0.008 C 
ENDBRANCH   8   9
BRANCH   8  17
ATOM     17  C   UNL     1      -2.252   1.948   1.139  1.00  0.00     0.018 C 
ATOM     18  C   UNL     1      -3.409   2.708   0.464  1.00  0.00     0.021 C 
ATOM     19  C   UNL     1      -2.638   0.474   1.361  1.00  0.00     0.141 C 
ATOM     20  C   UNL     1      -4.593   1.784   0.175  1.00  0.00     0.137 C 
ATOM     21  S   UNL     1      -4.368   0.283   1.097  1.00  0.00     0.150 S 
ATOM     22  O   UNL     1      -5.030   0.384   2.385  1.00  0.00    -0.229 OA
ATOM     23  O   UNL     1      -4.591  -0.839   0.219  1.00  0.00    -0.229 OA
ENDBRANCH   8  17
ENDBRANCH   5   8
ENDBRANCH   3   4
ENDBRANCH   2   3
ENDBRANCH   1   2
BRANCH   1  24
ATOM     24  C   UNL     1      -7.335   3.521   4.692  1.00  0.00     0.116 C 
BRANCH  24  25
ATOM     25  N   UNL     1      -8.274   3.983   3.669  1.00  0.00    -0.352 N 
ATOM     26  C   UNL     1      -9.647   3.998   3.696  1.00  0.00     0.251 C 
ATOM     27  H   UNL     1      -7.863   4.332   2.845  1.00  0.00     0.163 HD
ATOM     28  O   UNL     1     -10.292   4.292   2.696  1.00  0.00    -0.269 OA
BRANCH  26  29
ATOM     29  C   UNL     1     -10.332   3.618   4.944  1.00  0.00     0.039 A 
ATOM     30  C   UNL     1     -11.434   2.764   4.897  1.00  0.00     0.014 A 
ATOM     31  C   UNL     1      -9.814   4.045   6.167  1.00  0.00     0.014 A 
ATOM     32  C   UNL     1     -11.972   2.283   6.090  1.00  0.00     0.010 A 
ATOM     33  C   UNL     1     -10.241   3.441   7.333  1.00  0.00     0.010 A 
ATOM     34  C   UNL     1     -11.351   2.588   7.312  1.00  0.00    -0.014 A 
BRANCH  34  35
ATOM     35  C   UNL     1     -11.874   2.090   8.603  1.00  0.00     0.031 A 
ATOM     36  C   UNL     1     -12.280   3.087   9.655  1.00  0.00     0.074 A 
ATOM     37  C   UNL     1     -11.901   0.767   8.848  1.00  0.00     0.049 A 
ATOM     38  N   UNL     1     -12.665   2.882  10.887  1.00  0.00    -0.248 NA
ATOM     39  C   UNL     1     -12.184   4.513   9.293  1.00  0.00     0.031 C 
ATOM     40  C   UNL     1     -11.453  -0.278   7.924  1.00  0.00     0.029 A 
ATOM     41  N   UNL     1     -12.321   0.074   9.953  1.00  0.00    -0.354 N 
ATOM     42  C   UNL     1     -12.822   4.145  11.443  1.00  0.00     0.074 A 
ATOM     43  C   UNL     1     -12.401   5.107  10.454  1.00  0.00     0.031 C 
ATOM     44  C   UNL     1     -11.666  -1.480   8.482  1.00  0.00     0.029 A 
ATOM     45  C   UNL     1     -12.225  -1.289   9.816  1.00  0.00     0.049 A 
ATOM     46  H   UNL     1     -12.659   0.512  10.767  1.00  0.00     0.167 HD
ATOM     47  C   UNL     1     -13.319   4.475  12.657  1.00  0.00     0.037 A 
ATOM     48  C   UNL     1     -12.560  -2.267  10.677  1.00  0.00     0.037 A 
ATOM     49  C   UNL     1     -13.788   3.503  13.604  1.00  0.00     0.049 A 
ATOM     50  C   UNL     1     -13.144  -1.877  12.009  1.00  0.00     0.074 A 
ATOM     51  C   UNL     1     -14.385   3.711  14.833  1.00  0.00     0.029 A 
ATOM     52  N   UNL     1     -13.717   2.129  13.415  1.00  0.00    -0.354 N 
ATOM     53  N   UNL     1     -13.366  -0.679  12.496  1.00  0.00    -0.248 NA
ATOM     54  C   UNL     1     -13.532  -2.972  12.906  1.00  0.00     0.031 C 
ATOM     55  C   UNL     1     -14.631   2.461  15.409  1.00  0.00     0.029 A 
ATOM     56  C   UNL     1     -14.241   1.475  14.516  1.00  0.00     0.049 A 
ATOM     57  H   UNL     1     -13.348   1.687  12.617  1.00  0.00     0.167 HD
ATOM     58  C   UNL     1     -13.944  -0.874  13.743  1.00  0.00     0.074 A 
ATOM     59  C   UNL     1     -14.056  -2.307  13.926  1.00  0.00     0.031 C 
ATOM     60  C   UNL     1     -14.343   0.044  14.658  1.00  0.00     0.037 A 
BRANCH  47  61
ATOM     61  C   UNL     1     -13.396   5.934  13.005  1.00  0.00     0.064 A 
ATOM     62  C   UNL     1     -14.255   6.814  12.324  1.00  0.00     0.173 A 
ATOM     63  C   UNL     1     -12.604   6.463  14.034  1.00  0.00     0.173 A 
ATOM     64  F   UNL     1     -15.022   6.366  11.318  1.00  0.00    -0.203 F 
ATOM     65  C   UNL     1     -14.288   8.171  12.634  1.00  0.00     0.198 A 
ATOM     66  C   UNL     1     -12.667   7.815  14.367  1.00  0.00     0.198 A 
ATOM     67  F   UNL     1     -11.764   5.671  14.717  1.00  0.00    -0.203 F 
ATOM     68  F   UNL     1     -15.065   9.000  11.924  1.00  0.00    -0.200 F 
ATOM     69  C   UNL     1     -13.500   8.669  13.660  1.00  0.00     0.200 A 
ATOM     70  F   UNL     1     -11.913   8.293  15.366  1.00  0.00    -0.200 F 
ATOM     71  F   UNL     1     -13.535   9.974  13.960  1.00  0.00    -0.200 F 
ENDBRANCH  47  61
BRANCH  48  72
ATOM     72  C   UNL     1     -12.397  -3.693  10.290  1.00  0.00     0.064 A 
ATOM     73  C   UNL     1     -13.514  -4.512  10.071  1.00  0.00     0.173 A 
ATOM     74  C   UNL     1     -11.128  -4.268  10.123  1.00  0.00     0.173 A 
ATOM     75  F   UNL     1     -14.749  -4.015  10.232  1.00  0.00    -0.203 F 
ATOM     76  C   UNL     1     -13.369  -5.855   9.727  1.00  0.00     0.198 A 
ATOM     77  C   UNL     1     -10.985  -5.603   9.748  1.00  0.00     0.198 A 
ATOM     78  F   UNL     1     -10.026  -3.528  10.310  1.00  0.00    -0.203 F 
ATOM     79  F   UNL     1     -14.455  -6.625   9.572  1.00  0.00    -0.200 F 
ATOM     80  C   UNL     1     -12.105  -6.398   9.560  1.00  0.00     0.200 A 
ATOM     81  F   UNL     1      -9.761  -6.120   9.572  1.00  0.00    -0.200 F 
ATOM     82  F   UNL     1     -11.966  -7.688   9.225  1.00  0.00    -0.200 F 
ENDBRANCH  48  72
BRANCH  60  83
ATOM     83  C   UNL     1     -14.965  -0.476  15.919  1.00  0.00     0.064 A 
ATOM     84  C   UNL     1     -14.204  -1.129  16.899  1.00  0.00     0.173 A 
ATOM     85  C   UNL     1     -16.331  -0.274  16.169  1.00  0.00     0.173 A 
ATOM     86  F   UNL     1     -12.896  -1.355  16.700  1.00  0.00    -0.203 F 
ATOM     87  C   UNL     1     -14.794  -1.587  18.072  1.00  0.00     0.198 A 
ATOM     88  C   UNL     1     -16.910  -0.702  17.359  1.00  0.00     0.198 A 
ATOM     89  F   UNL     1     -17.098   0.355  15.267  1.00  0.00    -0.203 F 
ATOM     90  F   UNL     1     -14.060  -2.255  18.973  1.00  0.00    -0.200 F 
ATOM     91  C   UNL     1     -16.144  -1.366  18.305  1.00  0.00     0.200 A 
ATOM     92  F   UNL     1     -18.209  -0.470  17.591  1.00  0.00    -0.200 F 
ATOM     93  F   UNL     1     -16.708  -1.798  19.441  1.00  0.00    -0.200 F 
ENDBRANCH  60  83
ENDBRANCH  34  35
ENDBRANCH  26  29
ENDBRANCH  24  25
ENDBRANCH   1  24
TORSDOF 13
