REMARK SMILES O=C(Nc1c(F)cc(F)cc1F)N[C@H]1C=C[C@H](C(=O)NCCCCNC(=O)c2ccc(-c3c4nc(c(-c5c(F)c(F)c(F)c(F)c5F)c5ccc([nH]5)c(-c5c(F)c(F)c(F)c(F)c5F)c5nc(c(-c6c(F)c(F)c(F)c(F)c6F)c6ccc3[nH]6)C=C5)C=C4)cc2)C1
REMARK SMILES IDX 22 1 21 2 20 3 18 4 19 5 17 7 14 8 15 9 91 10 16 11 13 12
REMARK SMILES IDX 1 13 2 14 3 15 4 18 5 19 11 20 6 21 7 22 10 23 12 24 8 25
REMARK SMILES IDX 9 26 23 27 24 28 25 29 26 30 27 32 28 33 29 34 90 35 30 36
REMARK SMILES IDX 89 37 31 38 32 39 33 40 83 41 34 42 88 43 82 44 84 45 35 46
REMARK SMILES IDX 87 47 81 48 80 49 36 51 68 52 48 53 67 54 49 55 52 56 66 57
REMARK SMILES IDX 85 58 50 59 51 60 65 62 86 63 53 64 37 65 38 66 46 67 39 68
REMARK SMILES IDX 40 69 44 70 47 71 41 72 42 73 45 74 43 75 69 76 70 77 78 78
REMARK SMILES IDX 71 79 72 80 76 81 79 82 73 83 74 84 77 85 75 86 54 87 55 88
REMARK SMILES IDX 63 89 56 90 57 91 61 92 64 93 58 94 59 95 62 96 60 97
REMARK H PARENT 20 6 3 16 13 17 25 31 84 50 52 61
REMARK Flexibility Score: inf
ROOT
ATOM      1  C   UNL     1      -4.096  -0.137  -4.260  1.00  0.00     0.023 C 
ENDROOT
BRANCH   1   2
ATOM      2  C   UNL     1      -2.795  -0.933  -4.245  1.00  0.00     0.116 C 
BRANCH   2   3
ATOM      3  N   UNL     1      -1.741  -0.261  -4.982  1.00  0.00    -0.356 N 
ATOM      4  C   UNL     1      -0.538   0.198  -4.524  1.00  0.00     0.227 C 
ATOM      5  O   UNL     1       0.238   0.706  -5.334  1.00  0.00    -0.274 OA
ATOM      6  H   UNL     1      -1.916  -0.116  -5.940  1.00  0.00     0.163 HD
BRANCH   4   7
ATOM      7  C   UNL     1      -0.208   0.021  -3.043  1.00  0.00     0.103 C 
ATOM      8  C   UNL     1       2.150  -0.105  -2.399  1.00  0.00     0.107 C 
ATOM      9  C   UNL     1       1.542  -1.461  -2.493  1.00  0.00    -0.006 C 
ATOM     10  C   UNL     1       0.988   0.872  -2.592  1.00  0.00     0.047 C 
ATOM     11  C   UNL     1       0.251  -1.395  -2.828  1.00  0.00    -0.016 C 
BRANCH   8  12
ATOM     12  N   UNL     1       2.860   0.013  -1.151  1.00  0.00    -0.332 N 
ATOM     13  O   UNL     1       1.109  -0.060   0.318  1.00  0.00    -0.248 OA
ATOM     14  C   UNL     1       2.315   0.012   0.094  1.00  0.00     0.319 C 
ATOM     15  N   UNL     1       3.177  -0.037   1.151  1.00  0.00    -0.303 N 
ATOM     16  H   UNL     1       2.740  -0.220   2.014  1.00  0.00     0.172 HD
ATOM     17  H   UNL     1       3.839   0.105  -1.206  1.00  0.00     0.165 HD
BRANCH  15  18
ATOM     18  C   UNL     1       4.574   0.126   1.241  1.00  0.00     0.115 A 
ATOM     19  C   UNL     1       5.360   0.872   0.357  1.00  0.00     0.152 A 
ATOM     20  C   UNL     1       5.224  -0.507   2.308  1.00  0.00     0.152 A 
ATOM     21  F   UNL     1       4.802   1.580  -0.635  1.00  0.00    -0.204 F 
ATOM     22  C   UNL     1       6.744   0.925   0.479  1.00  0.00     0.081 A 
ATOM     23  C   UNL     1       6.608  -0.479   2.439  1.00  0.00     0.081 A 
ATOM     24  F   UNL     1       4.506  -1.208   3.199  1.00  0.00    -0.204 F 
ATOM     25  C   UNL     1       7.357   0.231   1.511  1.00  0.00     0.129 A 
ATOM     26  F   UNL     1       8.691   0.249   1.613  1.00  0.00    -0.207 F 
ENDBRANCH  15  18
ENDBRANCH   8  12
ENDBRANCH   4   7
ENDBRANCH   2   3
ENDBRANCH   1   2
BRANCH   1  27
ATOM     27  C   UNL     1      -4.681   0.102  -5.652  1.00  0.00     0.023 C 
BRANCH  27  28
ATOM     28  C   UNL     1      -4.888  -1.152  -6.494  1.00  0.00     0.116 C 
BRANCH  28  29
ATOM     29  N   UNL     1      -5.818  -2.092  -5.888  1.00  0.00    -0.352 N 
ATOM     30  C   UNL     1      -6.914  -2.709  -6.440  1.00  0.00     0.251 C 
ATOM     31  H   UNL     1      -5.636  -2.318  -4.948  1.00  0.00     0.163 HD
ATOM     32  O   UNL     1      -7.674  -3.364  -5.730  1.00  0.00    -0.269 OA
BRANCH  30  33
ATOM     33  C   UNL     1      -7.202  -2.561  -7.883  1.00  0.00     0.039 A 
ATOM     34  C   UNL     1      -8.513  -2.291  -8.281  1.00  0.00     0.014 A 
ATOM     35  C   UNL     1      -6.189  -2.681  -8.839  1.00  0.00     0.014 A 
ATOM     36  C   UNL     1      -8.796  -2.071  -9.631  1.00  0.00     0.010 A 
ATOM     37  C   UNL     1      -6.457  -2.384 -10.173  1.00  0.00     0.010 A 
ATOM     38  C   UNL     1      -7.763  -2.075 -10.584  1.00  0.00    -0.014 A 
BRANCH  38  39
ATOM     39  C   UNL     1      -8.030  -1.742 -12.007  1.00  0.00     0.031 A 
ATOM     40  C   UNL     1      -7.802  -2.766 -13.084  1.00  0.00     0.074 A 
ATOM     41  C   UNL     1      -8.430  -0.498 -12.335  1.00  0.00     0.049 A 
ATOM     42  N   UNL     1      -7.929  -2.643 -14.381  1.00  0.00    -0.248 NA
ATOM     43  C   UNL     1      -7.351  -4.098 -12.650  1.00  0.00     0.031 C 
ATOM     44  C   UNL     1      -8.647   0.595 -11.385  1.00  0.00     0.029 A 
ATOM     45  N   UNL     1      -8.722   0.061 -13.555  1.00  0.00    -0.354 N 
ATOM     46  C   UNL     1      -7.569  -3.874 -14.915  1.00  0.00     0.074 A 
ATOM     47  C   UNL     1      -7.162  -4.712 -13.808  1.00  0.00     0.031 C 
ATOM     48  C   UNL     1      -9.069   1.680 -12.053  1.00  0.00     0.029 A 
ATOM     49  C   UNL     1      -9.110   1.377 -13.480  1.00  0.00     0.049 A 
ATOM     50  H   UNL     1      -8.659  -0.435 -14.403  1.00  0.00     0.167 HD
ATOM     51  C   UNL     1      -7.601  -4.274 -16.207  1.00  0.00     0.037 A 
ATOM     52  C   UNL     1      -9.455   2.244 -14.452  1.00  0.00     0.037 A 
ATOM     53  C   UNL     1      -8.027  -3.443 -17.303  1.00  0.00     0.049 A 
ATOM     54  C   UNL     1      -9.458   1.780 -15.883  1.00  0.00     0.074 A 
ATOM     55  C   UNL     1      -8.142  -3.776 -18.641  1.00  0.00     0.029 A 
ATOM     56  N   UNL     1      -8.406  -2.113 -17.188  1.00  0.00    -0.354 N 
ATOM     57  N   UNL     1      -9.171   0.597 -16.369  1.00  0.00    -0.248 NA
ATOM     58  C   UNL     1      -9.835   2.771 -16.902  1.00  0.00     0.031 C 
ATOM     59  C   UNL     1      -8.536  -2.634 -19.343  1.00  0.00     0.029 A 
ATOM     60  C   UNL     1      -8.729  -1.605 -18.436  1.00  0.00     0.049 A 
ATOM     61  H   UNL     1      -8.441  -1.606 -16.344  1.00  0.00     0.167 HD
ATOM     62  C   UNL     1      -9.354   0.692 -17.742  1.00  0.00     0.074 A 
ATOM     63  C   UNL     1      -9.795   2.045 -18.011  1.00  0.00     0.031 C 
ATOM     64  C   UNL     1      -9.171  -0.257 -18.692  1.00  0.00     0.037 A 
BRANCH  51  65
ATOM     65  C   UNL     1      -7.178  -5.682 -16.518  1.00  0.00     0.064 A 
ATOM     66  C   UNL     1      -6.019  -5.930 -17.270  1.00  0.00     0.173 A 
ATOM     67  C   UNL     1      -7.959  -6.784 -16.136  1.00  0.00     0.173 A 
ATOM     68  F   UNL     1      -5.239  -4.913 -17.667  1.00  0.00    -0.203 F 
ATOM     69  C   UNL     1      -5.668  -7.226 -17.641  1.00  0.00     0.198 A 
ATOM     70  C   UNL     1      -7.588  -8.081 -16.481  1.00  0.00     0.198 A 
ATOM     71  F   UNL     1      -9.071  -6.603 -15.408  1.00  0.00    -0.203 F 
ATOM     72  F   UNL     1      -4.577  -7.434 -18.391  1.00  0.00    -0.200 F 
ATOM     73  C   UNL     1      -6.450  -8.300 -17.242  1.00  0.00     0.200 A 
ATOM     74  F   UNL     1      -8.331  -9.119 -16.074  1.00  0.00    -0.200 F 
ATOM     75  F   UNL     1      -6.105  -9.547 -17.591  1.00  0.00    -0.200 F 
ENDBRANCH  51  65
BRANCH  52  76
ATOM     76  C   UNL     1      -9.858   3.630 -14.092  1.00  0.00     0.064 A 
ATOM     77  C   UNL     1      -8.936   4.549 -13.569  1.00  0.00     0.173 A 
ATOM     78  C   UNL     1     -11.186   4.052 -14.239  1.00  0.00     0.173 A 
ATOM     79  F   UNL     1      -7.653   4.195 -13.404  1.00  0.00    -0.203 F 
ATOM     80  C   UNL     1      -9.333   5.829 -13.187  1.00  0.00     0.198 A 
ATOM     81  C   UNL     1     -11.576   5.342 -13.885  1.00  0.00     0.198 A 
ATOM     82  F   UNL     1     -12.101   3.217 -14.755  1.00  0.00    -0.203 F 
ATOM     83  F   UNL     1      -8.441   6.674 -12.653  1.00  0.00    -0.200 F 
ATOM     84  C   UNL     1     -10.652   6.226 -13.350  1.00  0.00     0.200 A 
ATOM     85  F   UNL     1     -12.845   5.730 -14.069  1.00  0.00    -0.200 F 
ATOM     86  F   UNL     1     -11.031   7.461 -12.994  1.00  0.00    -0.200 F 
ENDBRANCH  52  76
BRANCH  64  87
ATOM     87  C   UNL     1      -9.461   0.116 -20.117  1.00  0.00     0.064 A 
ATOM     88  C   UNL     1     -10.545  -0.462 -20.797  1.00  0.00     0.173 A 
ATOM     89  C   UNL     1      -8.623   0.980 -20.836  1.00  0.00     0.173 A 
ATOM     90  F   UNL     1     -11.373  -1.303 -20.159  1.00  0.00    -0.203 F 
ATOM     91  C   UNL     1     -10.767  -0.203 -22.146  1.00  0.00     0.198 A 
ATOM     92  C   UNL     1      -8.867   1.263 -22.177  1.00  0.00     0.198 A 
ATOM     93  F   UNL     1      -7.580   1.569 -20.230  1.00  0.00    -0.203 F 
ATOM     94  F   UNL     1     -11.784  -0.800 -22.784  1.00  0.00    -0.200 F 
ATOM     95  C   UNL     1      -9.930   0.662 -22.834  1.00  0.00     0.200 A 
ATOM     96  F   UNL     1      -8.073   2.120 -22.834  1.00  0.00    -0.200 F 
ATOM     97  F   UNL     1     -10.150   0.919 -24.131  1.00  0.00    -0.200 F 
ENDBRANCH  64  87
ENDBRANCH  38  39
ENDBRANCH  30  33
ENDBRANCH  28  29
ENDBRANCH  27  28
ENDBRANCH   1  27
TORSDOF 13
