REMARK SMILES COc1ccc(NC(=O)N[C@@H]2C=C[C@H](C(=O)NCCCCNC(=O)c3ccc(-c4c5nc(c(-c6c(F)c(F)c(F)c(F)c6F)c6ccc([nH]6)c(-c6c(F)c(F)c(F)c(F)c6F)c6nc(c(-c7c(F)c(F)c(F)c(F)c7F)c7ccc4[nH]7)C=C6)C=C5)cc3)C2)c(C)c1
REMARK SMILES IDX 19 1 18 2 17 3 15 4 16 5 14 7 11 8 12 9 88 10 13 11 10 12
REMARK SMILES IDX 7 13 8 14 9 16 6 18 3 19 4 20 91 21 5 22 89 23 90 24 2 25
REMARK SMILES IDX 1 26 20 27 21 28 22 29 23 30 24 32 25 33 26 34 87 35 27 36
REMARK SMILES IDX 86 37 28 38 29 39 30 40 80 41 31 42 85 43 79 44 81 45 32 46
REMARK SMILES IDX 84 47 78 48 77 49 33 51 65 52 45 53 64 54 46 55 49 56 63 57
REMARK SMILES IDX 82 58 47 59 48 60 62 62 83 63 50 64 34 65 35 66 43 67 36 68
REMARK SMILES IDX 37 69 41 70 44 71 38 72 39 73 42 74 40 75 66 76 67 77 75 78
REMARK SMILES IDX 68 79 69 80 73 81 76 82 70 83 71 84 74 85 72 86 51 87 52 88
REMARK SMILES IDX 60 89 53 90 54 91 58 92 61 93 55 94 56 95 59 96 57 97
REMARK H PARENT 17 6 7 15 10 17 22 31 81 50 49 61
REMARK Flexibility Score: inf
ROOT
ATOM      1  C   UNL     1       6.304   0.724   2.009  1.00  0.00     0.023 C 
ENDROOT
BRANCH   1   2
ATOM      2  C   UNL     1       5.503   2.030   1.978  1.00  0.00     0.116 C 
BRANCH   2   3
ATOM      3  N   UNL     1       4.265   1.926   1.236  1.00  0.00    -0.356 N 
ATOM      4  C   UNL     1       3.023   1.493   1.540  1.00  0.00     0.227 C 
ATOM      5  O   UNL     1       2.187   1.663   0.637  1.00  0.00    -0.274 OA
ATOM      6  H   UNL     1       4.346   2.241   0.307  1.00  0.00     0.163 HD
BRANCH   4   7
ATOM      7  C   UNL     1       2.569   0.822   2.846  1.00  0.00     0.103 C 
ATOM      8  C   UNL     1       3.456  -1.025   4.255  1.00  0.00     0.107 C 
ATOM      9  C   UNL     1       2.542  -1.523   3.187  1.00  0.00    -0.006 C 
ATOM     10  C   UNL     1       3.477   0.498   4.037  1.00  0.00     0.047 C 
ATOM     11  C   UNL     1       2.023  -0.529   2.465  1.00  0.00    -0.016 C 
BRANCH   8  12
ATOM     12  N   UNL     1       4.736  -1.699   4.134  1.00  0.00    -0.332 N 
ATOM     13  N   UNL     1       6.180  -0.830   5.833  1.00  0.00    -0.308 N 
ATOM     14  C   UNL     1       5.926  -1.606   4.759  1.00  0.00     0.319 C 
ATOM     15  H   UNL     1       7.137  -0.641   5.963  1.00  0.00     0.171 HD
ATOM     16  O   UNL     1       6.879  -2.185   4.227  1.00  0.00    -0.248 OA
ATOM     17  H   UNL     1       4.733  -2.387   3.430  1.00  0.00     0.165 HD
BRANCH  13  18
ATOM     18  C   UNL     1       5.358  -0.238   6.801  1.00  0.00     0.046 A 
ATOM     19  C   UNL     1       3.458   1.157   8.306  1.00  0.00     0.119 A 
ATOM     20  C   UNL     1       3.199  -0.144   7.898  1.00  0.00     0.048 A 
ATOM     21  C   UNL     1       4.745   1.673   8.140  1.00  0.00     0.052 A 
ATOM     22  C   UNL     1       4.165  -0.846   7.181  1.00  0.00     0.030 A 
ATOM     23  C   UNL     1       5.724   0.974   7.409  1.00  0.00    -0.024 A 
ATOM     24  C   UNL     1       7.118   1.539   7.381  1.00  0.00     0.047 C 
BRANCH  19  25
ATOM     25  O   UNL     1       2.551   1.982   8.908  1.00  0.00    -0.497 OA
ATOM     26  C   UNL     1       1.186   1.706   8.597  1.00  0.00     0.278 C 
ENDBRANCH  19  25
ENDBRANCH  13  18
ENDBRANCH   8  12
ENDBRANCH   4   7
ENDBRANCH   2   3
ENDBRANCH   1   2
BRANCH   1  27
ATOM     27  C   UNL     1       6.788   0.200   0.656  1.00  0.00     0.023 C 
BRANCH  27  28
ATOM     28  C   UNL     1       7.839   1.075  -0.005  1.00  0.00     0.116 C 
BRANCH  28  29
ATOM     29  N   UNL     1       9.219   0.781   0.352  1.00  0.00    -0.352 N 
ATOM     30  C   UNL     1      10.377   1.508   0.090  1.00  0.00     0.251 C 
ATOM     31  H   UNL     1       9.354  -0.057   0.852  1.00  0.00     0.163 HD
ATOM     32  O   UNL     1      11.466   1.041   0.351  1.00  0.00    -0.269 OA
BRANCH  30  33
ATOM     33  C   UNL     1      10.265   2.923  -0.364  1.00  0.00     0.039 A 
ATOM     34  C   UNL     1      11.084   3.875   0.259  1.00  0.00     0.014 A 
ATOM     35  C   UNL     1       9.218   3.338  -1.175  1.00  0.00     0.014 A 
ATOM     36  C   UNL     1      10.672   5.205   0.303  1.00  0.00     0.010 A 
ATOM     37  C   UNL     1       8.729   4.615  -1.010  1.00  0.00     0.010 A 
ATOM     38  C   UNL     1       9.421   5.532  -0.214  1.00  0.00    -0.014 A 
BRANCH  38  39
ATOM     39  C   UNL     1       8.692   6.747   0.124  1.00  0.00     0.031 A 
ATOM     40  C   UNL     1       8.428   7.773  -0.907  1.00  0.00     0.074 A 
ATOM     41  C   UNL     1       8.118   6.848   1.346  1.00  0.00     0.049 A 
ATOM     42  N   UNL     1       8.102   8.992  -0.641  1.00  0.00    -0.248 NA
ATOM     43  C   UNL     1       8.534   7.511  -2.340  1.00  0.00     0.031 C 
ATOM     44  C   UNL     1       7.076   7.784   1.762  1.00  0.00     0.029 A 
ATOM     45  N   UNL     1       8.496   6.202   2.537  1.00  0.00    -0.354 N 
ATOM     46  C   UNL     1       7.712   9.589  -1.816  1.00  0.00     0.074 A 
ATOM     47  C   UNL     1       8.035   8.639  -2.854  1.00  0.00     0.031 C 
ATOM     48  C   UNL     1       7.088   7.884   3.101  1.00  0.00     0.029 A 
ATOM     49  C   UNL     1       8.236   7.132   3.573  1.00  0.00     0.049 A 
ATOM     50  H   UNL     1       8.865   5.295   2.631  1.00  0.00     0.167 HD
ATOM     51  C   UNL     1       7.049  10.778  -1.775  1.00  0.00     0.037 A 
ATOM     52  C   UNL     1       9.241   7.647   4.339  1.00  0.00     0.037 A 
ATOM     53  C   UNL     1       6.913  11.263  -0.409  1.00  0.00     0.049 A 
ATOM     54  C   UNL     1       9.361   9.151   4.256  1.00  0.00     0.074 A 
ATOM     55  C   UNL     1       5.897  11.150   0.526  1.00  0.00     0.029 A 
ATOM     56  N   UNL     1       8.047  11.665   0.285  1.00  0.00    -0.354 N 
ATOM     57  N   UNL     1       8.863   9.864   3.284  1.00  0.00    -0.248 NA
ATOM     58  C   UNL     1      10.072   9.966   5.238  1.00  0.00     0.031 C 
ATOM     59  C   UNL     1       6.442  11.434   1.802  1.00  0.00     0.029 A 
ATOM     60  C   UNL     1       7.780  11.745   1.638  1.00  0.00     0.049 A 
ATOM     61  H   UNL     1       8.918  11.865  -0.129  1.00  0.00     0.167 HD
ATOM     62  C   UNL     1       9.181  11.183   3.474  1.00  0.00     0.074 A 
ATOM     63  C   UNL     1       9.925  11.199   4.719  1.00  0.00     0.031 C 
ATOM     64  C   UNL     1       8.810  12.147   2.581  1.00  0.00     0.037 A 
BRANCH  51  65
ATOM     65  C   UNL     1       6.304  11.345  -2.952  1.00  0.00     0.064 A 
ATOM     66  C   UNL     1       5.060  11.990  -2.784  1.00  0.00     0.173 A 
ATOM     67  C   UNL     1       6.754  11.248  -4.281  1.00  0.00     0.173 A 
ATOM     68  F   UNL     1       4.542  12.207  -1.568  1.00  0.00    -0.203 F 
ATOM     69  C   UNL     1       4.289  12.420  -3.866  1.00  0.00     0.198 A 
ATOM     70  C   UNL     1       5.959  11.629  -5.366  1.00  0.00     0.198 A 
ATOM     71  F   UNL     1       7.989  10.806  -4.559  1.00  0.00    -0.203 F 
ATOM     72  F   UNL     1       3.112  13.024  -3.645  1.00  0.00    -0.200 F 
ATOM     73  C   UNL     1       4.723  12.210  -5.158  1.00  0.00     0.200 A 
ATOM     74  F   UNL     1       6.397  11.424  -6.617  1.00  0.00    -0.200 F 
ATOM     75  F   UNL     1       3.961  12.578  -6.197  1.00  0.00    -0.200 F 
ENDBRANCH  51  65
BRANCH  52  76
ATOM     76  C   UNL     1      10.374   6.700   4.513  1.00  0.00     0.064 A 
ATOM     77  C   UNL     1      10.124   5.492   5.194  1.00  0.00     0.173 A 
ATOM     78  C   UNL     1      11.510   6.763   3.699  1.00  0.00     0.173 A 
ATOM     79  F   UNL     1       9.046   5.381   5.987  1.00  0.00    -0.203 F 
ATOM     80  C   UNL     1      10.896   4.357   4.961  1.00  0.00     0.198 A 
ATOM     81  C   UNL     1      12.293   5.626   3.482  1.00  0.00     0.198 A 
ATOM     82  F   UNL     1      11.792   7.879   3.012  1.00  0.00    -0.203 F 
ATOM     83  F   UNL     1      10.552   3.189   5.523  1.00  0.00    -0.200 F 
ATOM     84  C   UNL     1      11.962   4.417   4.080  1.00  0.00     0.200 A 
ATOM     85  F   UNL     1      13.307   5.674   2.607  1.00  0.00    -0.200 F 
ATOM     86  F   UNL     1      12.642   3.304   3.770  1.00  0.00    -0.200 F 
ENDBRANCH  52  76
BRANCH  64  87
ATOM     87  C   UNL     1       9.297  13.575   2.549  1.00  0.00     0.064 A 
ATOM     88  C   UNL     1      10.557  13.983   3.013  1.00  0.00     0.173 A 
ATOM     89  C   UNL     1       8.542  14.572   1.880  1.00  0.00     0.173 A 
ATOM     90  F   UNL     1      11.413  13.111   3.561  1.00  0.00    -0.203 F 
ATOM     91  C   UNL     1      11.006  15.299   2.870  1.00  0.00     0.198 A 
ATOM     92  C   UNL     1       9.018  15.867   1.687  1.00  0.00     0.198 A 
ATOM     93  F   UNL     1       7.331  14.309   1.367  1.00  0.00    -0.203 F 
ATOM     94  F   UNL     1      12.203  15.648   3.364  1.00  0.00    -0.200 F 
ATOM     95  C   UNL     1      10.245  16.236   2.195  1.00  0.00     0.200 A 
ATOM     96  F   UNL     1       8.290  16.746   0.984  1.00  0.00    -0.200 F 
ATOM     97  F   UNL     1      10.702  17.482   2.017  1.00  0.00    -0.200 F 
ENDBRANCH  64  87
ENDBRANCH  38  39
ENDBRANCH  30  33
ENDBRANCH  28  29
ENDBRANCH  27  28
ENDBRANCH   1  27
TORSDOF 14
