REMARK SMILES Cc1ccc(CNc2ccc(C(=O)NCCCCNC(=O)c3ccc(-c4c5nc(c(-c6c(F)c(F)c(F)c(F)c6F)c6ccc([nH]6)c(-c6c(F)c(F)c(F)c(F)c6F)c6nc(c(-c7c(F)c(F)c(F)c(F)c7F)c7ccc4[nH]7)C=C6)C=C5)cc3)cc2Br)cc1
REMARK SMILES IDX 16 1 15 2 14 3 12 4 13 5 11 7 8 8 9 9 86 10 10 11 85 12
REMARK SMILES IDX 87 13 7 14 6 16 5 17 1 18 2 19 3 20 89 21 4 22 88 23 17 24
REMARK SMILES IDX 18 25 19 26 20 27 21 29 22 30 23 31 84 32 24 33 83 34 25 35
REMARK SMILES IDX 26 36 27 37 77 38 28 39 82 40 76 41 78 42 29 43 81 44 75 45
REMARK SMILES IDX 74 46 30 48 62 49 42 50 61 51 43 52 46 53 60 54 79 55 44 56
REMARK SMILES IDX 45 57 59 59 80 60 47 61 31 62 32 63 40 64 33 65 34 66 38 67
REMARK SMILES IDX 41 68 35 69 36 70 39 71 37 72 63 73 64 74 72 75 65 76 66 77
REMARK SMILES IDX 70 78 73 79 67 80 68 81 71 82 69 83 48 84 49 85 57 86 50 87
REMARK SMILES IDX 51 88 55 89 58 90 52 91 53 92 56 93 54 94
REMARK H PARENT 14 6 7 15 19 28 78 47 46 58
REMARK Flexibility Score: inf
ROOT
ATOM      1  C   UNL     1     -10.154  -3.495   0.195  1.00  0.00     0.023 C 
ENDROOT
BRANCH   1   2
ATOM      2  C   UNL     1      -8.908  -4.002   0.922  1.00  0.00     0.116 C 
BRANCH   2   3
ATOM      3  N   UNL     1      -8.191  -5.055   0.217  1.00  0.00    -0.352 N 
ATOM      4  C   UNL     1      -7.021  -5.090  -0.506  1.00  0.00     0.251 C 
ATOM      5  O   UNL     1      -6.718  -6.152  -1.052  1.00  0.00    -0.269 OA
ATOM      6  H   UNL     1      -8.640  -5.930   0.268  1.00  0.00     0.163 HD
BRANCH   4   7
ATOM      7  C   UNL     1      -6.126  -3.918  -0.685  1.00  0.00     0.041 A 
ATOM      8  C   UNL     1      -4.393  -1.702  -1.131  1.00  0.00     0.049 A 
ATOM      9  C   UNL     1      -5.154  -1.817   0.034  1.00  0.00     0.028 A 
ATOM     10  C   UNL     1      -4.498  -2.752  -2.065  1.00  0.00     0.041 A 
ATOM     11  C   UNL     1      -5.953  -2.935   0.283  1.00  0.00     0.016 A 
ATOM     12  C   UNL     1      -5.359  -3.839  -1.854  1.00  0.00     0.031 A 
ATOM     13  Br  UNL     1      -3.431  -2.760  -3.643  1.00  0.00    -0.049 Br
BRANCH   8  14
ATOM     14  N   UNL     1      -3.553  -0.625  -1.351  1.00  0.00    -0.380 N 
ATOM     15  H   UNL     1      -3.267  -0.456  -2.278  1.00  0.00     0.160 HD
BRANCH  14  16
ATOM     16  C   UNL     1      -3.059   0.276  -0.326  1.00  0.00     0.148 C 
BRANCH  16  17
ATOM     17  C   UNL     1      -1.554   0.204  -0.247  1.00  0.00    -0.029 A 
ATOM     18  C   UNL     1       2.745   0.003   0.060  1.00  0.00     0.044 C 
ATOM     19  C   UNL     1       1.251   0.082  -0.026  1.00  0.00    -0.051 A 
ATOM     20  C   UNL     1       0.492  -1.093  -0.045  1.00  0.00     0.004 A 
ATOM     21  C   UNL     1       0.598   1.317  -0.101  1.00  0.00     0.004 A 
ATOM     22  C   UNL     1      -0.897  -1.032  -0.146  1.00  0.00     0.006 A 
ATOM     23  C   UNL     1      -0.793   1.378  -0.207  1.00  0.00     0.006 A 
ENDBRANCH  16  17
ENDBRANCH  14  16
ENDBRANCH   8  14
ENDBRANCH   4   7
ENDBRANCH   2   3
ENDBRANCH   1   2
BRANCH   1  24
ATOM     24  C   UNL     1     -11.304  -4.491   0.073  1.00  0.00     0.023 C 
BRANCH  24  25
ATOM     25  C   UNL     1     -11.878  -4.978   1.398  1.00  0.00     0.116 C 
BRANCH  25  26
ATOM     26  N   UNL     1     -12.778  -4.055   2.075  1.00  0.00    -0.352 N 
ATOM     27  C   UNL     1     -13.329  -4.127   3.351  1.00  0.00     0.251 C 
ATOM     28  H   UNL     1     -13.036  -3.262   1.552  1.00  0.00     0.163 HD
ATOM     29  O   UNL     1     -14.154  -3.304   3.703  1.00  0.00    -0.269 OA
BRANCH  27  30
ATOM     30  C   UNL     1     -12.806  -5.118   4.333  1.00  0.00     0.039 A 
ATOM     31  C   UNL     1     -12.592  -4.691   5.651  1.00  0.00     0.014 A 
ATOM     32  C   UNL     1     -12.343  -6.365   3.931  1.00  0.00     0.014 A 
ATOM     33  C   UNL     1     -11.690  -5.382   6.460  1.00  0.00     0.010 A 
ATOM     34  C   UNL     1     -11.361  -6.983   4.676  1.00  0.00     0.010 A 
ATOM     35  C   UNL     1     -10.983  -6.449   5.911  1.00  0.00    -0.014 A 
BRANCH  35  36
ATOM     36  C   UNL     1      -9.750  -6.980   6.480  1.00  0.00     0.031 A 
ATOM     37  C   UNL     1      -9.714  -8.324   7.093  1.00  0.00     0.074 A 
ATOM     38  C   UNL     1      -8.605  -6.287   6.291  1.00  0.00     0.049 A 
ATOM     39  N   UNL     1      -8.808  -8.726   7.918  1.00  0.00    -0.248 NA
ATOM     40  C   UNL     1     -10.740  -9.326   6.837  1.00  0.00     0.031 C 
ATOM     41  C   UNL     1      -7.236  -6.767   6.460  1.00  0.00     0.029 A 
ATOM     42  N   UNL     1      -8.463  -4.907   6.060  1.00  0.00    -0.354 N 
ATOM     43  C   UNL     1      -8.959 -10.086   8.083  1.00  0.00     0.074 A 
ATOM     44  C   UNL     1     -10.215 -10.396   7.439  1.00  0.00     0.031 C 
ATOM     45  C   UNL     1      -6.423  -5.711   6.623  1.00  0.00     0.029 A 
ATOM     46  C   UNL     1      -7.270  -4.535   6.722  1.00  0.00     0.049 A 
ATOM     47  H   UNL     1      -9.066  -4.324   5.545  1.00  0.00     0.167 HD
ATOM     48  C   UNL     1      -7.936 -10.810   8.627  1.00  0.00     0.037 A 
ATOM     49  C   UNL     1      -7.287  -3.677   7.784  1.00  0.00     0.037 A 
ATOM     50  C   UNL     1      -6.838  -9.936   9.037  1.00  0.00     0.049 A 
ATOM     51  C   UNL     1      -6.732  -4.268   9.058  1.00  0.00     0.074 A 
ATOM     52  C   UNL     1      -5.648  -9.585   8.420  1.00  0.00     0.029 A 
ATOM     53  N   UNL     1      -7.021  -9.036  10.081  1.00  0.00    -0.354 N 
ATOM     54  N   UNL     1      -6.619  -5.548   9.274  1.00  0.00    -0.248 NA
ATOM     55  C   UNL     1      -6.307  -3.467  10.203  1.00  0.00     0.031 C 
ATOM     56  C   UNL     1      -5.145  -8.428   9.062  1.00  0.00     0.029 A 
ATOM     57  C   UNL     1      -6.016  -8.087  10.081  1.00  0.00     0.049 A 
ATOM     58  H   UNL     1      -7.762  -9.070  10.729  1.00  0.00     0.167 HD
ATOM     59  C   UNL     1      -6.158  -5.755  10.546  1.00  0.00     0.074 A 
ATOM     60  C   UNL     1      -5.957  -4.422  11.081  1.00  0.00     0.031 C 
ATOM     61  C   UNL     1      -5.997  -7.010  11.057  1.00  0.00     0.037 A 
BRANCH  48  62
ATOM     62  C   UNL     1      -7.793 -12.316   8.497  1.00  0.00     0.064 A 
ATOM     63  C   UNL     1      -6.516 -12.923   8.479  1.00  0.00     0.173 A 
ATOM     64  C   UNL     1      -8.862 -13.213   8.322  1.00  0.00     0.173 A 
ATOM     65  F   UNL     1      -5.406 -12.231   8.767  1.00  0.00    -0.203 F 
ATOM     66  C   UNL     1      -6.324 -14.272   8.166  1.00  0.00     0.198 A 
ATOM     67  C   UNL     1      -8.671 -14.551   7.954  1.00  0.00     0.198 A 
ATOM     68  F   UNL     1     -10.125 -12.848   8.566  1.00  0.00    -0.203 F 
ATOM     69  F   UNL     1      -5.085 -14.782   8.150  1.00  0.00    -0.200 F 
ATOM     70  C   UNL     1      -7.401 -15.077   7.859  1.00  0.00     0.200 A 
ATOM     71  F   UNL     1      -9.735 -15.326   7.696  1.00  0.00    -0.200 F 
ATOM     72  F   UNL     1      -7.217 -16.357   7.510  1.00  0.00    -0.200 F 
ENDBRANCH  48  62
BRANCH  49  73
ATOM     73  C   UNL     1      -8.401  -2.694   7.725  1.00  0.00     0.064 A 
ATOM     74  C   UNL     1      -8.422  -1.772   6.661  1.00  0.00     0.173 A 
ATOM     75  C   UNL     1      -9.591  -2.894   8.434  1.00  0.00     0.173 A 
ATOM     76  F   UNL     1      -7.308  -1.547   5.946  1.00  0.00    -0.203 F 
ATOM     77  C   UNL     1      -9.608  -1.169   6.249  1.00  0.00     0.198 A 
ATOM     78  C   UNL     1     -10.776  -2.276   8.026  1.00  0.00     0.198 A 
ATOM     79  F   UNL     1      -9.641  -3.775   9.443  1.00  0.00    -0.203 F 
ATOM     80  F   UNL     1      -9.617  -0.388   5.159  1.00  0.00    -0.200 F 
ATOM     81  C   UNL     1     -10.790  -1.445   6.915  1.00  0.00     0.200 A 
ATOM     82  F   UNL     1     -11.927  -2.568   8.649  1.00  0.00    -0.200 F 
ATOM     83  F   UNL     1     -11.948  -0.947   6.461  1.00  0.00    -0.200 F 
ENDBRANCH  49  73
BRANCH  61  84
ATOM     84  C   UNL     1      -5.715  -7.333  12.500  1.00  0.00     0.064 A 
ATOM     85  C   UNL     1      -6.196  -6.568  13.575  1.00  0.00     0.173 A 
ATOM     86  C   UNL     1      -5.058  -8.537  12.848  1.00  0.00     0.173 A 
ATOM     87  F   UNL     1      -6.932  -5.467  13.370  1.00  0.00    -0.203 F 
ATOM     88  C   UNL     1      -5.980  -6.945  14.903  1.00  0.00     0.198 A 
ATOM     89  C   UNL     1      -4.893  -8.938  14.172  1.00  0.00     0.198 A 
ATOM     90  F   UNL     1      -4.581  -9.367  11.909  1.00  0.00    -0.203 F 
ATOM     91  F   UNL     1      -6.423  -6.161  15.895  1.00  0.00    -0.200 F 
ATOM     92  C   UNL     1      -5.340  -8.134  15.201  1.00  0.00     0.200 A 
ATOM     93  F   UNL     1      -4.315 -10.116  14.444  1.00  0.00    -0.200 F 
ATOM     94  F   UNL     1      -5.173  -8.512  16.475  1.00  0.00    -0.200 F 
ENDBRANCH  61  84
ENDBRANCH  35  36
ENDBRANCH  27  30
ENDBRANCH  25  26
ENDBRANCH  24  25
ENDBRANCH   1  24
TORSDOF 14
