REMARK SMILES COC(=O)c1ccc2oc(=O)c([C@H]3N=c4ccc(C(=O)NCCCCNC(=O)c5ccc(-c6c7nc(c(-c8c(F)c(F)c(F)c(F)c8F)c8ccc([nH]8)c(-c8c(F)c(F)c(F)c(F)c8F)c8nc(c(-c9c(F)c(F)c(F)c(F)c9F)c9ccc6[nH]9)C=C8)C=C7)cc5)cc4=N3)cc2c1
REMARK SMILES IDX 23 1 22 2 21 3 19 4 20 5 18 7 13 8 14 9 94 10 15 11 93 12
REMARK SMILES IDX 16 13 92 14 17 15 12 16 5 17 6 18 97 19 7 20 96 21 8 22
REMARK SMILES IDX 95 23 9 24 10 25 11 26 3 27 4 28 2 29 1 30 24 31 25 32 26 33
REMARK SMILES IDX 27 34 28 36 29 37 30 38 91 39 31 40 90 41 32 42 33 43 34 44
REMARK SMILES IDX 84 45 35 46 89 47 83 48 85 49 36 50 88 51 82 52 81 53 37 55
REMARK SMILES IDX 69 56 49 57 68 58 50 59 53 60 67 61 86 62 51 63 52 64 66 66
REMARK SMILES IDX 87 67 54 68 38 69 39 70 47 71 40 72 41 73 45 74 48 75 42 76
REMARK SMILES IDX 43 77 46 78 44 79 70 80 71 81 79 82 72 83 73 84 77 85 80 86
REMARK SMILES IDX 74 87 75 88 78 89 76 90 55 91 56 92 64 93 57 94 58 95 62 96
REMARK SMILES IDX 65 97 59 98 60 99 63 100 61 101
REMARK H PARENT 21 6 26 35 85 54 53 65
REMARK Flexibility Score: inf
ROOT
ATOM      1  C   UNL     1      -0.271  12.248  11.203  1.00  0.00     0.023 C 
ENDROOT
BRANCH   1   2
ATOM      2  C   UNL     1       0.781  11.438  11.967  1.00  0.00     0.116 C 
BRANCH   2   3
ATOM      3  N   UNL     1       0.182  10.270  12.581  1.00  0.00    -0.352 N 
ATOM      4  C   UNL     1       0.035   8.979  12.182  1.00  0.00     0.251 C 
ATOM      5  O   UNL     1      -0.553   8.233  12.970  1.00  0.00    -0.269 OA
ATOM      6  H   UNL     1      -0.197  10.449  13.471  1.00  0.00     0.163 HD
BRANCH   4   7
ATOM      7  C   UNL     1       0.591   8.439  10.890  1.00  0.00     0.042 A 
ATOM      8  C   UNL     1       2.002   5.245   8.036  1.00  0.00     0.260 C 
ATOM      9  N   UNL     1       2.283   6.640   7.607  1.00  0.00    -0.251 NA
ATOM     10  N   UNL     1       1.413   5.212   9.401  1.00  0.00    -0.251 NA
ATOM     11  C   UNL     1       1.749   7.320   8.561  1.00  0.00     0.086 A 
ATOM     12  C   UNL     1       1.260   6.465   9.662  1.00  0.00     0.087 A 
ATOM     13  C   UNL     1       1.541   8.761   8.629  1.00  0.00     0.031 A 
ATOM     14  C   UNL     1       0.712   7.096  10.866  1.00  0.00     0.044 A 
ATOM     15  C   UNL     1       0.926   9.239   9.719  1.00  0.00     0.016 A 
BRANCH   8  16
ATOM     16  C   UNL     1       1.108   4.589   7.018  1.00  0.00     0.085 A 
ATOM     17  C   UNL     1       0.361   1.609   3.262  1.00  0.00     0.060 A 
ATOM     18  C   UNL     1      -0.968   2.049   3.173  1.00  0.00     0.019 A 
ATOM     19  C   UNL     1       1.198   2.089   4.280  1.00  0.00     0.027 A 
ATOM     20  C   UNL     1      -1.449   2.989   4.085  1.00  0.00     0.049 A 
ATOM     21  C   UNL     1       0.721   3.038   5.184  1.00  0.00     0.019 A 
ATOM     22  C   UNL     1      -0.592   3.479   5.067  1.00  0.00     0.138 A 
ATOM     23  C   UNL     1       1.560   3.603   6.224  1.00  0.00     0.027 A 
ATOM     24  O   UNL     1      -1.091   4.470   5.926  1.00  0.00    -0.422 OA
ATOM     25  C   UNL     1      -0.278   5.111   6.861  1.00  0.00     0.343 A 
ATOM     26  O   UNL     1      -0.718   6.063   7.499  1.00  0.00    -0.246 OA
BRANCH  17  27
ATOM     27  C   UNL     1       0.938   0.647   2.291  1.00  0.00     0.337 C 
ATOM     28  O   UNL     1       1.877  -0.081   2.541  1.00  0.00    -0.246 OA
BRANCH  27  29
ATOM     29  O   UNL     1       0.319   0.788   1.091  1.00  0.00    -0.465 OA
ATOM     30  C   UNL     1       0.903   0.011   0.044  1.00  0.00     0.282 C 
ENDBRANCH  27  29
ENDBRANCH  17  27
ENDBRANCH   8  16
ENDBRANCH   4   7
ENDBRANCH   2   3
ENDBRANCH   1   2
BRANCH   1  31
ATOM     31  C   UNL     1      -1.144  13.139  12.089  1.00  0.00     0.023 C 
BRANCH  31  32
ATOM     32  C   UNL     1      -0.390  14.221  12.852  1.00  0.00     0.116 C 
BRANCH  32  33
ATOM     33  N   UNL     1       0.371  15.123  11.999  1.00  0.00    -0.352 N 
ATOM     34  C   UNL     1       0.649  16.457  12.198  1.00  0.00     0.251 C 
ATOM     35  H   UNL     1       0.734  14.729  11.174  1.00  0.00     0.163 HD
ATOM     36  O   UNL     1       1.232  17.108  11.339  1.00  0.00    -0.269 OA
BRANCH  34  37
ATOM     37  C   UNL     1       0.187  17.108  13.442  1.00  0.00     0.039 A 
ATOM     38  C   UNL     1       0.376  16.484  14.676  1.00  0.00     0.014 A 
ATOM     39  C   UNL     1      -0.502  18.320  13.363  1.00  0.00     0.014 A 
ATOM     40  C   UNL     1      -0.286  16.970  15.795  1.00  0.00     0.010 A 
ATOM     41  C   UNL     1      -1.083  18.861  14.513  1.00  0.00     0.010 A 
ATOM     42  C   UNL     1      -1.028  18.161  15.728  1.00  0.00    -0.014 A 
BRANCH  42  43
ATOM     43  C   UNL     1      -1.738  18.637  16.944  1.00  0.00     0.031 A 
ATOM     44  C   UNL     1      -3.240  18.723  16.980  1.00  0.00     0.074 A 
ATOM     45  C   UNL     1      -1.020  18.919  18.048  1.00  0.00     0.049 A 
ATOM     46  N   UNL     1      -4.023  19.064  17.974  1.00  0.00    -0.248 NA
ATOM     47  C   UNL     1      -3.963  18.388  15.742  1.00  0.00     0.031 C 
ATOM     48  C   UNL     1       0.440  18.864  18.135  1.00  0.00     0.029 A 
ATOM     49  N   UNL     1      -1.415  19.272  19.314  1.00  0.00    -0.354 N 
ATOM     50  C   UNL     1      -5.319  18.997  17.481  1.00  0.00     0.074 A 
ATOM     51  C   UNL     1      -5.222  18.619  16.088  1.00  0.00     0.031 C 
ATOM     52  C   UNL     1       0.815  19.102  19.399  1.00  0.00     0.029 A 
ATOM     53  C   UNL     1      -0.371  19.398  20.197  1.00  0.00     0.049 A 
ATOM     54  H   UNL     1      -2.355  19.420  19.564  1.00  0.00     0.167 HD
ATOM     55  C   UNL     1      -6.484  19.215  18.137  1.00  0.00     0.037 A 
ATOM     56  C   UNL     1      -0.364  19.725  21.503  1.00  0.00     0.037 A 
ATOM     57  C   UNL     1      -6.577  19.565  19.531  1.00  0.00     0.049 A 
ATOM     58  C   UNL     1      -1.669  20.008  22.192  1.00  0.00     0.074 A 
ATOM     59  C   UNL     1      -7.714  19.781  20.290  1.00  0.00     0.029 A 
ATOM     60  N   UNL     1      -5.492  19.750  20.375  1.00  0.00    -0.354 N 
ATOM     61  N   UNL     1      -2.887  19.924  21.718  1.00  0.00    -0.248 NA
ATOM     62  C   UNL     1      -1.597  20.441  23.595  1.00  0.00     0.031 C 
ATOM     63  C   UNL     1      -7.317  20.144  21.580  1.00  0.00     0.029 A 
ATOM     64  C   UNL     1      -5.933  20.103  21.640  1.00  0.00     0.049 A 
ATOM     65  H   UNL     1      -4.548  19.646  20.114  1.00  0.00     0.167 HD
ATOM     66  C   UNL     1      -3.728  20.281  22.762  1.00  0.00     0.074 A 
ATOM     67  C   UNL     1      -2.882  20.561  23.903  1.00  0.00     0.031 C 
ATOM     68  C   UNL     1      -5.079  20.375  22.769  1.00  0.00     0.037 A 
BRANCH  55  69
ATOM     69  C   UNL     1      -7.766  19.081  17.365  1.00  0.00     0.064 A 
ATOM     70  C   UNL     1      -8.253  17.829  16.961  1.00  0.00     0.173 A 
ATOM     71  C   UNL     1      -8.557  20.210  17.099  1.00  0.00     0.173 A 
ATOM     72  F   UNL     1      -7.532  16.720  17.183  1.00  0.00    -0.203 F 
ATOM     73  C   UNL     1      -9.479  17.714  16.309  1.00  0.00     0.198 A 
ATOM     74  C   UNL     1      -9.794  20.087  16.472  1.00  0.00     0.198 A 
ATOM     75  F   UNL     1      -8.142  21.430  17.472  1.00  0.00    -0.203 F 
ATOM     76  F   UNL     1      -9.910  16.511  15.905  1.00  0.00    -0.200 F 
ATOM     77  C   UNL     1     -10.252  18.841  16.074  1.00  0.00     0.200 A 
ATOM     78  F   UNL     1     -10.548  21.175  16.261  1.00  0.00    -0.200 F 
ATOM     79  F   UNL     1     -11.440  18.725  15.464  1.00  0.00    -0.200 F 
ENDBRANCH  55  69
BRANCH  56  80
ATOM     80  C   UNL     1       0.927  19.790  22.235  1.00  0.00     0.064 A 
ATOM     81  C   UNL     1       1.241  18.851  23.226  1.00  0.00     0.173 A 
ATOM     82  C   UNL     1       1.888  20.767  21.933  1.00  0.00     0.173 A 
ATOM     83  F   UNL     1       0.348  17.909  23.563  1.00  0.00    -0.203 F 
ATOM     84  C   UNL     1       2.466  18.888  23.889  1.00  0.00     0.198 A 
ATOM     85  C   UNL     1       3.124  20.784  22.573  1.00  0.00     0.198 A 
ATOM     86  F   UNL     1       1.638  21.686  20.988  1.00  0.00    -0.203 F 
ATOM     87  F   UNL     1       2.731  17.996  24.852  1.00  0.00    -0.200 F 
ATOM     88  C   UNL     1       3.411  19.847  23.554  1.00  0.00     0.200 A 
ATOM     89  F   UNL     1       4.041  21.700  22.232  1.00  0.00    -0.200 F 
ATOM     90  F   UNL     1       4.596  19.870  24.178  1.00  0.00    -0.200 F 
ENDBRANCH  56  80
BRANCH  68  91
ATOM     91  C   UNL     1      -5.741  20.785  24.051  1.00  0.00     0.064 A 
ATOM     92  C   UNL     1      -5.688  22.110  24.507  1.00  0.00     0.173 A 
ATOM     93  C   UNL     1      -6.509  19.866  24.782  1.00  0.00     0.173 A 
ATOM     94  F   UNL     1      -4.956  23.022  23.850  1.00  0.00    -0.203 F 
ATOM     95  C   UNL     1      -6.374  22.498  25.655  1.00  0.00     0.198 A 
ATOM     96  C   UNL     1      -7.216  20.264  25.913  1.00  0.00     0.198 A 
ATOM     97  F   UNL     1      -6.597  18.589  24.382  1.00  0.00    -0.203 F 
ATOM     98  F   UNL     1      -6.287  23.762  26.090  1.00  0.00    -0.200 F 
ATOM     99  C   UNL     1      -7.146  21.578  26.350  1.00  0.00     0.200 A 
ATOM    100  F   UNL     1      -7.974  19.378  26.573  1.00  0.00    -0.200 F 
ATOM    101  F   UNL     1      -7.823  21.959  27.442  1.00  0.00    -0.200 F 
ENDBRANCH  68  91
ENDBRANCH  42  43
ENDBRANCH  34  37
ENDBRANCH  32  33
ENDBRANCH  31  32
ENDBRANCH   1  31
TORSDOF 14
