REMARK SMILES O=C(NCCCCNC(=O)[C@H](CO)NC(=O)[C@H](CS)NC(=O)[C@H](Cc1c[nH]c2ccccc12)NC(=O)c1ccc(F)cc1)c1ccc(-c2c3nc(c(-c4c(F)c(F)c(F)c(F)c4F)c4ccc([nH]4)c(-c4c(F)c(F)c(F)c(F)c4F)c4nc(c(-c5c(F)c(F)c(F)c(F)c5F)c5ccc2[nH]5)C=C4)C=C3)cc1
REMARK SMILES IDX 8 1 9 2 10 3 7 5 6 6 5 7 4 8 3 9 1 10 2 11 44 13 45 14
REMARK SMILES IDX 106 15 46 16 105 17 47 18 48 19 49 20 99 21 50 22 104 23
REMARK SMILES IDX 98 24 100 25 51 26 103 27 97 28 96 29 52 31 84 32 64 33
REMARK SMILES IDX 83 34 65 35 68 36 82 37 101 38 66 39 67 40 81 42 102 43
REMARK SMILES IDX 69 44 53 45 54 46 62 47 55 48 56 49 60 50 63 51 57 52 58 53
REMARK SMILES IDX 61 54 59 55 85 56 86 57 94 58 87 59 88 60 92 61 95 62 89 63
REMARK SMILES IDX 90 64 93 65 91 66 70 67 71 68 79 69 72 70 73 71 77 72 80 73
REMARK SMILES IDX 74 74 75 75 78 76 76 77 11 78 14 79 15 80 16 82 17 83 20 84
REMARK SMILES IDX 21 85 22 87 23 88 34 89 35 90 36 92 37 93 38 94 43 95 39 96
REMARK SMILES IDX 42 97 40 98 41 99 24 100 25 101 26 102 33 103 27 104 28 105
REMARK SMILES IDX 32 106 29 108 31 109 30 110 18 111 19 112 12 114 13 115
REMARK H PARENT 8 4 3 12 100 30 68 41 14 81 20 86 34 91 27 107 19 113 13 116
REMARK Flexibility Score: inf
ROOT
ATOM      1  N   UNL     1       4.953  -6.438   4.201  1.00  0.00    -0.354 N 
ATOM      2  C   UNL     1       6.133  -6.229   4.850  1.00  0.00     0.244 C 
ATOM      3  O   UNL     1       6.074  -5.511   5.856  1.00  0.00    -0.273 OA
ATOM      4  H   UNL     1       4.168  -6.071   4.670  1.00  0.00     0.163 HD
ENDROOT
BRANCH   1   5
ATOM      5  C   UNL     1       4.635  -7.100   2.952  1.00  0.00     0.116 C 
BRANCH   5   6
ATOM      6  C   UNL     1       3.538  -8.150   3.081  1.00  0.00     0.023 C 
BRANCH   6   7
ATOM      7  C   UNL     1       2.131  -7.612   3.314  1.00  0.00     0.023 C 
BRANCH   7   8
ATOM      8  C   UNL     1       1.708  -6.479   2.391  1.00  0.00     0.116 C 
BRANCH   8   9
ATOM      9  N   UNL     1       1.900  -6.776   0.980  1.00  0.00    -0.352 N 
ATOM     10  O   UNL     1       1.331  -6.976  -1.194  1.00  0.00    -0.269 OA
ATOM     11  C   UNL     1       1.034  -6.599  -0.073  1.00  0.00     0.251 C 
ATOM     12  H   UNL     1       2.776  -7.159   0.745  1.00  0.00     0.163 HD
BRANCH  11  13
ATOM     13  C   UNL     1      -0.283  -5.984   0.180  1.00  0.00     0.039 A 
ATOM     14  C   UNL     1      -0.390  -4.802   0.918  1.00  0.00     0.014 A 
ATOM     15  C   UNL     1      -1.423  -6.629  -0.302  1.00  0.00     0.014 A 
ATOM     16  C   UNL     1      -1.645  -4.340   1.294  1.00  0.00     0.010 A 
ATOM     17  C   UNL     1      -2.682  -6.122   0.012  1.00  0.00     0.010 A 
ATOM     18  C   UNL     1      -2.800  -4.993   0.839  1.00  0.00    -0.014 A 
BRANCH  18  19
ATOM     19  C   UNL     1      -4.137  -4.464   1.188  1.00  0.00     0.031 A 
ATOM     20  C   UNL     1      -5.071  -5.254   2.054  1.00  0.00     0.074 A 
ATOM     21  C   UNL     1      -4.508  -3.269   0.693  1.00  0.00     0.049 A 
ATOM     22  N   UNL     1      -6.312  -4.994   2.379  1.00  0.00    -0.248 NA
ATOM     23  C   UNL     1      -4.549  -6.505   2.626  1.00  0.00     0.031 C 
ATOM     24  C   UNL     1      -3.670  -2.415  -0.150  1.00  0.00     0.029 A 
ATOM     25  N   UNL     1      -5.680  -2.571   0.819  1.00  0.00    -0.354 N 
ATOM     26  C   UNL     1      -6.728  -6.059   3.166  1.00  0.00     0.074 A 
ATOM     27  C   UNL     1      -5.613  -6.976   3.263  1.00  0.00     0.031 C 
ATOM     28  C   UNL     1      -4.347  -1.298  -0.450  1.00  0.00     0.029 A 
ATOM     29  C   UNL     1      -5.686  -1.390   0.122  1.00  0.00     0.049 A 
ATOM     30  H   UNL     1      -6.442  -2.886   1.357  1.00  0.00     0.167 HD
ATOM     31  C   UNL     1      -7.935  -6.244   3.751  1.00  0.00     0.037 A 
ATOM     32  C   UNL     1      -6.673  -0.495  -0.069  1.00  0.00     0.037 A 
ATOM     33  C   UNL     1      -9.026  -5.309   3.664  1.00  0.00     0.049 A 
ATOM     34  C   UNL     1      -8.014  -0.744   0.553  1.00  0.00     0.074 A 
ATOM     35  C   UNL     1     -10.269  -5.378   4.268  1.00  0.00     0.029 A 
ATOM     36  N   UNL     1      -9.005  -4.136   2.922  1.00  0.00    -0.354 N 
ATOM     37  N   UNL     1      -8.395  -1.744   1.309  1.00  0.00    -0.248 NA
ATOM     38  C   UNL     1      -9.064   0.248   0.290  1.00  0.00     0.031 C 
ATOM     39  C   UNL     1     -11.017  -4.272   3.852  1.00  0.00     0.029 A 
ATOM     40  C   UNL     1     -10.224  -3.488   3.028  1.00  0.00     0.049 A 
ATOM     41  H   UNL     1      -8.236  -3.813   2.398  1.00  0.00     0.167 HD
ATOM     42  C   UNL     1      -9.723  -1.501   1.623  1.00  0.00     0.074 A 
ATOM     43  C   UNL     1     -10.082  -0.253   0.980  1.00  0.00     0.031 C 
ATOM     44  C   UNL     1     -10.563  -2.246   2.380  1.00  0.00     0.037 A 
BRANCH  31  45
ATOM     45  C   UNL     1      -8.155  -7.514   4.519  1.00  0.00     0.064 A 
ATOM     46  C   UNL     1      -9.024  -8.498   4.022  1.00  0.00     0.173 A 
ATOM     47  C   UNL     1      -7.557  -7.736   5.767  1.00  0.00     0.173 A 
ATOM     48  F   UNL     1      -9.627  -8.331   2.835  1.00  0.00    -0.203 F 
ATOM     49  C   UNL     1      -9.291  -9.654   4.751  1.00  0.00     0.198 A 
ATOM     50  C   UNL     1      -7.807  -8.906   6.482  1.00  0.00     0.198 A 
ATOM     51  F   UNL     1      -6.711  -6.832   6.282  1.00  0.00    -0.203 F 
ATOM     52  F   UNL     1     -10.143 -10.568   4.267  1.00  0.00    -0.200 F 
ATOM     53  C   UNL     1      -8.679  -9.859   5.978  1.00  0.00     0.200 A 
ATOM     54  F   UNL     1      -7.197  -9.113   7.658  1.00  0.00    -0.200 F 
ATOM     55  F   UNL     1      -8.925 -10.979   6.672  1.00  0.00    -0.200 F 
ENDBRANCH  31  45
BRANCH  32  56
ATOM     56  C   UNL     1      -6.396   0.704  -0.894  1.00  0.00     0.064 A 
ATOM     57  C   UNL     1      -6.205   0.602  -2.281  1.00  0.00     0.173 A 
ATOM     58  C   UNL     1      -6.208   1.956  -0.297  1.00  0.00     0.173 A 
ATOM     59  F   UNL     1      -6.361  -0.581  -2.894  1.00  0.00    -0.203 F 
ATOM     60  C   UNL     1      -5.801   1.702  -3.033  1.00  0.00     0.198 A 
ATOM     61  C   UNL     1      -5.826   3.061  -1.054  1.00  0.00     0.198 A 
ATOM     62  F   UNL     1      -6.390   2.101   1.024  1.00  0.00    -0.203 F 
ATOM     63  F   UNL     1      -5.572   1.565  -4.346  1.00  0.00    -0.200 F 
ATOM     64  C   UNL     1      -5.610   2.930  -2.419  1.00  0.00     0.200 A 
ATOM     65  F   UNL     1      -5.652   4.249  -0.461  1.00  0.00    -0.200 F 
ATOM     66  F   UNL     1      -5.210   3.986  -3.140  1.00  0.00    -0.200 F 
ENDBRANCH  32  56
BRANCH  44  67
ATOM     67  C   UNL     1     -11.957  -1.734   2.579  1.00  0.00     0.064 A 
ATOM     68  C   UNL     1     -12.347  -1.210   3.821  1.00  0.00     0.173 A 
ATOM     69  C   UNL     1     -12.931  -1.866   1.581  1.00  0.00     0.173 A 
ATOM     70  F   UNL     1     -11.450  -1.072   4.808  1.00  0.00    -0.203 F 
ATOM     71  C   UNL     1     -13.672  -0.859   4.063  1.00  0.00     0.198 A 
ATOM     72  C   UNL     1     -14.251  -1.494   1.820  1.00  0.00     0.198 A 
ATOM     73  F   UNL     1     -12.599  -2.350   0.374  1.00  0.00    -0.203 F 
ATOM     74  F   UNL     1     -14.031  -0.399   5.269  1.00  0.00    -0.200 F 
ATOM     75  C   UNL     1     -14.622  -1.003   3.064  1.00  0.00     0.200 A 
ATOM     76  F   UNL     1     -15.166  -1.617   0.849  1.00  0.00    -0.200 F 
ATOM     77  F   UNL     1     -15.899  -0.671   3.300  1.00  0.00    -0.200 F 
ENDBRANCH  44  67
ENDBRANCH  18  19
ENDBRANCH  11  13
ENDBRANCH   8   9
ENDBRANCH   7   8
ENDBRANCH   6   7
ENDBRANCH   5   6
ENDBRANCH   1   5
BRANCH   2  78
ATOM     78  C   UNL     1       7.434  -7.020   4.543  1.00  0.00     0.197 C 
BRANCH  78  79
ATOM     79  N   UNL     1       7.663  -7.422   3.167  1.00  0.00    -0.340 N 
ATOM     80  C   UNL     1       7.674  -8.689   2.647  1.00  0.00     0.244 C 
ATOM     81  H   UNL     1       7.833  -6.693   2.527  1.00  0.00     0.164 HD
ATOM     82  O   UNL     1       7.648  -8.784   1.418  1.00  0.00    -0.273 OA
BRANCH  80  83
ATOM     83  C   UNL     1       7.643  -9.935   3.578  1.00  0.00     0.181 C 
BRANCH  83  84
ATOM     84  N   UNL     1       6.279 -10.153   4.113  1.00  0.00    -0.342 N 
ATOM     85  C   UNL     1       5.769 -10.511   5.329  1.00  0.00     0.243 C 
ATOM     86  H   UNL     1       5.579 -10.006   3.436  1.00  0.00     0.164 HD
ATOM     87  O   UNL     1       4.574 -10.839   5.318  1.00  0.00    -0.273 OA
BRANCH  85  88
ATOM     88  C   UNL     1       6.473 -10.287   6.696  1.00  0.00     0.176 C 
BRANCH  88  89
ATOM     89  N   UNL     1       7.919 -10.501   6.639  1.00  0.00    -0.340 N 
ATOM     90  C   UNL     1       8.686 -11.566   7.022  1.00  0.00     0.251 C 
ATOM     91  H   UNL     1       8.428  -9.748   6.259  1.00  0.00     0.164 HD
ATOM     92  O   UNL     1       9.869 -11.589   6.691  1.00  0.00    -0.269 OA
BRANCH  90  93
ATOM     93  C   UNL     1       8.160 -12.607   7.931  1.00  0.00     0.040 A 
ATOM     94  C   UNL     1       6.985 -13.325   7.690  1.00  0.00     0.017 A 
ATOM     95  C   UNL     1       8.907 -12.850   9.094  1.00  0.00     0.017 A 
ATOM     96  C   UNL     1       6.517 -14.222   8.655  1.00  0.00     0.040 A 
ATOM     97  C   UNL     1       8.445 -13.758  10.046  1.00  0.00     0.040 A 
ATOM     98  C   UNL     1       7.245 -14.422   9.825  1.00  0.00     0.123 A 
ATOM     99  F   UNL     1       6.784 -15.271  10.752  1.00  0.00    -0.207 F 
ENDBRANCH  90  93
ENDBRANCH  88  89
BRANCH  88 100
ATOM    100  C   UNL     1       6.136  -8.871   7.188  1.00  0.00     0.072 C 
BRANCH 100 101
ATOM    101  C   UNL     1       5.215  -8.781   8.363  1.00  0.00    -0.020 A 
ATOM    102  C   UNL     1       3.855  -9.017   8.352  1.00  0.00     0.087 A 
ATOM    103  C   UNL     1       5.546  -8.304   9.671  1.00  0.00     0.003 A 
ATOM    104  N   UNL     1       3.351  -8.675   9.578  1.00  0.00    -0.361 N 
ATOM    105  C   UNL     1       4.356  -8.211  10.393  1.00  0.00     0.046 A 
ATOM    106  C   UNL     1       6.744  -7.895  10.294  1.00  0.00     0.010 A 
ATOM    107  H   UNL     1       2.404  -8.751   9.838  1.00  0.00     0.166 HD
ATOM    108  C   UNL     1       4.299  -7.706  11.697  1.00  0.00     0.026 A 
ATOM    109  C   UNL     1       6.706  -7.397  11.602  1.00  0.00     0.001 A 
ATOM    110  C   UNL     1       5.498  -7.297  12.288  1.00  0.00     0.002 A 
ENDBRANCH 100 101
ENDBRANCH  88 100
ENDBRANCH  85  88
ENDBRANCH  83  84
BRANCH  83 111
ATOM    111  C   UNL     1       8.077 -11.144   2.717  1.00  0.00     0.101 C 
BRANCH 111 112
ATOM    112  S   UNL     1       8.239 -12.699   3.649  1.00  0.00    -0.177 SA
ATOM    113  H   UNL     1       9.209 -12.562   4.593  1.00  0.00     0.102 HD
ENDBRANCH 111 112
ENDBRANCH  83 111
ENDBRANCH  80  83
ENDBRANCH  78  79
BRANCH  78 114
ATOM    114  C   UNL     1       8.640  -6.255   5.117  1.00  0.00     0.191 C 
BRANCH 114 115
ATOM    115  O   UNL     1       8.872  -6.645   6.473  1.00  0.00    -0.394 OA
ATOM    116  H   UNL     1       8.088  -6.440   7.006  1.00  0.00     0.210 HD
ENDBRANCH 114 115
ENDBRANCH  78 114
ENDBRANCH   2  78
TORSDOF 23
