REMARK SMILES O=C(NCCCCNC(=O)c1nn(Cc2ccc(F)cc2)c2c1CN(C(=O)[C@H]1CC1(F)F)CC2)c1ccc(-c2c3nc(c(-c4c(F)c(F)c(F)c(F)c4F)c4ccc([nH]4)c(-c4c(F)c(F)c(F)c(F)c4F)c4nc(c(-c5c(F)c(F)c(F)c(F)c5F)c5ccc2[nH]5)C=C4)C=C3)cc1
REMARK SMILES IDX 5 1 4 2 3 3 1 4 2 5 35 7 36 8 97 9 37 10 96 11 38 12 39 13
REMARK SMILES IDX 40 14 90 15 41 16 95 17 89 18 91 19 42 20 94 21 88 22 87 23
REMARK SMILES IDX 43 25 75 26 55 27 74 28 56 29 59 30 73 31 92 32 57 33 58 34
REMARK SMILES IDX 72 36 93 37 60 38 44 39 45 40 53 41 46 42 47 43 51 44 54 45
REMARK SMILES IDX 48 46 49 47 52 48 50 49 76 50 77 51 85 52 78 53 79 54 83 55
REMARK SMILES IDX 86 56 80 57 81 58 84 59 82 60 61 61 62 62 70 63 63 64 64 65
REMARK SMILES IDX 68 66 71 67 65 68 66 69 69 70 67 71 6 72 7 73 8 74 9 75
REMARK SMILES IDX 10 77 11 78 12 79 23 80 13 81 22 82 24 83 34 84 25 85 33 86
REMARK SMILES IDX 14 87 15 88 16 89 21 90 17 91 20 92 18 93 19 94 26 95 27 96
REMARK SMILES IDX 28 97 29 98 30 99 31 100 32 101
REMARK H PARENT 3 6 91 24 59 35 8 76
REMARK Flexibility Score: inf
ROOT
ATOM      1  C   UNL     1      20.593  10.085   5.536  1.00  0.00     0.023 C 
ENDROOT
BRANCH   1   2
ATOM      2  C   UNL     1      21.669  10.902   6.249  1.00  0.00     0.116 C 
BRANCH   2   3
ATOM      3  N   UNL     1      22.335  10.206   7.332  1.00  0.00    -0.352 N 
ATOM      4  O   UNL     1      23.795   9.173   8.617  1.00  0.00    -0.269 OA
ATOM      5  C   UNL     1      23.456   9.434   7.459  1.00  0.00     0.251 C 
ATOM      6  H   UNL     1      21.862  10.316   8.188  1.00  0.00     0.163 HD
BRANCH   5   7
ATOM      7  C   UNL     1      24.247   8.839   6.345  1.00  0.00     0.039 A 
ATOM      8  C   UNL     1      24.170   9.184   4.995  1.00  0.00     0.014 A 
ATOM      9  C   UNL     1      25.139   7.812   6.719  1.00  0.00     0.014 A 
ATOM     10  C   UNL     1      24.907   8.472   4.043  1.00  0.00     0.010 A 
ATOM     11  C   UNL     1      25.875   7.102   5.776  1.00  0.00     0.010 A 
ATOM     12  C   UNL     1      25.732   7.408   4.428  1.00  0.00    -0.014 A 
BRANCH  12  13
ATOM     13  C   UNL     1      26.531   6.723   3.408  1.00  0.00     0.031 A 
ATOM     14  C   UNL     1      27.572   7.567   2.741  1.00  0.00     0.074 A 
ATOM     15  C   UNL     1      26.470   5.395   3.174  1.00  0.00     0.049 A 
ATOM     16  N   UNL     1      27.738   7.801   1.477  1.00  0.00    -0.248 NA
ATOM     17  C   UNL     1      28.515   8.295   3.607  1.00  0.00     0.031 C 
ATOM     18  C   UNL     1      25.744   4.366   3.924  1.00  0.00     0.029 A 
ATOM     19  N   UNL     1      27.134   4.666   2.230  1.00  0.00    -0.354 N 
ATOM     20  C   UNL     1      28.873   8.607   1.371  1.00  0.00     0.074 A 
ATOM     21  C   UNL     1      29.260   8.950   2.716  1.00  0.00     0.031 C 
ATOM     22  C   UNL     1      26.171   3.140   3.537  1.00  0.00     0.029 A 
ATOM     23  C   UNL     1      27.088   3.290   2.421  1.00  0.00     0.049 A 
ATOM     24  H   UNL     1      27.608   5.082   1.474  1.00  0.00     0.167 HD
ATOM     25  C   UNL     1      29.508   8.832   0.187  1.00  0.00     0.037 A 
ATOM     26  C   UNL     1      27.797   2.353   1.738  1.00  0.00     0.037 A 
ATOM     27  C   UNL     1      28.664   8.540  -0.936  1.00  0.00     0.049 A 
ATOM     28  C   UNL     1      28.241   2.973   0.466  1.00  0.00     0.074 A 
ATOM     29  C   UNL     1      27.497   9.087  -1.430  1.00  0.00     0.029 A 
ATOM     30  N   UNL     1      28.788   7.323  -1.554  1.00  0.00    -0.354 N 
ATOM     31  N   UNL     1      27.439   3.317  -0.501  1.00  0.00    -0.248 NA
ATOM     32  C   UNL     1      29.552   3.602   0.452  1.00  0.00     0.031 C 
ATOM     33  C   UNL     1      26.740   7.974  -1.899  1.00  0.00     0.029 A 
ATOM     34  C   UNL     1      27.518   6.830  -1.717  1.00  0.00     0.049 A 
ATOM     35  H   UNL     1      29.627   6.886  -1.828  1.00  0.00     0.167 HD
ATOM     36  C   UNL     1      27.968   4.501  -0.988  1.00  0.00     0.074 A 
ATOM     37  C   UNL     1      29.309   4.586  -0.415  1.00  0.00     0.031 C 
ATOM     38  C   UNL     1      27.175   5.434  -1.588  1.00  0.00     0.037 A 
BRANCH  25  39
ATOM     39  C   UNL     1      30.983   9.096   0.045  1.00  0.00     0.064 A 
ATOM     40  C   UNL     1      31.934   8.623   0.974  1.00  0.00     0.173 A 
ATOM     41  C   UNL     1      31.507   9.594  -1.164  1.00  0.00     0.173 A 
ATOM     42  F   UNL     1      31.563   8.014   2.108  1.00  0.00    -0.203 F 
ATOM     43  C   UNL     1      33.304   8.661   0.724  1.00  0.00     0.198 A 
ATOM     44  C   UNL     1      32.880   9.586  -1.432  1.00  0.00     0.198 A 
ATOM     45  F   UNL     1      30.691  10.032  -2.135  1.00  0.00    -0.203 F 
ATOM     46  F   UNL     1      34.157   8.182   1.641  1.00  0.00    -0.200 F 
ATOM     47  C   UNL     1      33.777   9.121  -0.488  1.00  0.00     0.200 A 
ATOM     48  F   UNL     1      33.328   9.979  -2.633  1.00  0.00    -0.200 F 
ATOM     49  F   UNL     1      35.088   9.070  -0.760  1.00  0.00    -0.200 F 
ENDBRANCH  25  39
BRANCH  26  50
ATOM     50  C   UNL     1      28.427   1.110   2.251  1.00  0.00     0.064 A 
ATOM     51  C   UNL     1      28.862   1.015   3.586  1.00  0.00     0.173 A 
ATOM     52  C   UNL     1      28.904   0.123   1.369  1.00  0.00     0.173 A 
ATOM     53  F   UNL     1      28.523   1.949   4.486  1.00  0.00    -0.203 F 
ATOM     54  C   UNL     1      29.745   0.018   4.006  1.00  0.00     0.198 A 
ATOM     55  C   UNL     1      29.793  -0.873   1.790  1.00  0.00     0.198 A 
ATOM     56  F   UNL     1      28.575   0.164   0.069  1.00  0.00    -0.203 F 
ATOM     57  F   UNL     1      30.186   0.011   5.272  1.00  0.00    -0.200 F 
ATOM     58  C   UNL     1      30.224  -0.915   3.105  1.00  0.00     0.200 A 
ATOM     59  F   UNL     1      30.282  -1.753   0.904  1.00  0.00    -0.200 F 
ATOM     60  F   UNL     1      31.130  -1.823   3.494  1.00  0.00    -0.200 F 
ENDBRANCH  26  50
BRANCH  38  61
ATOM     61  C   UNL     1      25.755   5.053  -1.909  1.00  0.00     0.064 A 
ATOM     62  C   UNL     1      25.313   5.189  -3.232  1.00  0.00     0.173 A 
ATOM     63  C   UNL     1      24.791   4.730  -0.938  1.00  0.00     0.173 A 
ATOM     64  F   UNL     1      26.177   5.548  -4.195  1.00  0.00    -0.203 F 
ATOM     65  C   UNL     1      23.972   5.021  -3.567  1.00  0.00     0.198 A 
ATOM     66  C   UNL     1      23.455   4.524  -1.282  1.00  0.00     0.198 A 
ATOM     67  F   UNL     1      25.110   4.674   0.360  1.00  0.00    -0.203 F 
ATOM     68  F   UNL     1      23.572   5.224  -4.830  1.00  0.00    -0.200 F 
ATOM     69  C   UNL     1      23.045   4.682  -2.595  1.00  0.00     0.200 A 
ATOM     70  F   UNL     1      22.555   4.217  -0.336  1.00  0.00    -0.200 F 
ATOM     71  F   UNL     1      21.752   4.539  -2.918  1.00  0.00    -0.200 F 
ENDBRANCH  38  61
ENDBRANCH  12  13
ENDBRANCH   5   7
ENDBRANCH   2   3
ENDBRANCH   1   2
BRANCH   1  72
ATOM     72  C   UNL     1      19.441   9.584   6.423  1.00  0.00     0.023 C 
BRANCH  72  73
ATOM     73  C   UNL     1      18.638  10.651   7.179  1.00  0.00     0.116 C 
BRANCH  73  74
ATOM     74  N   UNL     1      17.915  11.537   6.282  1.00  0.00    -0.351 N 
ATOM     75  C   UNL     1      16.562  11.783   6.165  1.00  0.00     0.272 C 
ATOM     76  H   UNL     1      18.482  12.045   5.657  1.00  0.00     0.163 HD
ATOM     77  O   UNL     1      16.191  12.443   5.191  1.00  0.00    -0.267 OA
BRANCH  75  78
ATOM     78  C   UNL     1      15.591  11.249   7.139  1.00  0.00     0.155 A 
ATOM     79  N   UNL     1      15.870  11.060   8.447  1.00  0.00    -0.167 NA
ATOM     80  C   UNL     1      14.225  10.933   6.878  1.00  0.00     0.026 A 
ATOM     81  N   UNL     1      14.736  10.550   8.983  1.00  0.00    -0.264 N 
ATOM     82  C   UNL     1      13.746  10.408   8.061  1.00  0.00     0.046 A 
ATOM     83  C   UNL     1      13.412  11.043   5.625  1.00  0.00     0.159 C 
ATOM     84  C   UNL     1      12.386   9.840   8.244  1.00  0.00     0.078 C 
ATOM     85  N   UNL     1      12.015  10.642   5.922  1.00  0.00    -0.337 N 
ATOM     86  C   UNL     1      11.834   9.502   6.843  1.00  0.00     0.126 C 
BRANCH  81  87
ATOM     87  C   UNL     1      14.640  10.343  10.424  1.00  0.00     0.180 C 
BRANCH  87  88
ATOM     88  C   UNL     1      15.446   9.156  10.892  1.00  0.00    -0.026 A 
ATOM     89  C   UNL     1      16.840   9.270  11.039  1.00  0.00     0.008 A 
ATOM     90  C   UNL     1      14.825   7.934  11.197  1.00  0.00     0.008 A 
ATOM     91  C   UNL     1      17.596   8.188  11.490  1.00  0.00     0.039 A 
ATOM     92  C   UNL     1      15.585   6.854  11.651  1.00  0.00     0.039 A 
ATOM     93  C   UNL     1      16.961   6.992  11.795  1.00  0.00     0.123 A 
ATOM     94  F   UNL     1      17.685   5.955  12.235  1.00  0.00    -0.207 F 
ENDBRANCH  87  88
ENDBRANCH  81  87
BRANCH  85  95
ATOM     95  C   UNL     1      10.975  11.344   5.322  1.00  0.00     0.232 C 
ATOM     96  O   UNL     1      11.143  12.254   4.525  1.00  0.00    -0.274 OA
BRANCH  95  97
ATOM     97  C   UNL     1       9.600  10.906   5.646  1.00  0.00     0.154 C 
ATOM     98  C   UNL     1       8.983  11.242   6.995  1.00  0.00     0.097 C 
ATOM     99  C   UNL     1       8.493  11.885   5.753  1.00  0.00     0.260 C 
ATOM    100  F   UNL     1       8.651  13.241   5.607  1.00  0.00    -0.206 F 
ATOM    101  F   UNL     1       7.229  11.569   5.305  1.00  0.00    -0.206 F 
ENDBRANCH  95  97
ENDBRANCH  85  95
ENDBRANCH  75  78
ENDBRANCH  73  74
ENDBRANCH  72  73
ENDBRANCH   1  72
TORSDOF 15
