REMARK SMILES COc1ccc(-c2sc(C(=O)NCCCCNC(=O)c3ccc(-c4c5nc(c(-c6c(F)c(F)c(F)c(F)c6F)c6ccc([nH]6)c(-c6c(F)c(F)c(F)c(F)c6F)c6nc(c(-c7c(F)c(F)c(F)c(F)c7F)c7ccc4[nH]7)C=C6)C=C5)cc3)cc2C)c(OC)c1
REMARK SMILES IDX 14 1 13 2 12 3 10 4 11 5 9 7 7 8 8 9 84 10 83 11 85 12 6 13
REMARK SMILES IDX 3 14 4 15 89 16 5 17 86 18 2 19 1 20 87 21 88 22 15 23 16 24
REMARK SMILES IDX 17 25 18 26 19 28 20 29 21 30 82 31 22 32 81 33 23 34 24 35
REMARK SMILES IDX 25 36 75 37 26 38 80 39 74 40 76 41 27 42 79 43 73 44 72 45
REMARK SMILES IDX 28 47 60 48 40 49 59 50 41 51 44 52 58 53 77 54 42 55 43 56
REMARK SMILES IDX 57 58 78 59 45 60 29 61 30 62 38 63 31 64 32 65 36 66 39 67
REMARK SMILES IDX 33 68 34 69 37 70 35 71 61 72 62 73 70 74 63 75 64 76 68 77
REMARK SMILES IDX 71 78 65 79 66 80 69 81 67 82 46 83 47 84 55 85 48 86 49 87
REMARK SMILES IDX 53 88 56 89 50 90 51 91 54 92 52 93
REMARK H PARENT 12 6 17 27 76 46 44 57
REMARK Flexibility Score: inf
ROOT
ATOM      1  C   UNL     1       0.658   7.982   5.601  1.00  0.00     0.023 C 
ENDROOT
BRANCH   1   2
ATOM      2  C   UNL     1       0.296   8.788   4.354  1.00  0.00     0.116 C 
BRANCH   2   3
ATOM      3  N   UNL     1       1.402   9.623   3.929  1.00  0.00    -0.351 N 
ATOM      4  C   UNL     1       2.363   9.492   2.953  1.00  0.00     0.261 C 
ATOM      5  O   UNL     1       3.127  10.460   2.865  1.00  0.00    -0.268 OA
ATOM      6  H   UNL     1       1.482  10.458   4.445  1.00  0.00     0.163 HD
BRANCH   4   7
ATOM      7  C   UNL     1       2.483   8.351   2.053  1.00  0.00     0.093 A 
ATOM      8  C   UNL     1       2.322   6.221   0.780  1.00  0.00     0.042 A 
ATOM      9  S   UNL     1       1.754   6.831   2.272  1.00  0.00    -0.130 S 
ATOM     10  C   UNL     1       3.202   7.098   0.173  1.00  0.00    -0.031 A 
ATOM     11  C   UNL     1       3.281   8.324   0.918  1.00  0.00     0.029 A 
ATOM     12  C   UNL     1       3.976   6.849  -1.079  1.00  0.00     0.046 C 
BRANCH   8  13
ATOM     13  C   UNL     1       1.865   4.887   0.373  1.00  0.00     0.034 A 
ATOM     14  C   UNL     1       0.869   2.347  -0.291  1.00  0.00     0.122 A 
ATOM     15  C   UNL     1       0.052   3.470  -0.405  1.00  0.00     0.047 A 
ATOM     16  C   UNL     1       2.200   2.495   0.115  1.00  0.00     0.093 A 
ATOM     17  C   UNL     1       0.542   4.731  -0.070  1.00  0.00     0.017 A 
ATOM     18  C   UNL     1       2.708   3.761   0.443  1.00  0.00     0.131 A 
BRANCH  14  19
ATOM     19  O   UNL     1       0.269   1.165  -0.629  1.00  0.00    -0.497 OA
ATOM     20  C   UNL     1       0.848  -0.013  -0.079  1.00  0.00     0.278 C 
ENDBRANCH  14  19
BRANCH  18  21
ATOM     21  O   UNL     1       3.995   3.997   0.857  1.00  0.00    -0.496 OA
ATOM     22  C   UNL     1       4.916   2.918   0.811  1.00  0.00     0.278 C 
ENDBRANCH  18  21
ENDBRANCH   8  13
ENDBRANCH   4   7
ENDBRANCH   2   3
ENDBRANCH   1   2
BRANCH   1  23
ATOM     23  C   UNL     1       0.637   8.798   6.899  1.00  0.00     0.023 C 
BRANCH  23  24
ATOM     24  C   UNL     1      -0.695   9.470   7.225  1.00  0.00     0.116 C 
BRANCH  24  25
ATOM     25  N   UNL     1      -1.817   8.544   7.272  1.00  0.00    -0.352 N 
ATOM     26  C   UNL     1      -2.938   8.599   8.064  1.00  0.00     0.251 C 
ATOM     27  H   UNL     1      -1.765   7.778   6.656  1.00  0.00     0.163 HD
ATOM     28  O   UNL     1      -3.754   7.683   8.055  1.00  0.00    -0.269 OA
BRANCH  26  29
ATOM     29  C   UNL     1      -3.134   9.755   8.962  1.00  0.00     0.039 A 
ATOM     30  C   UNL     1      -3.429   9.518  10.306  1.00  0.00     0.014 A 
ATOM     31  C   UNL     1      -2.993  11.061   8.487  1.00  0.00     0.014 A 
ATOM     32  C   UNL     1      -3.513  10.593  11.193  1.00  0.00     0.010 A 
ATOM     33  C   UNL     1      -3.011  12.125   9.383  1.00  0.00     0.010 A 
ATOM     34  C   UNL     1      -3.267  11.901  10.744  1.00  0.00    -0.014 A 
BRANCH  34  35
ATOM     35  C   UNL     1      -3.267  13.048  11.685  1.00  0.00     0.031 A 
ATOM     36  C   UNL     1      -4.298  14.132  11.552  1.00  0.00     0.074 A 
ATOM     37  C   UNL     1      -2.296  13.146  12.614  1.00  0.00     0.049 A 
ATOM     38  N   UNL     1      -4.419  15.248  12.225  1.00  0.00    -0.248 NA
ATOM     39  C   UNL     1      -5.314  13.951  10.503  1.00  0.00     0.031 C 
ATOM     40  C   UNL     1      -1.212  12.183  12.810  1.00  0.00     0.029 A 
ATOM     41  N   UNL     1      -2.059  14.111  13.562  1.00  0.00    -0.354 N 
ATOM     42  C   UNL     1      -5.511  15.905  11.674  1.00  0.00     0.074 A 
ATOM     43  C   UNL     1      -5.986  15.090  10.576  1.00  0.00     0.031 C 
ATOM     44  C   UNL     1      -0.438  12.593  13.828  1.00  0.00     0.029 A 
ATOM     45  C   UNL     1      -0.950  13.864  14.333  1.00  0.00     0.049 A 
ATOM     46  H   UNL     1      -2.630  14.905  13.678  1.00  0.00     0.167 HD
ATOM     47  C   UNL     1      -6.080  17.070  12.063  1.00  0.00     0.037 A 
ATOM     48  C   UNL     1      -0.405  14.585  15.332  1.00  0.00     0.037 A 
ATOM     49  C   UNL     1      -5.621  17.865  13.172  1.00  0.00     0.049 A 
ATOM     50  C   UNL     1      -1.060  15.875  15.745  1.00  0.00     0.074 A 
ATOM     51  C   UNL     1      -6.159  19.035  13.678  1.00  0.00     0.029 A 
ATOM     52  N   UNL     1      -4.510  17.567  13.948  1.00  0.00    -0.354 N 
ATOM     53  N   UNL     1      -2.130  16.454  15.258  1.00  0.00    -0.248 NA
ATOM     54  C   UNL     1      -0.433  16.609  16.855  1.00  0.00     0.031 C 
ATOM     55  C   UNL     1      -5.353  19.465  14.737  1.00  0.00     0.029 A 
ATOM     56  C   UNL     1      -4.340  18.539  14.921  1.00  0.00     0.049 A 
ATOM     57  H   UNL     1      -3.929  16.782  13.826  1.00  0.00     0.167 HD
ATOM     58  C   UNL     1      -2.325  17.598  16.020  1.00  0.00     0.074 A 
ATOM     59  C   UNL     1      -1.268  17.626  17.010  1.00  0.00     0.031 C 
ATOM     60  C   UNL     1      -3.293  18.540  15.910  1.00  0.00     0.037 A 
BRANCH  47  61
ATOM     61  C   UNL     1      -7.272  17.552  11.289  1.00  0.00     0.064 A 
ATOM     62  C   UNL     1      -8.511  16.897  11.369  1.00  0.00     0.173 A 
ATOM     63  C   UNL     1      -7.188  18.700  10.488  1.00  0.00     0.173 A 
ATOM     64  F   UNL     1      -8.642  15.787  12.111  1.00  0.00    -0.203 F 
ATOM     65  C   UNL     1      -9.613  17.358  10.653  1.00  0.00     0.198 A 
ATOM     66  C   UNL     1      -8.300  19.176   9.798  1.00  0.00     0.198 A 
ATOM     67  F   UNL     1      -6.029  19.367  10.381  1.00  0.00    -0.203 F 
ATOM     68  F   UNL     1     -10.773  16.688  10.708  1.00  0.00    -0.200 F 
ATOM     69  C   UNL     1      -9.508  18.500   9.875  1.00  0.00     0.200 A 
ATOM     70  F   UNL     1      -8.201  20.287   9.056  1.00  0.00    -0.200 F 
ATOM     71  F   UNL     1     -10.572  18.948   9.193  1.00  0.00    -0.200 F 
ENDBRANCH  47  61
BRANCH  48  72
ATOM     72  C   UNL     1       0.807  14.089  16.034  1.00  0.00     0.064 A 
ATOM     73  C   UNL     1       0.736  13.645  17.362  1.00  0.00     0.173 A 
ATOM     74  C   UNL     1       2.058  14.060  15.402  1.00  0.00     0.173 A 
ATOM     75  F   UNL     1      -0.435  13.674  18.015  1.00  0.00    -0.203 F 
ATOM     76  C   UNL     1       1.874  13.214  18.039  1.00  0.00     0.198 A 
ATOM     77  C   UNL     1       3.192  13.602  16.072  1.00  0.00     0.198 A 
ATOM     78  F   UNL     1       2.179  14.469  14.130  1.00  0.00    -0.203 F 
ATOM     79  F   UNL     1       1.786  12.842  19.323  1.00  0.00    -0.200 F 
ATOM     80  C   UNL     1       3.100  13.188  17.392  1.00  0.00     0.200 A 
ATOM     81  F   UNL     1       4.372  13.566  15.439  1.00  0.00    -0.200 F 
ATOM     82  F   UNL     1       4.195  12.773  18.044  1.00  0.00    -0.200 F 
ENDBRANCH  48  72
BRANCH  60  83
ATOM     83  C   UNL     1      -3.285  19.655  16.914  1.00  0.00     0.064 A 
ATOM     84  C   UNL     1      -2.324  20.675  16.877  1.00  0.00     0.173 A 
ATOM     85  C   UNL     1      -4.281  19.724  17.901  1.00  0.00     0.173 A 
ATOM     86  F   UNL     1      -1.344  20.645  15.962  1.00  0.00    -0.203 F 
ATOM     87  C   UNL     1      -2.345  21.711  17.807  1.00  0.00     0.198 A 
ATOM     88  C   UNL     1      -4.316  20.776  18.811  1.00  0.00     0.198 A 
ATOM     89  F   UNL     1      -5.227  18.776  17.975  1.00  0.00    -0.203 F 
ATOM     90  F   UNL     1      -1.390  22.651  17.781  1.00  0.00    -0.200 F 
ATOM     91  C   UNL     1      -3.344  21.765  18.768  1.00  0.00     0.200 A 
ATOM     92  F   UNL     1      -5.289  20.834  19.730  1.00  0.00    -0.200 F 
ATOM     93  F   UNL     1      -3.367  22.767  19.657  1.00  0.00    -0.200 F 
ENDBRANCH  60  83
ENDBRANCH  34  35
ENDBRANCH  26  29
ENDBRANCH  24  25
ENDBRANCH  23  24
ENDBRANCH   1  23
TORSDOF 14
