REMARK SMILES Cc1nc(=O)[nH]c(C)c1CC(=O)Nc1sccc1C(=O)NCCCCNC(=O)c1ccc(-c2c3nc(c(-c4c(F)c(F)c(F)c(F)c4F)c4ccc([nH]4)c(-c4c(F)c(F)c(F)c(F)c4F)c4nc(c(-c5c(F)c(F)c(F)c(F)c5F)c5ccc2[nH]5)C=C4)C=C3)cc1
REMARK SMILES IDX 23 1 22 2 21 3 19 4 20 5 18 7 14 8 15 9 16 10 17 11 13 12
REMARK SMILES IDX 11 13 12 14 10 16 9 17 1 18 2 19 3 20 4 21 7 22 5 23 6 24
REMARK SMILES IDX 8 25 24 27 25 28 26 29 27 30 28 32 29 33 30 34 91 35 31 36
REMARK SMILES IDX 90 37 32 38 33 39 34 40 84 41 35 42 89 43 83 44 85 45 36 46
REMARK SMILES IDX 88 47 82 48 81 49 37 51 69 52 49 53 68 54 50 55 53 56 67 57
REMARK SMILES IDX 86 58 51 59 52 60 66 62 87 63 54 64 38 65 39 66 47 67 40 68
REMARK SMILES IDX 41 69 45 70 48 71 42 72 43 73 46 74 44 75 70 76 71 77 79 78
REMARK SMILES IDX 72 79 73 80 77 81 80 82 74 83 75 84 78 85 76 86 55 87 56 88
REMARK SMILES IDX 64 89 57 90 58 91 62 92 65 93 59 94 60 95 63 96 61 97
REMARK H PARENT 21 6 13 15 6 26 26 31 85 50 53 61
REMARK Flexibility Score: inf
ROOT
ATOM      1  C   UNL     1      -4.158   0.323   3.061  1.00  0.00     0.023 C 
ENDROOT
BRANCH   1   2
ATOM      2  C   UNL     1      -2.921  -0.520   2.753  1.00  0.00     0.116 C 
BRANCH   2   3
ATOM      3  N   UNL     1      -1.769   0.254   2.352  1.00  0.00    -0.352 N 
ATOM      4  C   UNL     1      -0.437  -0.074   2.308  1.00  0.00     0.254 C 
ATOM      5  O   UNL     1       0.335   0.863   2.098  1.00  0.00    -0.269 OA
ATOM      6  H   UNL     1      -1.974   1.171   2.061  1.00  0.00     0.163 HD
BRANCH   4   7
ATOM      7  C   UNL     1       0.083  -1.418   2.590  1.00  0.00     0.074 A 
ATOM      8  C   UNL     1      -0.476  -2.677   2.452  1.00  0.00     0.108 A 
ATOM      9  S   UNL     1       0.401  -3.886   3.293  1.00  0.00    -0.126 S 
ATOM     10  C   UNL     1       1.735  -2.854   3.508  1.00  0.00     0.068 A 
ATOM     11  C   UNL     1       1.433  -1.573   3.111  1.00  0.00     0.028 A 
BRANCH   8  12
ATOM     12  N   UNL     1      -1.606  -3.221   1.902  1.00  0.00    -0.317 N 
ATOM     13  C   UNL     1      -2.215  -3.007   0.704  1.00  0.00     0.229 C 
ATOM     14  O   UNL     1      -3.415  -3.305   0.629  1.00  0.00    -0.274 OA
ATOM     15  H   UNL     1      -2.058  -3.883   2.473  1.00  0.00     0.170 HD
BRANCH  13  16
ATOM     16  C   UNL     1      -1.458  -2.677  -0.585  1.00  0.00     0.139 C 
BRANCH  16  17
ATOM     17  C   UNL     1      -0.605  -1.455  -0.686  1.00  0.00     0.002 A 
ATOM     18  C   UNL     1       1.546  -2.919  -0.424  1.00  0.00     0.067 C 
ATOM     19  C   UNL     1       0.892  -1.562  -0.592  1.00  0.00     0.049 A 
ATOM     20  N   UNL     1       1.714  -0.569  -0.703  1.00  0.00    -0.198 NA
ATOM     21  C   UNL     1       1.218   0.683  -0.921  1.00  0.00     0.345 A 
ATOM     22  C   UNL     1      -1.036  -0.221  -1.015  1.00  0.00     0.022 A 
ATOM     23  O   UNL     1       1.927   1.682  -1.017  1.00  0.00    -0.246 OA
ATOM     24  N   UNL     1      -0.133   0.806  -1.100  1.00  0.00    -0.310 N 
ATOM     25  C   UNL     1      -2.451   0.181  -1.315  1.00  0.00     0.065 C 
ATOM     26  H   UNL     1      -0.484   1.702  -1.306  1.00  0.00     0.171 HD
ENDBRANCH  16  17
ENDBRANCH  13  16
ENDBRANCH   8  12
ENDBRANCH   4   7
ENDBRANCH   2   3
ENDBRANCH   1   2
BRANCH   1  27
ATOM     27  C   UNL     1      -4.830   0.974   1.843  1.00  0.00     0.023 C 
BRANCH  27  28
ATOM     28  C   UNL     1      -5.327   0.019   0.754  1.00  0.00     0.116 C 
BRANCH  28  29
ATOM     29  N   UNL     1      -6.426  -0.834   1.166  1.00  0.00    -0.352 N 
ATOM     30  C   UNL     1      -7.741  -0.846   0.765  1.00  0.00     0.251 C 
ATOM     31  H   UNL     1      -6.193  -1.512   1.841  1.00  0.00     0.163 HD
ATOM     32  O   UNL     1      -8.540  -1.616   1.291  1.00  0.00    -0.269 OA
BRANCH  30  33
ATOM     33  C   UNL     1      -8.220   0.101  -0.264  1.00  0.00     0.039 A 
ATOM     34  C   UNL     1      -9.326   0.901   0.035  1.00  0.00     0.014 A 
ATOM     35  C   UNL     1      -7.596   0.209  -1.510  1.00  0.00     0.014 A 
ATOM     36  C   UNL     1      -9.740   1.882  -0.868  1.00  0.00     0.010 A 
ATOM     37  C   UNL     1      -7.976   1.225  -2.390  1.00  0.00     0.010 A 
ATOM     38  C   UNL     1      -9.032   2.091  -2.063  1.00  0.00    -0.014 A 
BRANCH  38  39
ATOM     39  C   UNL     1      -9.331   3.263  -2.930  1.00  0.00     0.031 A 
ATOM     40  C   UNL     1      -9.876   3.082  -4.318  1.00  0.00     0.074 A 
ATOM     41  C   UNL     1      -9.033   4.500  -2.481  1.00  0.00     0.049 A 
ATOM     42  N   UNL     1     -10.115   3.987  -5.234  1.00  0.00    -0.248 NA
ATOM     43  C   UNL     1     -10.179   1.707  -4.740  1.00  0.00     0.031 C 
ATOM     44  C   UNL     1      -8.461   4.806  -1.168  1.00  0.00     0.029 A 
ATOM     45  N   UNL     1      -9.150   5.729  -3.083  1.00  0.00    -0.354 N 
ATOM     46  C   UNL     1     -10.582   3.293  -6.342  1.00  0.00     0.074 A 
ATOM     47  C   UNL     1     -10.567   1.888  -5.996  1.00  0.00     0.031 C 
ATOM     48  C   UNL     1      -8.280   6.132  -1.063  1.00  0.00     0.029 A 
ATOM     49  C   UNL     1      -8.679   6.767  -2.314  1.00  0.00     0.049 A 
ATOM     50  H   UNL     1      -9.534   5.855  -3.981  1.00  0.00     0.167 HD
ATOM     51  C   UNL     1     -10.996   3.789  -7.533  1.00  0.00     0.037 A 
ATOM     52  C   UNL     1      -8.558   8.080  -2.593  1.00  0.00     0.037 A 
ATOM     53  C   UNL     1     -11.040   5.190  -7.864  1.00  0.00     0.049 A 
ATOM     54  C   UNL     1      -9.005   8.593  -3.936  1.00  0.00     0.074 A 
ATOM     55  C   UNL     1     -11.539   5.787  -9.010  1.00  0.00     0.029 A 
ATOM     56  N   UNL     1     -10.560   6.211  -7.059  1.00  0.00    -0.354 N 
ATOM     57  N   UNL     1      -9.533   7.935  -4.938  1.00  0.00    -0.248 NA
ATOM     58  C   UNL     1      -8.836  10.032  -4.187  1.00  0.00     0.031 C 
ATOM     59  C   UNL     1     -11.306   7.163  -8.924  1.00  0.00     0.029 A 
ATOM     60  C   UNL     1     -10.710   7.429  -7.703  1.00  0.00     0.049 A 
ATOM     61  H   UNL     1     -10.171   6.089  -6.163  1.00  0.00     0.167 HD
ATOM     62  C   UNL     1      -9.777   8.879  -5.926  1.00  0.00     0.074 A 
ATOM     63  C   UNL     1      -9.362  10.159  -5.396  1.00  0.00     0.031 C 
ATOM     64  C   UNL     1     -10.293   8.698  -7.166  1.00  0.00     0.037 A 
BRANCH  51  65
ATOM     65  C   UNL     1     -11.441   2.820  -8.588  1.00  0.00     0.064 A 
ATOM     66  C   UNL     1     -12.672   2.153  -8.501  1.00  0.00     0.173 A 
ATOM     67  C   UNL     1     -10.675   2.638  -9.749  1.00  0.00     0.173 A 
ATOM     68  F   UNL     1     -13.439   2.291  -7.409  1.00  0.00    -0.203 F 
ATOM     69  C   UNL     1     -13.115   1.334  -9.536  1.00  0.00     0.198 A 
ATOM     70  C   UNL     1     -11.132   1.838 -10.792  1.00  0.00     0.198 A 
ATOM     71  F   UNL     1      -9.494   3.261  -9.884  1.00  0.00    -0.203 F 
ATOM     72  F   UNL     1     -14.286   0.691  -9.425  1.00  0.00    -0.200 F 
ATOM     73  C   UNL     1     -12.351   1.186 -10.685  1.00  0.00     0.200 A 
ATOM     74  F   UNL     1     -10.400   1.708 -11.907  1.00  0.00    -0.200 F 
ATOM     75  F   UNL     1     -12.791   0.415 -11.689  1.00  0.00    -0.200 F 
ENDBRANCH  51  65
BRANCH  52  76
ATOM     76  C   UNL     1      -7.963   9.007  -1.593  1.00  0.00     0.064 A 
ATOM     77  C   UNL     1      -8.730  10.014  -0.992  1.00  0.00     0.173 A 
ATOM     78  C   UNL     1      -6.604   8.933  -1.253  1.00  0.00     0.173 A 
ATOM     79  F   UNL     1     -10.029  10.141  -1.302  1.00  0.00    -0.203 F 
ATOM     80  C   UNL     1      -8.155  10.931  -0.114  1.00  0.00     0.198 A 
ATOM     81  C   UNL     1      -6.037   9.830  -0.350  1.00  0.00     0.198 A 
ATOM     82  F   UNL     1      -5.824   7.987  -1.796  1.00  0.00    -0.203 F 
ATOM     83  F   UNL     1      -8.898  11.922   0.397  1.00  0.00    -0.200 F 
ATOM     84  C   UNL     1      -6.810  10.836   0.209  1.00  0.00     0.200 A 
ATOM     85  F   UNL     1      -4.740   9.725  -0.029  1.00  0.00    -0.200 F 
ATOM     86  F   UNL     1      -6.256  11.722   1.048  1.00  0.00    -0.200 F 
ENDBRANCH  52  76
BRANCH  64  87
ATOM     87  C   UNL     1     -10.452   9.914  -8.031  1.00  0.00     0.064 A 
ATOM     88  C   UNL     1      -9.343  10.557  -8.601  1.00  0.00     0.173 A 
ATOM     89  C   UNL     1     -11.728  10.416  -8.331  1.00  0.00     0.173 A 
ATOM     90  F   UNL     1      -8.101  10.126  -8.330  1.00  0.00    -0.203 F 
ATOM     91  C   UNL     1      -9.504  11.669  -9.422  1.00  0.00     0.198 A 
ATOM     92  C   UNL     1     -11.887  11.510  -9.177  1.00  0.00     0.198 A 
ATOM     93  F   UNL     1     -12.822   9.835  -7.816  1.00  0.00    -0.203 F 
ATOM     94  F   UNL     1      -8.427  12.293  -9.919  1.00  0.00    -0.200 F 
ATOM     95  C   UNL     1     -10.775  12.139  -9.716  1.00  0.00     0.200 A 
ATOM     96  F   UNL     1     -13.116  11.955  -9.471  1.00  0.00    -0.200 F 
ATOM     97  F   UNL     1     -10.928  13.204 -10.516  1.00  0.00    -0.200 F 
ENDBRANCH  64  87
ENDBRANCH  38  39
ENDBRANCH  30  33
ENDBRANCH  28  29
ENDBRANCH  27  28
ENDBRANCH   1  27
TORSDOF 14
