REMARK SMILES CCn1nccc1[C@H](F)C(=O)NCCCCNC(=O)c1ccc(-c2c3nc(c(-c4c(F)c(F)c(F)c(F)c4F)c4ccc([nH]4)c(-c4c(F)c(F)c(F)c(F)c4F)c4nc(c(-c5c(F)c(F)c(F)c(F)c5F)c5ccc2[nH]5)C=C4)C=C3)cc1
REMARK SMILES IDX 14 1 13 2 12 3 10 4 11 5 8 7 9 8 7 9 3 10 4 11 5 12 6 13
REMARK SMILES IDX 2 14 1 15 15 16 16 17 17 18 18 19 19 21 20 22 21 23 82 24
REMARK SMILES IDX 22 25 81 26 23 27 24 28 25 29 75 30 26 31 80 32 74 33 76 34
REMARK SMILES IDX 27 35 79 36 73 37 72 38 28 40 60 41 40 42 59 43 41 44 44 45
REMARK SMILES IDX 58 46 77 47 42 48 43 49 57 51 78 52 45 53 29 54 30 55 38 56
REMARK SMILES IDX 31 57 32 58 36 59 39 60 33 61 34 62 37 63 35 64 61 65 62 66
REMARK SMILES IDX 70 67 63 68 64 69 68 70 71 71 65 72 66 73 69 74 67 75 46 76
REMARK SMILES IDX 47 77 55 78 48 79 49 80 53 81 56 82 50 83 51 84 54 85 52 86
REMARK H PARENT 12 6 17 20 76 39 44 50
REMARK Flexibility Score: inf
ROOT
ATOM      1  C   UNL     1       3.524   2.999  -4.726  1.00  0.00     0.023 C 
ENDROOT
BRANCH   1   2
ATOM      2  C   UNL     1       2.915   1.595  -4.702  1.00  0.00     0.116 C 
BRANCH   2   3
ATOM      3  N   UNL     1       3.679   0.648  -3.911  1.00  0.00    -0.353 N 
ATOM      4  C   UNL     1       3.232  -0.292  -3.018  1.00  0.00     0.260 C 
ATOM      5  O   UNL     1       4.067  -1.098  -2.590  1.00  0.00    -0.271 OA
ATOM      6  H   UNL     1       4.655   0.685  -4.033  1.00  0.00     0.163 HD
BRANCH   4   7
ATOM      7  C   UNL     1       1.760  -0.362  -2.575  1.00  0.00     0.303 C 
ATOM      8  F   UNL     1       1.248   0.876  -2.308  1.00  0.00    -0.230 F 
BRANCH   7   9
ATOM      9  C   UNL     1       0.885  -1.071  -3.563  1.00  0.00     0.082 A 
ATOM     10  N   UNL     1      -0.340  -1.639  -3.274  1.00  0.00    -0.266 N 
ATOM     11  N   UNL     1      -0.967  -2.097  -4.385  1.00  0.00    -0.181 NA
ATOM     12  C   UNL     1      -0.110  -1.882  -5.375  1.00  0.00     0.135 A 
ATOM     13  C   UNL     1       1.067  -1.282  -4.922  1.00  0.00     0.049 A 
BRANCH  10  14
ATOM     14  C   UNL     1      -1.026  -1.935  -2.027  1.00  0.00     0.141 C 
ATOM     15  C   UNL     1      -0.695  -1.159  -0.767  1.00  0.00     0.029 C 
ENDBRANCH  10  14
ENDBRANCH   7   9
ENDBRANCH   4   7
ENDBRANCH   2   3
ENDBRANCH   1   2
BRANCH   1  16
ATOM     16  C   UNL     1       4.959   3.123  -5.259  1.00  0.00     0.023 C 
BRANCH  16  17
ATOM     17  C   UNL     1       5.183   2.576  -6.661  1.00  0.00     0.116 C 
BRANCH  17  18
ATOM     18  N   UNL     1       4.426   3.281  -7.693  1.00  0.00    -0.352 N 
ATOM     19  C   UNL     1       4.407   3.022  -9.055  1.00  0.00     0.251 C 
ATOM     20  H   UNL     1       3.863   4.027  -7.384  1.00  0.00     0.163 HD
ATOM     21  O   UNL     1       4.039   3.861  -9.856  1.00  0.00    -0.269 OA
BRANCH  19  22
ATOM     22  C   UNL     1       4.847   1.692  -9.516  1.00  0.00     0.039 A 
ATOM     23  C   UNL     1       5.694   1.546 -10.619  1.00  0.00     0.014 A 
ATOM     24  C   UNL     1       4.425   0.583  -8.789  1.00  0.00     0.014 A 
ATOM     25  C   UNL     1       6.188   0.278 -10.925  1.00  0.00     0.010 A 
ATOM     26  C   UNL     1       5.025  -0.633  -8.998  1.00  0.00     0.010 A 
ATOM     27  C   UNL     1       5.867  -0.806 -10.094  1.00  0.00    -0.014 A 
BRANCH  27  28
ATOM     28  C   UNL     1       6.476  -2.119 -10.293  1.00  0.00     0.031 A 
ATOM     29  C   UNL     1       7.963  -2.143 -10.230  1.00  0.00     0.074 A 
ATOM     30  C   UNL     1       5.752  -3.260 -10.279  1.00  0.00     0.049 A 
ATOM     31  N   UNL     1       8.790  -2.465 -11.169  1.00  0.00    -0.248 NA
ATOM     32  C   UNL     1       8.621  -1.664  -9.004  1.00  0.00     0.031 C 
ATOM     33  C   UNL     1       4.314  -3.398 -10.010  1.00  0.00     0.029 A 
ATOM     34  N   UNL     1       6.163  -4.557 -10.384  1.00  0.00    -0.354 N 
ATOM     35  C   UNL     1      10.063  -2.422 -10.598  1.00  0.00     0.074 A 
ATOM     36  C   UNL     1       9.912  -1.761  -9.330  1.00  0.00     0.031 C 
ATOM     37  C   UNL     1       4.024  -4.687  -9.735  1.00  0.00     0.029 A 
ATOM     38  C   UNL     1       5.203  -5.487 -10.004  1.00  0.00     0.049 A 
ATOM     39  H   UNL     1       7.060  -4.812 -10.700  1.00  0.00     0.167 HD
ATOM     40  C   UNL     1      11.075  -3.182 -11.107  1.00  0.00     0.037 A 
ATOM     41  C   UNL     1       5.347  -6.829  -9.922  1.00  0.00     0.037 A 
ATOM     42  C   UNL     1      10.702  -3.723 -12.389  1.00  0.00     0.049 A 
ATOM     43  C   UNL     1       6.493  -7.210 -10.774  1.00  0.00     0.074 A 
ATOM     44  C   UNL     1      10.637  -3.285 -13.692  1.00  0.00     0.029 A 
ATOM     45  N   UNL     1       9.965  -4.873 -12.305  1.00  0.00    -0.354 N 
ATOM     46  N   UNL     1       6.488  -7.103 -12.073  1.00  0.00    -0.248 NA
ATOM     47  C   UNL     1       7.802  -7.421 -10.166  1.00  0.00     0.031 C 
ATOM     48  C   UNL     1       9.693  -4.130 -14.350  1.00  0.00     0.029 A 
ATOM     49  C   UNL     1       9.229  -5.075 -13.439  1.00  0.00     0.049 A 
ATOM     50  H   UNL     1       9.965  -5.477 -11.527  1.00  0.00     0.167 HD
ATOM     51  C   UNL     1       7.795  -6.798 -12.389  1.00  0.00     0.074 A 
ATOM     52  C   UNL     1       8.579  -7.196 -11.229  1.00  0.00     0.031 C 
ATOM     53  C   UNL     1       8.077  -5.944 -13.412  1.00  0.00     0.037 A 
BRANCH  40  54
ATOM     54  C   UNL     1      12.181  -3.851 -10.309  1.00  0.00     0.064 A 
ATOM     55  C   UNL     1      13.174  -4.579 -11.005  1.00  0.00     0.173 A 
ATOM     56  C   UNL     1      12.125  -4.094  -8.921  1.00  0.00     0.173 A 
ATOM     57  F   UNL     1      13.329  -4.432 -12.330  1.00  0.00    -0.203 F 
ATOM     58  C   UNL     1      13.970  -5.542 -10.377  1.00  0.00     0.198 A 
ATOM     59  C   UNL     1      12.957  -5.020  -8.289  1.00  0.00     0.198 A 
ATOM     60  F   UNL     1      11.196  -3.538  -8.136  1.00  0.00    -0.203 F 
ATOM     61  F   UNL     1      14.804  -6.298 -11.106  1.00  0.00    -0.200 F 
ATOM     62  C   UNL     1      13.853  -5.770  -9.020  1.00  0.00     0.200 A 
ATOM     63  F   UNL     1      12.818  -5.238  -6.973  1.00  0.00    -0.200 F 
ATOM     64  F   UNL     1      14.565  -6.736  -8.426  1.00  0.00    -0.200 F 
ENDBRANCH  40  54
BRANCH  41  65
ATOM     65  C   UNL     1       4.662  -7.801  -9.047  1.00  0.00     0.064 A 
ATOM     66  C   UNL     1       4.591  -9.160  -9.389  1.00  0.00     0.173 A 
ATOM     67  C   UNL     1       4.328  -7.462  -7.723  1.00  0.00     0.173 A 
ATOM     68  F   UNL     1       4.918  -9.562 -10.626  1.00  0.00    -0.203 F 
ATOM     69  C   UNL     1       4.255 -10.133  -8.445  1.00  0.00     0.198 A 
ATOM     70  C   UNL     1       3.989  -8.434  -6.782  1.00  0.00     0.198 A 
ATOM     71  F   UNL     1       4.422  -6.193  -7.298  1.00  0.00    -0.203 F 
ATOM     72  F   UNL     1       4.269 -11.428  -8.789  1.00  0.00    -0.200 F 
ATOM     73  C   UNL     1       3.972  -9.771  -7.138  1.00  0.00     0.200 A 
ATOM     74  F   UNL     1       3.750  -8.077  -5.512  1.00  0.00    -0.200 F 
ATOM     75  F   UNL     1       3.727 -10.711  -6.215  1.00  0.00    -0.200 F 
ENDBRANCH  41  65
BRANCH  53  76
ATOM     76  C   UNL     1       7.034  -5.784 -14.470  1.00  0.00     0.064 A 
ATOM     77  C   UNL     1       5.791  -5.161 -14.272  1.00  0.00     0.173 A 
ATOM     78  C   UNL     1       7.333  -6.242 -15.758  1.00  0.00     0.173 A 
ATOM     79  F   UNL     1       5.467  -4.631 -13.086  1.00  0.00    -0.203 F 
ATOM     80  C   UNL     1       4.871  -5.046 -15.312  1.00  0.00     0.198 A 
ATOM     81  C   UNL     1       6.428  -6.095 -16.803  1.00  0.00     0.198 A 
ATOM     82  F   UNL     1       8.524  -6.809 -16.009  1.00  0.00    -0.203 F 
ATOM     83  F   UNL     1       3.680  -4.470 -15.095  1.00  0.00    -0.200 F 
ATOM     84  C   UNL     1       5.193  -5.509 -16.577  1.00  0.00     0.200 A 
ATOM     85  F   UNL     1       6.760  -6.509 -18.033  1.00  0.00    -0.200 F 
ATOM     86  F   UNL     1       4.320  -5.375 -17.585  1.00  0.00    -0.200 F 
ENDBRANCH  53  76
ENDBRANCH  27  28
ENDBRANCH  19  22
ENDBRANCH  17  18
ENDBRANCH  16  17
ENDBRANCH   1  16
TORSDOF 13
