REMARK SMILES Cc1nccn1C1(C(=O)NCCCCNC(=O)c2ccc(-c3c4nc(c(-c5c(F)c(F)c(F)c(F)c5F)c5ccc([nH]5)c(-c5c(F)c(F)c(F)c(F)c5F)c5nc(c(-c6c(F)c(F)c(F)c(F)c6F)c6ccc3[nH]6)C=C5)C=C4)cc2)CCN(c2nccc3occc23)CC1
REMARK SMILES IDX 13 1 12 2 11 3 10 4 8 5 9 6 7 8 81 9 94 10 82 11 93 12 83 13
REMARK SMILES IDX 6 14 1 15 2 16 3 17 4 18 5 19 84 20 85 21 92 22 86 23 88 24
REMARK SMILES IDX 91 25 87 26 89 27 90 28 14 29 15 30 16 31 17 33 18 34 19 35
REMARK SMILES IDX 80 36 20 37 79 38 21 39 22 40 23 41 73 42 24 43 78 44 72 45
REMARK SMILES IDX 74 46 25 47 77 48 71 49 70 50 26 52 58 53 38 54 57 55 39 56
REMARK SMILES IDX 42 57 56 58 75 59 40 60 41 61 55 63 76 64 43 65 27 66 28 67
REMARK SMILES IDX 36 68 29 69 30 70 34 71 37 72 31 73 32 74 35 75 33 76 59 77
REMARK SMILES IDX 60 78 68 79 61 80 62 81 66 82 69 83 63 84 64 85 67 86 65 87
REMARK SMILES IDX 44 88 45 89 53 90 46 91 47 92 51 93 54 94 48 95 49 96 52 97
REMARK SMILES IDX 50 98
REMARK H PARENT 10 7 15 32 74 51 42 62
REMARK Flexibility Score: inf
ROOT
ATOM      1  C   UNL     1       2.215   7.272  -2.207  1.00  0.00     0.023 C 
ENDROOT
BRANCH   1   2
ATOM      2  C   UNL     1       2.123   6.216  -1.098  1.00  0.00     0.023 C 
BRANCH   2   3
ATOM      3  C   UNL     1       0.740   5.585  -0.902  1.00  0.00     0.116 C 
BRANCH   3   4
ATOM      4  N   UNL     1       0.368   4.780  -2.048  1.00  0.00    -0.354 N 
ATOM      5  C   UNL     1       0.469   3.435  -2.276  1.00  0.00     0.246 C 
ATOM      6  O   UNL     1       0.544   3.157  -3.478  1.00  0.00    -0.272 OA
ATOM      7  H   UNL     1      -0.026   5.290  -2.792  1.00  0.00     0.163 HD
BRANCH   5   8
ATOM      8  C   UNL     1       0.540   2.360  -1.111  1.00  0.00     0.127 C 
ATOM      9  C   UNL     1       1.946   2.564  -0.492  1.00  0.00     0.060 C 
ATOM     10  C   UNL     1      -0.661   2.609  -0.165  1.00  0.00     0.060 C 
ATOM     11  C   UNL     1       2.072   2.819   1.010  1.00  0.00     0.121 C 
ATOM     12  C   UNL     1      -0.367   2.391   1.309  1.00  0.00     0.121 C 
ATOM     13  N   UNL     1       0.823   3.133   1.728  1.00  0.00    -0.356 N 
BRANCH   8  14
ATOM     14  N   UNL     1       0.386   0.968  -1.676  1.00  0.00    -0.320 N 
ATOM     15  C   UNL     1       1.497  -0.557   0.098  1.00  0.00     0.087 C 
ATOM     16  C   UNL     1       0.826  -0.262  -1.191  1.00  0.00     0.106 A 
ATOM     17  N   UNL     1       0.560  -1.232  -2.047  1.00  0.00    -0.242 NA
ATOM     18  C   UNL     1      -0.168  -0.675  -3.047  1.00  0.00     0.131 A 
ATOM     19  C   UNL     1      -0.369   0.655  -2.795  1.00  0.00     0.108 A 
ENDBRANCH   8  14
BRANCH  13  20
ATOM     20  C   UNL     1       1.108   2.895   3.109  1.00  0.00     0.139 A 
ATOM     21  N   UNL     1       1.022   1.593   3.518  1.00  0.00    -0.238 NA
ATOM     22  C   UNL     1       1.779   3.790   3.981  1.00  0.00     0.063 A 
ATOM     23  C   UNL     1       1.817   1.126   4.500  1.00  0.00     0.117 A 
ATOM     24  C   UNL     1       2.640   3.225   4.918  1.00  0.00     0.139 A 
ATOM     25  C   UNL     1       1.861   5.195   4.217  1.00  0.00     0.054 A 
ATOM     26  C   UNL     1       2.782   1.869   5.139  1.00  0.00     0.068 A 
ATOM     27  O   UNL     1       3.302   4.186   5.615  1.00  0.00    -0.464 OA
ATOM     28  C   UNL     1       2.770   5.375   5.239  1.00  0.00     0.196 A 
ENDBRANCH  13  20
ENDBRANCH   5   8
ENDBRANCH   3   4
ENDBRANCH   2   3
ENDBRANCH   1   2
BRANCH   1  29
ATOM     29  C   UNL     1       1.324   8.486  -1.990  1.00  0.00     0.116 C 
BRANCH  29  30
ATOM     30  N   UNL     1       1.589   9.147  -0.718  1.00  0.00    -0.352 N 
ATOM     31  C   UNL     1       0.871  10.157  -0.107  1.00  0.00     0.251 C 
ATOM     32  H   UNL     1       2.384   8.832  -0.230  1.00  0.00     0.163 HD
ATOM     33  O   UNL     1       1.352  10.823   0.787  1.00  0.00    -0.269 OA
BRANCH  31  34
ATOM     34  C   UNL     1      -0.499  10.421  -0.582  1.00  0.00     0.039 A 
ATOM     35  C   UNL     1      -0.892  11.723  -0.897  1.00  0.00     0.014 A 
ATOM     36  C   UNL     1      -1.365   9.345  -0.761  1.00  0.00     0.014 A 
ATOM     37  C   UNL     1      -2.136  11.925  -1.488  1.00  0.00     0.010 A 
ATOM     38  C   UNL     1      -2.547   9.532  -1.442  1.00  0.00     0.010 A 
ATOM     39  C   UNL     1      -2.951  10.822  -1.788  1.00  0.00    -0.014 A 
BRANCH  39  40
ATOM     40  C   UNL     1      -4.170  11.007  -2.577  1.00  0.00     0.031 A 
ATOM     41  C   UNL     1      -4.004  11.693  -3.894  1.00  0.00     0.074 A 
ATOM     42  C   UNL     1      -5.339  10.405  -2.271  1.00  0.00     0.049 A 
ATOM     43  N   UNL     1      -4.609  12.756  -4.317  1.00  0.00    -0.248 NA
ATOM     44  C   UNL     1      -3.004  11.167  -4.837  1.00  0.00     0.031 C 
ATOM     45  C   UNL     1      -5.616   9.458  -1.187  1.00  0.00     0.029 A 
ATOM     46  N   UNL     1      -6.512  10.426  -2.963  1.00  0.00    -0.354 N 
ATOM     47  C   UNL     1      -4.183  12.960  -5.630  1.00  0.00     0.074 A 
ATOM     48  C   UNL     1      -3.114  12.021  -5.857  1.00  0.00     0.031 C 
ATOM     49  C   UNL     1      -6.782   8.823  -1.432  1.00  0.00     0.029 A 
ATOM     50  C   UNL     1      -7.407   9.432  -2.592  1.00  0.00     0.049 A 
ATOM     51  H   UNL     1      -6.709  11.088  -3.665  1.00  0.00     0.167 HD
ATOM     52  C   UNL     1      -4.872  13.765  -6.487  1.00  0.00     0.037 A 
ATOM     53  C   UNL     1      -8.566   9.105  -3.210  1.00  0.00     0.037 A 
ATOM     54  C   UNL     1      -5.765  14.644  -5.778  1.00  0.00     0.049 A 
ATOM     55  C   UNL     1      -8.979  10.267  -4.031  1.00  0.00     0.074 A 
ATOM     56  C   UNL     1      -5.602  15.625  -4.818  1.00  0.00     0.029 A 
ATOM     57  N   UNL     1      -7.105  14.348  -5.769  1.00  0.00    -0.354 N 
ATOM     58  N   UNL     1      -9.391  11.398  -3.532  1.00  0.00    -0.248 NA
ATOM     59  C   UNL     1      -8.532  10.322  -5.415  1.00  0.00     0.031 C 
ATOM     60  C   UNL     1      -6.726  15.482  -3.952  1.00  0.00     0.029 A 
ATOM     61  C   UNL     1      -7.529  14.466  -4.471  1.00  0.00     0.049 A 
ATOM     62  H   UNL     1      -7.656  14.099  -6.546  1.00  0.00     0.167 HD
ATOM     63  C   UNL     1      -8.839  12.364  -4.358  1.00  0.00     0.074 A 
ATOM     64  C   UNL     1      -8.424  11.646  -5.559  1.00  0.00     0.031 C 
ATOM     65  C   UNL     1      -8.513  13.598  -3.873  1.00  0.00     0.037 A 
BRANCH  52  66
ATOM     66  C   UNL     1      -4.992  13.545  -7.978  1.00  0.00     0.064 A 
ATOM     67  C   UNL     1      -5.622  14.526  -8.774  1.00  0.00     0.173 A 
ATOM     68  C   UNL     1      -4.798  12.294  -8.600  1.00  0.00     0.173 A 
ATOM     69  F   UNL     1      -5.867  15.751  -8.284  1.00  0.00    -0.203 F 
ATOM     70  C   UNL     1      -6.104  14.243 -10.055  1.00  0.00     0.198 A 
ATOM     71  C   UNL     1      -5.233  12.032  -9.899  1.00  0.00     0.198 A 
ATOM     72  F   UNL     1      -4.289  11.246  -7.943  1.00  0.00    -0.203 F 
ATOM     73  F   UNL     1      -6.815  15.166 -10.718  1.00  0.00    -0.200 F 
ATOM     74  C   UNL     1      -5.917  12.993 -10.613  1.00  0.00     0.200 A 
ATOM     75  F   UNL     1      -5.057  10.808 -10.418  1.00  0.00    -0.200 F 
ATOM     76  F   UNL     1      -6.437  12.697 -11.812  1.00  0.00    -0.200 F 
ENDBRANCH  52  66
BRANCH  53  77
ATOM     77  C   UNL     1      -9.221   7.783  -3.307  1.00  0.00     0.064 A 
ATOM     78  C   UNL     1     -10.572   7.665  -3.665  1.00  0.00     0.173 A 
ATOM     79  C   UNL     1      -8.464   6.594  -3.309  1.00  0.00     0.173 A 
ATOM     80  F   UNL     1     -11.352   8.755  -3.726  1.00  0.00    -0.203 F 
ATOM     81  C   UNL     1     -11.128   6.436  -4.032  1.00  0.00     0.198 A 
ATOM     82  C   UNL     1      -9.022   5.367  -3.665  1.00  0.00     0.198 A 
ATOM     83  F   UNL     1      -7.147   6.616  -3.056  1.00  0.00    -0.203 F 
ATOM     84  F   UNL     1     -12.406   6.373  -4.430  1.00  0.00    -0.200 F 
ATOM     85  C   UNL     1     -10.350   5.290  -4.042  1.00  0.00     0.200 A 
ATOM     86  F   UNL     1      -8.249   4.272  -3.702  1.00  0.00    -0.200 F 
ATOM     87  F   UNL     1     -10.865   4.123  -4.453  1.00  0.00    -0.200 F 
ENDBRANCH  53  77
BRANCH  65  88
ATOM     88  C   UNL     1      -9.019  13.967  -2.506  1.00  0.00     0.064 A 
ATOM     89  C   UNL     1      -8.694  13.268  -1.330  1.00  0.00     0.173 A 
ATOM     90  C   UNL     1      -9.774  15.138  -2.367  1.00  0.00     0.173 A 
ATOM     91  F   UNL     1      -7.881  12.206  -1.359  1.00  0.00    -0.203 F 
ATOM     92  C   UNL     1      -9.164  13.682  -0.086  1.00  0.00     0.198 A 
ATOM     93  C   UNL     1     -10.208  15.574  -1.118  1.00  0.00     0.198 A 
ATOM     94  F   UNL     1     -10.063  15.885  -3.444  1.00  0.00    -0.203 F 
ATOM     95  F   UNL     1      -8.863  12.978   1.015  1.00  0.00    -0.200 F 
ATOM     96  C   UNL     1      -9.918  14.838   0.019  1.00  0.00     0.200 A 
ATOM     97  F   UNL     1     -10.893  16.722  -1.014  1.00  0.00    -0.200 F 
ATOM     98  F   UNL     1     -10.345  15.255   1.220  1.00  0.00    -0.200 F 
ENDBRANCH  65  88
ENDBRANCH  39  40
ENDBRANCH  31  34
ENDBRANCH  29  30
ENDBRANCH   1  29
TORSDOF 13
