REMARK SMILES Cc1ncccc1NC(=O)Nc1ccc(C(=O)NCCCCNC(=O)c2ccc(-c3c4nc(c(-c5c(F)c(F)c(F)c(F)c5F)c5ccc([nH]5)c(-c5c(F)c(F)c(F)c(F)c5F)c5nc(c(-c6c(F)c(F)c(F)c(F)c6F)c6ccc3[nH]6)C=C5)C=C4)cc2)c(O)c1
REMARK SMILES IDX 20 1 19 2 18 3 16 4 17 5 15 7 12 8 13 9 91 10 14 11 89 12
REMARK SMILES IDX 11 13 8 14 9 15 10 17 7 19 1 20 2 21 3 22 4 23 6 24 5 25
REMARK SMILES IDX 90 26 21 28 22 29 23 30 24 31 25 33 26 34 27 35 88 36 28 37
REMARK SMILES IDX 87 38 29 39 30 40 31 41 81 42 32 43 86 44 80 45 82 46 33 47
REMARK SMILES IDX 85 48 79 49 78 50 34 52 66 53 46 54 65 55 47 56 50 57 64 58
REMARK SMILES IDX 83 59 48 60 49 61 63 63 84 64 51 65 35 66 36 67 44 68 37 69
REMARK SMILES IDX 38 70 42 71 45 72 39 73 40 74 43 75 41 76 67 77 68 78 76 79
REMARK SMILES IDX 69 80 70 81 74 82 77 83 71 84 72 85 75 86 73 87 52 88 53 89
REMARK SMILES IDX 61 90 54 91 55 92 59 93 62 94 56 95 57 96 60 97 58 98
REMARK H PARENT 18 6 8 16 11 18 90 27 23 32 82 51 50 62
REMARK Flexibility Score: inf
ROOT
ATOM      1  C   UNL     1      -5.196   1.467   3.300  1.00  0.00     0.023 C 
ENDROOT
BRANCH   1   2
ATOM      2  C   UNL     1      -5.243   0.549   2.079  1.00  0.00     0.116 C 
BRANCH   2   3
ATOM      3  N   UNL     1      -5.198   1.230   0.793  1.00  0.00    -0.352 N 
ATOM      4  C   UNL     1      -4.749   0.794  -0.436  1.00  0.00     0.255 C 
ATOM      5  O   UNL     1      -4.866   1.541  -1.405  1.00  0.00    -0.269 OA
ATOM      6  H   UNL     1      -5.543   2.152   0.802  1.00  0.00     0.163 HD
BRANCH   4   7
ATOM      7  C   UNL     1      -4.048  -0.505  -0.598  1.00  0.00     0.081 A 
ATOM      8  C   UNL     1      -2.263  -2.646  -0.452  1.00  0.00     0.046 A 
ATOM      9  C   UNL     1      -1.978  -1.568  -1.288  1.00  0.00     0.027 A 
ATOM     10  C   UNL     1      -3.546  -2.770   0.087  1.00  0.00     0.073 A 
ATOM     11  C   UNL     1      -2.859  -0.484  -1.340  1.00  0.00     0.020 A 
ATOM     12  C   UNL     1      -4.442  -1.704  -0.004  1.00  0.00     0.130 A 
BRANCH   8  13
ATOM     13  N   UNL     1      -1.301  -3.586  -0.051  1.00  0.00    -0.308 N 
ATOM     14  N   UNL     1       0.784  -2.409   0.107  1.00  0.00    -0.306 N 
ATOM     15  C   UNL     1       0.049  -3.543   0.025  1.00  0.00     0.323 C 
ATOM     16  H   UNL     1       1.719  -2.539  -0.175  1.00  0.00     0.171 HD
ATOM     17  O   UNL     1       0.660  -4.617   0.030  1.00  0.00    -0.248 OA
ATOM     18  H   UNL     1      -1.685  -4.447   0.231  1.00  0.00     0.171 HD
BRANCH  14  19
ATOM     19  C   UNL     1       0.511  -1.081   0.506  1.00  0.00     0.064 A 
ATOM     20  C   UNL     1       2.706  -0.201  -0.497  1.00  0.00     0.069 C 
ATOM     21  C   UNL     1       1.350  -0.021   0.119  1.00  0.00     0.061 A 
ATOM     22  N   UNL     1       1.012   1.286   0.306  1.00  0.00    -0.259 NA
ATOM     23  C   UNL     1      -0.147   1.558   0.935  1.00  0.00     0.111 A 
ATOM     24  C   UNL     1      -0.599  -0.749   1.286  1.00  0.00     0.030 A 
ATOM     25  C   UNL     1      -0.958   0.584   1.476  1.00  0.00     0.022 A 
ENDBRANCH  14  19
ENDBRANCH   8  13
BRANCH  12  26
ATOM     26  O   UNL     1      -5.678  -1.908   0.542  1.00  0.00    -0.507 OA
ATOM     27  H   UNL     1      -6.322  -1.228   0.511  1.00  0.00     0.293 HD
ENDBRANCH  12  26
ENDBRANCH   4   7
ENDBRANCH   2   3
ENDBRANCH   1   2
BRANCH   1  28
ATOM     28  C   UNL     1      -6.221   2.599   3.360  1.00  0.00     0.023 C 
BRANCH  28  29
ATOM     29  C   UNL     1      -7.661   2.250   2.998  1.00  0.00     0.116 C 
BRANCH  29  30
ATOM     30  N   UNL     1      -8.273   1.269   3.877  1.00  0.00    -0.352 N 
ATOM     31  C   UNL     1      -9.421   1.339   4.638  1.00  0.00     0.251 C 
ATOM     32  H   UNL     1      -7.789   0.414   3.941  1.00  0.00     0.163 HD
ATOM     33  O   UNL     1      -9.722   0.403   5.366  1.00  0.00    -0.269 OA
BRANCH  31  34
ATOM     34  C   UNL     1     -10.270   2.555   4.625  1.00  0.00     0.039 A 
ATOM     35  C   UNL     1     -10.744   3.049   5.845  1.00  0.00     0.014 A 
ATOM     36  C   UNL     1     -10.603   3.212   3.439  1.00  0.00     0.014 A 
ATOM     37  C   UNL     1     -11.463   4.248   5.884  1.00  0.00     0.010 A 
ATOM     38  C   UNL     1     -11.248   4.448   3.486  1.00  0.00     0.010 A 
ATOM     39  C   UNL     1     -11.674   4.987   4.710  1.00  0.00    -0.014 A 
BRANCH  39  40
ATOM     40  C   UNL     1     -12.312   6.331   4.742  1.00  0.00     0.031 A 
ATOM     41  C   UNL     1     -13.607   6.578   4.017  1.00  0.00     0.074 A 
ATOM     42  C   UNL     1     -11.682   7.354   5.353  1.00  0.00     0.049 A 
ATOM     43  N   UNL     1     -14.259   7.701   3.842  1.00  0.00    -0.248 NA
ATOM     44  C   UNL     1     -14.239   5.413   3.378  1.00  0.00     0.031 C 
ATOM     45  C   UNL     1     -10.397   7.264   6.047  1.00  0.00     0.029 A 
ATOM     46  N   UNL     1     -12.030   8.678   5.473  1.00  0.00    -0.354 N 
ATOM     47  C   UNL     1     -15.359   7.382   3.057  1.00  0.00     0.074 A 
ATOM     48  C   UNL     1     -15.265   5.971   2.751  1.00  0.00     0.031 C 
ATOM     49  C   UNL     1     -10.072   8.473   6.533  1.00  0.00     0.029 A 
ATOM     50  C   UNL     1     -11.103   9.433   6.153  1.00  0.00     0.049 A 
ATOM     51  H   UNL     1     -12.864   9.052   5.107  1.00  0.00     0.167 HD
ATOM     52  C   UNL     1     -16.367   8.189   2.645  1.00  0.00     0.037 A 
ATOM     53  C   UNL     1     -11.080  10.751   6.429  1.00  0.00     0.037 A 
ATOM     54  C   UNL     1     -16.481   9.584   2.981  1.00  0.00     0.049 A 
ATOM     55  C   UNL     1     -12.220  11.621   5.972  1.00  0.00     0.074 A 
ATOM     56  C   UNL     1     -17.504  10.464   2.671  1.00  0.00     0.029 A 
ATOM     57  N   UNL     1     -15.541  10.302   3.704  1.00  0.00    -0.354 N 
ATOM     58  N   UNL     1     -13.290  11.292   5.290  1.00  0.00    -0.248 NA
ATOM     59  C   UNL     1     -12.153  13.045   6.330  1.00  0.00     0.031 C 
ATOM     60  C   UNL     1     -17.163  11.725   3.171  1.00  0.00     0.029 A 
ATOM     61  C   UNL     1     -15.951  11.620   3.834  1.00  0.00     0.049 A 
ATOM     62  H   UNL     1     -14.706   9.931   4.071  1.00  0.00     0.167 HD
ATOM     63  C   UNL     1     -14.035  12.457   5.163  1.00  0.00     0.074 A 
ATOM     64  C   UNL     1     -13.302  13.499   5.850  1.00  0.00     0.031 C 
ATOM     65  C   UNL     1     -15.220  12.644   4.534  1.00  0.00     0.037 A 
BRANCH  52  66
ATOM     66  C   UNL     1     -17.439   7.581   1.787  1.00  0.00     0.064 A 
ATOM     67  C   UNL     1     -18.370   6.671   2.309  1.00  0.00     0.173 A 
ATOM     68  C   UNL     1     -17.567   7.951   0.440  1.00  0.00     0.173 A 
ATOM     69  F   UNL     1     -18.285   6.277   3.589  1.00  0.00    -0.203 F 
ATOM     70  C   UNL     1     -19.374   6.134   1.507  1.00  0.00     0.198 A 
ATOM     71  C   UNL     1     -18.590   7.435  -0.351  1.00  0.00     0.198 A 
ATOM     72  F   UNL     1     -16.707   8.824  -0.107  1.00  0.00    -0.203 F 
ATOM     73  F   UNL     1     -20.225   5.232   2.016  1.00  0.00    -0.200 F 
ATOM     74  C   UNL     1     -19.488   6.522   0.181  1.00  0.00     0.200 A 
ATOM     75  F   UNL     1     -18.707   7.822  -1.629  1.00  0.00    -0.200 F 
ATOM     76  F   UNL     1     -20.461   6.012  -0.587  1.00  0.00    -0.200 F 
ENDBRANCH  52  66
BRANCH  53  77
ATOM     77  C   UNL     1      -9.946  11.331   7.195  1.00  0.00     0.064 A 
ATOM     78  C   UNL     1     -10.127  11.797   8.505  1.00  0.00     0.173 A 
ATOM     79  C   UNL     1      -8.666  11.446   6.633  1.00  0.00     0.173 A 
ATOM     80  F   UNL     1     -11.338  11.729   9.078  1.00  0.00    -0.203 F 
ATOM     81  C   UNL     1      -9.077  12.376   9.215  1.00  0.00     0.198 A 
ATOM     82  C   UNL     1      -7.610  11.999   7.354  1.00  0.00     0.198 A 
ATOM     83  F   UNL     1      -8.440  11.011   5.384  1.00  0.00    -0.203 F 
ATOM     84  F   UNL     1      -9.290  12.857  10.447  1.00  0.00    -0.200 F 
ATOM     85  C   UNL     1      -7.818  12.472   8.641  1.00  0.00     0.200 A 
ATOM     86  F   UNL     1      -6.392  12.077   6.801  1.00  0.00    -0.200 F 
ATOM     87  F   UNL     1      -6.809  13.027   9.324  1.00  0.00    -0.200 F 
ENDBRANCH  53  77
BRANCH  65  88
ATOM     88  C   UNL     1     -15.823  14.017   4.592  1.00  0.00     0.064 A 
ATOM     89  C   UNL     1     -15.292  15.087   3.857  1.00  0.00     0.173 A 
ATOM     90  C   UNL     1     -16.973  14.253   5.361  1.00  0.00     0.173 A 
ATOM     91  F   UNL     1     -14.185  14.916   3.119  1.00  0.00    -0.203 F 
ATOM     92  C   UNL     1     -15.878  16.349   3.907  1.00  0.00     0.198 A 
ATOM     93  C   UNL     1     -17.573  15.509   5.386  1.00  0.00     0.198 A 
ATOM     94  F   UNL     1     -17.523  13.261   6.077  1.00  0.00    -0.203 F 
ATOM     95  F   UNL     1     -15.329  17.368   3.231  1.00  0.00    -0.200 F 
ATOM     96  C   UNL     1     -17.022  16.557   4.664  1.00  0.00     0.200 A 
ATOM     97  F   UNL     1     -18.685  15.705   6.108  1.00  0.00    -0.200 F 
ATOM     98  F   UNL     1     -17.589  17.770   4.704  1.00  0.00    -0.200 F 
ENDBRANCH  65  88
ENDBRANCH  39  40
ENDBRANCH  31  34
ENDBRANCH  29  30
ENDBRANCH  28  29
ENDBRANCH   1  28
TORSDOF 14
