REMARK SMILES Cc1nn(C)c(C)c1CCC(=O)Nc1sccc1C(=O)NCCCCNC(=O)c1ccc(-c2c3nc(c(-c4c(F)c(F)c(F)c(F)c4F)c4ccc([nH]4)c(-c4c(F)c(F)c(F)c(F)c4F)c4nc(c(-c5c(F)c(F)c(F)c(F)c5F)c5ccc2[nH]5)C=C4)C=C3)cc1
REMARK SMILES IDX 22 1 21 2 19 3 20 4 18 6 14 7 15 8 16 9 17 10 13 11 11 12
REMARK SMILES IDX 12 13 10 15 9 16 8 17 1 18 2 19 3 20 4 21 6 22 5 23 7 24
REMARK SMILES IDX 23 25 24 26 25 27 26 28 27 29 28 31 29 32 30 33 91 34 31 35
REMARK SMILES IDX 90 36 32 37 33 38 34 39 84 40 35 41 89 42 83 43 85 44 36 45
REMARK SMILES IDX 88 46 82 47 81 48 37 50 69 51 49 52 68 53 50 54 53 55 67 56
REMARK SMILES IDX 86 57 51 58 52 59 66 61 87 62 54 63 38 64 39 65 47 66 40 67
REMARK SMILES IDX 41 68 45 69 48 70 42 71 43 72 46 73 44 74 70 75 71 76 79 77
REMARK SMILES IDX 72 78 73 79 77 80 80 81 74 82 75 83 78 84 76 85 55 86 56 87
REMARK SMILES IDX 64 88 57 89 58 90 62 91 65 92 59 93 60 94 63 95 61 96
REMARK H PARENT 21 5 13 14 26 30 85 49 53 60
REMARK Flexibility Score: inf
ROOT
ATOM      1  C   UNL     1       1.098   3.298  -1.304  1.00  0.00     0.116 C 
ENDROOT
BRANCH   1   2
ATOM      2  N   UNL     1       0.478   2.041  -1.782  1.00  0.00    -0.352 N 
ATOM      3  C   UNL     1      -0.145   0.722  -1.156  1.00  0.00     0.254 C 
ATOM      4  O   UNL     1      -0.588   0.320  -2.316  1.00  0.00    -0.269 OA
ATOM      5  H   UNL     1       0.443   2.016  -2.766  1.00  0.00     0.163 HD
BRANCH   3   6
ATOM      6  C   UNL     1      -0.133  -0.137   0.839  1.00  0.00     0.074 A 
ATOM      7  C   UNL     1       0.525   0.287   2.187  1.00  0.00     0.108 A 
ATOM      8  S   UNL     1       0.883  -1.010   3.256  1.00  0.00    -0.126 S 
ATOM      9  C   UNL     1      -0.278  -2.015   2.601  1.00  0.00     0.068 A 
ATOM     10  C   UNL     1      -0.808  -1.508   1.446  1.00  0.00     0.028 A 
BRANCH   7  11
ATOM     11  N   UNL     1       1.216   1.388   2.730  1.00  0.00    -0.317 N 
ATOM     12  C   UNL     1       1.047   2.735   2.586  1.00  0.00     0.225 C 
ATOM     13  O   UNL     1       1.997   3.504   2.751  1.00  0.00    -0.275 OA
ATOM     14  H   UNL     1       1.961   1.140   3.325  1.00  0.00     0.170 HD
BRANCH  12  15
ATOM     15  C   UNL     1      -0.334   3.273   2.381  1.00  0.00     0.105 C 
BRANCH  15  16
ATOM     16  C   UNL     1      -0.878   2.994   1.020  1.00  0.00     0.049 C 
BRANCH  16  17
ATOM     17  C   UNL     1      -0.379   1.727   0.408  1.00  0.00    -0.004 A 
ATOM     18  C   UNL     1      -3.213   0.510  -0.093  1.00  0.00     0.069 C 
ATOM     19  C   UNL     1      -1.737   0.423  -0.157  1.00  0.00     0.063 A 
ATOM     20  N   UNL     1      -0.944  -0.992  -0.767  1.00  0.00    -0.178 NA
ATOM     21  N   UNL     1       0.897  -0.751  -0.669  1.00  0.00    -0.272 N 
ATOM     22  C   UNL     1       1.289   0.922   0.052  1.00  0.00     0.038 A 
ATOM     23  C   UNL     1       1.805  -1.870  -0.750  1.00  0.00     0.174 C 
ATOM     24  C   UNL     1       2.752   1.190   0.230  1.00  0.00     0.066 C 
ENDBRANCH  16  17
ENDBRANCH  15  16
ENDBRANCH  12  15
ENDBRANCH   7  11
ENDBRANCH   3   6
ENDBRANCH   1   2
BRANCH   1  25
ATOM     25  C   UNL     1       2.497   3.627  -1.832  1.00  0.00     0.023 C 
BRANCH  25  26
ATOM     26  C   UNL     1       2.591   5.102  -2.207  1.00  0.00     0.023 C 
BRANCH  26  27
ATOM     27  C   UNL     1       2.212   6.045  -1.062  1.00  0.00     0.116 C 
BRANCH  27  28
ATOM     28  N   UNL     1       3.301   6.306  -0.130  1.00  0.00    -0.352 N 
ATOM     29  C   UNL     1       4.069   7.442  -0.000  1.00  0.00     0.251 C 
ATOM     30  H   UNL     1       3.516   5.572   0.490  1.00  0.00     0.163 HD
ATOM     31  O   UNL     1       5.043   7.479   0.742  1.00  0.00    -0.269 OA
BRANCH  29  32
ATOM     32  C   UNL     1       3.723   8.616  -0.825  1.00  0.00     0.039 A 
ATOM     33  C   UNL     1       4.684   9.144  -1.686  1.00  0.00     0.014 A 
ATOM     34  C   UNL     1       2.410   9.093  -0.840  1.00  0.00     0.014 A 
ATOM     35  C   UNL     1       4.294  10.069  -2.655  1.00  0.00     0.010 A 
ATOM     36  C   UNL     1       2.002   9.918  -1.879  1.00  0.00     0.010 A 
ATOM     37  C   UNL     1       2.938  10.403  -2.806  1.00  0.00    -0.014 A 
BRANCH  37  38
ATOM     38  C   UNL     1       2.467  11.223  -3.950  1.00  0.00     0.031 A 
ATOM     39  C   UNL     1       1.775  12.531  -3.704  1.00  0.00     0.074 A 
ATOM     40  C   UNL     1       2.592  10.750  -5.205  1.00  0.00     0.049 A 
ATOM     41  N   UNL     1       1.232  13.356  -4.562  1.00  0.00    -0.248 NA
ATOM     42  C   UNL     1       1.653  12.954  -2.302  1.00  0.00     0.031 C 
ATOM     43  C   UNL     1       3.219   9.480  -5.572  1.00  0.00     0.029 A 
ATOM     44  N   UNL     1       2.194  11.282  -6.406  1.00  0.00    -0.354 N 
ATOM     45  C   UNL     1       0.701  14.390  -3.804  1.00  0.00     0.074 A 
ATOM     46  C   UNL     1       0.920  14.049  -2.415  1.00  0.00     0.031 C 
ATOM     47  C   UNL     1       3.204   9.351  -6.907  1.00  0.00     0.029 A 
ATOM     48  C   UNL     1       2.511  10.497  -7.487  1.00  0.00     0.049 A 
ATOM     49  H   UNL     1       1.726  12.145  -6.485  1.00  0.00     0.167 HD
ATOM     50  C   UNL     1       0.104  15.530  -4.229  1.00  0.00     0.037 A 
ATOM     51  C   UNL     1       2.260  10.675  -8.799  1.00  0.00     0.037 A 
ATOM     52  C   UNL     1      -0.122  15.849  -5.614  1.00  0.00     0.049 A 
ATOM     53  C   UNL     1       1.516  11.905  -9.242  1.00  0.00     0.074 A 
ATOM     54  C   UNL     1      -0.680  16.993  -6.155  1.00  0.00     0.029 A 
ATOM     55  N   UNL     1       0.173  15.007  -6.679  1.00  0.00    -0.354 N 
ATOM     56  N   UNL     1       1.092  12.918  -8.526  1.00  0.00    -0.248 NA
ATOM     57  C   UNL     1       1.213  12.014 -10.675  1.00  0.00     0.031 C 
ATOM     58  C   UNL     1      -0.806  16.806  -7.535  1.00  0.00     0.029 A 
ATOM     59  C   UNL     1      -0.247  15.583  -7.868  1.00  0.00     0.049 A 
ATOM     60  H   UNL     1       0.615  14.131  -6.600  1.00  0.00     0.167 HD
ATOM     61  C   UNL     1       0.494  13.795  -9.421  1.00  0.00     0.074 A 
ATOM     62  C   UNL     1       0.630  13.204 -10.737  1.00  0.00     0.031 C 
ATOM     63  C   UNL     1      -0.113  14.982  -9.173  1.00  0.00     0.037 A 
BRANCH  50  64
ATOM     64  C   UNL     1      -0.376  16.487  -3.172  1.00  0.00     0.064 A 
ATOM     65  C   UNL     1       0.509  17.126  -2.288  1.00  0.00     0.173 A 
ATOM     66  C   UNL     1      -1.746  16.752  -3.025  1.00  0.00     0.173 A 
ATOM     67  F   UNL     1       1.831  16.912  -2.381  1.00  0.00    -0.203 F 
ATOM     68  C   UNL     1       0.037  17.931  -1.255  1.00  0.00     0.198 A 
ATOM     69  C   UNL     1      -2.211  17.599  -2.022  1.00  0.00     0.198 A 
ATOM     70  F   UNL     1      -2.640  16.184  -3.848  1.00  0.00    -0.203 F 
ATOM     71  F   UNL     1       0.896  18.448  -0.365  1.00  0.00    -0.200 F 
ATOM     72  C   UNL     1      -1.322  18.170  -1.125  1.00  0.00     0.200 A 
ATOM     73  F   UNL     1      -3.524  17.848  -1.914  1.00  0.00    -0.200 F 
ATOM     74  F   UNL     1      -1.777  18.937  -0.124  1.00  0.00    -0.200 F 
ENDBRANCH  50  64
BRANCH  51  75
ATOM     75  C   UNL     1       2.745   9.675  -9.787  1.00  0.00     0.064 A 
ATOM     76  C   UNL     1       3.750  10.010 -10.704  1.00  0.00     0.173 A 
ATOM     77  C   UNL     1       2.235   8.369  -9.827  1.00  0.00     0.173 A 
ATOM     78  F   UNL     1       4.256  11.252 -10.718  1.00  0.00    -0.203 F 
ATOM     79  C   UNL     1       4.219   9.082 -11.631  1.00  0.00     0.198 A 
ATOM     80  C   UNL     1       2.729   7.431 -10.732  1.00  0.00     0.198 A 
ATOM     81  F   UNL     1       1.275   7.994  -8.969  1.00  0.00    -0.203 F 
ATOM     82  F   UNL     1       5.152   9.443 -12.523  1.00  0.00    -0.200 F 
ATOM     83  C   UNL     1       3.715   7.790 -11.638  1.00  0.00     0.200 A 
ATOM     84  F   UNL     1       2.253   6.178 -10.721  1.00  0.00    -0.200 F 
ATOM     85  F   UNL     1       4.176   6.894 -12.520  1.00  0.00    -0.200 F 
ENDBRANCH  51  75
BRANCH  63  86
ATOM     86  C   UNL     1      -0.671  15.737 -10.347  1.00  0.00     0.064 A 
ATOM     87  C   UNL     1      -1.798  15.280 -11.048  1.00  0.00     0.173 A 
ATOM     88  C   UNL     1      -0.118  16.970 -10.729  1.00  0.00     0.173 A 
ATOM     89  F   UNL     1      -2.357  14.102 -10.733  1.00  0.00    -0.203 F 
ATOM     90  C   UNL     1      -2.337  16.020 -12.098  1.00  0.00     0.198 A 
ATOM     91  C   UNL     1      -0.684  17.725 -11.752  1.00  0.00     0.198 A 
ATOM     92  F   UNL     1       0.956  17.457 -10.089  1.00  0.00    -0.203 F 
ATOM     93  F   UNL     1      -3.385  15.541 -12.781  1.00  0.00    -0.200 F 
ATOM     94  C   UNL     1      -1.788  17.246 -12.440  1.00  0.00     0.200 A 
ATOM     95  F   UNL     1      -0.166  18.920 -12.066  1.00  0.00    -0.200 F 
ATOM     96  F   UNL     1      -2.323  17.967 -13.435  1.00  0.00    -0.200 F 
ENDBRANCH  63  86
ENDBRANCH  37  38
ENDBRANCH  29  32
ENDBRANCH  27  28
ENDBRANCH  26  27
ENDBRANCH  25  26
ENDBRANCH   1  25
TORSDOF 15
