REMARK SMILES COc1cccc([C@@H]2[NH2+][C@@](C)(C(=O)NCCCCNC(=O)c3ccc(-c4c5nc(c(-c6c(F)c(F)c(F)c(F)c6F)c6ccc([nH]6)c(-c6c(F)c(F)c(F)c(F)c6F)c6nc(c(-c7c(F)c(F)c(F)c(F)c7F)c7ccc4[nH]7)C=C6)C=C5)cc3)[C@@H]3C(=O)N(C)C(=O)[C@@H]32)c1O
REMARK SMILES IDX 16 1 15 2 14 3 12 4 13 5 10 7 8 8 9 9 92 10 85 13 90 14
REMARK SMILES IDX 11 15 86 16 88 17 91 18 87 19 89 20 7 21 3 22 4 23 93 24
REMARK SMILES IDX 5 25 6 26 2 27 1 28 94 29 17 31 18 32 19 33 20 34 21 36
REMARK SMILES IDX 22 37 23 38 84 39 24 40 83 41 25 42 26 43 27 44 77 45 28 46
REMARK SMILES IDX 82 47 76 48 78 49 29 50 81 51 75 52 74 53 30 55 62 56 42 57
REMARK SMILES IDX 61 58 43 59 46 60 60 61 79 62 44 63 45 64 59 66 80 67 47 68
REMARK SMILES IDX 31 69 32 70 40 71 33 72 34 73 38 74 41 75 35 76 36 77 39 78
REMARK SMILES IDX 37 79 63 80 64 81 72 82 65 83 66 84 70 85 73 86 67 87 68 88
REMARK SMILES IDX 71 89 69 90 48 91 49 92 57 93 50 94 51 95 55 96 58 97 52 98
REMARK SMILES IDX 53 99 56 100 54 101
REMARK H PARENT 14 6 9 11 9 12 94 30 19 35 78 54 46 65
REMARK Flexibility Score: inf
ROOT
ATOM      1  C   UNL     1       6.769  -6.287  -0.860  1.00  0.00     0.023 C 
ENDROOT
BRANCH   1   2
ATOM      2  C   UNL     1       6.283  -5.192  -1.803  1.00  0.00     0.116 C 
BRANCH   2   3
ATOM      3  N   UNL     1       5.356  -5.699  -2.803  1.00  0.00    -0.351 N 
ATOM      4  C   UNL     1       4.080  -5.307  -3.098  1.00  0.00     0.281 C 
ATOM      5  O   UNL     1       3.488  -5.944  -3.975  1.00  0.00    -0.268 OA
ATOM      6  H   UNL     1       5.702  -6.439  -3.352  1.00  0.00     0.163 HD
BRANCH   4   7
ATOM      7  C   UNL     1       3.426  -4.081  -2.382  1.00  0.00     0.185 C 
ATOM      8  C   UNL     1       2.130  -4.767  -0.459  1.00  0.00     0.232 C 
ATOM      9  N   UNL     1       3.469  -4.338  -0.918  1.00  0.00    -0.326 N 
ATOM     10  C   UNL     1       1.234  -4.852  -1.702  1.00  0.00     0.161 C 
ATOM     11  H   UNL     1       4.148  -5.072  -0.720  1.00  0.00     0.347 HD
ATOM     12  H   UNL     1       3.741  -3.486  -0.428  1.00  0.00     0.347 HD
ATOM     13  C   UNL     1       1.940  -4.008  -2.753  1.00  0.00     0.169 C 
ATOM     14  C   UNL     1      -0.114  -4.194  -1.579  1.00  0.00     0.239 C 
ATOM     15  C   UNL     1       4.217  -2.832  -2.806  1.00  0.00     0.091 C 
ATOM     16  C   UNL     1       1.210  -2.691  -2.649  1.00  0.00     0.240 C 
ATOM     17  N   UNL     1      -0.015  -2.930  -2.093  1.00  0.00    -0.285 N 
ATOM     18  O   UNL     1      -1.094  -4.695  -1.057  1.00  0.00    -0.274 OA
ATOM     19  O   UNL     1       1.624  -1.595  -2.998  1.00  0.00    -0.274 OA
ATOM     20  C   UNL     1      -1.056  -1.940  -1.948  1.00  0.00     0.156 C 
BRANCH   8  21
ATOM     21  C   UNL     1       1.607  -3.920   0.701  1.00  0.00     0.056 A 
ATOM     22  C   UNL     1       1.057  -1.764   1.743  1.00  0.00     0.161 A 
ATOM     23  C   UNL     1       0.398  -2.451   2.766  1.00  0.00     0.050 A 
ATOM     24  C   UNL     1       1.699  -2.510   0.747  1.00  0.00     0.166 A 
ATOM     25  C   UNL     1       0.346  -3.844   2.780  1.00  0.00     0.005 A 
ATOM     26  C   UNL     1       0.929  -4.572   1.744  1.00  0.00     0.014 A 
BRANCH  22  27
ATOM     27  O   UNL     1       1.036  -0.406   1.897  1.00  0.00    -0.493 OA
ATOM     28  C   UNL     1       1.112   0.404   0.734  1.00  0.00     0.278 C 
ENDBRANCH  22  27
BRANCH  24  29
ATOM     29  O   UNL     1       2.529  -1.918  -0.165  1.00  0.00    -0.504 OA
ATOM     30  H   UNL     1       2.626  -0.986  -0.175  1.00  0.00     0.293 HD
ENDBRANCH  24  29
ENDBRANCH   8  21
ENDBRANCH   4   7
ENDBRANCH   2   3
ENDBRANCH   1   2
BRANCH   1  31
ATOM     31  C   UNL     1       7.581  -7.393  -1.534  1.00  0.00     0.023 C 
BRANCH  31  32
ATOM     32  C   UNL     1       8.750  -6.910  -2.387  1.00  0.00     0.116 C 
BRANCH  32  33
ATOM     33  N   UNL     1       9.734  -6.152  -1.627  1.00  0.00    -0.352 N 
ATOM     34  C   UNL     1      11.080  -6.382  -1.465  1.00  0.00     0.251 C 
ATOM     35  H   UNL     1       9.385  -5.358  -1.162  1.00  0.00     0.163 HD
ATOM     36  O   UNL     1      11.733  -5.715  -0.670  1.00  0.00    -0.269 OA
BRANCH  34  37
ATOM     37  C   UNL     1      11.730  -7.472  -2.221  1.00  0.00     0.039 A 
ATOM     38  C   UNL     1      12.517  -8.394  -1.527  1.00  0.00     0.014 A 
ATOM     39  C   UNL     1      11.523  -7.614  -3.595  1.00  0.00     0.014 A 
ATOM     40  C   UNL     1      13.007  -9.520  -2.192  1.00  0.00     0.010 A 
ATOM     41  C   UNL     1      11.949  -8.772  -4.239  1.00  0.00     0.010 A 
ATOM     42  C   UNL     1      12.673  -9.749  -3.537  1.00  0.00    -0.014 A 
BRANCH  42  43
ATOM     43  C   UNL     1      13.003 -11.036  -4.203  1.00  0.00     0.031 A 
ATOM     44  C   UNL     1      13.920 -11.069  -5.392  1.00  0.00     0.074 A 
ATOM     45  C   UNL     1      12.396 -12.165  -3.786  1.00  0.00     0.049 A 
ATOM     46  N   UNL     1      14.240 -12.080  -6.160  1.00  0.00    -0.248 NA
ATOM     47  C   UNL     1      14.543  -9.795  -5.784  1.00  0.00     0.031 C 
ATOM     48  C   UNL     1      11.447 -12.253  -2.674  1.00  0.00     0.029 A 
ATOM     49  N   UNL     1      12.467 -13.453  -4.260  1.00  0.00    -0.354 N 
ATOM     50  C   UNL     1      15.089 -11.565  -7.129  1.00  0.00     0.074 A 
ATOM     51  C   UNL     1      15.204 -10.144  -6.879  1.00  0.00     0.031 C 
ATOM     52  C   UNL     1      11.033 -13.523  -2.545  1.00  0.00     0.029 A 
ATOM     53  C   UNL     1      11.645 -14.331  -3.595  1.00  0.00     0.049 A 
ATOM     54  H   UNL     1      13.052 -13.721  -5.005  1.00  0.00     0.167 HD
ATOM     55  C   UNL     1      15.725 -12.223  -8.127  1.00  0.00     0.037 A 
ATOM     56  C   UNL     1      11.389 -15.634  -3.822  1.00  0.00     0.037 A 
ATOM     57  C   UNL     1      15.622 -13.641  -8.358  1.00  0.00     0.049 A 
ATOM     58  C   UNL     1      12.088 -16.331  -4.958  1.00  0.00     0.074 A 
ATOM     59  C   UNL     1      16.294 -14.412  -9.291  1.00  0.00     0.029 A 
ATOM     60  N   UNL     1      14.784 -14.499  -7.661  1.00  0.00    -0.354 N 
ATOM     61  N   UNL     1      12.961 -15.852  -5.811  1.00  0.00    -0.248 NA
ATOM     62  C   UNL     1      11.767 -17.750  -5.165  1.00  0.00     0.031 C 
ATOM     63  C   UNL     1      15.815 -15.722  -9.204  1.00  0.00     0.029 A 
ATOM     64  C   UNL     1      14.889 -15.782  -8.175  1.00  0.00     0.049 A 
ATOM     65  H   UNL     1      14.202 -14.236  -6.912  1.00  0.00     0.167 HD
ATOM     66  C   UNL     1      13.304 -16.910  -6.641  1.00  0.00     0.074 A 
ATOM     67  C   UNL     1      12.568 -18.065  -6.173  1.00  0.00     0.031 C 
ATOM     68  C   UNL     1      14.148 -16.923  -7.702  1.00  0.00     0.037 A 
BRANCH  55  69
ATOM     69  C   UNL     1      16.594 -11.426  -9.056  1.00  0.00     0.064 A 
ATOM     70  C   UNL     1      17.818 -10.884  -8.639  1.00  0.00     0.173 A 
ATOM     71  C   UNL     1      16.233 -11.272 -10.404  1.00  0.00     0.173 A 
ATOM     72  F   UNL     1      18.206 -10.997  -7.360  1.00  0.00    -0.203 F 
ATOM     73  C   UNL     1      18.641 -10.203  -9.533  1.00  0.00     0.198 A 
ATOM     74  C   UNL     1      17.072 -10.617 -11.301  1.00  0.00     0.198 A 
ATOM     75  F   UNL     1      15.076 -11.777 -10.857  1.00  0.00    -0.203 F 
ATOM     76  F   UNL     1      19.791  -9.665  -9.104  1.00  0.00    -0.200 F 
ATOM     77  C   UNL     1      18.273 -10.079 -10.864  1.00  0.00     0.200 A 
ATOM     78  F   UNL     1      16.722 -10.513 -12.590  1.00  0.00    -0.200 F 
ATOM     79  F   UNL     1      19.076  -9.441 -11.726  1.00  0.00    -0.200 F 
ENDBRANCH  55  69
BRANCH  56  80
ATOM     80  C   UNL     1      10.410 -16.364  -2.972  1.00  0.00     0.064 A 
ATOM     81  C   UNL     1      10.818 -17.406  -2.129  1.00  0.00     0.173 A 
ATOM     82  C   UNL     1       9.042 -16.054  -3.007  1.00  0.00     0.173 A 
ATOM     83  F   UNL     1      12.112 -17.756  -2.076  1.00  0.00    -0.203 F 
ATOM     84  C   UNL     1       9.894 -18.129  -1.377  1.00  0.00     0.198 A 
ATOM     85  C   UNL     1       8.123 -16.754  -2.228  1.00  0.00     0.198 A 
ATOM     86  F   UNL     1       8.596 -15.063  -3.794  1.00  0.00    -0.203 F 
ATOM     87  F   UNL     1      10.305 -19.160  -0.626  1.00  0.00    -0.200 F 
ATOM     88  C   UNL     1       8.548 -17.799  -1.423  1.00  0.00     0.200 A 
ATOM     89  F   UNL     1       6.826 -16.420  -2.264  1.00  0.00    -0.200 F 
ATOM     90  F   UNL     1       7.660 -18.495  -0.701  1.00  0.00    -0.200 F 
ENDBRANCH  56  80
BRANCH  68  91
ATOM     91  C   UNL     1      14.331 -18.227  -8.423  1.00  0.00     0.064 A 
ATOM     92  C   UNL     1      13.312 -18.775  -9.217  1.00  0.00     0.173 A 
ATOM     93  C   UNL     1      15.552 -18.915  -8.357  1.00  0.00     0.173 A 
ATOM     94  F   UNL     1      12.120 -18.166  -9.300  1.00  0.00    -0.203 F 
ATOM     95  C   UNL     1      13.503 -19.973  -9.900  1.00  0.00     0.198 A 
ATOM     96  C   UNL     1      15.751 -20.095  -9.068  1.00  0.00     0.198 A 
ATOM     97  F   UNL     1      16.561 -18.431  -7.616  1.00  0.00    -0.203 F 
ATOM     98  F   UNL     1      12.499 -20.501 -10.615  1.00  0.00    -0.200 F 
ATOM     99  C   UNL     1      14.724 -20.626  -9.833  1.00  0.00     0.200 A 
ATOM    100  F   UNL     1      16.937 -20.716  -9.015  1.00  0.00    -0.200 F 
ATOM    101  F   UNL     1      14.909 -21.773 -10.501  1.00  0.00    -0.200 F 
ENDBRANCH  68  91
ENDBRANCH  42  43
ENDBRANCH  34  37
ENDBRANCH  32  33
ENDBRANCH  31  32
ENDBRANCH   1  31
TORSDOF 14
