REMARK SMILES CN1C=C/C(=C\C=C/C=N\c2ccc(C(=O)NCCCCNC(=O)c3ccc(-c4c5nc(c(-c6c(F)c(F)c(F)c(F)c6F)c6ccc([nH]6)c(-c6c(F)c(F)c(F)c(F)c6F)c6nc(c(-c7c(F)c(F)c(F)c(F)c7F)c7ccc4[nH]7)C=C6)C=C5)cc3)cc2)c2ccccc21
REMARK SMILES IDX 19 1 18 2 17 3 15 4 16 5 14 7 11 8 12 9 89 10 13 11 88 12
REMARK SMILES IDX 10 13 9 14 8 15 7 16 6 17 1 18 2 19 3 20 95 21 4 22 90 23
REMARK SMILES IDX 94 24 5 25 91 26 93 27 92 28 20 29 21 30 22 31 23 32 24 34
REMARK SMILES IDX 25 35 26 36 87 37 27 38 86 39 28 40 29 41 30 42 80 43 31 44
REMARK SMILES IDX 85 45 79 46 81 47 32 48 84 49 78 50 77 51 33 53 65 54 45 55
REMARK SMILES IDX 64 56 46 57 49 58 63 59 82 60 47 61 48 62 62 64 83 65 50 66
REMARK SMILES IDX 34 67 35 68 43 69 36 70 37 71 41 72 44 73 38 74 39 75 42 76
REMARK SMILES IDX 40 77 66 78 67 79 75 80 68 81 69 82 73 83 76 84 70 85 71 86
REMARK SMILES IDX 74 87 72 88 51 89 52 90 60 91 53 92 54 93 58 94 61 95 55 96
REMARK SMILES IDX 56 97 59 98 57 99
REMARK H PARENT 17 6 22 33 81 52 49 63
REMARK Flexibility Score: inf
ROOT
ATOM      1  C   UNL     1      -5.823   7.935 -10.587  1.00  0.00     0.023 C 
ENDROOT
BRANCH   1   2
ATOM      2  C   UNL     1      -4.604   7.221 -11.164  1.00  0.00     0.116 C 
BRANCH   2   3
ATOM      3  N   UNL     1      -3.365   7.973 -11.081  1.00  0.00    -0.352 N 
ATOM      4  C   UNL     1      -2.070   7.548 -10.899  1.00  0.00     0.251 C 
ATOM      5  O   UNL     1      -1.175   8.391 -10.890  1.00  0.00    -0.269 OA
ATOM      6  H   UNL     1      -3.470   8.948 -11.170  1.00  0.00     0.163 HD
BRANCH   4   7
ATOM      7  C   UNL     1      -1.738   6.125 -10.632  1.00  0.00     0.039 A 
ATOM      8  C   UNL     1      -1.219   3.498  -9.779  1.00  0.00     0.063 A 
ATOM      9  C   UNL     1      -0.415   4.554  -9.342  1.00  0.00     0.029 A 
ATOM     10  C   UNL     1      -2.175   3.749 -10.764  1.00  0.00     0.029 A 
ATOM     11  C   UNL     1      -0.692   5.864  -9.738  1.00  0.00     0.016 A 
ATOM     12  C   UNL     1      -2.411   5.050 -11.217  1.00  0.00     0.016 A 
BRANCH   8  13
ATOM     13  N   UNL     1      -1.073   2.188  -9.306  1.00  0.00    -0.257 NA
ATOM     14  C   UNL     1      -1.124   1.910  -8.041  1.00  0.00     0.111 C 
BRANCH  14  15
ATOM     15  C   UNL     1      -1.325   2.814  -6.873  1.00  0.00     0.020 C 
ATOM     16  C   UNL     1      -1.171   2.469  -5.585  1.00  0.00     0.002 C 
BRANCH  16  17
ATOM     17  C   UNL     1      -0.916   1.143  -5.054  1.00  0.00     0.009 C 
ATOM     18  C   UNL     1       0.941  -0.132   0.153  1.00  0.00     0.149 C 
ATOM     19  N   UNL     1       0.475   0.174  -1.199  1.00  0.00    -0.351 N 
ATOM     20  C   UNL     1       0.440   1.472  -1.675  1.00  0.00     0.086 C 
ATOM     21  C   UNL     1       0.092  -0.901  -2.052  1.00  0.00     0.048 A 
ATOM     22  C   UNL     1       0.023   1.835  -2.893  1.00  0.00     0.026 C 
ATOM     23  C   UNL     1      -0.359  -0.631  -3.383  1.00  0.00     0.005 A 
ATOM     24  C   UNL     1       0.140  -2.244  -1.625  1.00  0.00     0.027 A 
ATOM     25  C   UNL     1      -0.440   0.814  -3.831  1.00  0.00    -0.015 C 
ATOM     26  C   UNL     1      -0.727  -1.714  -4.208  1.00  0.00     0.011 A 
ATOM     27  C   UNL     1      -0.241  -3.295  -2.461  1.00  0.00     0.002 A 
ATOM     28  C   UNL     1      -0.672  -3.030  -3.750  1.00  0.00     0.001 A 
ENDBRANCH  16  17
ENDBRANCH  14  15
ENDBRANCH   8  13
ENDBRANCH   4   7
ENDBRANCH   2   3
ENDBRANCH   1   2
BRANCH   1  29
ATOM     29  C   UNL     1      -6.093   9.347 -11.094  1.00  0.00     0.023 C 
BRANCH  29  30
ATOM     30  C   UNL     1      -6.021   9.545 -12.602  1.00  0.00     0.116 C 
BRANCH  30  31
ATOM     31  N   UNL     1      -7.013   8.783 -13.348  1.00  0.00    -0.352 N 
ATOM     32  C   UNL     1      -8.012   9.214 -14.194  1.00  0.00     0.251 C 
ATOM     33  H   UNL     1      -6.961   7.807 -13.229  1.00  0.00     0.163 HD
ATOM     34  O   UNL     1      -8.799   8.409 -14.677  1.00  0.00    -0.269 OA
BRANCH  32  35
ATOM     35  C   UNL     1      -8.174  10.659 -14.470  1.00  0.00     0.039 A 
ATOM     36  C   UNL     1      -7.073  11.459 -14.774  1.00  0.00     0.014 A 
ATOM     37  C   UNL     1      -9.445  11.231 -14.360  1.00  0.00     0.014 A 
ATOM     38  C   UNL     1      -7.202  12.842 -14.734  1.00  0.00     0.010 A 
ATOM     39  C   UNL     1      -9.590  12.620 -14.424  1.00  0.00     0.010 A 
ATOM     40  C   UNL     1      -8.458  13.442 -14.535  1.00  0.00    -0.014 A 
BRANCH  40  41
ATOM     41  C   UNL     1      -8.545  14.921 -14.401  1.00  0.00     0.031 A 
ATOM     42  C   UNL     1      -8.989  15.552 -13.107  1.00  0.00     0.074 A 
ATOM     43  C   UNL     1      -8.134  15.701 -15.420  1.00  0.00     0.049 A 
ATOM     44  N   UNL     1      -9.080  16.822 -12.795  1.00  0.00    -0.248 NA
ATOM     45  C   UNL     1      -9.386  14.645 -12.018  1.00  0.00     0.031 C 
ATOM     46  C   UNL     1      -7.665  15.211 -16.716  1.00  0.00     0.029 A 
ATOM     47  N   UNL     1      -8.005  17.064 -15.512  1.00  0.00    -0.354 N 
ATOM     48  C   UNL     1      -9.563  16.864 -11.493  1.00  0.00     0.074 A 
ATOM     49  C   UNL     1      -9.772  15.495 -11.076  1.00  0.00     0.031 C 
ATOM     50  C   UNL     1      -7.232  16.249 -17.447  1.00  0.00     0.029 A 
ATOM     51  C   UNL     1      -7.452  17.482 -16.698  1.00  0.00     0.049 A 
ATOM     52  H   UNL     1      -8.282  17.682 -14.798  1.00  0.00     0.167 HD
ATOM     53  C   UNL     1      -9.796  17.945 -10.711  1.00  0.00     0.037 A 
ATOM     54  C   UNL     1      -7.157  18.720 -17.137  1.00  0.00     0.037 A 
ATOM     55  C   UNL     1      -9.552  19.307 -11.109  1.00  0.00     0.049 A 
ATOM     56  C   UNL     1      -7.453  19.902 -16.260  1.00  0.00     0.074 A 
ATOM     57  C   UNL     1      -9.739  20.466 -10.376  1.00  0.00     0.029 A 
ATOM     58  N   UNL     1      -9.057  19.691 -12.346  1.00  0.00    -0.354 N 
ATOM     59  N   UNL     1      -7.922  19.925 -15.037  1.00  0.00    -0.248 NA
ATOM     60  C   UNL     1      -7.194  21.231 -16.831  1.00  0.00     0.031 C 
ATOM     61  C   UNL     1      -9.390  21.555 -11.181  1.00  0.00     0.029 A 
ATOM     62  C   UNL     1      -8.949  21.072 -12.402  1.00  0.00     0.049 A 
ATOM     63  H   UNL     1      -8.818  19.075 -13.076  1.00  0.00     0.167 HD
ATOM     64  C   UNL     1      -8.014  21.264 -14.690  1.00  0.00     0.074 A 
ATOM     65  C   UNL     1      -7.527  22.025 -15.823  1.00  0.00     0.031 C 
ATOM     66  C   UNL     1      -8.470  21.814 -13.539  1.00  0.00     0.037 A 
BRANCH  53  67
ATOM     67  C   UNL     1     -10.349  17.712  -9.336  1.00  0.00     0.064 A 
ATOM     68  C   UNL     1      -9.547  17.218  -8.297  1.00  0.00     0.173 A 
ATOM     69  C   UNL     1     -11.675  18.057  -9.035  1.00  0.00     0.173 A 
ATOM     70  F   UNL     1      -8.276  16.863  -8.536  1.00  0.00    -0.203 F 
ATOM     71  C   UNL     1     -10.056  17.069  -7.009  1.00  0.00     0.198 A 
ATOM     72  C   UNL     1     -12.174  17.929  -7.742  1.00  0.00     0.198 A 
ATOM     73  F   UNL     1     -12.481  18.540  -9.993  1.00  0.00    -0.203 F 
ATOM     74  F   UNL     1      -9.280  16.571  -6.037  1.00  0.00    -0.200 F 
ATOM     75  C   UNL     1     -11.366  17.433  -6.731  1.00  0.00     0.200 A 
ATOM     76  F   UNL     1     -13.436  18.291  -7.472  1.00  0.00    -0.200 F 
ATOM     77  F   UNL     1     -11.849  17.303  -5.487  1.00  0.00    -0.200 F 
ENDBRANCH  53  67
BRANCH  54  78
ATOM     78  C   UNL     1      -6.540  18.892 -18.476  1.00  0.00     0.064 A 
ATOM     79  C   UNL     1      -5.203  19.290 -18.604  1.00  0.00     0.173 A 
ATOM     80  C   UNL     1      -7.260  18.628 -19.650  1.00  0.00     0.173 A 
ATOM     81  F   UNL     1      -4.481  19.574 -17.510  1.00  0.00    -0.203 F 
ATOM     82  C   UNL     1      -4.609  19.418 -19.858  1.00  0.00     0.198 A 
ATOM     83  C   UNL     1      -6.658  18.730 -20.901  1.00  0.00     0.198 A 
ATOM     84  F   UNL     1      -8.543  18.242 -19.578  1.00  0.00    -0.203 F 
ATOM     85  F   UNL     1      -3.336  19.824 -19.955  1.00  0.00    -0.200 F 
ATOM     86  C   UNL     1      -5.334  19.128 -21.004  1.00  0.00     0.200 A 
ATOM     87  F   UNL     1      -7.357  18.434 -22.005  1.00  0.00    -0.200 F 
ATOM     88  F   UNL     1      -4.757  19.235 -22.209  1.00  0.00    -0.200 F 
ENDBRANCH  54  78
BRANCH  66  89
ATOM     89  C   UNL     1      -8.469  23.309 -13.442  1.00  0.00     0.064 A 
ATOM     90  C   UNL     1      -9.427  24.080 -14.115  1.00  0.00     0.173 A 
ATOM     91  C   UNL     1      -7.543  23.971 -12.624  1.00  0.00     0.173 A 
ATOM     92  F   UNL     1     -10.324  23.491 -14.919  1.00  0.00    -0.203 F 
ATOM     93  C   UNL     1      -9.451  25.465 -13.980  1.00  0.00     0.198 A 
ATOM     94  C   UNL     1      -7.583  25.354 -12.474  1.00  0.00     0.198 A 
ATOM     95  F   UNL     1      -6.611  23.275 -11.956  1.00  0.00    -0.203 F 
ATOM     96  F   UNL     1     -10.357  26.187 -14.654  1.00  0.00    -0.200 F 
ATOM     97  C   UNL     1      -8.535  26.100 -13.154  1.00  0.00     0.200 A 
ATOM     98  F   UNL     1      -6.705  25.966 -11.667  1.00  0.00    -0.200 F 
ATOM     99  F   UNL     1      -8.566  27.433 -13.017  1.00  0.00    -0.200 F 
ENDBRANCH  66  89
ENDBRANCH  40  41
ENDBRANCH  32  35
ENDBRANCH  30  31
ENDBRANCH  29  30
ENDBRANCH   1  29
TORSDOF 14
