REMARK SMILES CC(C)[C@H]([NH2+][C@@H](C)C[C@@H]1CCCC[NH2+]1)C(=O)NCCCCNC(=O)c1ccc(-c2c3nc(c(-c4c(F)c(F)c(F)c(F)c4F)c4ccc([nH]4)c(-c4c(F)c(F)c(F)c(F)c4F)c4nc(c(-c5c(F)c(F)c(F)c(F)c5F)c5ccc2[nH]5)C=C4)C=C3)cc1
REMARK SMILES IDX 18 1 17 2 15 3 16 4 4 6 2 7 1 8 3 9 5 10 6 13 7 14 8 15 9 16
REMARK SMILES IDX 10 17 14 18 11 19 13 20 12 23 19 24 20 25 21 26 22 27 23 28
REMARK SMILES IDX 24 30 25 31 26 32 87 33 27 34 86 35 28 36 29 37 30 38 80 39
REMARK SMILES IDX 31 40 85 41 79 42 81 43 32 44 84 45 78 46 77 47 33 49 65 50
REMARK SMILES IDX 45 51 64 52 46 53 49 54 63 55 82 56 47 57 48 58 62 60 83 61
REMARK SMILES IDX 50 62 34 63 35 64 43 65 36 66 37 67 41 68 44 69 38 70 39 71
REMARK SMILES IDX 42 72 40 73 66 74 67 75 75 76 68 77 69 78 73 79 76 80 70 81
REMARK SMILES IDX 71 82 74 83 72 84 51 85 52 86 60 87 53 88 54 89 58 90 61 91
REMARK SMILES IDX 55 92 56 93 59 94 57 95
REMARK H PARENT 17 5 5 11 5 12 14 21 14 22 22 29 81 48 49 59
REMARK Flexibility Score: inf
ROOT
ATOM      1  C   UNL     1       0.477   4.108  -1.276  1.00  0.00     0.116 C 
ENDROOT
BRANCH   1   2
ATOM      2  N   UNL     1      -0.468   3.521  -2.190  1.00  0.00    -0.351 N 
ATOM      3  C   UNL     1      -1.139   2.346  -2.090  1.00  0.00     0.278 C 
ATOM      4  O   UNL     1      -1.957   2.094  -2.983  1.00  0.00    -0.268 OA
ATOM      5  H   UNL     1      -0.654   4.047  -3.002  1.00  0.00     0.163 HD
BRANCH   3   6
ATOM      6  C   UNL     1      -0.953   1.376  -0.898  1.00  0.00     0.275 C 
BRANCH   6   7
ATOM      7  C   UNL     1      -1.604   1.845   0.448  1.00  0.00     0.051 C 
ATOM      8  C   UNL     1      -0.768   2.686   1.416  1.00  0.00     0.014 C 
ATOM      9  C   UNL     1      -2.966   2.512   0.227  1.00  0.00     0.014 C 
ENDBRANCH   6   7
BRANCH   6  10
ATOM     10  N   UNL     1       0.450   0.922  -0.806  1.00  0.00    -0.333 N 
ATOM     11  H   UNL     1       0.808   1.224   0.100  1.00  0.00     0.347 HD
ATOM     12  H   UNL     1       0.903   1.332  -1.623  1.00  0.00     0.347 HD
BRANCH  10  13
ATOM     13  C   UNL     1       0.720  -0.520  -0.924  1.00  0.00     0.185 C 
ATOM     14  C   UNL     1       2.240  -0.627  -1.131  1.00  0.00     0.075 C 
BRANCH  13  15
ATOM     15  C   UNL     1       0.331  -1.360   0.322  1.00  0.00     0.129 C 
BRANCH  15  16
ATOM     16  C   UNL     1      -1.168  -1.666   0.436  1.00  0.00     0.188 C 
ATOM     17  C   UNL     1      -1.611  -1.983   1.867  1.00  0.00     0.065 C 
ATOM     18  N   UNL     1      -1.636  -2.722  -0.470  1.00  0.00    -0.344 N 
ATOM     19  C   UNL     1      -3.140  -1.964   1.921  1.00  0.00     0.012 C 
ATOM     20  C   UNL     1      -3.106  -2.691  -0.527  1.00  0.00     0.260 C 
ATOM     21  H   UNL     1      -1.327  -3.630  -0.125  1.00  0.00     0.346 HD
ATOM     22  H   UNL     1      -1.253  -2.568  -1.403  1.00  0.00     0.346 HD
ATOM     23  C   UNL     1      -3.741  -2.880   0.854  1.00  0.00     0.062 C 
ENDBRANCH  15  16
ENDBRANCH  13  15
ENDBRANCH  10  13
ENDBRANCH   6  10
ENDBRANCH   3   6
ENDBRANCH   1   2
BRANCH   1  24
ATOM     24  C   UNL     1       1.572   4.887  -1.986  1.00  0.00     0.023 C 
BRANCH  24  25
ATOM     25  C   UNL     1       1.076   6.093  -2.781  1.00  0.00     0.023 C 
BRANCH  25  26
ATOM     26  C   UNL     1       0.109   7.006  -2.033  1.00  0.00     0.116 C 
BRANCH  26  27
ATOM     27  N   UNL     1       0.660   7.520  -0.785  1.00  0.00    -0.352 N 
ATOM     28  C   UNL     1       0.912   8.822  -0.417  1.00  0.00     0.251 C 
ATOM     29  H   UNL     1       0.883   6.840  -0.110  1.00  0.00     0.163 HD
ATOM     30  O   UNL     1       1.496   9.086   0.621  1.00  0.00    -0.269 OA
BRANCH  28  31
ATOM     31  C   UNL     1       0.495   9.897  -1.335  1.00  0.00     0.039 A 
ATOM     32  C   UNL     1       1.461  10.777  -1.827  1.00  0.00     0.014 A 
ATOM     33  C   UNL     1      -0.824   9.947  -1.790  1.00  0.00     0.014 A 
ATOM     34  C   UNL     1       1.125  11.642  -2.868  1.00  0.00     0.010 A 
ATOM     35  C   UNL     1      -1.135  10.753  -2.877  1.00  0.00     0.010 A 
ATOM     36  C   UNL     1      -0.157  11.590  -3.440  1.00  0.00    -0.014 A 
BRANCH  36  37
ATOM     37  C   UNL     1      -0.495  12.365  -4.657  1.00  0.00     0.031 A 
ATOM     38  C   UNL     1      -1.564  13.415  -4.601  1.00  0.00     0.074 A 
ATOM     39  C   UNL     1       0.086  12.047  -5.830  1.00  0.00     0.049 A 
ATOM     40  N   UNL     1      -2.100  14.104  -5.575  1.00  0.00    -0.248 NA
ATOM     41  C   UNL     1      -2.129  13.706  -3.274  1.00  0.00     0.031 C 
ATOM     42  C   UNL     1       1.108  11.016  -6.018  1.00  0.00     0.029 A 
ATOM     43  N   UNL     1      -0.113  12.549  -7.092  1.00  0.00    -0.354 N 
ATOM     44  C   UNL     1      -3.072  14.896  -4.982  1.00  0.00     0.074 A 
ATOM     45  C   UNL     1      -3.091  14.565  -3.574  1.00  0.00     0.031 C 
ATOM     46  C   UNL     1       1.461  10.976  -7.313  1.00  0.00     0.029 A 
ATOM     47  C   UNL     1       0.658  11.944  -8.053  1.00  0.00     0.049 A 
ATOM     48  H   UNL     1      -0.749  13.274  -7.289  1.00  0.00     0.167 HD
ATOM     49  C   UNL     1      -3.862  15.832  -5.559  1.00  0.00     0.037 A 
ATOM     50  C   UNL     1       0.701  12.138  -9.385  1.00  0.00     0.037 A 
ATOM     51  C   UNL     1      -3.822  16.174  -6.955  1.00  0.00     0.049 A 
ATOM     52  C   UNL     1      -0.215  13.155 -10.007  1.00  0.00     0.074 A 
ATOM     53  C   UNL     1      -4.527  17.159  -7.624  1.00  0.00     0.029 A 
ATOM     54  N   UNL     1      -3.035  15.532  -7.900  1.00  0.00    -0.354 N 
ATOM     55  N   UNL     1      -1.086  13.946  -9.429  1.00  0.00    -0.248 NA
ATOM     56  C   UNL     1      -0.150  13.300 -11.468  1.00  0.00     0.031 C 
ATOM     57  C   UNL     1      -4.197  17.085  -8.982  1.00  0.00     0.029 A 
ATOM     58  C   UNL     1      -3.259  16.080  -9.153  1.00  0.00     0.049 A 
ATOM     59  H   UNL     1      -2.409  14.796  -7.709  1.00  0.00     0.167 HD
ATOM     60  C   UNL     1      -1.659  14.693 -10.448  1.00  0.00     0.074 A 
ATOM     61  C   UNL     1      -1.027  14.271 -11.682  1.00  0.00     0.031 C 
ATOM     62  C   UNL     1      -2.622  15.643 -10.369  1.00  0.00     0.037 A 
BRANCH  49  63
ATOM     63  C   UNL     1      -4.833  16.553  -4.672  1.00  0.00     0.064 A 
ATOM     64  C   UNL     1      -4.399  17.477  -3.709  1.00  0.00     0.173 A 
ATOM     65  C   UNL     1      -6.212  16.328  -4.792  1.00  0.00     0.173 A 
ATOM     66  F   UNL     1      -3.089  17.717  -3.545  1.00  0.00    -0.203 F 
ATOM     67  C   UNL     1      -5.308  18.125  -2.877  1.00  0.00     0.198 A 
ATOM     68  C   UNL     1      -7.120  16.999  -3.978  1.00  0.00     0.198 A 
ATOM     69  F   UNL     1      -6.679  15.456  -5.699  1.00  0.00    -0.203 F 
ATOM     70  F   UNL     1      -4.867  18.962  -1.928  1.00  0.00    -0.200 F 
ATOM     71  C   UNL     1      -6.668  17.889  -3.016  1.00  0.00     0.200 A 
ATOM     72  F   UNL     1      -8.435  16.778  -4.119  1.00  0.00    -0.200 F 
ATOM     73  F   UNL     1      -7.542  18.513  -2.214  1.00  0.00    -0.200 F 
ENDBRANCH  49  63
BRANCH  50  74
ATOM     74  C   UNL     1       1.656  11.363 -10.217  1.00  0.00     0.064 A 
ATOM     75  C   UNL     1       2.774  11.986 -10.788  1.00  0.00     0.173 A 
ATOM     76  C   UNL     1       1.482   9.991 -10.451  1.00  0.00     0.173 A 
ATOM     77  F   UNL     1       2.970  13.301 -10.610  1.00  0.00    -0.203 F 
ATOM     78  C   UNL     1       3.676  11.269 -11.570  1.00  0.00     0.198 A 
ATOM     79  C   UNL     1       2.398   9.270 -11.214  1.00  0.00     0.198 A 
ATOM     80  F   UNL     1       0.429   9.348  -9.924  1.00  0.00    -0.203 F 
ATOM     81  F   UNL     1       4.718  11.896 -12.132  1.00  0.00    -0.200 F 
ATOM     82  C   UNL     1       3.491   9.910 -11.777  1.00  0.00     0.200 A 
ATOM     83  F   UNL     1       2.222   7.955 -11.402  1.00  0.00    -0.200 F 
ATOM     84  F   UNL     1       4.364   9.219 -12.524  1.00  0.00    -0.200 F 
ENDBRANCH  50  74
BRANCH  62  85
ATOM     85  C   UNL     1      -3.045  16.300 -11.648  1.00  0.00     0.064 A 
ATOM     86  C   UNL     1      -3.857  15.635 -12.577  1.00  0.00     0.173 A 
ATOM     87  C   UNL     1      -2.680  17.627 -11.921  1.00  0.00     0.173 A 
ATOM     88  F   UNL     1      -4.215  14.359 -12.368  1.00  0.00    -0.203 F 
ATOM     89  C   UNL     1      -4.280  16.271 -13.741  1.00  0.00     0.198 A 
ATOM     90  C   UNL     1      -3.126  18.268 -13.073  1.00  0.00     0.198 A 
ATOM     91  F   UNL     1      -1.907  18.307 -11.061  1.00  0.00    -0.203 F 
ATOM     92  F   UNL     1      -5.029  15.606 -14.631  1.00  0.00    -0.200 F 
ATOM     93  C   UNL     1      -3.922  17.589 -13.983  1.00  0.00     0.200 A 
ATOM     94  F   UNL     1      -2.789  19.545 -13.301  1.00  0.00    -0.200 F 
ATOM     95  F   UNL     1      -4.341  18.204 -15.098  1.00  0.00    -0.200 F 
ENDBRANCH  62  85
ENDBRANCH  36  37
ENDBRANCH  28  31
ENDBRANCH  26  27
ENDBRANCH  25  26
ENDBRANCH  24  25
ENDBRANCH   1  24
TORSDOF 16
