REMARK SMILES C[C@@H](CC(=O)NCCCCNC(=O)c1ccc(-c2c3nc(c(-c4c(F)c(F)c(F)c(F)c4F)c4ccc([nH]4)c(-c4c(F)c(F)c(F)c(F)c4F)c4nc(c(-c5c(F)c(F)c(F)c(F)c5F)c5ccc2[nH]5)C=C4)C=C3)cc1)Cc1nnc(C2C(C)(C)C2(C)C)o1
REMARK SMILES IDX 7 1 6 2 4 3 5 4 3 6 2 7 1 8 77 9 78 10 79 11 89 12 80 13
REMARK SMILES IDX 81 14 82 15 83 16 86 17 84 18 85 19 87 20 88 21 8 22 9 23
REMARK SMILES IDX 10 24 11 25 12 26 13 28 14 29 15 30 76 31 16 32 75 33 17 34
REMARK SMILES IDX 18 35 19 36 69 37 20 38 74 39 68 40 70 41 21 42 73 43 67 44
REMARK SMILES IDX 66 45 22 47 54 48 34 49 53 50 35 51 38 52 52 53 71 54 36 55
REMARK SMILES IDX 37 56 51 58 72 59 39 60 23 61 24 62 32 63 25 64 26 65 30 66
REMARK SMILES IDX 33 67 27 68 28 69 31 70 29 71 55 72 56 73 64 74 57 75 58 76
REMARK SMILES IDX 62 77 65 78 59 79 60 80 63 81 61 82 40 83 41 84 49 85 42 86
REMARK SMILES IDX 43 87 47 88 50 89 44 90 45 91 48 92 46 93
REMARK H PARENT 6 5 11 27 70 46 38 57
REMARK Flexibility Score: inf
ROOT
ATOM      1  C   UNL     1       1.824   2.090  -0.042  1.00  0.00     0.116 C 
ENDROOT
BRANCH   1   2
ATOM      2  N   UNL     1       0.887   2.372   1.024  1.00  0.00    -0.356 N 
ATOM      3  C   UNL     1       0.486   1.588   2.060  1.00  0.00     0.220 C 
ATOM      4  O   UNL     1      -0.401   2.015   2.801  1.00  0.00    -0.275 OA
ATOM      5  H   UNL     1       0.477   3.266   0.995  1.00  0.00     0.163 HD
BRANCH   3   6
ATOM      6  C   UNL     1       1.099   0.216   2.296  1.00  0.00     0.103 C 
BRANCH   6   7
ATOM      7  C   UNL     1       0.491  -0.975   1.520  1.00  0.00     0.004 C 
ATOM      8  C   UNL     1       1.281  -1.305   0.248  1.00  0.00     0.009 C 
BRANCH   7   9
ATOM      9  C   UNL     1      -1.032  -0.834   1.312  1.00  0.00     0.103 C 
BRANCH   9  10
ATOM     10  C   UNL     1      -1.588  -1.706   0.252  1.00  0.00     0.216 A 
ATOM     11  N   UNL     1      -1.913  -2.978   0.261  1.00  0.00    -0.113 NA
ATOM     12  O   UNL     1      -1.819  -1.107  -0.953  1.00  0.00    -0.425 OA
ATOM     13  N   UNL     1      -2.420  -3.248  -0.997  1.00  0.00    -0.113 NA
ATOM     14  C   UNL     1      -2.361  -2.124  -1.687  1.00  0.00     0.220 A 
BRANCH  14  15
ATOM     15  C   UNL     1      -2.896  -2.003  -3.108  1.00  0.00     0.090 C 
ATOM     16  C   UNL     1      -3.509  -0.680  -3.596  1.00  0.00    -0.017 C 
ATOM     17  C   UNL     1      -2.210  -1.197  -4.216  1.00  0.00    -0.017 C 
ATOM     18  C   UNL     1      -4.823  -0.807  -4.343  1.00  0.00     0.012 C 
ATOM     19  C   UNL     1      -3.482   0.589  -2.768  1.00  0.00     0.012 C 
ATOM     20  C   UNL     1      -0.893  -0.498  -3.959  1.00  0.00     0.012 C 
ATOM     21  C   UNL     1      -2.263  -1.762  -5.624  1.00  0.00     0.012 C 
ENDBRANCH  14  15
ENDBRANCH   9  10
ENDBRANCH   7   9
ENDBRANCH   6   7
ENDBRANCH   3   6
ENDBRANCH   1   2
BRANCH   1  22
ATOM     22  C   UNL     1       1.091   1.834  -1.359  1.00  0.00     0.023 C 
BRANCH  22  23
ATOM     23  C   UNL     1       0.595   3.084  -2.081  1.00  0.00     0.023 C 
BRANCH  23  24
ATOM     24  C   UNL     1       1.681   4.059  -2.516  1.00  0.00     0.116 C 
BRANCH  24  25
ATOM     25  N   UNL     1       2.683   3.465  -3.390  1.00  0.00    -0.352 N 
ATOM     26  C   UNL     1       3.268   3.994  -4.516  1.00  0.00     0.251 C 
ATOM     27  H   UNL     1       2.982   2.561  -3.141  1.00  0.00     0.163 HD
ATOM     28  O   UNL     1       4.036   3.318  -5.194  1.00  0.00    -0.269 OA
BRANCH  26  29
ATOM     29  C   UNL     1       2.929   5.370  -4.933  1.00  0.00     0.039 A 
ATOM     30  C   UNL     1       2.559   5.600  -6.260  1.00  0.00     0.014 A 
ATOM     31  C   UNL     1       2.921   6.415  -4.005  1.00  0.00     0.014 A 
ATOM     32  C   UNL     1       2.091   6.860  -6.636  1.00  0.00     0.010 A 
ATOM     33  C   UNL     1       2.383   7.646  -4.362  1.00  0.00     0.010 A 
ATOM     34  C   UNL     1       1.952   7.877  -5.677  1.00  0.00    -0.014 A 
BRANCH  34  35
ATOM     35  C   UNL     1       1.332   9.181  -6.019  1.00  0.00     0.031 A 
ATOM     36  C   UNL     1       2.135  10.447  -5.920  1.00  0.00     0.074 A 
ATOM     37  C   UNL     1       0.022   9.233  -6.330  1.00  0.00     0.049 A 
ATOM     38  N   UNL     1       1.749  11.687  -6.081  1.00  0.00    -0.248 NA
ATOM     39  C   UNL     1       3.554  10.301  -5.560  1.00  0.00     0.031 C 
ATOM     40  C   UNL     1      -0.878   8.080  -6.397  1.00  0.00     0.029 A 
ATOM     41  N   UNL     1      -0.784  10.301  -6.633  1.00  0.00    -0.354 N 
ATOM     42  C   UNL     1       2.867  12.466  -5.820  1.00  0.00     0.074 A 
ATOM     43  C   UNL     1       3.934  11.565  -5.444  1.00  0.00     0.031 C 
ATOM     44  C   UNL     1      -2.106   8.500  -6.739  1.00  0.00     0.029 A 
ATOM     45  C   UNL     1      -2.089   9.953  -6.883  1.00  0.00     0.049 A 
ATOM     46  H   UNL     1      -0.459  11.230  -6.667  1.00  0.00     0.167 HD
ATOM     47  C   UNL     1       2.998  13.811  -5.909  1.00  0.00     0.037 A 
ATOM     48  C   UNL     1      -3.153  10.720  -7.187  1.00  0.00     0.037 A 
ATOM     49  C   UNL     1       1.945  14.701  -6.322  1.00  0.00     0.049 A 
ATOM     50  C   UNL     1      -2.975  12.209  -7.302  1.00  0.00     0.074 A 
ATOM     51  C   UNL     1       2.000  16.069  -6.521  1.00  0.00     0.029 A 
ATOM     52  N   UNL     1       0.644  14.307  -6.600  1.00  0.00    -0.354 N 
ATOM     53  N   UNL     1      -1.894  12.928  -7.124  1.00  0.00    -0.248 NA
ATOM     54  C   UNL     1      -4.165  12.991  -7.664  1.00  0.00     0.031 C 
ATOM     55  C   UNL     1       0.723  16.509  -6.887  1.00  0.00     0.029 A 
ATOM     56  C   UNL     1      -0.118  15.410  -6.952  1.00  0.00     0.049 A 
ATOM     57  H   UNL     1       0.312  13.382  -6.554  1.00  0.00     0.167 HD
ATOM     58  C   UNL     1      -2.266  14.242  -7.371  1.00  0.00     0.074 A 
ATOM     59  C   UNL     1      -3.669  14.219  -7.728  1.00  0.00     0.031 C 
ATOM     60  C   UNL     1      -1.513  15.367  -7.306  1.00  0.00     0.037 A 
BRANCH  47  61
ATOM     61  C   UNL     1       4.333  14.401  -5.563  1.00  0.00     0.064 A 
ATOM     62  C   UNL     1       5.449  14.229  -6.395  1.00  0.00     0.173 A 
ATOM     63  C   UNL     1       4.492  15.171  -4.401  1.00  0.00     0.173 A 
ATOM     64  F   UNL     1       5.352  13.490  -7.511  1.00  0.00    -0.203 F 
ATOM     65  C   UNL     1       6.683  14.782  -6.063  1.00  0.00     0.198 A 
ATOM     66  C   UNL     1       5.720  15.746  -4.086  1.00  0.00     0.198 A 
ATOM     67  F   UNL     1       3.455  15.368  -3.573  1.00  0.00    -0.203 F 
ATOM     68  F   UNL     1       7.746  14.563  -6.848  1.00  0.00    -0.200 F 
ATOM     69  C   UNL     1       6.816  15.545  -4.912  1.00  0.00     0.200 A 
ATOM     70  F   UNL     1       5.845  16.491  -2.979  1.00  0.00    -0.200 F 
ATOM     71  F   UNL     1       8.003  16.080  -4.596  1.00  0.00    -0.200 F 
ENDBRANCH  47  61
BRANCH  48  72
ATOM     72  C   UNL     1      -4.475  10.089  -7.433  1.00  0.00     0.064 A 
ATOM     73  C   UNL     1      -5.011  10.032  -8.727  1.00  0.00     0.173 A 
ATOM     74  C   UNL     1      -5.225   9.530  -6.389  1.00  0.00     0.173 A 
ATOM     75  F   UNL     1      -4.338  10.572  -9.754  1.00  0.00    -0.203 F 
ATOM     76  C   UNL     1      -6.256   9.454  -8.965  1.00  0.00     0.198 A 
ATOM     77  C   UNL     1      -6.459   8.931  -6.632  1.00  0.00     0.198 A 
ATOM     78  F   UNL     1      -4.752   9.555  -5.134  1.00  0.00    -0.203 F 
ATOM     79  F   UNL     1      -6.763   9.448 -10.205  1.00  0.00    -0.200 F 
ATOM     80  C   UNL     1      -6.977   8.899  -7.918  1.00  0.00     0.200 A 
ATOM     81  F   UNL     1      -7.147   8.384  -5.620  1.00  0.00    -0.200 F 
ATOM     82  F   UNL     1      -8.172   8.340  -8.148  1.00  0.00    -0.200 F 
ENDBRANCH  48  72
BRANCH  60  83
ATOM     83  C   UNL     1      -2.187  16.662  -7.646  1.00  0.00     0.064 A 
ATOM     84  C   UNL     1      -3.096  17.267  -6.767  1.00  0.00     0.173 A 
ATOM     85  C   UNL     1      -1.891  17.324  -8.847  1.00  0.00     0.173 A 
ATOM     86  F   UNL     1      -3.424  16.663  -5.614  1.00  0.00    -0.203 F 
ATOM     87  C   UNL     1      -3.701  18.479  -7.087  1.00  0.00     0.198 A 
ATOM     88  C   UNL     1      -2.477  18.548  -9.152  1.00  0.00     0.198 A 
ATOM     89  F   UNL     1      -1.023  16.787  -9.719  1.00  0.00    -0.203 F 
ATOM     90  F   UNL     1      -4.598  19.019  -6.251  1.00  0.00    -0.200 F 
ATOM     91  C   UNL     1      -3.386  19.122  -8.275  1.00  0.00     0.200 A 
ATOM     92  F   UNL     1      -2.164  19.173 -10.296  1.00  0.00    -0.200 F 
ATOM     93  F   UNL     1      -3.964  20.292  -8.579  1.00  0.00    -0.200 F 
ENDBRANCH  60  83
ENDBRANCH  34  35
ENDBRANCH  26  29
ENDBRANCH  24  25
ENDBRANCH  23  24
ENDBRANCH  22  23
ENDBRANCH   1  22
TORSDOF 15
