REMARK SMILES CC(C)(C)OC(=O)[C@]1(C(=O)NCCCCNC(=O)c2ccc(-c3c4nc(c(-c5c(F)c(F)c(F)c(F)c5F)c5ccc([nH]5)c(-c5c(F)c(F)c(F)c(F)c5F)c5nc(c(-c6c(F)c(F)c(F)c(F)c6F)c6ccc3[nH]6)C=C5)C=C4)cc2)CC=CC[C@@H]1[NH3+]
REMARK SMILES IDX 13 1 12 2 11 3 9 4 10 5 8 7 82 8 86 9 83 10 85 11 84 12 6 13
REMARK SMILES IDX 7 14 5 15 2 16 1 17 3 18 4 19 87 20 14 24 15 25 16 26 17 27
REMARK SMILES IDX 18 29 19 30 20 31 81 32 21 33 80 34 22 35 23 36 24 37 74 38
REMARK SMILES IDX 25 39 79 40 73 41 75 42 26 43 78 44 72 45 71 46 27 48 59 49
REMARK SMILES IDX 39 50 58 51 40 52 43 53 57 54 76 55 41 56 42 57 56 59 77 60
REMARK SMILES IDX 44 61 28 62 29 63 37 64 30 65 31 66 35 67 38 68 32 69 33 70
REMARK SMILES IDX 36 71 34 72 60 73 61 74 69 75 62 76 63 77 67 78 70 79 64 80
REMARK SMILES IDX 65 81 68 82 66 83 45 84 46 85 54 86 47 87 48 88 52 89 55 90
REMARK SMILES IDX 49 91 50 92 53 93 51 94
REMARK H PARENT 11 6 87 21 87 22 87 23 16 28 75 47 43 58
REMARK Flexibility Score: inf
ROOT
ATOM      1  C   UNL     1      -3.088  -3.427  -2.864  1.00  0.00     0.023 C 
ENDROOT
BRANCH   1   2
ATOM      2  C   UNL     1      -1.897  -2.625  -3.372  1.00  0.00     0.116 C 
BRANCH   2   3
ATOM      3  N   UNL     1      -0.780  -2.553  -2.447  1.00  0.00    -0.355 N 
ATOM      4  C   UNL     1       0.575  -2.601  -2.657  1.00  0.00     0.244 C 
ATOM      5  O   UNL     1       1.257  -2.486  -1.634  1.00  0.00    -0.274 OA
ATOM      6  H   UNL     1      -1.041  -2.453  -1.503  1.00  0.00     0.163 HD
BRANCH   4   7
ATOM      7  C   UNL     1       1.202  -2.964  -4.032  1.00  0.00     0.201 C 
ATOM      8  C   UNL     1       0.970  -4.506  -4.117  1.00  0.00     0.062 C 
ATOM      9  C   UNL     1       0.612  -2.065  -5.185  1.00  0.00     0.212 C 
ATOM     10  C   UNL     1       0.217  -5.026  -5.294  1.00  0.00    -0.029 C 
ATOM     11  C   UNL     1       0.019  -2.801  -6.413  1.00  0.00     0.093 C 
ATOM     12  C   UNL     1      -0.211  -4.269  -6.304  1.00  0.00    -0.025 C 
BRANCH   7  13
ATOM     13  C   UNL     1       2.715  -2.690  -4.018  1.00  0.00     0.328 C 
ATOM     14  O   UNL     1       3.255  -1.783  -3.398  1.00  0.00    -0.251 OA
BRANCH  13  15
ATOM     15  O   UNL     1       3.357  -3.444  -4.961  1.00  0.00    -0.459 OA
BRANCH  15  16
ATOM     16  C   UNL     1       4.762  -3.236  -5.267  1.00  0.00     0.104 C 
ATOM     17  C   UNL     1       5.093  -4.315  -6.309  1.00  0.00     0.056 C 
ATOM     18  C   UNL     1       5.655  -3.449  -4.040  1.00  0.00     0.056 C 
ATOM     19  C   UNL     1       4.993  -1.860  -5.904  1.00  0.00     0.056 C 
ENDBRANCH  15  16
ENDBRANCH  13  15
ENDBRANCH   7  13
BRANCH   9  20
ATOM     20  N   UNL     1       1.451  -0.961  -5.719  1.00  0.00    -0.353 N 
ATOM     21  H   UNL     1       2.204  -1.351  -6.286  1.00  0.00     0.344 HD
ATOM     22  H   UNL     1       1.849  -0.431  -4.944  1.00  0.00     0.344 HD
ATOM     23  H   UNL     1       0.876  -0.345  -6.293  1.00  0.00     0.344 HD
ENDBRANCH   9  20
ENDBRANCH   4   7
ENDBRANCH   2   3
ENDBRANCH   1   2
BRANCH   1  24
ATOM     24  C   UNL     1      -3.772  -2.885  -1.615  1.00  0.00     0.023 C 
BRANCH  24  25
ATOM     25  C   UNL     1      -4.130  -1.403  -1.642  1.00  0.00     0.116 C 
BRANCH  25  26
ATOM     26  N   UNL     1      -5.031  -1.039  -2.727  1.00  0.00    -0.352 N 
ATOM     27  C   UNL     1      -6.258  -0.420  -2.682  1.00  0.00     0.251 C 
ATOM     28  H   UNL     1      -4.713  -1.271  -3.629  1.00  0.00     0.163 HD
ATOM     29  O   UNL     1      -6.917  -0.282  -3.709  1.00  0.00    -0.269 OA
BRANCH  27  30
ATOM     30  C   UNL     1      -6.809   0.042  -1.390  1.00  0.00     0.039 A 
ATOM     31  C   UNL     1      -8.133  -0.273  -1.071  1.00  0.00     0.014 A 
ATOM     32  C   UNL     1      -6.020   0.752  -0.483  1.00  0.00     0.014 A 
ATOM     33  C   UNL     1      -8.634   0.039   0.195  1.00  0.00     0.010 A 
ATOM     34  C   UNL     1      -6.490   0.985   0.806  1.00  0.00     0.010 A 
ATOM     35  C   UNL     1      -7.799   0.624   1.162  1.00  0.00    -0.014 A 
BRANCH  35  36
ATOM     36  C   UNL     1      -8.267   0.853   2.554  1.00  0.00     0.031 A 
ATOM     37  C   UNL     1      -8.335   2.249   3.107  1.00  0.00     0.074 A 
ATOM     38  C   UNL     1      -8.547  -0.201   3.346  1.00  0.00     0.049 A 
ATOM     39  N   UNL     1      -8.621   2.646   4.322  1.00  0.00    -0.248 NA
ATOM     40  C   UNL     1      -8.008   3.343   2.180  1.00  0.00     0.031 C 
ATOM     41  C   UNL     1      -8.466  -1.607   2.947  1.00  0.00     0.029 A 
ATOM     42  N   UNL     1      -8.943  -0.253   4.660  1.00  0.00    -0.354 N 
ATOM     43  C   UNL     1      -8.485   4.027   4.309  1.00  0.00     0.074 A 
ATOM     44  C   UNL     1      -8.044   4.397   2.981  1.00  0.00     0.031 C 
ATOM     45  C   UNL     1      -8.819  -2.381   3.985  1.00  0.00     0.029 A 
ATOM     46  C   UNL     1      -9.116  -1.530   5.134  1.00  0.00     0.049 A 
ATOM     47  H   UNL     1      -9.090   0.550   5.211  1.00  0.00     0.167 HD
ATOM     48  C   UNL     1      -8.730   4.910   5.306  1.00  0.00     0.037 A 
ATOM     49  C   UNL     1      -9.465  -1.968   6.359  1.00  0.00     0.037 A 
ATOM     50  C   UNL     1      -9.203   4.544   6.615  1.00  0.00     0.049 A 
ATOM     51  C   UNL     1      -9.743  -0.965   7.446  1.00  0.00     0.074 A 
ATOM     52  C   UNL     1      -9.549   5.370   7.670  1.00  0.00     0.029 A 
ATOM     53  N   UNL     1      -9.399   3.240   7.046  1.00  0.00    -0.354 N 
ATOM     54  N   UNL     1      -9.681   0.343   7.401  1.00  0.00    -0.248 NA
ATOM     55  C   UNL     1     -10.146  -1.501   8.754  1.00  0.00     0.031 C 
ATOM     56  C   UNL     1      -9.913   4.565   8.754  1.00  0.00     0.029 A 
ATOM     57  C   UNL     1      -9.841   3.239   8.360  1.00  0.00     0.049 A 
ATOM     58  H   UNL     1      -9.245   2.435   6.501  1.00  0.00     0.167 HD
ATOM     59  C   UNL     1     -10.063   0.787   8.659  1.00  0.00     0.074 A 
ATOM     60  C   UNL     1     -10.368  -0.391   9.444  1.00  0.00     0.031 C 
ATOM     61  C   UNL     1     -10.152   2.058   9.123  1.00  0.00     0.037 A 
BRANCH  48  62
ATOM     62  C   UNL     1      -8.497   6.364   5.017  1.00  0.00     0.064 A 
ATOM     63  C   UNL     1      -9.331   7.085   4.149  1.00  0.00     0.173 A 
ATOM     64  C   UNL     1      -7.449   7.056   5.644  1.00  0.00     0.173 A 
ATOM     65  F   UNL     1     -10.340   6.467   3.515  1.00  0.00    -0.203 F 
ATOM     66  C   UNL     1      -9.107   8.435   3.895  1.00  0.00     0.198 A 
ATOM     67  C   UNL     1      -7.247   8.414   5.412  1.00  0.00     0.198 A 
ATOM     68  F   UNL     1      -6.626   6.417   6.489  1.00  0.00    -0.203 F 
ATOM     69  F   UNL     1      -9.887   9.090   3.024  1.00  0.00    -0.200 F 
ATOM     70  C   UNL     1      -8.071   9.100   4.532  1.00  0.00     0.200 A 
ATOM     71  F   UNL     1      -6.253   9.059   6.039  1.00  0.00    -0.200 F 
ATOM     72  F   UNL     1      -7.861  10.402   4.293  1.00  0.00    -0.200 F 
ENDBRANCH  48  62
BRANCH  49  73
ATOM     73  C   UNL     1      -9.597  -3.425   6.618  1.00  0.00     0.064 A 
ATOM     74  C   UNL     1     -10.855  -4.005   6.832  1.00  0.00     0.173 A 
ATOM     75  C   UNL     1      -8.475  -4.266   6.662  1.00  0.00     0.173 A 
ATOM     76  F   UNL     1     -11.956  -3.238   6.821  1.00  0.00    -0.203 F 
ATOM     77  C   UNL     1     -10.985  -5.366   7.100  1.00  0.00     0.198 A 
ATOM     78  C   UNL     1      -8.609  -5.631   6.903  1.00  0.00     0.198 A 
ATOM     79  F   UNL     1      -7.250  -3.761   6.459  1.00  0.00    -0.203 F 
ATOM     80  F   UNL     1     -12.196  -5.886   7.346  1.00  0.00    -0.200 F 
ATOM     81  C   UNL     1      -9.863  -6.179   7.130  1.00  0.00     0.200 A 
ATOM     82  F   UNL     1      -7.523  -6.417   6.917  1.00  0.00    -0.200 F 
ATOM     83  F   UNL     1      -9.988  -7.489   7.384  1.00  0.00    -0.200 F 
ENDBRANCH  49  73
BRANCH  61  84
ATOM     84  C   UNL     1     -10.633   2.244  10.532  1.00  0.00     0.064 A 
ATOM     85  C   UNL     1      -9.826   1.925  11.634  1.00  0.00     0.173 A 
ATOM     86  C   UNL     1     -11.901   2.791  10.781  1.00  0.00     0.173 A 
ATOM     87  F   UNL     1      -8.612   1.386  11.447  1.00  0.00    -0.203 F 
ATOM     88  C   UNL     1     -10.280   2.126  12.934  1.00  0.00     0.198 A 
ATOM     89  C   UNL     1     -12.340   3.017  12.082  1.00  0.00     0.198 A 
ATOM     90  F   UNL     1     -12.708   3.119   9.761  1.00  0.00    -0.203 F 
ATOM     91  F   UNL     1      -9.510   1.773  13.973  1.00  0.00    -0.200 F 
ATOM     92  C   UNL     1     -11.533   2.679  13.157  1.00  0.00     0.200 A 
ATOM     93  F   UNL     1     -13.546   3.563  12.296  1.00  0.00    -0.200 F 
ATOM     94  F   UNL     1     -11.965   2.879  14.410  1.00  0.00    -0.200 F 
ENDBRANCH  61  84
ENDBRANCH  35  36
ENDBRANCH  27  30
ENDBRANCH  25  26
ENDBRANCH  24  25
ENDBRANCH   1  24
TORSDOF 15
