REMARK SMILES CC(C)(C)OC(=O)N[C@H](Cc1ccc(N=[N+]=[N-])cc1)C(=O)NCCCCNC(=O)c1ccc(-c2c3nc(c(-c4c(F)c(F)c(F)c(F)c4F)c4ccc([nH]4)c(-c4c(F)c(F)c(F)c(F)c4F)c4nc(c(-c5c(F)c(F)c(F)c(F)c5F)c5ccc2[nH]5)C=C4)C=C3)cc1
REMARK SMILES IDX 24 1 23 2 22 3 20 4 21 5 9 7 8 8 6 9 7 10 5 12 2 13 1 14
REMARK SMILES IDX 3 15 4 16 10 17 11 18 12 19 19 20 13 21 18 22 14 23 15 24
REMARK SMILES IDX 16 25 17 26 25 27 26 28 27 29 28 30 29 32 30 33 31 34 92 35
REMARK SMILES IDX 32 36 91 37 33 38 34 39 35 40 85 41 36 42 90 43 84 44 86 45
REMARK SMILES IDX 37 46 89 47 83 48 82 49 38 51 70 52 50 53 69 54 51 55 54 56
REMARK SMILES IDX 68 57 87 58 52 59 53 60 67 62 88 63 55 64 39 65 40 66 48 67
REMARK SMILES IDX 41 68 42 69 46 70 49 71 43 72 44 73 47 74 45 75 71 76 72 77
REMARK SMILES IDX 80 78 73 79 74 80 78 81 81 82 75 83 76 84 79 85 77 86 56 87
REMARK SMILES IDX 57 88 65 89 58 90 59 91 63 92 66 93 60 94 61 95 64 96 62 97
REMARK H PARENT 22 6 8 11 27 31 86 50 54 61
REMARK Flexibility Score: inf
ROOT
ATOM      1  C   UNL     1       0.479   2.951   8.080  1.00  0.00     0.023 C 
ENDROOT
BRANCH   1   2
ATOM      2  C   UNL     1       1.578   2.017   7.563  1.00  0.00     0.116 C 
BRANCH   2   3
ATOM      3  N   UNL     1       1.137   0.662   7.250  1.00  0.00    -0.354 N 
ATOM      4  C   UNL     1       1.262  -0.102   6.120  1.00  0.00     0.243 C 
ATOM      5  O   UNL     1       0.821  -1.254   6.164  1.00  0.00    -0.273 OA
ATOM      6  H   UNL     1       0.662   0.214   7.988  1.00  0.00     0.163 HD
BRANCH   4   7
ATOM      7  C   UNL     1       1.885   0.462   4.828  1.00  0.00     0.179 C 
BRANCH   7   8
ATOM      8  N   UNL     1       3.205   0.970   5.226  1.00  0.00    -0.309 N 
ATOM      9  C   UNL     1       4.238   1.425   4.480  1.00  0.00     0.408 C 
ATOM     10  O   UNL     1       5.268   1.786   5.033  1.00  0.00    -0.225 OA
ATOM     11  H   UNL     1       3.365   0.980   6.197  1.00  0.00     0.167 HD
BRANCH   9  12
ATOM     12  O   UNL     1       3.997   1.421   3.154  1.00  0.00    -0.444 OA
BRANCH  12  13
ATOM     13  C   UNL     1       5.045   1.856   2.245  1.00  0.00     0.106 C 
ATOM     14  C   UNL     1       4.445   1.681   0.843  1.00  0.00     0.056 C 
ATOM     15  C   UNL     1       6.295   0.969   2.351  1.00  0.00     0.056 C 
ATOM     16  C   UNL     1       5.384   3.338   2.451  1.00  0.00     0.056 C 
ENDBRANCH  12  13
ENDBRANCH   9  12
ENDBRANCH   7   8
BRANCH   7  17
ATOM     17  C   UNL     1       0.976   1.493   4.119  1.00  0.00     0.070 C 
BRANCH  17  18
ATOM     18  C   UNL     1      -0.515   1.199   4.135  1.00  0.00    -0.045 A 
ATOM     19  C   UNL     1      -1.186   0.515   3.126  1.00  0.00     0.004 A 
ATOM     20  C   UNL     1      -1.278   1.629   5.222  1.00  0.00     0.004 A 
ATOM     21  C   UNL     1      -2.573   0.277   3.232  1.00  0.00     0.010 A 
ATOM     22  C   UNL     1      -2.643   1.383   5.345  1.00  0.00     0.010 A 
ATOM     23  C   UNL     1      -3.320   0.696   4.343  1.00  0.00     0.038 A 
BRANCH  23  24
ATOM     24  N   UNL     1      -4.701   0.411   4.367  1.00  0.00    -0.061 NA
ATOM     25  N   UNL     1      -5.298   0.698   5.424  1.00  0.00     0.005 N 
ATOM     26  N   UNL     1      -5.844   0.963   6.389  1.00  0.00    -0.003 NA
ENDBRANCH  23  24
ENDBRANCH  17  18
ENDBRANCH   7  17
ENDBRANCH   4   7
ENDBRANCH   2   3
ENDBRANCH   1   2
BRANCH   1  27
ATOM     27  C   UNL     1      -0.432   2.346   9.143  1.00  0.00     0.023 C 
BRANCH  27  28
ATOM     28  C   UNL     1       0.300   2.102  10.451  1.00  0.00     0.116 C 
BRANCH  28  29
ATOM     29  N   UNL     1       0.846   3.348  10.973  1.00  0.00    -0.352 N 
ATOM     30  C   UNL     1       0.548   4.000  12.137  1.00  0.00     0.251 C 
ATOM     31  H   UNL     1       1.525   3.782  10.407  1.00  0.00     0.163 HD
ATOM     32  O   UNL     1       0.814   5.191  12.264  1.00  0.00    -0.269 OA
BRANCH  30  33
ATOM     33  C   UNL     1      -0.064   3.248  13.244  1.00  0.00     0.039 A 
ATOM     34  C   UNL     1      -0.975   3.889  14.083  1.00  0.00     0.014 A 
ATOM     35  C   UNL     1       0.307   1.921  13.477  1.00  0.00     0.014 A 
ATOM     36  C   UNL     1      -1.517   3.188  15.157  1.00  0.00     0.010 A 
ATOM     37  C   UNL     1      -0.323   1.190  14.468  1.00  0.00     0.010 A 
ATOM     38  C   UNL     1      -1.200   1.832  15.349  1.00  0.00    -0.014 A 
BRANCH  38  39
ATOM     39  C   UNL     1      -1.718   1.088  16.517  1.00  0.00     0.031 A 
ATOM     40  C   UNL     1      -0.757   0.547  17.540  1.00  0.00     0.074 A 
ATOM     41  C   UNL     1      -3.041   0.881  16.632  1.00  0.00     0.049 A 
ATOM     42  N   UNL     1      -1.005  -0.134  18.629  1.00  0.00    -0.248 NA
ATOM     43  C   UNL     1       0.678   0.767  17.290  1.00  0.00     0.031 C 
ATOM     44  C   UNL     1      -4.052   1.311  15.663  1.00  0.00     0.029 A 
ATOM     45  N   UNL     1      -3.763   0.262  17.616  1.00  0.00    -0.354 N 
ATOM     46  C   UNL     1       0.236  -0.427  19.180  1.00  0.00     0.074 A 
ATOM     47  C   UNL     1       1.237   0.072  18.267  1.00  0.00     0.031 C 
ATOM     48  C   UNL     1      -5.268   0.983  16.125  1.00  0.00     0.029 A 
ATOM     49  C   UNL     1      -5.118   0.287  17.399  1.00  0.00     0.049 A 
ATOM     50  H   UNL     1      -3.351  -0.160  18.404  1.00  0.00     0.167 HD
ATOM     51  C   UNL     1       0.514  -1.027  20.361  1.00  0.00     0.037 A 
ATOM     52  C   UNL     1      -6.122  -0.197  18.152  1.00  0.00     0.037 A 
ATOM     53  C   UNL     1      -0.496  -1.500  21.270  1.00  0.00     0.049 A 
ATOM     54  C   UNL     1      -5.786  -0.857  19.462  1.00  0.00     0.074 A 
ATOM     55  C   UNL     1      -0.336  -2.080  22.514  1.00  0.00     0.029 A 
ATOM     56  N   UNL     1      -1.861  -1.446  21.024  1.00  0.00    -0.354 N 
ATOM     57  N   UNL     1      -4.613  -1.064  20.012  1.00  0.00    -0.248 NA
ATOM     58  C   UNL     1      -6.918  -1.334  20.265  1.00  0.00     0.031 C 
ATOM     59  C   UNL     1      -1.601  -2.432  22.996  1.00  0.00     0.029 A 
ATOM     60  C   UNL     1      -2.555  -2.003  22.086  1.00  0.00     0.049 A 
ATOM     61  H   UNL     1      -2.276  -1.069  20.215  1.00  0.00     0.167 HD
ATOM     62  C   UNL     1      -4.866  -1.660  21.240  1.00  0.00     0.074 A 
ATOM     63  C   UNL     1      -6.307  -1.761  21.359  1.00  0.00     0.031 C 
ATOM     64  C   UNL     1      -3.990  -2.086  22.185  1.00  0.00     0.037 A 
BRANCH  51  65
ATOM     65  C   UNL     1       1.960  -1.201  20.729  1.00  0.00     0.064 A 
ATOM     66  C   UNL     1       2.792  -0.103  21.005  1.00  0.00     0.173 A 
ATOM     67  C   UNL     1       2.522  -2.483  20.825  1.00  0.00     0.173 A 
ATOM     68  F   UNL     1       2.313   1.148  20.913  1.00  0.00    -0.203 F 
ATOM     69  C   UNL     1       4.136  -0.280  21.325  1.00  0.00     0.198 A 
ATOM     70  C   UNL     1       3.856  -2.659  21.183  1.00  0.00     0.198 A 
ATOM     71  F   UNL     1       1.776  -3.569  20.573  1.00  0.00    -0.203 F 
ATOM     72  F   UNL     1       4.923   0.787  21.520  1.00  0.00    -0.200 F 
ATOM     73  C   UNL     1       4.665  -1.558  21.422  1.00  0.00     0.200 A 
ATOM     74  F   UNL     1       4.362  -3.895  21.290  1.00  0.00    -0.200 F 
ATOM     75  F   UNL     1       5.956  -1.728  21.738  1.00  0.00    -0.200 F 
ENDBRANCH  51  65
BRANCH  52  76
ATOM     76  C   UNL     1      -7.531  -0.038  17.707  1.00  0.00     0.064 A 
ATOM     77  C   UNL     1      -8.420   0.790  18.407  1.00  0.00     0.173 A 
ATOM     78  C   UNL     1      -8.020  -0.714  16.580  1.00  0.00     0.173 A 
ATOM     79  F   UNL     1      -8.004   1.450  19.498  1.00  0.00    -0.203 F 
ATOM     80  C   UNL     1      -9.753   0.908  18.017  1.00  0.00     0.198 A 
ATOM     81  C   UNL     1      -9.344  -0.568  16.171  1.00  0.00     0.198 A 
ATOM     82  F   UNL     1      -7.208  -1.508  15.867  1.00  0.00    -0.203 F 
ATOM     83  F   UNL     1     -10.595   1.660  18.739  1.00  0.00    -0.200 F 
ATOM     84  C   UNL     1     -10.212   0.233  16.897  1.00  0.00     0.200 A 
ATOM     85  F   UNL     1      -9.778  -1.206  15.076  1.00  0.00    -0.200 F 
ATOM     86  F   UNL     1     -11.493   0.347  16.522  1.00  0.00    -0.200 F 
ENDBRANCH  52  76
BRANCH  64  87
ATOM     87  C   UNL     1      -4.573  -2.647  23.451  1.00  0.00     0.064 A 
ATOM     88  C   UNL     1      -5.275  -3.862  23.473  1.00  0.00     0.173 A 
ATOM     89  C   UNL     1      -4.417  -1.958  24.664  1.00  0.00     0.173 A 
ATOM     90  F   UNL     1      -5.461  -4.556  22.340  1.00  0.00    -0.203 F 
ATOM     91  C   UNL     1      -5.842  -4.339  24.651  1.00  0.00     0.198 A 
ATOM     92  C   UNL     1      -4.949  -2.460  25.848  1.00  0.00     0.198 A 
ATOM     93  F   UNL     1      -3.744  -0.799  24.703  1.00  0.00    -0.203 F 
ATOM     94  F   UNL     1      -6.574  -5.462  24.633  1.00  0.00    -0.200 F 
ATOM     95  C   UNL     1      -5.674  -3.641  25.838  1.00  0.00     0.200 A 
ATOM     96  F   UNL     1      -4.766  -1.795  26.997  1.00  0.00    -0.200 F 
ATOM     97  F   UNL     1      -6.222  -4.102  26.971  1.00  0.00    -0.200 F 
ENDBRANCH  64  87
ENDBRANCH  38  39
ENDBRANCH  30  33
ENDBRANCH  28  29
ENDBRANCH  27  28
ENDBRANCH   1  27
TORSDOF 17
