REMARK SMILES Cc1cc(C)n(C)c(=O)c1C(=O)N1CCC2(CC1)C[NH2+][C@@H](C(=O)NCCCCNC(=O)c1ccc(-c3c4nc(c(-c5c(F)c(F)c(F)c(F)c5F)c5ccc([nH]5)c(-c5c(F)c(F)c(F)c(F)c5F)c5nc(c(-c6c(F)c(F)c(F)c(F)c6F)c6ccc3[nH]6)C=C5)C=C4)cc1)C2
REMARK SMILES IDX 27 1 26 2 25 3 24 4 22 5 23 6 21 8 11 9 12 10 13 11 14 12
REMARK SMILES IDX 18 13 15 14 17 15 16 16 19 17 95 18 20 19 10 22 1 23 2 24
REMARK SMILES IDX 3 25 4 26 8 27 5 28 6 29 9 30 7 31 28 32 29 33 30 34 31 36
REMARK SMILES IDX 32 37 33 38 94 39 34 40 93 41 35 42 36 43 37 44 87 45 38 46
REMARK SMILES IDX 92 47 86 48 88 49 39 50 91 51 85 52 84 53 40 55 72 56 52 57
REMARK SMILES IDX 71 58 53 59 56 60 70 61 89 62 54 63 55 64 69 66 90 67 57 68
REMARK SMILES IDX 41 69 42 70 50 71 43 72 44 73 48 74 51 75 45 76 46 77 49 78
REMARK SMILES IDX 47 79 73 80 74 81 82 82 75 83 76 84 80 85 83 86 77 87 78 88
REMARK SMILES IDX 81 89 79 90 58 91 59 92 67 93 60 94 61 95 65 96 68 97 62 98
REMARK SMILES IDX 63 99 66 100 64 101
REMARK H PARENT 24 7 20 20 20 21 29 35 88 54 56 65
REMARK Flexibility Score: inf
ROOT
ATOM      1  C   UNL     1       6.501  -3.696   3.791  1.00  0.00     0.023 C 
ENDROOT
BRANCH   1   2
ATOM      2  C   UNL     1       5.172  -3.123   3.308  1.00  0.00     0.023 C 
BRANCH   2   3
ATOM      3  C   UNL     1       3.939  -3.800   3.898  1.00  0.00     0.116 C 
BRANCH   3   4
ATOM      4  N   UNL     1       3.823  -3.572   5.325  1.00  0.00    -0.351 N 
ATOM      5  C   UNL     1       2.882  -2.880   6.031  1.00  0.00     0.278 C 
ATOM      6  O   UNL     1       2.994  -2.860   7.261  1.00  0.00    -0.268 OA
ATOM      7  H   UNL     1       4.535  -3.979   5.870  1.00  0.00     0.163 HD
BRANCH   5   8
ATOM      8  C   UNL     1       1.737  -2.123   5.344  1.00  0.00     0.273 C 
ATOM      9  C   UNL     1       1.524   2.375   0.475  1.00  0.00     0.259 C 
ATOM     10  O   UNL     1       1.997   3.458   0.813  1.00  0.00    -0.269 OA
ATOM     11  N   UNL     1       1.510   1.341   1.400  1.00  0.00    -0.338 N 
ATOM     12  C   UNL     1       1.034   1.670   2.731  1.00  0.00     0.120 C 
ATOM     13  C   UNL     1       2.589   0.369   1.415  1.00  0.00     0.120 C 
ATOM     14  C   UNL     1       0.360   0.445   3.316  1.00  0.00     0.034 C 
ATOM     15  C   UNL     1       2.131  -0.952   2.043  1.00  0.00     0.034 C 
ATOM     16  C   UNL     1       1.260  -0.814   3.330  1.00  0.00     0.029 C 
ATOM     17  C   UNL     1       0.324  -2.035   3.506  1.00  0.00     0.268 C 
ATOM     18  C   UNL     1       2.166  -0.868   4.585  1.00  0.00     0.088 C 
ATOM     19  N   UNL     1       1.047  -2.967   4.353  1.00  0.00    -0.336 N 
ATOM     20  H   UNL     1       1.722  -3.500   3.804  1.00  0.00     0.346 HD
ATOM     21  H   UNL     1       0.426  -3.646   4.792  1.00  0.00     0.346 HD
BRANCH   9  22
ATOM     22  C   UNL     1       0.819   2.160  -0.862  1.00  0.00     0.108 A 
ATOM     23  C   UNL     1       0.220  -0.330  -0.630  1.00  0.00     0.045 C 
ATOM     24  C   UNL     1       0.283   1.000  -1.320  1.00  0.00    -0.031 A 
ATOM     25  C   UNL     1      -0.363   0.935  -2.618  1.00  0.00     0.026 A 
ATOM     26  C   UNL     1      -0.580   2.018  -3.370  1.00  0.00     0.018 A 
ATOM     27  C   UNL     1       0.643   3.389  -1.753  1.00  0.00     0.263 A 
ATOM     28  C   UNL     1      -1.320   1.857  -4.671  1.00  0.00     0.064 C 
ATOM     29  N   UNL     1      -0.111   3.246  -2.933  1.00  0.00    -0.315 N 
ATOM     30  O   UNL     1       1.125   4.478  -1.444  1.00  0.00    -0.268 OA
ATOM     31  C   UNL     1      -0.367   4.450  -3.716  1.00  0.00     0.153 C 
ENDBRANCH   9  22
ENDBRANCH   5   8
ENDBRANCH   3   4
ENDBRANCH   2   3
ENDBRANCH   1   2
BRANCH   1  32
ATOM     32  C   UNL     1       6.661  -5.197   3.594  1.00  0.00     0.116 C 
BRANCH  32  33
ATOM     33  N   UNL     1       6.549  -5.612   2.203  1.00  0.00    -0.352 N 
ATOM     34  C   UNL     1       7.314  -6.533   1.526  1.00  0.00     0.251 C 
ATOM     35  H   UNL     1       5.836  -5.178   1.681  1.00  0.00     0.163 HD
ATOM     36  O   UNL     1       7.173  -6.710   0.325  1.00  0.00    -0.269 OA
BRANCH  34  37
ATOM     37  C   UNL     1       8.346  -7.279   2.275  1.00  0.00     0.039 A 
ATOM     38  C   UNL     1       9.662  -7.255   1.811  1.00  0.00     0.014 A 
ATOM     39  C   UNL     1       8.020  -7.927   3.470  1.00  0.00     0.014 A 
ATOM     40  C   UNL     1      10.671  -7.819   2.591  1.00  0.00     0.010 A 
ATOM     41  C   UNL     1       9.036  -8.424   4.278  1.00  0.00     0.010 A 
ATOM     42  C   UNL     1      10.370  -8.369   3.848  1.00  0.00    -0.014 A 
BRANCH  42  43
ATOM     43  C   UNL     1      11.444  -8.886   4.730  1.00  0.00     0.031 A 
ATOM     44  C   UNL     1      11.515 -10.351   5.047  1.00  0.00     0.074 A 
ATOM     45  C   UNL     1      12.326  -8.028   5.279  1.00  0.00     0.049 A 
ATOM     46  N   UNL     1      12.360 -10.990   5.815  1.00  0.00    -0.248 NA
ATOM     47  C   UNL     1      10.486 -11.211   4.440  1.00  0.00     0.031 C 
ATOM     48  C   UNL     1      12.329  -6.578   5.081  1.00  0.00     0.029 A 
ATOM     49  N   UNL     1      13.392  -8.252   6.113  1.00  0.00    -0.354 N 
ATOM     50  C   UNL     1      11.965 -12.319   5.784  1.00  0.00     0.074 A 
ATOM     51  C   UNL     1      10.770 -12.390   4.973  1.00  0.00     0.031 C 
ATOM     52  C   UNL     1      13.370  -6.047   5.742  1.00  0.00     0.029 A 
ATOM     53  C   UNL     1      14.089  -7.113   6.434  1.00  0.00     0.049 A 
ATOM     54  H   UNL     1      13.635  -9.145   6.450  1.00  0.00     0.167 HD
ATOM     55  C   UNL     1      12.565 -13.390   6.354  1.00  0.00     0.037 A 
ATOM     56  C   UNL     1      15.189  -6.951   7.194  1.00  0.00     0.037 A 
ATOM     57  C   UNL     1      13.767 -13.320   7.139  1.00  0.00     0.049 A 
ATOM     58  C   UNL     1      15.828  -8.155   7.829  1.00  0.00     0.074 A 
ATOM     59  C   UNL     1      14.476 -14.355   7.723  1.00  0.00     0.029 A 
ATOM     60  N   UNL     1      14.440 -12.148   7.447  1.00  0.00    -0.354 N 
ATOM     61  N   UNL     1      15.477  -9.415   7.747  1.00  0.00    -0.248 NA
ATOM     62  C   UNL     1      17.016  -7.915   8.662  1.00  0.00     0.031 C 
ATOM     63  C   UNL     1      15.561 -13.805   8.412  1.00  0.00     0.029 A 
ATOM     64  C   UNL     1      15.549 -12.432   8.226  1.00  0.00     0.049 A 
ATOM     65  H   UNL     1      14.170 -11.247   7.156  1.00  0.00     0.167 HD
ATOM     66  C   UNL     1      16.410 -10.120   8.494  1.00  0.00     0.074 A 
ATOM     67  C   UNL     1      17.350  -9.149   9.016  1.00  0.00     0.031 C 
ATOM     68  C   UNL     1      16.479 -11.453   8.727  1.00  0.00     0.037 A 
BRANCH  55  69
ATOM     69  C   UNL     1      11.944 -14.735   6.125  1.00  0.00     0.064 A 
ATOM     70  C   UNL     1      12.012 -15.364   4.873  1.00  0.00     0.173 A 
ATOM     71  C   UNL     1      11.316 -15.421   7.174  1.00  0.00     0.173 A 
ATOM     72  F   UNL     1      12.591 -14.741   3.836  1.00  0.00    -0.203 F 
ATOM     73  C   UNL     1      11.457 -16.625   4.675  1.00  0.00     0.198 A 
ATOM     74  C   UNL     1      10.784 -16.693   6.979  1.00  0.00     0.198 A 
ATOM     75  F   UNL     1      11.227 -14.864   8.391  1.00  0.00    -0.203 F 
ATOM     76  F   UNL     1      11.500 -17.190   3.460  1.00  0.00    -0.200 F 
ATOM     77  C   UNL     1      10.851 -17.292   5.729  1.00  0.00     0.200 A 
ATOM     78  F   UNL     1      10.208 -17.342   8.000  1.00  0.00    -0.200 F 
ATOM     79  F   UNL     1      10.326 -18.510   5.539  1.00  0.00    -0.200 F 
ENDBRANCH  55  69
BRANCH  56  80
ATOM     80  C   UNL     1      15.785  -5.599   7.348  1.00  0.00     0.064 A 
ATOM     81  C   UNL     1      16.991  -5.276   6.709  1.00  0.00     0.173 A 
ATOM     82  C   UNL     1      15.160  -4.602   8.109  1.00  0.00     0.173 A 
ATOM     83  F   UNL     1      17.634  -6.204   5.986  1.00  0.00    -0.203 F 
ATOM     84  C   UNL     1      17.553  -4.007   6.833  1.00  0.00     0.198 A 
ATOM     85  C   UNL     1      15.712  -3.327   8.214  1.00  0.00     0.198 A 
ATOM     86  F   UNL     1      14.003  -4.862   8.735  1.00  0.00    -0.203 F 
ATOM     87  F   UNL     1      18.721  -3.733   6.236  1.00  0.00    -0.200 F 
ATOM     88  C   UNL     1      16.910  -3.032   7.580  1.00  0.00     0.200 A 
ATOM     89  F   UNL     1      15.082  -2.383   8.927  1.00  0.00    -0.200 F 
ATOM     90  F   UNL     1      17.446  -1.809   7.691  1.00  0.00    -0.200 F 
ENDBRANCH  56  80
BRANCH  68  91
ATOM     91  C   UNL     1      17.617 -11.954   9.565  1.00  0.00     0.064 A 
ATOM     92  C   UNL     1      17.624 -11.790  10.956  1.00  0.00     0.173 A 
ATOM     93  C   UNL     1      18.662 -12.683   8.979  1.00  0.00     0.173 A 
ATOM     94  F   UNL     1      16.652 -11.089  11.559  1.00  0.00    -0.203 F 
ATOM     95  C   UNL     1      18.643 -12.334  11.733  1.00  0.00     0.198 A 
ATOM     96  C   UNL     1      19.667 -13.245   9.761  1.00  0.00     0.198 A 
ATOM     97  F   UNL     1      18.693 -12.873   7.651  1.00  0.00    -0.203 F 
ATOM     98  F   UNL     1      18.645 -12.146  13.060  1.00  0.00    -0.200 F 
ATOM     99  C   UNL     1      19.657 -13.069  11.136  1.00  0.00     0.200 A 
ATOM    100  F   UNL     1      20.638 -13.967   9.184  1.00  0.00    -0.200 F 
ATOM    101  F   UNL     1      20.626 -13.609  11.888  1.00  0.00    -0.200 F 
ENDBRANCH  68  91
ENDBRANCH  42  43
ENDBRANCH  34  37
ENDBRANCH  32  33
ENDBRANCH   1  32
TORSDOF 12
