REMARK SMILES Cc1ccc(N2C(=O)/C(=C3\C(=O)N(CC(=O)NCCCCNC(=O)c4ccc(-c5c6nc(c(-c7c(F)c(F)c(F)c(F)c7F)c7ccc([nH]7)c(-c7c(F)c(F)c(F)c(F)c7F)c7nc(c(-c8c(F)c(F)c(F)c(F)c8F)c8ccc5[nH]8)C=C7)C=C6)cc4)c4ccccc43)SC2=S)c(C)c1
REMARK SMILES IDX 19 1 18 2 17 3 15 4 16 5 14 7 13 8 6 9 7 10 95 11 8 12 9 13
REMARK SMILES IDX 94 14 96 15 10 16 11 17 93 18 12 19 88 20 92 21 89 22 91 23
REMARK SMILES IDX 90 24 5 25 1 26 2 27 3 28 99 29 4 30 97 31 98 32 20 33 21 34
REMARK SMILES IDX 22 35 23 36 24 38 25 39 26 40 87 41 27 42 86 43 28 44 29 45
REMARK SMILES IDX 30 46 80 47 31 48 85 49 79 50 81 51 32 52 84 53 78 54 77 55
REMARK SMILES IDX 33 57 65 58 45 59 64 60 46 61 49 62 63 63 82 64 47 65 48 66
REMARK SMILES IDX 62 68 83 69 50 70 34 71 35 72 43 73 36 74 37 75 41 76 44 77
REMARK SMILES IDX 38 78 39 79 42 80 40 81 66 82 67 83 75 84 68 85 69 86 73 87
REMARK SMILES IDX 76 88 70 89 71 90 74 91 72 92 51 93 52 94 60 95 53 96 54 97
REMARK SMILES IDX 58 98 61 99 55 100 56 101 59 102 57 103
REMARK H PARENT 17 6 22 37 81 56 49 67
REMARK Flexibility Score: inf
ROOT
ATOM      1  C   UNL     1      -8.222  -2.635  -3.251  1.00  0.00     0.023 C 
ENDROOT
BRANCH   1   2
ATOM      2  C   UNL     1      -8.535  -1.232  -3.766  1.00  0.00     0.116 C 
BRANCH   2   3
ATOM      3  N   UNL     1      -9.749  -0.702  -3.180  1.00  0.00    -0.355 N 
ATOM      4  C   UNL     1      -9.879   0.213  -2.175  1.00  0.00     0.240 C 
ATOM      5  O   UNL     1     -11.018   0.565  -1.855  1.00  0.00    -0.273 OA
ATOM      6  H   UNL     1     -10.591  -1.046  -3.556  1.00  0.00     0.163 HD
BRANCH   4   7
ATOM      7  C   UNL     1      -8.643   0.833  -1.514  1.00  0.00     0.225 C 
BRANCH   7   8
ATOM      8  N   UNL     1      -7.802  -0.122  -0.819  1.00  0.00    -0.298 N 
ATOM      9  N   UNL     1      -2.474  -1.797  -0.014  1.00  0.00    -0.261 N 
ATOM     10  C   UNL     1      -3.559  -1.522  -0.852  1.00  0.00     0.271 C 
ATOM     11  C   UNL     1      -2.680  -2.796   0.925  1.00  0.00     0.152 C 
ATOM     12  O   UNL     1      -3.508  -1.030  -1.967  1.00  0.00    -0.268 OA
ATOM     13  C   UNL     1      -4.803  -2.030  -0.193  1.00  0.00     0.094 C 
ATOM     14  S   UNL     1      -4.328  -3.384   0.773  1.00  0.00    -0.053 SA
ATOM     15  S   UNL     1      -1.709  -3.364   2.162  1.00  0.00    -0.051 S 
ATOM     16  C   UNL     1      -6.018  -1.455  -0.194  1.00  0.00     0.069 C 
ATOM     17  C   UNL     1      -6.457  -0.334  -1.108  1.00  0.00     0.260 C 
ATOM     18  C   UNL     1      -7.173  -1.732   0.693  1.00  0.00     0.012 A 
ATOM     19  O   UNL     1      -5.800   0.260  -1.941  1.00  0.00    -0.269 OA
ATOM     20  C   UNL     1      -8.217  -0.901   0.269  1.00  0.00     0.053 A 
ATOM     21  C   UNL     1      -7.338  -2.500   1.839  1.00  0.00     0.011 A 
ATOM     22  C   UNL     1      -9.440  -0.859   0.923  1.00  0.00     0.027 A 
ATOM     23  C   UNL     1      -8.558  -2.455   2.520  1.00  0.00     0.001 A 
ATOM     24  C   UNL     1      -9.604  -1.648   2.060  1.00  0.00     0.002 A 
BRANCH   9  25
ATOM     25  C   UNL     1      -1.257  -1.061  -0.137  1.00  0.00     0.054 A 
ATOM     26  C   UNL     1       2.506   1.078  -0.051  1.00  0.00     0.044 C 
ATOM     27  C   UNL     1       1.211   0.325  -0.121  1.00  0.00    -0.051 A 
ATOM     28  C   UNL     1       1.187  -1.066  -0.169  1.00  0.00     0.005 A 
ATOM     29  C   UNL     1      -0.002   1.022  -0.120  1.00  0.00     0.009 A 
ATOM     30  C   UNL     1      -0.032  -1.748  -0.188  1.00  0.00     0.027 A 
ATOM     31  C   UNL     1      -1.242   0.352  -0.112  1.00  0.00    -0.027 A 
ATOM     32  C   UNL     1      -2.469   1.222  -0.026  1.00  0.00     0.046 C 
ENDBRANCH   9  25
ENDBRANCH   7   8
ENDBRANCH   4   7
ENDBRANCH   2   3
ENDBRANCH   1   2
BRANCH   1  33
ATOM     33  C   UNL     1      -9.216  -3.709  -3.690  1.00  0.00     0.023 C 
BRANCH  33  34
ATOM     34  C   UNL     1      -9.386  -3.853  -5.196  1.00  0.00     0.116 C 
BRANCH  34  35
ATOM     35  N   UNL     1      -8.155  -4.209  -5.888  1.00  0.00    -0.352 N 
ATOM     36  C   UNL     1      -7.944  -5.191  -6.830  1.00  0.00     0.251 C 
ATOM     37  H   UNL     1      -7.364  -3.674  -5.649  1.00  0.00     0.163 HD
ATOM     38  O   UNL     1      -6.813  -5.441  -7.231  1.00  0.00    -0.269 OA
BRANCH  36  39
ATOM     39  C   UNL     1      -9.095  -5.981  -7.317  1.00  0.00     0.039 A 
ATOM     40  C   UNL     1     -10.287  -5.348  -7.666  1.00  0.00     0.014 A 
ATOM     41  C   UNL     1      -9.000  -7.374  -7.350  1.00  0.00     0.014 A 
ATOM     42  C   UNL     1     -11.437  -6.106  -7.842  1.00  0.00     0.010 A 
ATOM     43  C   UNL     1     -10.136  -8.136  -7.633  1.00  0.00     0.010 A 
ATOM     44  C   UNL     1     -11.379  -7.510  -7.819  1.00  0.00    -0.014 A 
BRANCH  44  45
ATOM     45  C   UNL     1     -12.631  -8.296  -7.975  1.00  0.00     0.031 A 
ATOM     46  C   UNL     1     -13.124  -9.190  -6.868  1.00  0.00     0.074 A 
ATOM     47  C   UNL     1     -13.357  -8.159  -9.101  1.00  0.00     0.049 A 
ATOM     48  N   UNL     1     -14.194  -9.947  -6.831  1.00  0.00    -0.248 NA
ATOM     49  C   UNL     1     -12.314  -9.248  -5.641  1.00  0.00     0.031 C 
ATOM     50  C   UNL     1     -12.995  -7.307 -10.235  1.00  0.00     0.029 A 
ATOM     51  N   UNL     1     -14.557  -8.711  -9.471  1.00  0.00    -0.354 N 
ATOM     52  C   UNL     1     -14.175 -10.577  -5.593  1.00  0.00     0.074 A 
ATOM     53  C   UNL     1     -12.970 -10.146  -4.919  1.00  0.00     0.031 C 
ATOM     54  C   UNL     1     -13.975  -7.351 -11.148  1.00  0.00     0.029 A 
ATOM     55  C   UNL     1     -14.997  -8.292 -10.702  1.00  0.00     0.049 A 
ATOM     56  H   UNL     1     -15.055  -9.347  -8.907  1.00  0.00     0.167 HD
ATOM     57  C   UNL     1     -15.091 -11.423  -5.062  1.00  0.00     0.037 A 
ATOM     58  C   UNL     1     -16.090  -8.640 -11.407  1.00  0.00     0.037 A 
ATOM     59  C   UNL     1     -16.300 -11.833  -5.730  1.00  0.00     0.049 A 
ATOM     60  C   UNL     1     -17.052  -9.634 -10.822  1.00  0.00     0.074 A 
ATOM     61  C   UNL     1     -17.297 -12.674  -5.265  1.00  0.00     0.029 A 
ATOM     62  N   UNL     1     -16.677 -11.434  -7.004  1.00  0.00    -0.354 N 
ATOM     63  N   UNL     1     -17.028 -10.213  -9.646  1.00  0.00    -0.248 NA
ATOM     64  C   UNL     1     -18.190 -10.028 -11.663  1.00  0.00     0.031 C 
ATOM     65  C   UNL     1     -18.246 -12.829  -6.278  1.00  0.00     0.029 A 
ATOM     66  C   UNL     1     -17.877 -12.035  -7.351  1.00  0.00     0.049 A 
ATOM     67  H   UNL     1     -16.168 -10.816  -7.577  1.00  0.00     0.167 HD
ATOM     68  C   UNL     1     -18.154 -11.023  -9.598  1.00  0.00     0.074 A 
ATOM     69  C   UNL     1     -18.851 -10.844 -10.854  1.00  0.00     0.031 C 
ATOM     70  C   UNL     1     -18.567 -11.845  -8.602  1.00  0.00     0.037 A 
BRANCH  57  71
ATOM     71  C   UNL     1     -14.831 -11.974  -3.688  1.00  0.00     0.064 A 
ATOM     72  C   UNL     1     -14.918 -11.168  -2.542  1.00  0.00     0.173 A 
ATOM     73  C   UNL     1     -14.576 -13.343  -3.506  1.00  0.00     0.173 A 
ATOM     74  F   UNL     1     -15.150  -9.852  -2.658  1.00  0.00    -0.203 F 
ATOM     75  C   UNL     1     -14.746 -11.709  -1.270  1.00  0.00     0.198 A 
ATOM     76  C   UNL     1     -14.436 -13.885  -2.231  1.00  0.00     0.198 A 
ATOM     77  F   UNL     1     -14.491 -14.161  -4.566  1.00  0.00    -0.203 F 
ATOM     78  F   UNL     1     -14.800 -10.913  -0.193  1.00  0.00    -0.200 F 
ATOM     79  C   UNL     1     -14.517 -13.068  -1.115  1.00  0.00     0.200 A 
ATOM     80  F   UNL     1     -14.233 -15.202  -2.083  1.00  0.00    -0.200 F 
ATOM     81  F   UNL     1     -14.373 -13.589   0.111  1.00  0.00    -0.200 F 
ENDBRANCH  57  71
BRANCH  58  82
ATOM     82  C   UNL     1     -16.323  -8.034 -12.744  1.00  0.00     0.064 A 
ATOM     83  C   UNL     1     -17.391  -7.154 -12.959  1.00  0.00     0.173 A 
ATOM     84  C   UNL     1     -15.466  -8.297 -13.825  1.00  0.00     0.173 A 
ATOM     85  F   UNL     1     -18.249  -6.886 -11.964  1.00  0.00    -0.203 F 
ATOM     86  C   UNL     1     -17.597  -6.564 -14.205  1.00  0.00     0.198 A 
ATOM     87  C   UNL     1     -15.653  -7.681 -15.059  1.00  0.00     0.198 A 
ATOM     88  F   UNL     1     -14.426  -9.130 -13.670  1.00  0.00    -0.203 F 
ATOM     89  F   UNL     1     -18.647  -5.753 -14.393  1.00  0.00    -0.200 F 
ATOM     90  C   UNL     1     -16.722  -6.820 -15.250  1.00  0.00     0.200 A 
ATOM     91  F   UNL     1     -14.793  -7.915 -16.059  1.00  0.00    -0.200 F 
ATOM     92  F   UNL     1     -16.911  -6.238 -16.442  1.00  0.00    -0.200 F 
ENDBRANCH  58  82
BRANCH  70  93
ATOM     93  C   UNL     1     -19.846 -12.604  -8.812  1.00  0.00     0.064 A 
ATOM     94  C   UNL     1     -19.928 -13.669  -9.720  1.00  0.00     0.173 A 
ATOM     95  C   UNL     1     -20.982 -12.309  -8.041  1.00  0.00     0.173 A 
ATOM     96  F   UNL     1     -18.875 -13.982 -10.490  1.00  0.00    -0.203 F 
ATOM     97  C   UNL     1     -21.104 -14.401  -9.861  1.00  0.00     0.198 A 
ATOM     98  C   UNL     1     -22.145 -13.064  -8.160  1.00  0.00     0.198 A 
ATOM     99  F   UNL     1     -20.954 -11.305  -7.152  1.00  0.00    -0.203 F 
ATOM    100  F   UNL     1     -21.172 -15.389 -10.763  1.00  0.00    -0.200 F 
ATOM    101  C   UNL     1     -22.207 -14.106  -9.073  1.00  0.00     0.200 A 
ATOM    102  F   UNL     1     -23.203 -12.789  -7.384  1.00  0.00    -0.200 F 
ATOM    103  F   UNL     1     -23.331 -14.825  -9.195  1.00  0.00    -0.200 F 
ENDBRANCH  70  93
ENDBRANCH  44  45
ENDBRANCH  36  39
ENDBRANCH  34  35
ENDBRANCH  33  34
ENDBRANCH   1  33
TORSDOF 13
