REMARK SMILES CC(C)(C)NS(=O)(=O)c1csc(C(=O)Nc2ccccc2C(=O)NCCCCNC(=O)c2ccc(-c3c4nc(c(-c5c(F)c(F)c(F)c(F)c5F)c5ccc([nH]5)c(-c5c(F)c(F)c(F)c(F)c5F)c5nc(c(-c6c(F)c(F)c(F)c(F)c6F)c6ccc3[nH]6)C=C5)C=C4)cc2)c1
REMARK SMILES IDX 25 1 24 2 22 3 23 4 21 6 16 7 17 8 18 9 20 10 19 11 15 12
REMARK SMILES IDX 13 13 14 14 12 16 9 17 10 18 95 19 11 20 6 21 7 22 8 23 5 24
REMARK SMILES IDX 2 26 1 27 3 28 4 29 26 30 27 31 28 32 29 33 30 34 31 36
REMARK SMILES IDX 32 37 33 38 94 39 34 40 93 41 35 42 36 43 37 44 87 45 38 46
REMARK SMILES IDX 92 47 86 48 88 49 39 50 91 51 85 52 84 53 40 55 72 56 52 57
REMARK SMILES IDX 71 58 53 59 56 60 70 61 89 62 54 63 55 64 69 66 90 67 57 68
REMARK SMILES IDX 41 69 42 70 50 71 43 72 44 73 48 74 51 75 45 76 46 77 49 78
REMARK SMILES IDX 47 79 73 80 74 81 82 82 75 83 76 84 80 85 83 86 77 87 78 88
REMARK SMILES IDX 81 89 79 90 58 91 59 92 67 93 60 94 61 95 65 96 68 97 62 98
REMARK SMILES IDX 63 99 66 100 64 101
REMARK H PARENT 24 5 15 15 5 25 29 35 88 54 56 65
REMARK Flexibility Score: inf
ROOT
ATOM      1  C   UNL     1       1.449   5.446  -0.302  1.00  0.00     0.116 C 
ENDROOT
BRANCH   1   2
ATOM      2  N   UNL     1       0.967   4.086  -0.225  1.00  0.00    -0.352 N 
ATOM      3  C   UNL     1       0.781   3.150  -1.207  1.00  0.00     0.253 C 
ATOM      4  O   UNL     1       0.083   2.181  -0.906  1.00  0.00    -0.269 OA
ATOM      5  H   UNL     1       0.732   3.783   0.682  1.00  0.00     0.163 HD
BRANCH   3   6
ATOM      6  C   UNL     1       1.273   3.275  -2.613  1.00  0.00     0.063 A 
ATOM      7  C   UNL     1       2.365   4.024  -3.091  1.00  0.00     0.054 A 
ATOM      8  C   UNL     1       2.506   4.223  -4.476  1.00  0.00     0.027 A 
ATOM      9  C   UNL     1       1.714   3.524  -5.385  1.00  0.00     0.002 A 
ATOM     10  C   UNL     1       0.510   2.545  -3.552  1.00  0.00     0.016 A 
ATOM     11  C   UNL     1       0.748   2.644  -4.922  1.00  0.00     0.001 A 
BRANCH   7  12
ATOM     12  N   UNL     1       3.442   4.525  -2.337  1.00  0.00    -0.321 N 
ATOM     13  C   UNL     1       4.206   3.923  -1.350  1.00  0.00     0.265 C 
ATOM     14  O   UNL     1       4.958   4.669  -0.717  1.00  0.00    -0.268 OA
ATOM     15  H   UNL     1       3.694   5.454  -2.545  1.00  0.00     0.170 HD
BRANCH  13  16
ATOM     16  C   UNL     1       4.157   2.482  -1.154  1.00  0.00     0.094 A 
ATOM     17  C   UNL     1       3.723   0.204  -1.384  1.00  0.00     0.093 A 
ATOM     18  C   UNL     1       4.294   0.230  -0.133  1.00  0.00     0.087 A 
ATOM     19  C   UNL     1       3.786   1.473  -2.022  1.00  0.00     0.047 A 
ATOM     20  S   UNL     1       4.703   1.823   0.337  1.00  0.00    -0.137 S 
BRANCH  17  21
ATOM     21  S   UNL     1       2.978  -1.174  -2.113  1.00  0.00     0.241 S 
ATOM     22  O   UNL     1       3.527  -2.316  -1.419  1.00  0.00    -0.207 OA
ATOM     23  O   UNL     1       3.182  -0.975  -3.530  1.00  0.00    -0.207 OA
BRANCH  21  24
ATOM     24  N   UNL     1       1.324  -1.077  -1.872  1.00  0.00    -0.206 NA
ATOM     25  H   UNL     1       1.081  -0.104  -2.060  1.00  0.00     0.141 HD
BRANCH  24  26
ATOM     26  C   UNL     1       0.610  -1.423  -0.616  1.00  0.00     0.025 C 
ATOM     27  C   UNL     1       1.028  -0.544   0.562  1.00  0.00     0.028 C 
ATOM     28  C   UNL     1       0.817  -2.894  -0.251  1.00  0.00     0.028 C 
ATOM     29  C   UNL     1      -0.889  -1.198  -0.899  1.00  0.00     0.028 C 
ENDBRANCH  24  26
ENDBRANCH  21  24
ENDBRANCH  17  21
ENDBRANCH  13  16
ENDBRANCH   7  12
ENDBRANCH   3   6
ENDBRANCH   1   2
BRANCH   1  30
ATOM     30  C   UNL     1       0.814   6.364   0.736  1.00  0.00     0.023 C 
BRANCH  30  31
ATOM     31  C   UNL     1       1.135   6.026   2.195  1.00  0.00     0.023 C 
BRANCH  31  32
ATOM     32  C   UNL     1       2.609   5.796   2.521  1.00  0.00     0.116 C 
BRANCH  32  33
ATOM     33  N   UNL     1       3.455   6.933   2.187  1.00  0.00    -0.352 N 
ATOM     34  C   UNL     1       4.136   7.808   2.997  1.00  0.00     0.251 C 
ATOM     35  H   UNL     1       3.556   7.101   1.222  1.00  0.00     0.163 HD
ATOM     36  O   UNL     1       4.663   8.809   2.519  1.00  0.00    -0.269 OA
BRANCH  34  37
ATOM     37  C   UNL     1       4.211   7.568   4.454  1.00  0.00     0.039 A 
ATOM     38  C   UNL     1       4.002   8.638   5.328  1.00  0.00     0.014 A 
ATOM     39  C   UNL     1       4.489   6.297   4.960  1.00  0.00     0.014 A 
ATOM     40  C   UNL     1       3.987   8.412   6.706  1.00  0.00     0.010 A 
ATOM     41  C   UNL     1       4.375   6.055   6.325  1.00  0.00     0.010 A 
ATOM     42  C   UNL     1       4.125   7.109   7.216  1.00  0.00    -0.014 A 
BRANCH  42  43
ATOM     43  C   UNL     1       4.006   6.839   8.673  1.00  0.00     0.031 A 
ATOM     44  C   UNL     1       5.164   6.256   9.437  1.00  0.00     0.074 A 
ATOM     45  C   UNL     1       2.835   7.069   9.300  1.00  0.00     0.049 A 
ATOM     46  N   UNL     1       5.238   5.921  10.701  1.00  0.00    -0.248 NA
ATOM     47  C   UNL     1       6.393   5.987   8.675  1.00  0.00     0.031 C 
ATOM     48  C   UNL     1       1.620   7.578   8.662  1.00  0.00     0.029 A 
ATOM     49  N   UNL     1       2.472   6.901  10.614  1.00  0.00    -0.354 N 
ATOM     50  C   UNL     1       6.511   5.397  10.880  1.00  0.00     0.074 A 
ATOM     51  C   UNL     1       7.153   5.394   9.584  1.00  0.00     0.031 C 
ATOM     52  C   UNL     1       0.659   7.713   9.588  1.00  0.00     0.029 A 
ATOM     53  C   UNL     1       1.172   7.260  10.877  1.00  0.00     0.049 A 
ATOM     54  H   UNL     1       3.085   6.555  11.302  1.00  0.00     0.167 HD
ATOM     55  C   UNL     1       7.103   4.981  12.025  1.00  0.00     0.037 A 
ATOM     56  C   UNL     1       0.471   7.223  12.027  1.00  0.00     0.037 A 
ATOM     57  C   UNL     1       6.467   5.000  13.317  1.00  0.00     0.049 A 
ATOM     58  C   UNL     1       1.148   6.741  13.283  1.00  0.00     0.074 A 
ATOM     59  C   UNL     1       7.001   4.654  14.546  1.00  0.00     0.029 A 
ATOM     60  N   UNL     1       5.152   5.376  13.545  1.00  0.00    -0.354 N 
ATOM     61  N   UNL     1       2.379   6.324  13.454  1.00  0.00    -0.248 NA
ATOM     62  C   UNL     1       0.337   6.733  14.508  1.00  0.00     0.031 C 
ATOM     63  C   UNL     1       5.992   4.761  15.508  1.00  0.00     0.029 A 
ATOM     64  C   UNL     1       4.848   5.242  14.891  1.00  0.00     0.049 A 
ATOM     65  H   UNL     1       4.526   5.692  12.854  1.00  0.00     0.167 HD
ATOM     66  C   UNL     1       2.500   6.035  14.807  1.00  0.00     0.074 A 
ATOM     67  C   UNL     1       1.223   6.345  15.414  1.00  0.00     0.031 C 
ATOM     68  C   UNL     1       3.572   5.556  15.485  1.00  0.00     0.037 A 
BRANCH  55  69
ATOM     69  C   UNL     1       8.514   4.470  11.934  1.00  0.00     0.064 A 
ATOM     70  C   UNL     1       9.588   5.318  11.620  1.00  0.00     0.173 A 
ATOM     71  C   UNL     1       8.802   3.123  12.198  1.00  0.00     0.173 A 
ATOM     72  F   UNL     1       9.369   6.614  11.350  1.00  0.00    -0.203 F 
ATOM     73  C   UNL     1      10.890   4.830  11.542  1.00  0.00     0.198 A 
ATOM     74  C   UNL     1      10.110   2.646  12.155  1.00  0.00     0.198 A 
ATOM     75  F   UNL     1       7.816   2.268  12.510  1.00  0.00    -0.203 F 
ATOM     76  F   UNL     1      11.890   5.648  11.186  1.00  0.00    -0.200 F 
ATOM     77  C   UNL     1      11.151   3.497  11.817  1.00  0.00     0.200 A 
ATOM     78  F   UNL     1      10.362   1.360  12.438  1.00  0.00    -0.200 F 
ATOM     79  F   UNL     1      12.405   3.030  11.751  1.00  0.00    -0.200 F 
ENDBRANCH  55  69
BRANCH  56  80
ATOM     80  C   UNL     1      -0.947   7.674  12.052  1.00  0.00     0.064 A 
ATOM     81  C   UNL     1      -1.325   8.827  12.753  1.00  0.00     0.173 A 
ATOM     82  C   UNL     1      -1.953   6.955  11.390  1.00  0.00     0.173 A 
ATOM     83  F   UNL     1      -0.404   9.539  13.419  1.00  0.00    -0.203 F 
ATOM     84  C   UNL     1      -2.659   9.228  12.816  1.00  0.00     0.198 A 
ATOM     85  C   UNL     1      -3.281   7.376  11.425  1.00  0.00     0.198 A 
ATOM     86  F   UNL     1      -1.646   5.847  10.700  1.00  0.00    -0.203 F 
ATOM     87  F   UNL     1      -2.999  10.302  13.541  1.00  0.00    -0.200 F 
ATOM     88  C   UNL     1      -3.635   8.506  12.147  1.00  0.00     0.200 A 
ATOM     89  F   UNL     1      -4.218   6.684  10.762  1.00  0.00    -0.200 F 
ATOM     90  F   UNL     1      -4.916   8.893  12.205  1.00  0.00    -0.200 F 
ENDBRANCH  56  80
BRANCH  68  91
ATOM     91  C   UNL     1       3.424   5.374  16.970  1.00  0.00     0.064 A 
ATOM     92  C   UNL     1       2.594   4.384  17.516  1.00  0.00     0.173 A 
ATOM     93  C   UNL     1       4.146   6.186  17.859  1.00  0.00     0.173 A 
ATOM     94  F   UNL     1       1.871   3.589  16.712  1.00  0.00    -0.203 F 
ATOM     95  C   UNL     1       2.464   4.237  18.895  1.00  0.00     0.198 A 
ATOM     96  C   UNL     1       4.044   6.011  19.236  1.00  0.00     0.198 A 
ATOM     97  F   UNL     1       4.962   7.143  17.392  1.00  0.00    -0.203 F 
ATOM     98  F   UNL     1       1.618   3.325  19.393  1.00  0.00    -0.200 F 
ATOM     99  C   UNL     1       3.195   5.045  19.753  1.00  0.00     0.200 A 
ATOM    100  F   UNL     1       4.766   6.780  20.063  1.00  0.00    -0.200 F 
ATOM    101  F   UNL     1       3.074   4.898  21.080  1.00  0.00    -0.200 F 
ENDBRANCH  68  91
ENDBRANCH  42  43
ENDBRANCH  34  37
ENDBRANCH  32  33
ENDBRANCH  31  32
ENDBRANCH  30  31
ENDBRANCH   1  30
TORSDOF 16
