REMARK SMILES O=C(CCCN1C(=O)C(=O)/C(=C(\[O-])c2ccccc2)[C@H]1c1ccc([N+](=O)[O-])cc1)NCCCCNC(=O)c1ccc(-c2c3nc(c(-c4c(F)c(F)c(F)c(F)c4F)c4ccc([nH]4)c(-c4c(F)c(F)c(F)c(F)c4F)c4nc(c(-c5c(F)c(F)c(F)c(F)c5F)c5ccc2[nH]5)C=C4)C=C3)cc1
REMARK SMILES IDX 31 1 30 2 1 3 2 4 3 6 4 7 5 8 6 9 7 10 20 11 8 12 9 13 11 14
REMARK SMILES IDX 10 15 12 16 13 17 21 18 22 19 29 20 23 21 28 22 24 23 25 24
REMARK SMILES IDX 26 25 27 26 14 27 15 28 19 29 16 30 18 31 17 32 32 33 33 34
REMARK SMILES IDX 34 35 35 36 36 37 37 39 38 40 39 41 100 42 40 43 99 44 41 45
REMARK SMILES IDX 42 46 43 47 93 48 44 49 98 50 92 51 94 52 45 53 97 54 91 55
REMARK SMILES IDX 90 56 46 58 78 59 58 60 77 61 59 62 62 63 76 64 95 65 60 66
REMARK SMILES IDX 61 67 75 69 96 70 63 71 47 72 48 73 56 74 49 75 50 76 54 77
REMARK SMILES IDX 57 78 51 79 52 80 55 81 53 82 79 83 80 84 88 85 81 86 82 87
REMARK SMILES IDX 86 88 89 89 83 90 84 91 87 92 85 93 64 94 65 95 73 96 66 97
REMARK SMILES IDX 67 98 71 99 74 100 68 101 69 102 72 103 70 104
REMARK H PARENT 30 5 35 38 94 57 62 68
REMARK Flexibility Score: inf
ROOT
ATOM      1  C   UNL     1       1.756  -2.364   0.639  1.00  0.00     0.116 C 
ENDROOT
BRANCH   1   2
ATOM      2  N   UNL     1       2.492  -1.182   0.231  1.00  0.00    -0.356 N 
ATOM      3  O   UNL     1       0.834   0.318   0.744  1.00  0.00    -0.275 OA
ATOM      4  C   UNL     1       1.965   0.085   0.336  1.00  0.00     0.220 C 
ATOM      5  H   UNL     1       3.400  -1.291  -0.134  1.00  0.00     0.163 HD
BRANCH   4   6
ATOM      6  C   UNL     1       2.916   1.185  -0.087  1.00  0.00     0.102 C 
BRANCH   6   7
ATOM      7  C   UNL     1       3.946   1.520   0.996  1.00  0.00     0.031 C 
BRANCH   7   8
ATOM      8  C   UNL     1       5.195   0.622   1.022  1.00  0.00     0.121 C 
BRANCH   8   9
ATOM      9  N   UNL     1       5.885   0.490  -0.258  1.00  0.00    -0.325 N 
ATOM     10  C   UNL     1       6.216   1.579  -1.039  1.00  0.00     0.295 C 
ATOM     11  C   UNL     1       6.374  -0.782  -0.808  1.00  0.00     0.150 C 
ATOM     12  O   UNL     1       6.107   2.761  -0.796  1.00  0.00    -0.265 OA
ATOM     13  C   UNL     1       6.657   1.015  -2.383  1.00  0.00     0.248 C 
ATOM     14  C   UNL     1       6.638  -0.457  -2.262  1.00  0.00     0.025 C 
ATOM     15  O   UNL     1       6.915   1.644  -3.388  1.00  0.00    -0.283 OA
ATOM     16  C   UNL     1       6.830  -1.235  -3.342  1.00  0.00    -0.092 C 
ATOM     17  O   UNL     1       7.059  -0.741  -4.610  1.00  0.00    -0.872 OA
BRANCH  11  18
ATOM     18  C   UNL     1       7.564  -1.355  -0.031  1.00  0.00    -0.020 A 
ATOM     19  C   UNL     1       8.865  -1.424  -0.569  1.00  0.00     0.013 A 
ATOM     20  C   UNL     1       7.368  -1.894   1.256  1.00  0.00     0.013 A 
ATOM     21  C   UNL     1       9.911  -2.057   0.115  1.00  0.00     0.086 A 
ATOM     22  C   UNL     1       8.419  -2.480   1.971  1.00  0.00     0.086 A 
ATOM     23  C   UNL     1       9.684  -2.583   1.386  1.00  0.00     0.269 A 
BRANCH  23  24
ATOM     24  N   UNL     1      10.771  -3.261   2.105  1.00  0.00     0.062 N 
ATOM     25  O   UNL     1      11.860  -3.375   1.530  1.00  0.00    -0.258 OA
ATOM     26  O   UNL     1      10.520  -3.686   3.243  1.00  0.00    -0.258 OA
ENDBRANCH  23  24
ENDBRANCH  11  18
BRANCH  16  27
ATOM     27  C   UNL     1       6.935  -2.697  -3.274  1.00  0.00    -0.033 A 
ATOM     28  C   UNL     1       8.192  -3.289  -3.450  1.00  0.00     0.007 A 
ATOM     29  C   UNL     1       5.824  -3.516  -3.063  1.00  0.00     0.007 A 
ATOM     30  C   UNL     1       8.342  -4.672  -3.372  1.00  0.00     0.001 A 
ATOM     31  C   UNL     1       5.976  -4.904  -2.979  1.00  0.00     0.001 A 
ATOM     32  C   UNL     1       7.236  -5.480  -3.124  1.00  0.00     0.000 A 
ENDBRANCH  16  27
ENDBRANCH   8   9
ENDBRANCH   7   8
ENDBRANCH   6   7
ENDBRANCH   4   6
ENDBRANCH   1   2
BRANCH   1  33
ATOM     33  C   UNL     1       1.993  -3.553  -0.292  1.00  0.00     0.023 C 
BRANCH  33  34
ATOM     34  C   UNL     1       3.451  -3.995  -0.433  1.00  0.00     0.023 C 
BRANCH  34  35
ATOM     35  C   UNL     1       4.143  -4.479   0.838  1.00  0.00     0.116 C 
BRANCH  35  36
ATOM     36  N   UNL     1       3.676  -5.791   1.242  1.00  0.00    -0.352 N 
ATOM     37  C   UNL     1       4.369  -6.965   1.413  1.00  0.00     0.251 C 
ATOM     38  H   UNL     1       2.710  -5.850   1.422  1.00  0.00     0.163 HD
ATOM     39  O   UNL     1       3.745  -8.015   1.537  1.00  0.00    -0.269 OA
BRANCH  37  40
ATOM     40  C   UNL     1       5.853  -6.996   1.444  1.00  0.00     0.039 A 
ATOM     41  C   UNL     1       6.518  -8.075   0.848  1.00  0.00     0.014 A 
ATOM     42  C   UNL     1       6.596  -6.032   2.125  1.00  0.00     0.014 A 
ATOM     43  C   UNL     1       7.917  -8.153   0.881  1.00  0.00     0.010 A 
ATOM     44  C   UNL     1       7.993  -6.087   2.111  1.00  0.00     0.010 A 
ATOM     45  C   UNL     1       8.677  -7.138   1.481  1.00  0.00    -0.014 A 
BRANCH  45  46
ATOM     46  C   UNL     1      10.171  -7.146   1.446  1.00  0.00     0.031 A 
ATOM     47  C   UNL     1      10.983  -7.158   2.716  1.00  0.00     0.074 A 
ATOM     48  C   UNL     1      10.819  -7.064   0.265  1.00  0.00     0.049 A 
ATOM     49  N   UNL     1      12.284  -7.092   2.870  1.00  0.00    -0.248 NA
ATOM     50  C   UNL     1      10.235  -7.237   3.979  1.00  0.00     0.031 C 
ATOM     51  C   UNL     1      10.177  -7.016  -1.048  1.00  0.00     0.029 A 
ATOM     52  N   UNL     1      12.162  -6.994  -0.024  1.00  0.00    -0.354 N 
ATOM     53  C   UNL     1      12.506  -7.087   4.241  1.00  0.00     0.074 A 
ATOM     54  C   UNL     1      11.204  -7.118   4.875  1.00  0.00     0.031 C 
ATOM     55  C   UNL     1      11.121  -6.943  -1.999  1.00  0.00     0.029 A 
ATOM     56  C   UNL     1      12.434  -6.887  -1.367  1.00  0.00     0.049 A 
ATOM     57  H   UNL     1      12.863  -7.019   0.667  1.00  0.00     0.167 HD
ATOM     58  C   UNL     1      13.682  -7.084   4.915  1.00  0.00     0.037 A 
ATOM     59  C   UNL     1      13.601  -6.748  -2.025  1.00  0.00     0.037 A 
ATOM     60  C   UNL     1      14.983  -7.087   4.296  1.00  0.00     0.049 A 
ATOM     61  C   UNL     1      14.894  -6.739  -1.258  1.00  0.00     0.074 A 
ATOM     62  C   UNL     1      16.225  -7.185   4.901  1.00  0.00     0.029 A 
ATOM     63  N   UNL     1      15.211  -6.977   2.933  1.00  0.00    -0.354 N 
ATOM     64  N   UNL     1      15.088  -6.835   0.033  1.00  0.00    -0.248 NA
ATOM     65  C   UNL     1      16.131  -6.620  -2.043  1.00  0.00     0.031 C 
ATOM     66  C   UNL     1      17.207  -7.093   3.908  1.00  0.00     0.029 A 
ATOM     67  C   UNL     1      16.575  -6.988   2.680  1.00  0.00     0.049 A 
ATOM     68  H   UNL     1      14.509  -6.901   2.247  1.00  0.00     0.167 HD
ATOM     69  C   UNL     1      16.464  -6.822   0.214  1.00  0.00     0.074 A 
ATOM     70  C   UNL     1      17.059  -6.720  -1.101  1.00  0.00     0.031 C 
ATOM     71  C   UNL     1      17.167  -6.897   1.370  1.00  0.00     0.037 A 
BRANCH  58  72
ATOM     72  C   UNL     1      13.621  -7.095   6.416  1.00  0.00     0.064 A 
ATOM     73  C   UNL     1      13.188  -8.226   7.125  1.00  0.00     0.173 A 
ATOM     74  C   UNL     1      14.046  -5.981   7.157  1.00  0.00     0.173 A 
ATOM     75  F   UNL     1      12.769  -9.317   6.465  1.00  0.00    -0.203 F 
ATOM     76  C   UNL     1      13.148  -8.229   8.517  1.00  0.00     0.198 A 
ATOM     77  C   UNL     1      14.033  -5.998   8.549  1.00  0.00     0.198 A 
ATOM     78  F   UNL     1      14.485  -4.878   6.531  1.00  0.00    -0.203 F 
ATOM     79  F   UNL     1      12.682  -9.303   9.169  1.00  0.00    -0.200 F 
ATOM     80  C   UNL     1      13.576  -7.118   9.227  1.00  0.00     0.200 A 
ATOM     81  F   UNL     1      14.463  -4.931   9.236  1.00  0.00    -0.200 F 
ATOM     82  F   UNL     1      13.543  -7.125  10.567  1.00  0.00    -0.200 F 
ENDBRANCH  58  72
BRANCH  59  83
ATOM     83  C   UNL     1      13.604  -6.631  -3.507  1.00  0.00     0.064 A 
ATOM     84  C   UNL     1      14.083  -7.674  -4.311  1.00  0.00     0.173 A 
ATOM     85  C   UNL     1      13.133  -5.475  -4.148  1.00  0.00     0.173 A 
ATOM     86  F   UNL     1      14.559  -8.792  -3.742  1.00  0.00    -0.203 F 
ATOM     87  C   UNL     1      14.112  -7.559  -5.699  1.00  0.00     0.198 A 
ATOM     88  C   UNL     1      13.139  -5.371  -5.537  1.00  0.00     0.198 A 
ATOM     89  F   UNL     1      12.649  -4.454  -3.425  1.00  0.00    -0.203 F 
ATOM     90  F   UNL     1      14.613  -8.556  -6.441  1.00  0.00    -0.200 F 
ATOM     91  C   UNL     1      13.636  -6.409  -6.311  1.00  0.00     0.200 A 
ATOM     92  F   UNL     1      12.663  -4.265  -6.125  1.00  0.00    -0.200 F 
ATOM     93  F   UNL     1      13.661  -6.300  -7.646  1.00  0.00    -0.200 F 
ENDBRANCH  59  83
BRANCH  71  94
ATOM     94  C   UNL     1      18.665  -6.921   1.268  1.00  0.00     0.064 A 
ATOM     95  C   UNL     1      19.400  -5.779   0.917  1.00  0.00     0.173 A 
ATOM     96  C   UNL     1      19.375  -8.096   1.557  1.00  0.00     0.173 A 
ATOM     97  F   UNL     1      18.768  -4.636   0.612  1.00  0.00    -0.203 F 
ATOM     98  C   UNL     1      20.790  -5.820   0.837  1.00  0.00     0.198 A 
ATOM     99  C   UNL     1      20.766  -8.125   1.504  1.00  0.00     0.198 A 
ATOM    100  F   UNL     1      18.721  -9.215   1.901  1.00  0.00    -0.203 F 
ATOM    101  F   UNL     1      21.469  -4.730   0.453  1.00  0.00    -0.200 F 
ATOM    102  C   UNL     1      21.472  -6.990   1.137  1.00  0.00     0.200 A 
ATOM    103  F   UNL     1      21.424  -9.254   1.806  1.00  0.00    -0.200 F 
ATOM    104  F   UNL     1      22.810  -7.025   1.065  1.00  0.00    -0.200 F 
ENDBRANCH  71  94
ENDBRANCH  45  46
ENDBRANCH  37  40
ENDBRANCH  35  36
ENDBRANCH  34  35
ENDBRANCH  33  34
ENDBRANCH   1  33
TORSDOF 17
