REMARK SMILES CN1C(=O)/C(=C(\SC2=[NH+][C@@H]3N=c4ccccc4=C3N=N2)C(=O)NCCCCNC(=O)c2ccc(-c3c4nc(c(-c5c(F)c(F)c(F)c(F)c5F)c5ccc([nH]5)c(-c5c(F)c(F)c(F)c(F)c5F)c5nc(c(-c6c(F)c(F)c(F)c(F)c6F)c6ccc3[nH]6)C=C5)C=C4)cc2)c2ccccc21
REMARK SMILES IDX 25 1 24 2 23 3 21 4 22 5 6 7 1 8 2 9 3 10 99 11 4 12 5 13
REMARK SMILES IDX 94 14 98 15 95 16 97 17 96 18 7 19 8 20 9 21 20 22 10 23
REMARK SMILES IDX 19 25 11 26 18 27 12 28 17 29 13 30 16 31 14 32 15 33 26 34
REMARK SMILES IDX 27 35 28 36 29 37 30 39 31 40 32 41 93 42 33 43 92 44 34 45
REMARK SMILES IDX 35 46 36 47 86 48 37 49 91 50 85 51 87 52 38 53 90 54 84 55
REMARK SMILES IDX 83 56 39 58 71 59 51 60 70 61 52 62 55 63 69 64 88 65 53 66
REMARK SMILES IDX 54 67 68 69 89 70 56 71 40 72 41 73 49 74 42 75 43 76 47 77
REMARK SMILES IDX 50 78 44 79 45 80 48 81 46 82 72 83 73 84 81 85 74 86 75 87
REMARK SMILES IDX 79 88 82 89 76 90 77 91 80 92 78 93 57 94 58 95 66 96 59 97
REMARK SMILES IDX 60 98 64 99 67 100 61 101 62 102 65 103 63 104
REMARK H PARENT 23 6 9 24 28 38 87 57 55 68
REMARK Flexibility Score: inf
ROOT
ATOM      1  C   UNL     1       3.211   5.748  -1.808  1.00  0.00     0.023 C 
ENDROOT
BRANCH   1   2
ATOM      2  C   UNL     1       2.900   4.934  -0.546  1.00  0.00     0.116 C 
BRANCH   2   3
ATOM      3  N   UNL     1       1.548   4.406  -0.596  1.00  0.00    -0.352 N 
ATOM      4  C   UNL     1       0.924   3.228  -0.346  1.00  0.00     0.259 C 
ATOM      5  O   UNL     1      -0.221   3.235  -0.808  1.00  0.00    -0.269 OA
ATOM      6  H   UNL     1       0.907   5.092  -0.892  1.00  0.00     0.163 HD
BRANCH   4   7
ATOM      7  C   UNL     1       1.463   2.026   0.425  1.00  0.00     0.098 C 
ATOM      8  C   UNL     1       0.741  -2.671   0.909  1.00  0.00     0.153 C 
ATOM      9  N   UNL     1       0.408  -1.281   0.783  1.00  0.00    -0.311 N 
ATOM     10  C   UNL     1       1.064  -0.243   1.429  1.00  0.00     0.260 C 
ATOM     11  C   UNL     1      -0.744  -0.781   0.161  1.00  0.00     0.052 A 
ATOM     12  O   UNL     1       1.756  -0.298   2.432  1.00  0.00    -0.269 OA
ATOM     13  C   UNL     1       0.616   0.997   0.707  1.00  0.00     0.069 C 
ATOM     14  C   UNL     1      -0.742   0.622   0.228  1.00  0.00     0.012 A 
ATOM     15  C   UNL     1      -1.835  -1.511  -0.284  1.00  0.00     0.027 A 
ATOM     16  C   UNL     1      -1.933   1.297   0.012  1.00  0.00     0.011 A 
ATOM     17  C   UNL     1      -3.006  -0.813  -0.576  1.00  0.00     0.002 A 
ATOM     18  C   UNL     1      -3.062   0.577  -0.401  1.00  0.00     0.001 A 
BRANCH   7  19
ATOM     19  S   UNL     1       3.103   2.150   1.024  1.00  0.00     0.011 SA
BRANCH  19  20
ATOM     20  C   UNL     1       4.085   0.770   0.461  1.00  0.00     0.386 C 
ATOM     21  N   UNL     1       5.017   1.004  -0.417  1.00  0.00    -0.235 N 
ATOM     22  N   UNL     1       3.922  -0.409   1.165  1.00  0.00     0.088 NA
ATOM     23  C   UNL     1       6.050  -0.034  -0.389  1.00  0.00     0.348 C 
ATOM     24  H   UNL     1       5.027   1.781  -1.022  1.00  0.00     0.308 HD
ATOM     25  N   UNL     1       4.522  -1.461   0.855  1.00  0.00    -0.033 NA
ATOM     26  N   UNL     1       6.811  -0.221  -1.649  1.00  0.00    -0.232 NA
ATOM     27  C   UNL     1       5.488  -1.366  -0.081  1.00  0.00     0.165 C 
ATOM     28  C   UNL     1       6.841  -1.521  -1.763  1.00  0.00     0.072 A 
ATOM     29  C   UNL     1       6.031  -2.317  -0.824  1.00  0.00     0.032 A 
ATOM     30  C   UNL     1       7.583  -2.311  -2.777  1.00  0.00     0.029 A 
ATOM     31  C   UNL     1       5.908  -3.737  -0.908  1.00  0.00     0.012 A 
ATOM     32  C   UNL     1       7.460  -3.652  -2.787  1.00  0.00     0.002 A 
ATOM     33  C   UNL     1       6.611  -4.379  -1.855  1.00  0.00     0.001 A 
ENDBRANCH  19  20
ENDBRANCH   7  19
ENDBRANCH   4   7
ENDBRANCH   2   3
ENDBRANCH   1   2
BRANCH   1  34
ATOM     34  C   UNL     1       2.405   7.036  -2.002  1.00  0.00     0.023 C 
BRANCH  34  35
ATOM     35  C   UNL     1       2.551   8.084  -0.903  1.00  0.00     0.116 C 
BRANCH  35  36
ATOM     36  N   UNL     1       3.924   8.526  -0.707  1.00  0.00    -0.352 N 
ATOM     37  C   UNL     1       4.428   9.800  -0.587  1.00  0.00     0.251 C 
ATOM     38  H   UNL     1       4.591   7.805  -0.651  1.00  0.00     0.163 HD
ATOM     39  O   UNL     1       5.641   9.980  -0.527  1.00  0.00    -0.269 OA
BRANCH  37  40
ATOM     40  C   UNL     1       3.513  10.961  -0.576  1.00  0.00     0.039 A 
ATOM     41  C   UNL     1       2.359  10.960   0.209  1.00  0.00     0.014 A 
ATOM     42  C   UNL     1       3.810  12.063  -1.385  1.00  0.00     0.014 A 
ATOM     43  C   UNL     1       1.422  11.977   0.057  1.00  0.00     0.010 A 
ATOM     44  C   UNL     1       2.900  13.120  -1.483  1.00  0.00     0.010 A 
ATOM     45  C   UNL     1       1.673  13.057  -0.805  1.00  0.00    -0.014 A 
BRANCH  45  46
ATOM     46  C   UNL     1       0.623  14.087  -1.008  1.00  0.00     0.031 A 
ATOM     47  C   UNL     1      -0.080  14.210  -2.333  1.00  0.00     0.074 A 
ATOM     48  C   UNL     1       0.250  14.863   0.026  1.00  0.00     0.049 A 
ATOM     49  N   UNL     1      -1.054  15.015  -2.679  1.00  0.00    -0.248 NA
ATOM     50  C   UNL     1       0.367  13.315  -3.411  1.00  0.00     0.031 C 
ATOM     51  C   UNL     1       0.846  14.824   1.361  1.00  0.00     0.029 A 
ATOM     52  N   UNL     1      -0.739  15.807   0.127  1.00  0.00    -0.354 N 
ATOM     53  C   UNL     1      -1.323  14.735  -4.012  1.00  0.00     0.074 A 
ATOM     54  C   UNL     1      -0.394  13.705  -4.424  1.00  0.00     0.031 C 
ATOM     55  C   UNL     1       0.172  15.661   2.165  1.00  0.00     0.029 A 
ATOM     56  C   UNL     1      -0.869  16.330   1.390  1.00  0.00     0.049 A 
ATOM     57  H   UNL     1      -1.301  16.084  -0.632  1.00  0.00     0.167 HD
ATOM     58  C   UNL     1      -2.268  15.278  -4.816  1.00  0.00     0.037 A 
ATOM     59  C   UNL     1      -1.731  17.245   1.870  1.00  0.00     0.037 A 
ATOM     60  C   UNL     1      -3.211  16.284  -4.401  1.00  0.00     0.049 A 
ATOM     61  C   UNL     1      -2.748  17.856   0.950  1.00  0.00     0.074 A 
ATOM     62  C   UNL     1      -4.218  16.880  -5.139  1.00  0.00     0.029 A 
ATOM     63  N   UNL     1      -3.264  16.839  -3.131  1.00  0.00    -0.354 N 
ATOM     64  N   UNL     1      -2.987  17.587  -0.309  1.00  0.00    -0.248 NA
ATOM     65  C   UNL     1      -3.605  18.907   1.516  1.00  0.00     0.031 C 
ATOM     66  C   UNL     1      -4.860  17.820  -4.326  1.00  0.00     0.029 A 
ATOM     67  C   UNL     1      -4.276  17.784  -3.070  1.00  0.00     0.049 A 
ATOM     68  H   UNL     1      -2.670  16.597  -2.383  1.00  0.00     0.167 HD
ATOM     69  C   UNL     1      -4.019  18.432  -0.690  1.00  0.00     0.074 A 
ATOM     70  C   UNL     1      -4.378  19.208   0.480  1.00  0.00     0.031 C 
ATOM     71  C   UNL     1      -4.611  18.556  -1.902  1.00  0.00     0.037 A 
BRANCH  58  72
ATOM     72  C   UNL     1      -2.331  14.801  -6.236  1.00  0.00     0.064 A 
ATOM     73  C   UNL     1      -2.860  13.544  -6.564  1.00  0.00     0.173 A 
ATOM     74  C   UNL     1      -1.906  15.630  -7.285  1.00  0.00     0.173 A 
ATOM     75  F   UNL     1      -3.269  12.710  -5.596  1.00  0.00    -0.203 F 
ATOM     76  C   UNL     1      -2.946  13.128  -7.891  1.00  0.00     0.198 A 
ATOM     77  C   UNL     1      -2.013  15.220  -8.611  1.00  0.00     0.198 A 
ATOM     78  F   UNL     1      -1.397  16.843  -7.023  1.00  0.00    -0.203 F 
ATOM     79  F   UNL     1      -3.425  11.910  -8.180  1.00  0.00    -0.200 F 
ATOM     80  C   UNL     1      -2.529  13.969  -8.912  1.00  0.00     0.200 A 
ATOM     81  F   UNL     1      -1.620  16.037  -9.598  1.00  0.00    -0.200 F 
ATOM     82  F   UNL     1      -2.621  13.570 -10.189  1.00  0.00    -0.200 F 
ENDBRANCH  58  72
BRANCH  59  83
ATOM     83  C   UNL     1      -1.670  17.616   3.305  1.00  0.00     0.064 A 
ATOM     84  C   UNL     1      -2.656  17.182   4.199  1.00  0.00     0.173 A 
ATOM     85  C   UNL     1      -0.602  18.367   3.818  1.00  0.00     0.173 A 
ATOM     86  F   UNL     1      -3.705  16.478   3.749  1.00  0.00    -0.203 F 
ATOM     87  C   UNL     1      -2.575  17.480   5.558  1.00  0.00     0.198 A 
ATOM     88  C   UNL     1      -0.511  18.646   5.180  1.00  0.00     0.198 A 
ATOM     89  F   UNL     1       0.366  18.803   3.000  1.00  0.00    -0.203 F 
ATOM     90  F   UNL     1      -3.539  17.068   6.391  1.00  0.00    -0.200 F 
ATOM     91  C   UNL     1      -1.497  18.203   6.048  1.00  0.00     0.200 A 
ATOM     92  F   UNL     1       0.539  19.333   5.651  1.00  0.00    -0.200 F 
ATOM     93  F   UNL     1      -1.410  18.474   7.357  1.00  0.00    -0.200 F 
ENDBRANCH  59  83
BRANCH  71  94
ATOM     94  C   UNL     1      -5.705  19.572  -2.031  1.00  0.00     0.064 A 
ATOM     95  C   UNL     1      -5.417  20.941  -2.119  1.00  0.00     0.173 A 
ATOM     96  C   UNL     1      -7.045  19.170  -2.128  1.00  0.00     0.173 A 
ATOM     97  F   UNL     1      -4.150  21.371  -2.017  1.00  0.00    -0.203 F 
ATOM     98  C   UNL     1      -6.434  21.875  -2.287  1.00  0.00     0.198 A 
ATOM     99  C   UNL     1      -8.058  20.105  -2.318  1.00  0.00     0.198 A 
ATOM    100  F   UNL     1      -7.369  17.871  -2.056  1.00  0.00    -0.203 F 
ATOM    101  F   UNL     1      -6.141  23.181  -2.340  1.00  0.00    -0.200 F 
ATOM    102  C   UNL     1      -7.753  21.456  -2.394  1.00  0.00     0.200 A 
ATOM    103  F   UNL     1      -9.331  19.700  -2.430  1.00  0.00    -0.200 F 
ATOM    104  F   UNL     1      -8.730  22.357  -2.566  1.00  0.00    -0.200 F 
ENDBRANCH  71  94
ENDBRANCH  45  46
ENDBRANCH  37  40
ENDBRANCH  35  36
ENDBRANCH  34  35
ENDBRANCH   1  34
TORSDOF 13
