REMARK SMILES CC[NH2+][C@@]1(C(=O)NCCCCNC(=O)c2ccc(-c3c4nc(c(-c5c(F)c(F)c(F)c(F)c5F)c5ccc([nH]5)c(-c5c(F)c(F)c(F)c(F)c5F)c5nc(c(-c6c(F)c(F)c(F)c(F)c6F)c6ccc3[nH]6)C=C5)C=C4)cc2)CC[C@@H](SCC2CCCC2)C1
REMARK SMILES IDX 9 1 8 2 7 3 5 4 6 5 4 7 78 8 88 9 79 10 80 11 3 12 2 15 1 16
REMARK SMILES IDX 81 17 82 18 83 19 84 20 87 21 85 22 86 23 10 24 11 25 12 26
REMARK SMILES IDX 13 27 14 29 15 30 16 31 77 32 17 33 76 34 18 35 19 36 20 37
REMARK SMILES IDX 70 38 21 39 75 40 69 41 71 42 22 43 74 44 68 45 67 46 23 48
REMARK SMILES IDX 55 49 35 50 54 51 36 52 39 53 53 54 72 55 37 56 38 57 52 59
REMARK SMILES IDX 73 60 40 61 24 62 25 63 33 64 26 65 27 66 31 67 34 68 28 69
REMARK SMILES IDX 29 70 32 71 30 72 56 73 57 74 65 75 58 76 59 77 63 78 66 79
REMARK SMILES IDX 60 80 61 81 64 82 62 83 41 84 42 85 50 86 43 87 44 88 48 89
REMARK SMILES IDX 51 90 45 91 46 92 49 93 47 94
REMARK H PARENT 7 6 3 13 3 14 12 28 71 47 39 58
REMARK Flexibility Score: inf
ROOT
ATOM      1  C   UNL     1      -1.465  -6.552   3.255  1.00  0.00     0.023 C 
ENDROOT
BRANCH   1   2
ATOM      2  C   UNL     1      -1.979  -5.554   2.221  1.00  0.00     0.116 C 
BRANCH   2   3
ATOM      3  N   UNL     1      -1.560  -4.206   2.492  1.00  0.00    -0.351 N 
ATOM      4  C   UNL     1      -0.618  -3.387   1.959  1.00  0.00     0.281 C 
ATOM      5  O   UNL     1      -0.648  -2.247   2.448  1.00  0.00    -0.268 OA
ATOM      6  H   UNL     1      -2.066  -3.785   3.224  1.00  0.00     0.163 HD
BRANCH   4   7
ATOM      7  C   UNL     1       0.452  -3.803   0.852  1.00  0.00     0.176 C 
ATOM      8  C   UNL     1      -0.109  -4.357  -0.472  1.00  0.00     0.080 C 
ATOM      9  C   UNL     1       1.401  -4.902   1.379  1.00  0.00     0.093 C 
ATOM     10  C   UNL     1       0.099  -5.869  -0.498  1.00  0.00     0.022 C 
ATOM     11  C   UNL     1       1.064  -6.199   0.636  1.00  0.00     0.053 C 
BRANCH   7  12
ATOM     12  N   UNL     1       1.291  -2.590   0.590  1.00  0.00    -0.334 N 
ATOM     13  H   UNL     1       1.588  -2.212   1.490  1.00  0.00     0.347 HD
ATOM     14  H   UNL     1       2.065  -2.903   0.004  1.00  0.00     0.347 HD
BRANCH  12  15
ATOM     15  C   UNL     1       0.626  -1.517  -0.154  1.00  0.00     0.257 C 
ATOM     16  C   UNL     1       1.255  -0.178   0.199  1.00  0.00     0.071 C 
ENDBRANCH  12  15
ENDBRANCH   7  12
BRANCH  11  17
ATOM     17  S   UNL     1       2.479  -7.286   0.183  1.00  0.00    -0.158 SA
BRANCH  17  18
ATOM     18  C   UNL     1       3.614  -6.186  -0.748  1.00  0.00     0.073 C 
BRANCH  18  19
ATOM     19  C   UNL     1       3.116  -5.851  -2.143  1.00  0.00    -0.001 C 
ATOM     20  C   UNL     1       3.807  -4.661  -2.796  1.00  0.00     0.004 C 
ATOM     21  C   UNL     1       3.309  -6.949  -3.187  1.00  0.00     0.004 C 
ATOM     22  C   UNL     1       3.257  -4.732  -4.218  1.00  0.00     0.000 C 
ATOM     23  C   UNL     1       3.111  -6.226  -4.521  1.00  0.00     0.000 C 
ENDBRANCH  18  19
ENDBRANCH  17  18
ENDBRANCH  11  17
ENDBRANCH   4   7
ENDBRANCH   2   3
ENDBRANCH   1   2
BRANCH   1  24
ATOM     24  C   UNL     1      -2.513  -6.991   4.276  1.00  0.00     0.023 C 
BRANCH  24  25
ATOM     25  C   UNL     1      -3.772  -7.620   3.683  1.00  0.00     0.116 C 
BRANCH  25  26
ATOM     26  N   UNL     1      -3.529  -8.749   2.806  1.00  0.00    -0.352 N 
ATOM     27  C   UNL     1      -4.410  -9.778   2.507  1.00  0.00     0.251 C 
ATOM     28  H   UNL     1      -2.644  -8.789   2.377  1.00  0.00     0.163 HD
ATOM     29  O   UNL     1      -4.084 -10.710   1.794  1.00  0.00    -0.269 OA
BRANCH  27  30
ATOM     30  C   UNL     1      -5.746  -9.734   3.134  1.00  0.00     0.039 A 
ATOM     31  C   UNL     1      -6.121 -10.776   3.982  1.00  0.00     0.014 A 
ATOM     32  C   UNL     1      -6.552  -8.606   2.982  1.00  0.00     0.014 A 
ATOM     33  C   UNL     1      -7.276 -10.644   4.755  1.00  0.00     0.010 A 
ATOM     34  C   UNL     1      -7.659  -8.443   3.807  1.00  0.00     0.010 A 
ATOM     35  C   UNL     1      -8.024  -9.455   4.709  1.00  0.00    -0.014 A 
BRANCH  35  36
ATOM     36  C   UNL     1      -9.185  -9.241   5.606  1.00  0.00     0.031 A 
ATOM     37  C   UNL     1     -10.559  -9.077   5.025  1.00  0.00     0.074 A 
ATOM     38  C   UNL     1      -8.989  -9.110   6.933  1.00  0.00     0.049 A 
ATOM     39  N   UNL     1     -11.686  -8.797   5.628  1.00  0.00    -0.248 NA
ATOM     40  C   UNL     1     -10.676  -9.210   3.564  1.00  0.00     0.031 C 
ATOM     41  C   UNL     1      -7.693  -9.183   7.610  1.00  0.00     0.029 A 
ATOM     42  N   UNL     1      -9.881  -8.873   7.949  1.00  0.00    -0.354 N 
ATOM     43  C   UNL     1     -12.636  -8.699   4.622  1.00  0.00     0.074 A 
ATOM     44  C   UNL     1     -11.947  -8.896   3.365  1.00  0.00     0.031 C 
ATOM     45  C   UNL     1      -7.877  -9.020   8.931  1.00  0.00     0.029 A 
ATOM     46  C   UNL     1      -9.296  -8.800   9.190  1.00  0.00     0.049 A 
ATOM     47  H   UNL     1     -10.848  -8.766   7.802  1.00  0.00     0.167 HD
ATOM     48  C   UNL     1     -13.969  -8.489   4.737  1.00  0.00     0.037 A 
ATOM     49  C   UNL     1      -9.847  -8.581  10.399  1.00  0.00     0.037 A 
ATOM     50  C   UNL     1     -14.657  -8.335   5.990  1.00  0.00     0.049 A 
ATOM     51  C   UNL     1     -11.335  -8.384  10.503  1.00  0.00     0.074 A 
ATOM     52  C   UNL     1     -16.014  -8.191   6.218  1.00  0.00     0.029 A 
ATOM     53  N   UNL     1     -14.037  -8.312   7.231  1.00  0.00    -0.354 N 
ATOM     54  N   UNL     1     -12.235  -8.367   9.551  1.00  0.00    -0.248 NA
ATOM     55  C   UNL     1     -11.884  -8.186  11.852  1.00  0.00     0.031 C 
ATOM     56  C   UNL     1     -16.213  -8.049   7.596  1.00  0.00     0.029 A 
ATOM     57  C   UNL     1     -14.983  -8.143   8.228  1.00  0.00     0.049 A 
ATOM     58  H   UNL     1     -13.068  -8.402   7.380  1.00  0.00     0.167 HD
ATOM     59  C   UNL     1     -13.456  -8.182  10.183  1.00  0.00     0.074 A 
ATOM     60  C   UNL     1     -13.184  -8.106  11.604  1.00  0.00     0.031 C 
ATOM     61  C   UNL     1     -14.692  -8.082   9.637  1.00  0.00     0.037 A 
BRANCH  48  62
ATOM     62  C   UNL     1     -14.769  -8.429   3.470  1.00  0.00     0.064 A 
ATOM     63  C   UNL     1     -14.999  -9.575   2.693  1.00  0.00     0.173 A 
ATOM     64  C   UNL     1     -15.328  -7.218   3.037  1.00  0.00     0.173 A 
ATOM     65  F   UNL     1     -14.472 -10.754   3.057  1.00  0.00    -0.203 F 
ATOM     66  C   UNL     1     -15.734  -9.504   1.513  1.00  0.00     0.198 A 
ATOM     67  C   UNL     1     -16.087  -7.157   1.871  1.00  0.00     0.198 A 
ATOM     68  F   UNL     1     -15.140  -6.094   3.745  1.00  0.00    -0.203 F 
ATOM     69  F   UNL     1     -15.897 -10.601   0.761  1.00  0.00    -0.200 F 
ATOM     70  C   UNL     1     -16.282  -8.297   1.107  1.00  0.00     0.200 A 
ATOM     71  F   UNL     1     -16.625  -5.992   1.484  1.00  0.00    -0.200 F 
ATOM     72  F   UNL     1     -16.992  -8.231  -0.028  1.00  0.00    -0.200 F 
ENDBRANCH  48  62
BRANCH  49  73
ATOM     73  C   UNL     1      -8.993  -8.576  11.615  1.00  0.00     0.064 A 
ATOM     74  C   UNL     1      -9.056  -9.629  12.538  1.00  0.00     0.173 A 
ATOM     75  C   UNL     1      -8.104  -7.525  11.882  1.00  0.00     0.173 A 
ATOM     76  F   UNL     1      -9.906 -10.647  12.335  1.00  0.00    -0.203 F 
ATOM     77  C   UNL     1      -8.277  -9.622  13.693  1.00  0.00     0.198 A 
ATOM     78  C   UNL     1      -7.308  -7.531  13.025  1.00  0.00     0.198 A 
ATOM     79  F   UNL     1      -8.004  -6.497  11.027  1.00  0.00    -0.203 F 
ATOM     80  F   UNL     1      -8.387 -10.621  14.579  1.00  0.00    -0.200 F 
ATOM     81  C   UNL     1      -7.399  -8.575  13.933  1.00  0.00     0.200 A 
ATOM     82  F   UNL     1      -6.453  -6.524  13.249  1.00  0.00    -0.200 F 
ATOM     83  F   UNL     1      -6.649  -8.569  15.043  1.00  0.00    -0.200 F 
ENDBRANCH  49  73
BRANCH  61  84
ATOM     84  C   UNL     1     -15.847  -7.915  10.579  1.00  0.00     0.064 A 
ATOM     85  C   UNL     1     -16.088  -6.699  11.234  1.00  0.00     0.173 A 
ATOM     86  C   UNL     1     -16.747  -8.970  10.791  1.00  0.00     0.173 A 
ATOM     87  F   UNL     1     -15.246  -5.667  11.074  1.00  0.00    -0.203 F 
ATOM     88  C   UNL     1     -17.179  -6.552  12.086  1.00  0.00     0.198 A 
ATOM     89  C   UNL     1     -17.851  -8.811  11.623  1.00  0.00     0.198 A 
ATOM     90  F   UNL     1     -16.561 -10.150  10.182  1.00  0.00    -0.203 F 
ATOM     91  F   UNL     1     -17.369  -5.394  12.734  1.00  0.00    -0.200 F 
ATOM     92  C   UNL     1     -18.063  -7.605  12.274  1.00  0.00     0.200 A 
ATOM     93  F   UNL     1     -18.710  -9.825  11.796  1.00  0.00    -0.200 F 
ATOM     94  F   UNL     1     -19.117  -7.458  13.089  1.00  0.00    -0.200 F 
ENDBRANCH  61  84
ENDBRANCH  35  36
ENDBRANCH  27  30
ENDBRANCH  25  26
ENDBRANCH  24  25
ENDBRANCH   1  24
TORSDOF 16
