REMARK SMILES Cc1ccc(N2C(=O)N[C@@H]3CCN(C(=O)CC4(CC(=O)NCCCCNC(=O)c5ccc(-c6c7nc(c(-c8c(F)c(F)c(F)c(F)c8F)c8ccc([nH]8)c(-c8c(F)c(F)c(F)c(F)c8F)c8nc(c(-c9c(F)c(F)c(F)c(F)c9F)c9ccc6[nH]9)C=C8)C=C7)cc5)CCCC4)[C@@H]3C2=O)cc1
REMARK SMILES IDX 22 1 21 2 19 3 20 4 18 6 17 7 92 8 95 9 93 10 94 11 16 12
REMARK SMILES IDX 14 13 15 14 13 15 6 16 7 17 97 18 8 19 9 20 96 21 98 22
REMARK SMILES IDX 10 23 11 25 12 26 5 27 1 28 2 29 3 30 100 31 4 32 99 33
REMARK SMILES IDX 23 34 24 35 25 36 26 37 27 38 28 40 29 41 30 42 91 43 31 44
REMARK SMILES IDX 90 45 32 46 33 47 34 48 84 49 35 50 89 51 83 52 85 53 36 54
REMARK SMILES IDX 88 55 82 56 81 57 37 59 69 60 49 61 68 62 50 63 53 64 67 65
REMARK SMILES IDX 86 66 51 67 52 68 66 70 87 71 54 72 38 73 39 74 47 75 40 76
REMARK SMILES IDX 41 77 45 78 48 79 42 80 43 81 46 82 44 83 70 84 71 85 79 86
REMARK SMILES IDX 72 87 73 88 77 89 80 90 74 91 75 92 78 93 76 94 55 95 56 96
REMARK SMILES IDX 64 97 57 98 58 99 62 100 65 101 59 102 60 103 63 104 61 105
REMARK H PARENT 21 5 9 24 26 39 85 58 53 69
REMARK Flexibility Score: inf
ROOT
ATOM      1  C   UNL     1     -10.147  -0.282  -6.634  1.00  0.00     0.116 C 
ENDROOT
BRANCH   1   2
ATOM      2  N   UNL     1      -9.569   1.033  -6.820  1.00  0.00    -0.356 N 
ATOM      3  C   UNL     1      -8.295   1.491  -6.709  1.00  0.00     0.220 C 
ATOM      4  O   UNL     1      -8.122   2.695  -6.922  1.00  0.00    -0.275 OA
ATOM      5  H   UNL     1     -10.222   1.725  -7.074  1.00  0.00     0.163 HD
BRANCH   3   6
ATOM      6  C   UNL     1      -7.108   0.589  -6.372  1.00  0.00     0.107 C 
BRANCH   6   7
ATOM      7  C   UNL     1      -6.810   0.273  -4.859  1.00  0.00    -0.012 C 
ATOM      8  C   UNL     1      -5.326  -0.163  -4.717  1.00  0.00     0.008 C 
ATOM      9  C   UNL     1      -7.568  -1.034  -4.491  1.00  0.00     0.008 C 
ATOM     10  C   UNL     1      -5.312  -1.654  -5.021  1.00  0.00     0.001 C 
ATOM     11  C   UNL     1      -6.548  -2.151  -4.303  1.00  0.00     0.001 C 
BRANCH   7  12
ATOM     12  C   UNL     1      -7.161   1.507  -3.964  1.00  0.00     0.107 C 
BRANCH  12  13
ATOM     13  C   UNL     1      -6.262   1.899  -2.780  1.00  0.00     0.223 C 
ATOM     14  O   UNL     1      -5.565   2.914  -2.845  1.00  0.00    -0.275 OA
BRANCH  13  15
ATOM     15  N   UNL     1      -6.285   1.138  -1.633  1.00  0.00    -0.328 N 
ATOM     16  N   UNL     1      -3.253   0.336   0.286  1.00  0.00    -0.230 N 
ATOM     17  C   UNL     1      -3.827  -0.084   1.479  1.00  0.00     0.329 C 
ATOM     18  C   UNL     1      -3.958   0.887  -0.790  1.00  0.00     0.260 C 
ATOM     19  O   UNL     1      -3.255  -0.669   2.398  1.00  0.00    -0.248 OA
ATOM     20  N   UNL     1      -5.139   0.214   1.671  1.00  0.00    -0.332 N 
ATOM     21  C   UNL     1      -5.375   1.411  -0.507  1.00  0.00     0.197 C 
ATOM     22  O   UNL     1      -3.471   0.974  -1.923  1.00  0.00    -0.271 OA
ATOM     23  C   UNL     1      -6.034   0.705   0.670  1.00  0.00     0.118 C 
ATOM     24  H   UNL     1      -5.504   0.080   2.576  1.00  0.00     0.165 HD
ATOM     25  C   UNL     1      -6.811  -0.443   0.037  1.00  0.00     0.049 C 
ATOM     26  C   UNL     1      -7.234   0.103  -1.306  1.00  0.00     0.122 C 
BRANCH  16  27
ATOM     27  C   UNL     1      -1.838   0.170   0.125  1.00  0.00     0.054 A 
ATOM     28  C   UNL     1       2.462  -0.156  -0.093  1.00  0.00     0.044 C 
ATOM     29  C   UNL     1       0.968  -0.041  -0.031  1.00  0.00    -0.051 A 
ATOM     30  C   UNL     1       0.187  -1.159   0.283  1.00  0.00     0.005 A 
ATOM     31  C   UNL     1       0.335   1.172  -0.313  1.00  0.00     0.005 A 
ATOM     32  C   UNL     1      -1.204  -1.050   0.383  1.00  0.00     0.027 A 
ATOM     33  C   UNL     1      -1.056   1.274  -0.250  1.00  0.00     0.027 A 
ENDBRANCH  16  27
ENDBRANCH  13  15
ENDBRANCH  12  13
ENDBRANCH   7  12
ENDBRANCH   6   7
ENDBRANCH   3   6
ENDBRANCH   1   2
BRANCH   1  34
ATOM     34  C   UNL     1     -10.678  -0.467  -5.203  1.00  0.00     0.023 C 
BRANCH  34  35
ATOM     35  C   UNL     1     -12.019   0.212  -4.921  1.00  0.00     0.023 C 
BRANCH  35  36
ATOM     36  C   UNL     1     -13.197  -0.539  -5.517  1.00  0.00     0.116 C 
BRANCH  36  37
ATOM     37  N   UNL     1     -13.830  -1.509  -4.631  1.00  0.00    -0.352 N 
ATOM     38  C   UNL     1     -14.742  -2.516  -4.953  1.00  0.00     0.251 C 
ATOM     39  H   UNL     1     -13.581  -1.446  -3.681  1.00  0.00     0.163 HD
ATOM     40  O   UNL     1     -15.236  -3.208  -4.101  1.00  0.00    -0.269 OA
BRANCH  38  41
ATOM     41  C   UNL     1     -14.983  -2.795  -6.394  1.00  0.00     0.039 A 
ATOM     42  C   UNL     1     -14.764  -4.099  -6.849  1.00  0.00     0.014 A 
ATOM     43  C   UNL     1     -15.127  -1.747  -7.298  1.00  0.00     0.014 A 
ATOM     44  C   UNL     1     -14.418  -4.300  -8.183  1.00  0.00     0.010 A 
ATOM     45  C   UNL     1     -14.662  -1.924  -8.587  1.00  0.00     0.010 A 
ATOM     46  C   UNL     1     -14.245  -3.189  -9.012  1.00  0.00    -0.014 A 
BRANCH  46  47
ATOM     47  C   UNL     1     -13.528  -3.258 -10.282  1.00  0.00     0.031 A 
ATOM     48  C   UNL     1     -14.254  -3.110 -11.562  1.00  0.00     0.074 A 
ATOM     49  C   UNL     1     -12.188  -3.443 -10.305  1.00  0.00     0.049 A 
ATOM     50  N   UNL     1     -13.905  -3.698 -12.657  1.00  0.00    -0.248 NA
ATOM     51  C   UNL     1     -15.456  -2.298 -11.703  1.00  0.00     0.031 C 
ATOM     52  C   UNL     1     -11.310  -3.361 -11.471  1.00  0.00     0.029 A 
ATOM     53  N   UNL     1     -11.364  -3.954  -9.285  1.00  0.00    -0.354 N 
ATOM     54  C   UNL     1     -14.651  -3.159 -13.679  1.00  0.00     0.074 A 
ATOM     55  C   UNL     1     -15.639  -2.330 -13.026  1.00  0.00     0.031 C 
ATOM     56  C   UNL     1     -10.204  -4.081 -11.229  1.00  0.00     0.029 A 
ATOM     57  C   UNL     1     -10.381  -4.730  -9.944  1.00  0.00     0.049 A 
ATOM     58  H   UNL     1     -11.453  -3.803  -8.316  1.00  0.00     0.167 HD
ATOM     59  C   UNL     1     -14.275  -3.367 -14.974  1.00  0.00     0.037 A 
ATOM     60  C   UNL     1     -10.233  -6.063  -9.704  1.00  0.00     0.037 A 
ATOM     61  C   UNL     1     -13.072  -4.187 -15.056  1.00  0.00     0.049 A 
ATOM     62  C   UNL     1     -10.399  -6.931 -10.928  1.00  0.00     0.074 A 
ATOM     63  C   UNL     1     -11.734  -3.864 -15.216  1.00  0.00     0.029 A 
ATOM     64  N   UNL     1     -13.110  -5.518 -14.659  1.00  0.00    -0.354 N 
ATOM     65  N   UNL     1     -10.947  -6.519 -12.037  1.00  0.00    -0.248 NA
ATOM     66  C   UNL     1     -10.008  -8.336 -10.990  1.00  0.00     0.031 C 
ATOM     67  C   UNL     1     -10.962  -5.003 -14.890  1.00  0.00     0.029 A 
ATOM     68  C   UNL     1     -11.830  -6.022 -14.543  1.00  0.00     0.049 A 
ATOM     69  H   UNL     1     -13.934  -6.029 -14.485  1.00  0.00     0.167 HD
ATOM     70  C   UNL     1     -11.017  -7.558 -12.930  1.00  0.00     0.074 A 
ATOM     71  C   UNL     1     -10.393  -8.668 -12.236  1.00  0.00     0.031 C 
ATOM     72  C   UNL     1     -11.598  -7.405 -14.157  1.00  0.00     0.037 A 
BRANCH  59  73
ATOM     73  C   UNL     1     -14.828  -2.573 -16.136  1.00  0.00     0.064 A 
ATOM     74  C   UNL     1     -14.022  -2.242 -17.247  1.00  0.00     0.173 A 
ATOM     75  C   UNL     1     -16.139  -2.064 -16.187  1.00  0.00     0.173 A 
ATOM     76  F   UNL     1     -12.796  -2.756 -17.404  1.00  0.00    -0.203 F 
ATOM     77  C   UNL     1     -14.445  -1.361 -18.245  1.00  0.00     0.198 A 
ATOM     78  C   UNL     1     -16.544  -1.137 -17.152  1.00  0.00     0.198 A 
ATOM     79  F   UNL     1     -17.077  -2.486 -15.328  1.00  0.00    -0.203 F 
ATOM     80  F   UNL     1     -13.628  -1.073 -19.268  1.00  0.00    -0.200 F 
ATOM     81  C   UNL     1     -15.690  -0.772 -18.174  1.00  0.00     0.200 A 
ATOM     82  F   UNL     1     -17.769  -0.596 -17.082  1.00  0.00    -0.200 F 
ATOM     83  F   UNL     1     -16.074   0.119 -19.097  1.00  0.00    -0.200 F 
ENDBRANCH  59  73
BRANCH  60  84
ATOM     84  C   UNL     1     -10.577  -6.450  -8.314  1.00  0.00     0.064 A 
ATOM     85  C   UNL     1      -9.795  -5.922  -7.268  1.00  0.00     0.173 A 
ATOM     86  C   UNL     1     -11.828  -6.980  -7.983  1.00  0.00     0.173 A 
ATOM     87  F   UNL     1      -8.588  -5.395  -7.534  1.00  0.00    -0.203 F 
ATOM     88  C   UNL     1     -10.293  -5.816  -5.972  1.00  0.00     0.198 A 
ATOM     89  C   UNL     1     -12.318  -6.887  -6.677  1.00  0.00     0.198 A 
ATOM     90  F   UNL     1     -12.628  -7.477  -8.937  1.00  0.00    -0.203 F 
ATOM     91  F   UNL     1      -9.570  -5.195  -5.028  1.00  0.00    -0.200 F 
ATOM     92  C   UNL     1     -11.566  -6.274  -5.684  1.00  0.00     0.200 A 
ATOM     93  F   UNL     1     -13.561  -7.307  -6.402  1.00  0.00    -0.200 F 
ATOM     94  F   UNL     1     -12.085  -6.086  -4.463  1.00  0.00    -0.200 F 
ENDBRANCH  60  84
BRANCH  72  95
ATOM     95  C   UNL     1     -11.921  -8.493 -15.156  1.00  0.00     0.064 A 
ATOM     96  C   UNL     1     -12.175  -9.831 -14.816  1.00  0.00     0.173 A 
ATOM     97  C   UNL     1     -12.129  -8.167 -16.522  1.00  0.00     0.173 A 
ATOM     98  F   UNL     1     -12.128 -10.248 -13.544  1.00  0.00    -0.203 F 
ATOM     99  C   UNL     1     -12.551 -10.780 -15.773  1.00  0.00     0.198 A 
ATOM    100  C   UNL     1     -12.561  -9.102 -17.461  1.00  0.00     0.198 A 
ATOM    101  F   UNL     1     -11.946  -6.921 -16.984  1.00  0.00    -0.203 F 
ATOM    102  F   UNL     1     -12.743 -12.053 -15.401  1.00  0.00    -0.200 F 
ATOM    103  C   UNL     1     -12.757 -10.414 -17.090  1.00  0.00     0.200 A 
ATOM    104  F   UNL     1     -12.806  -8.716 -18.721  1.00  0.00    -0.200 F 
ATOM    105  F   UNL     1     -13.165 -11.317 -17.991  1.00  0.00    -0.200 F 
ENDBRANCH  72  95
ENDBRANCH  46  47
ENDBRANCH  38  41
ENDBRANCH  36  37
ENDBRANCH  35  36
ENDBRANCH  34  35
ENDBRANCH   1  34
TORSDOF 16
