REMARK SMILES Cc1n[nH]c(C)c1C(=O)N1CC(n2cc(C(=O)NCCCCNC(=O)c3ccc(-c4c5nc(c(-c6c(F)c(F)c(F)c(F)c6F)c6ccc([nH]6)c(-c6c(F)c(F)c(F)c(F)c6F)c6nc(c(-c7c(F)c(F)c(F)c(F)c7F)c7ccc4[nH]7)C=C6)C=C5)cc3)nn2)C1
REMARK SMILES IDX 20 1 19 2 18 3 16 4 17 5 15 7 13 8 14 9 90 10 89 11 12 12
REMARK SMILES IDX 8 13 9 14 10 15 11 16 91 17 7 18 1 19 2 20 3 21 4 22 5 23
REMARK SMILES IDX 6 25 21 26 22 27 23 28 24 29 25 31 26 32 27 33 88 34 28 35
REMARK SMILES IDX 87 36 29 37 30 38 31 39 81 40 32 41 86 42 80 43 82 44 33 45
REMARK SMILES IDX 85 46 79 47 78 48 34 50 66 51 46 52 65 53 47 54 50 55 64 56
REMARK SMILES IDX 83 57 48 58 49 59 63 61 84 62 51 63 35 64 36 65 44 66 37 67
REMARK SMILES IDX 38 68 42 69 45 70 39 71 40 72 43 73 41 74 67 75 68 76 76 77
REMARK SMILES IDX 69 78 70 79 74 80 77 81 71 82 72 83 75 84 73 85 52 86 53 87
REMARK SMILES IDX 61 88 54 89 55 90 59 91 62 92 56 93 57 94 60 95 58 96
REMARK H PARENT 18 6 4 24 23 30 82 49 50 60
REMARK Flexibility Score: inf
ROOT
ATOM      1  C   UNL     1       5.532  -7.072   4.529  1.00  0.00     0.023 C 
ENDROOT
BRANCH   1   2
ATOM      2  C   UNL     1       6.370  -6.073   3.733  1.00  0.00     0.116 C 
BRANCH   2   3
ATOM      3  N   UNL     1       7.139  -6.712   2.685  1.00  0.00    -0.351 N 
ATOM      4  C   UNL     1       6.989  -6.696   1.317  1.00  0.00     0.273 C 
ATOM      5  O   UNL     1       7.908  -7.174   0.653  1.00  0.00    -0.267 OA
ATOM      6  H   UNL     1       7.899  -7.250   3.006  1.00  0.00     0.163 HD
BRANCH   4   7
ATOM      7  C   UNL     1       5.811  -6.106   0.693  1.00  0.00     0.170 A 
ATOM      8  N   UNL     1       3.862  -5.318   0.142  1.00  0.00    -0.245 N 
ATOM      9  C   UNL     1       4.500  -6.023   1.126  1.00  0.00     0.145 A 
ATOM     10  N   UNL     1       4.699  -5.020  -0.860  1.00  0.00    -0.066 NA
ATOM     11  N   UNL     1       5.885  -5.527  -0.556  1.00  0.00    -0.125 NA
BRANCH   8  12
ATOM     12  C   UNL     1       2.514  -4.842   0.244  1.00  0.00     0.148 C 
ATOM     13  C   UNL     1       0.312  -2.563  -0.340  1.00  0.00     0.257 C 
ATOM     14  O   UNL     1      -0.698  -3.243  -0.507  1.00  0.00    -0.269 OA
ATOM     15  N   UNL     1       1.569  -3.123  -0.452  1.00  0.00    -0.334 N 
ATOM     16  C   UNL     1       1.872  -4.411  -1.080  1.00  0.00     0.149 C 
ATOM     17  C   UNL     1       2.506  -3.353   0.644  1.00  0.00     0.149 C 
BRANCH  13  18
ATOM     18  C   UNL     1       0.242  -1.125  -0.073  1.00  0.00     0.083 A 
ATOM     19  C   UNL     1      -2.368  -0.854   0.063  1.00  0.00     0.069 C 
ATOM     20  C   UNL     1      -0.963  -0.369   0.092  1.00  0.00     0.072 A 
ATOM     21  N   UNL     1      -0.723   0.934   0.277  1.00  0.00    -0.180 NA
ATOM     22  N   UNL     1       0.605   1.032   0.200  1.00  0.00    -0.282 N 
ATOM     23  C   UNL     1       1.244  -0.162   0.000  1.00  0.00     0.045 A 
ATOM     24  H   UNL     1       1.083   1.889   0.281  1.00  0.00     0.190 HD
ATOM     25  C   UNL     1       2.720  -0.192  -0.122  1.00  0.00     0.067 C 
ENDBRANCH  13  18
ENDBRANCH   8  12
ENDBRANCH   4   7
ENDBRANCH   2   3
ENDBRANCH   1   2
BRANCH   1  26
ATOM     26  C   UNL     1       6.330  -7.994   5.465  1.00  0.00     0.023 C 
BRANCH  26  27
ATOM     27  C   UNL     1       6.961  -7.309   6.678  1.00  0.00     0.116 C 
BRANCH  27  28
ATOM     28  N   UNL     1       5.979  -6.649   7.533  1.00  0.00    -0.352 N 
ATOM     29  C   UNL     1       6.156  -5.592   8.402  1.00  0.00     0.251 C 
ATOM     30  H   UNL     1       5.063  -7.008   7.483  1.00  0.00     0.163 HD
ATOM     31  O   UNL     1       5.329  -5.348   9.272  1.00  0.00    -0.269 OA
BRANCH  29  32
ATOM     32  C   UNL     1       7.367  -4.760   8.280  1.00  0.00     0.039 A 
ATOM     33  C   UNL     1       8.155  -4.482   9.398  1.00  0.00     0.014 A 
ATOM     34  C   UNL     1       7.738  -4.291   7.024  1.00  0.00     0.014 A 
ATOM     35  C   UNL     1       9.375  -3.823   9.227  1.00  0.00     0.010 A 
ATOM     36  C   UNL     1       8.990  -3.729   6.843  1.00  0.00     0.010 A 
ATOM     37  C   UNL     1       9.818  -3.472   7.940  1.00  0.00    -0.014 A 
BRANCH  37  38
ATOM     38  C   UNL     1      11.174  -2.927   7.753  1.00  0.00     0.031 A 
ATOM     39  C   UNL     1      12.324  -3.677   8.361  1.00  0.00     0.074 A 
ATOM     40  C   UNL     1      11.486  -1.942   6.881  1.00  0.00     0.049 A 
ATOM     41  N   UNL     1      13.269  -3.220   9.124  1.00  0.00    -0.248 NA
ATOM     42  C   UNL     1      12.452  -5.110   8.056  1.00  0.00     0.031 C 
ATOM     43  C   UNL     1      10.616  -1.257   5.921  1.00  0.00     0.029 A 
ATOM     44  N   UNL     1      12.721  -1.432   6.591  1.00  0.00    -0.354 N 
ATOM     45  C   UNL     1      14.184  -4.261   9.295  1.00  0.00     0.074 A 
ATOM     46  C   UNL     1      13.600  -5.419   8.663  1.00  0.00     0.031 C 
ATOM     47  C   UNL     1      11.375  -0.614   5.008  1.00  0.00     0.029 A 
ATOM     48  C   UNL     1      12.765  -0.696   5.420  1.00  0.00     0.049 A 
ATOM     49  H   UNL     1      13.509  -1.575   7.164  1.00  0.00     0.167 HD
ATOM     50  C   UNL     1      15.427  -4.072   9.823  1.00  0.00     0.037 A 
ATOM     51  C   UNL     1      13.861  -0.200   4.803  1.00  0.00     0.037 A 
ATOM     52  C   UNL     1      15.529  -2.838  10.553  1.00  0.00     0.049 A 
ATOM     53  C   UNL     1      14.951  -0.117   5.799  1.00  0.00     0.074 A 
ATOM     54  C   UNL     1      14.868  -2.283  11.633  1.00  0.00     0.029 A 
ATOM     55  N   UNL     1      16.273  -1.811  10.033  1.00  0.00    -0.354 N 
ATOM     56  N   UNL     1      14.980   0.727   6.792  1.00  0.00    -0.248 NA
ATOM     57  C   UNL     1      15.899  -1.216   5.884  1.00  0.00     0.031 C 
ATOM     58  C   UNL     1      14.842  -0.880  11.372  1.00  0.00     0.029 A 
ATOM     59  C   UNL     1      15.500  -0.686  10.158  1.00  0.00     0.049 A 
ATOM     60  H   UNL     1      17.178  -1.869   9.649  1.00  0.00     0.167 HD
ATOM     61  C   UNL     1      15.638   0.052   7.805  1.00  0.00     0.074 A 
ATOM     62  C   UNL     1      16.300  -1.068   7.148  1.00  0.00     0.031 C 
ATOM     63  C   UNL     1      15.353   0.299   9.117  1.00  0.00     0.037 A 
BRANCH  50  64
ATOM     64  C   UNL     1      16.649  -4.889   9.478  1.00  0.00     0.064 A 
ATOM     65  C   UNL     1      17.811  -4.795  10.274  1.00  0.00     0.173 A 
ATOM     66  C   UNL     1      16.812  -5.541   8.238  1.00  0.00     0.173 A 
ATOM     67  F   UNL     1      17.779  -4.162  11.456  1.00  0.00    -0.203 F 
ATOM     68  C   UNL     1      19.050  -5.271   9.836  1.00  0.00     0.198 A 
ATOM     69  C   UNL     1      18.041  -6.061   7.826  1.00  0.00     0.198 A 
ATOM     70  F   UNL     1      15.818  -5.602   7.343  1.00  0.00    -0.203 F 
ATOM     71  F   UNL     1      20.146  -5.058  10.578  1.00  0.00    -0.200 F 
ATOM     72  C   UNL     1      19.165  -5.903   8.612  1.00  0.00     0.200 A 
ATOM     73  F   UNL     1      18.139  -6.652   6.627  1.00  0.00    -0.200 F 
ATOM     74  F   UNL     1      20.360  -6.316   8.169  1.00  0.00    -0.200 F 
ENDBRANCH  50  64
BRANCH  51  75
ATOM     75  C   UNL     1      14.073   0.059   3.365  1.00  0.00     0.064 A 
ATOM     76  C   UNL     1      15.062   0.950   2.924  1.00  0.00     0.173 A 
ATOM     77  C   UNL     1      13.471  -0.753   2.385  1.00  0.00     0.173 A 
ATOM     78  F   UNL     1      15.714   1.725   3.803  1.00  0.00    -0.203 F 
ATOM     79  C   UNL     1      15.439   1.014   1.580  1.00  0.00     0.198 A 
ATOM     80  C   UNL     1      13.839  -0.680   1.042  1.00  0.00     0.198 A 
ATOM     81  F   UNL     1      12.576  -1.693   2.725  1.00  0.00    -0.203 F 
ATOM     82  F   UNL     1      16.427   1.837   1.204  1.00  0.00    -0.200 F 
ATOM     83  C   UNL     1      14.832   0.195   0.642  1.00  0.00     0.200 A 
ATOM     84  F   UNL     1      13.267  -1.500   0.150  1.00  0.00    -0.200 F 
ATOM     85  F   UNL     1      15.230   0.221  -0.637  1.00  0.00    -0.200 F 
ENDBRANCH  51  75
BRANCH  63  86
ATOM     86  C   UNL     1      14.557   1.529   9.441  1.00  0.00     0.064 A 
ATOM     87  C   UNL     1      13.242   1.744   8.993  1.00  0.00     0.173 A 
ATOM     88  C   UNL     1      15.098   2.467  10.329  1.00  0.00     0.173 A 
ATOM     89  F   UNL     1      12.614   0.835   8.237  1.00  0.00    -0.203 F 
ATOM     90  C   UNL     1      12.529   2.882   9.365  1.00  0.00     0.198 A 
ATOM     91  C   UNL     1      14.369   3.584  10.730  1.00  0.00     0.198 A 
ATOM     92  F   UNL     1      16.324   2.280  10.843  1.00  0.00    -0.203 F 
ATOM     93  F   UNL     1      11.285   3.075   8.903  1.00  0.00    -0.200 F 
ATOM     94  C   UNL     1      13.092   3.800  10.235  1.00  0.00     0.200 A 
ATOM     95  F   UNL     1      14.896   4.444  11.613  1.00  0.00    -0.200 F 
ATOM     96  F   UNL     1      12.395   4.878  10.618  1.00  0.00    -0.200 F 
ENDBRANCH  63  86
ENDBRANCH  37  38
ENDBRANCH  29  32
ENDBRANCH  27  28
ENDBRANCH  26  27
ENDBRANCH   1  26
TORSDOF 13
