REMARK SMILES O=C(C[C@H]1CN(C(=O)c2sccc2Br)CCO1)NCCCCNC(=O)c1ccc(-c2c3nc(c(-c4c(F)c(F)c(F)c(F)c4F)c4ccc([nH]4)c(-c4c(F)c(F)c(F)c(F)c4F)c4nc(c(-c5c(F)c(F)c(F)c(F)c5F)c5ccc2[nH]5)C=C4)C=C3)cc1
REMARK SMILES IDX 20 1 19 2 18 3 1 4 2 5 3 7 4 8 5 9 17 10 6 11 16 12 15 13
REMARK SMILES IDX 7 14 8 15 9 16 10 17 13 18 11 19 12 20 14 21 21 22 22 23
REMARK SMILES IDX 23 24 24 25 25 27 26 28 27 29 88 30 28 31 87 32 29 33 30 34
REMARK SMILES IDX 31 35 81 36 32 37 86 38 80 39 82 40 33 41 85 42 79 43 78 44
REMARK SMILES IDX 34 46 66 47 46 48 65 49 47 50 50 51 64 52 83 53 48 54 49 55
REMARK SMILES IDX 63 57 84 58 51 59 35 60 36 61 44 62 37 63 38 64 42 65 45 66
REMARK SMILES IDX 39 67 40 68 43 69 41 70 67 71 68 72 76 73 69 74 70 75 74 76
REMARK SMILES IDX 77 77 71 78 72 79 75 80 73 81 52 82 53 83 61 84 54 85 55 86
REMARK SMILES IDX 59 87 62 88 56 89 57 90 60 91 58 92
REMARK H PARENT 18 6 23 26 82 45 50 56
REMARK Flexibility Score: inf
ROOT
ATOM      1  C   UNL     1       6.742   1.613  -3.345  1.00  0.00     0.023 C 
ENDROOT
BRANCH   1   2
ATOM      2  C   UNL     1       6.963   0.279  -2.639  1.00  0.00     0.116 C 
BRANCH   2   3
ATOM      3  N   UNL     1       5.840  -0.123  -1.819  1.00  0.00    -0.356 N 
ATOM      4  O   UNL     1       4.715  -1.122  -3.533  1.00  0.00    -0.275 OA
ATOM      5  C   UNL     1       4.822  -0.883  -2.331  1.00  0.00     0.222 C 
ATOM      6  H   UNL     1       5.807   0.155  -0.875  1.00  0.00     0.163 HD
BRANCH   5   7
ATOM      7  C   UNL     1       3.785  -1.383  -1.350  1.00  0.00     0.133 C 
BRANCH   7   8
ATOM      8  C   UNL     1       4.173  -1.770   0.087  1.00  0.00     0.147 C 
ATOM      9  C   UNL     1       3.530  -3.120   0.512  1.00  0.00     0.152 C 
ATOM     10  O   UNL     1       5.588  -1.764   0.361  1.00  0.00    -0.374 OA
ATOM     11  N   UNL     1       4.252  -4.232  -0.111  1.00  0.00    -0.333 N 
ATOM     12  C   UNL     1       6.295  -2.876  -0.222  1.00  0.00     0.182 C 
ATOM     13  C   UNL     1       5.686  -4.221   0.163  1.00  0.00     0.148 C 
BRANCH  11  14
ATOM     14  C   UNL     1       3.714  -5.185  -0.970  1.00  0.00     0.265 C 
ATOM     15  O   UNL     1       4.455  -5.893  -1.672  1.00  0.00    -0.268 OA
BRANCH  14  16
ATOM     16  C   UNL     1       2.285  -5.385  -0.959  1.00  0.00     0.106 A 
ATOM     17  S   UNL     1       1.648  -6.482   0.203  1.00  0.00    -0.137 S 
ATOM     18  C   UNL     1       1.293  -4.936  -1.803  1.00  0.00     0.041 A 
ATOM     19  C   UNL     1       0.063  -6.330  -0.423  1.00  0.00     0.067 A 
ATOM     20  C   UNL     1       0.006  -5.441  -1.474  1.00  0.00     0.028 A 
ATOM     21  Br  UNL     1       1.495  -3.799  -3.295  1.00  0.00    -0.049 Br
ENDBRANCH  14  16
ENDBRANCH  11  14
ENDBRANCH   7   8
ENDBRANCH   5   7
ENDBRANCH   2   3
ENDBRANCH   1   2
BRANCH   1  22
ATOM     22  C   UNL     1       6.438   2.785  -2.412  1.00  0.00     0.023 C 
BRANCH  22  23
ATOM     23  C   UNL     1       7.426   2.982  -1.268  1.00  0.00     0.116 C 
BRANCH  23  24
ATOM     24  N   UNL     1       8.777   3.271  -1.725  1.00  0.00    -0.352 N 
ATOM     25  C   UNL     1       9.617   4.288  -1.356  1.00  0.00     0.251 C 
ATOM     26  H   UNL     1       9.139   2.646  -2.395  1.00  0.00     0.163 HD
ATOM     27  O   UNL     1      10.685   4.458  -1.952  1.00  0.00    -0.269 OA
BRANCH  25  28
ATOM     28  C   UNL     1       9.238   5.209  -0.265  1.00  0.00     0.039 A 
ATOM     29  C   UNL     1       9.399   6.584  -0.456  1.00  0.00     0.014 A 
ATOM     30  C   UNL     1       8.716   4.725   0.938  1.00  0.00     0.014 A 
ATOM     31  C   UNL     1       8.972   7.476   0.530  1.00  0.00     0.010 A 
ATOM     32  C   UNL     1       8.223   5.616   1.887  1.00  0.00     0.010 A 
ATOM     33  C   UNL     1       8.343   7.001   1.693  1.00  0.00    -0.014 A 
BRANCH  33  34
ATOM     34  C   UNL     1       7.801   7.938   2.712  1.00  0.00     0.031 A 
ATOM     35  C   UNL     1       8.366   7.954   4.105  1.00  0.00     0.074 A 
ATOM     36  C   UNL     1       6.756   8.729   2.400  1.00  0.00     0.049 A 
ATOM     37  N   UNL     1       7.979   8.645   5.148  1.00  0.00    -0.248 NA
ATOM     38  C   UNL     1       9.500   7.055   4.367  1.00  0.00     0.031 C 
ATOM     39  C   UNL     1       6.087   8.773   1.099  1.00  0.00     0.029 A 
ATOM     40  N   UNL     1       6.063   9.640   3.160  1.00  0.00    -0.354 N 
ATOM     41  C   UNL     1       8.814   8.258   6.188  1.00  0.00     0.074 A 
ATOM     42  C   UNL     1       9.690   7.230   5.667  1.00  0.00     0.031 C 
ATOM     43  C   UNL     1       5.095   9.676   1.145  1.00  0.00     0.029 A 
ATOM     44  C   UNL     1       5.030  10.246   2.487  1.00  0.00     0.049 A 
ATOM     45  H   UNL     1       6.286   9.840   4.098  1.00  0.00     0.167 HD
ATOM     46  C   UNL     1       8.863   8.734   7.455  1.00  0.00     0.037 A 
ATOM     47  C   UNL     1       4.124  11.150   2.909  1.00  0.00     0.037 A 
ATOM     48  C   UNL     1       8.003   9.769   7.967  1.00  0.00     0.049 A 
ATOM     49  C   UNL     1       4.192  11.652   4.326  1.00  0.00     0.074 A 
ATOM     50  C   UNL     1       8.008  10.354   9.221  1.00  0.00     0.029 A 
ATOM     51  N   UNL     1       6.979  10.372   7.249  1.00  0.00    -0.354 N 
ATOM     52  N   UNL     1       5.027  11.326   5.281  1.00  0.00    -0.248 NA
ATOM     53  C   UNL     1       3.193  12.656   4.721  1.00  0.00     0.031 C 
ATOM     54  C   UNL     1       6.956  11.275   9.279  1.00  0.00     0.029 A 
ATOM     55  C   UNL     1       6.332  11.306   8.043  1.00  0.00     0.049 A 
ATOM     56  H   UNL     1       6.747  10.166   6.315  1.00  0.00     0.167 HD
ATOM     57  C   UNL     1       4.676  12.102   6.378  1.00  0.00     0.074 A 
ATOM     58  C   UNL     1       3.561  12.927   5.965  1.00  0.00     0.031 C 
ATOM     59  C   UNL     1       5.228  12.127   7.616  1.00  0.00     0.037 A 
BRANCH  46  60
ATOM     60  C   UNL     1       9.888   8.142   8.380  1.00  0.00     0.064 A 
ATOM     61  C   UNL     1      11.261   8.373   8.201  1.00  0.00     0.173 A 
ATOM     62  C   UNL     1       9.494   7.365   9.480  1.00  0.00     0.173 A 
ATOM     63  F   UNL     1      11.693   9.100   7.160  1.00  0.00    -0.203 F 
ATOM     64  C   UNL     1      12.201   7.824   9.070  1.00  0.00     0.198 A 
ATOM     65  C   UNL     1      10.434   6.845  10.366  1.00  0.00     0.198 A 
ATOM     66  F   UNL     1       8.194   7.117   9.702  1.00  0.00    -0.203 F 
ATOM     67  F   UNL     1      13.508   8.016   8.848  1.00  0.00    -0.200 F 
ATOM     68  C   UNL     1      11.786   7.067  10.155  1.00  0.00     0.200 A 
ATOM     69  F   UNL     1      10.031   6.126  11.422  1.00  0.00    -0.200 F 
ATOM     70  F   UNL     1      12.691   6.546  10.995  1.00  0.00    -0.200 F 
ENDBRANCH  46  60
BRANCH  47  71
ATOM     71  C   UNL     1       3.084  11.651   1.972  1.00  0.00     0.064 A 
ATOM     72  C   UNL     1       3.099  12.977   1.519  1.00  0.00     0.173 A 
ATOM     73  C   UNL     1       2.050  10.819   1.518  1.00  0.00     0.173 A 
ATOM     74  F   UNL     1       4.055  13.818   1.942  1.00  0.00    -0.203 F 
ATOM     75  C   UNL     1       2.107  13.459   0.667  1.00  0.00     0.198 A 
ATOM     76  C   UNL     1       1.077  11.293   0.641  1.00  0.00     0.198 A 
ATOM     77  F   UNL     1       1.992   9.540   1.917  1.00  0.00    -0.203 F 
ATOM     78  F   UNL     1       2.118  14.745   0.290  1.00  0.00    -0.200 F 
ATOM     79  C   UNL     1       1.101  12.615   0.224  1.00  0.00     0.200 A 
ATOM     80  F   UNL     1       0.114  10.470   0.204  1.00  0.00    -0.200 F 
ATOM     81  F   UNL     1       0.149  13.077  -0.598  1.00  0.00    -0.200 F 
ENDBRANCH  47  71
BRANCH  59  82
ATOM     82  C   UNL     1       4.659  13.104   8.605  1.00  0.00     0.064 A 
ATOM     83  C   UNL     1       3.390  12.925   9.174  1.00  0.00     0.173 A 
ATOM     84  C   UNL     1       5.412  14.215   9.017  1.00  0.00     0.173 A 
ATOM     85  F   UNL     1       2.624  11.887   8.803  1.00  0.00    -0.203 F 
ATOM     86  C   UNL     1       2.885  13.835  10.100  1.00  0.00     0.198 A 
ATOM     87  C   UNL     1       4.918  15.105   9.966  1.00  0.00     0.198 A 
ATOM     88  F   UNL     1       6.635  14.429   8.508  1.00  0.00    -0.203 F 
ATOM     89  F   UNL     1       1.650  13.670  10.593  1.00  0.00    -0.200 F 
ATOM     90  C   UNL     1       3.652  14.919  10.500  1.00  0.00     0.200 A 
ATOM     91  F   UNL     1       5.666  16.143  10.362  1.00  0.00    -0.200 F 
ATOM     92  F   UNL     1       3.168  15.789  11.397  1.00  0.00    -0.200 F 
ENDBRANCH  59  82
ENDBRANCH  33  34
ENDBRANCH  25  28
ENDBRANCH  23  24
ENDBRANCH  22  23
ENDBRANCH   1  22
TORSDOF 14
