REMARK SMILES O=C(NCCCCNC(=O)c1cc(S(=O)(=O)N2CCCCC2)c(Cl)cc1Cl)c1ccc(-c2c3nc(c(-c4c(F)c(F)c(F)c(F)c4F)c4ccc([nH]4)c(-c4c(F)c(F)c(F)c(F)c4F)c4nc(c(-c5c(F)c(F)c(F)c(F)c5F)c5ccc2[nH]5)C=C4)C=C3)cc1
REMARK SMILES IDX 5 1 4 2 3 3 1 4 2 5 28 7 29 8 90 9 30 10 89 11 31 12 32 13
REMARK SMILES IDX 33 14 83 15 34 16 88 17 82 18 84 19 35 20 87 21 81 22 80 23
REMARK SMILES IDX 36 25 68 26 48 27 67 28 49 29 52 30 66 31 85 32 50 33 51 34
REMARK SMILES IDX 65 36 86 37 53 38 37 39 38 40 46 41 39 42 40 43 44 44 47 45
REMARK SMILES IDX 41 46 42 47 45 48 43 49 69 50 70 51 78 52 71 53 72 54 76 55
REMARK SMILES IDX 79 56 73 57 74 58 77 59 75 60 54 61 55 62 63 63 56 64 57 65
REMARK SMILES IDX 61 66 64 67 58 68 59 69 62 70 60 71 6 72 7 73 8 74 9 75
REMARK SMILES IDX 10 77 11 78 12 79 26 80 13 81 25 82 27 83 23 84 24 85 14 86
REMARK SMILES IDX 15 87 16 88 17 89 18 90 22 91 19 92 21 93 20 94
REMARK H PARENT 3 6 84 24 52 35 8 76
REMARK Flexibility Score: inf
ROOT
ATOM      1  C   UNL     1       4.945  -2.650  -0.951  1.00  0.00     0.023 C 
ENDROOT
BRANCH   1   2
ATOM      2  C   UNL     1       4.633  -1.169  -0.786  1.00  0.00     0.116 C 
BRANCH   2   3
ATOM      3  N   UNL     1       3.213  -0.858  -0.835  1.00  0.00    -0.352 N 
ATOM      4  O   UNL     1       1.253   0.018  -0.131  1.00  0.00    -0.269 OA
ATOM      5  C   UNL     1       2.468  -0.068   0.010  1.00  0.00     0.251 C 
ATOM      6  H   UNL     1       2.715  -1.272  -1.577  1.00  0.00     0.163 HD
BRANCH   5   7
ATOM      7  C   UNL     1       3.133   0.641   1.125  1.00  0.00     0.039 A 
ATOM      8  C   UNL     1       4.320   1.347   0.921  1.00  0.00     0.014 A 
ATOM      9  C   UNL     1       2.575   0.562   2.404  1.00  0.00     0.014 A 
ATOM     10  C   UNL     1       5.035   1.821   2.015  1.00  0.00     0.010 A 
ATOM     11  C   UNL     1       3.254   1.113   3.494  1.00  0.00     0.010 A 
ATOM     12  C   UNL     1       4.515   1.701   3.315  1.00  0.00    -0.014 A 
BRANCH  12  13
ATOM     13  C   UNL     1       5.312   2.205   4.462  1.00  0.00     0.031 A 
ATOM     14  C   UNL     1       5.872   1.263   5.492  1.00  0.00     0.074 A 
ATOM     15  C   UNL     1       5.579   3.522   4.539  1.00  0.00     0.049 A 
ATOM     16  N   UNL     1       6.645   1.526   6.518  1.00  0.00    -0.248 NA
ATOM     17  C   UNL     1       5.514  -0.158   5.365  1.00  0.00     0.031 C 
ATOM     18  C   UNL     1       5.081   4.536   3.608  1.00  0.00     0.029 A 
ATOM     19  N   UNL     1       6.359   4.230   5.417  1.00  0.00    -0.354 N 
ATOM     20  C   UNL     1       6.839   0.316   7.171  1.00  0.00     0.074 A 
ATOM     21  C   UNL     1       6.093  -0.683   6.437  1.00  0.00     0.031 C 
ATOM     22  C   UNL     1       5.618   5.723   3.925  1.00  0.00     0.029 A 
ATOM     23  C   UNL     1       6.459   5.563   5.106  1.00  0.00     0.049 A 
ATOM     24  H   UNL     1       6.804   3.822   6.195  1.00  0.00     0.167 HD
ATOM     25  C   UNL     1       7.578   0.063   8.277  1.00  0.00     0.037 A 
ATOM     26  C   UNL     1       7.156   6.547   5.702  1.00  0.00     0.037 A 
ATOM     27  C   UNL     1       8.356   1.048   8.983  1.00  0.00     0.049 A 
ATOM     28  C   UNL     1       7.988   6.232   6.910  1.00  0.00     0.074 A 
ATOM     29  C   UNL     1       9.179   0.874  10.083  1.00  0.00     0.029 A 
ATOM     30  N   UNL     1       8.411   2.393   8.652  1.00  0.00    -0.354 N 
ATOM     31  N   UNL     1       8.186   5.078   7.498  1.00  0.00    -0.248 NA
ATOM     32  C   UNL     1       8.689   7.358   7.541  1.00  0.00     0.031 C 
ATOM     33  C   UNL     1       9.709   2.120  10.436  1.00  0.00     0.029 A 
ATOM     34  C   UNL     1       9.241   3.064   9.537  1.00  0.00     0.049 A 
ATOM     35  H   UNL     1       7.932   2.810   7.901  1.00  0.00     0.167 HD
ATOM     36  C   UNL     1       9.039   5.335   8.560  1.00  0.00     0.074 A 
ATOM     37  C   UNL     1       9.339   6.752   8.524  1.00  0.00     0.031 C 
ATOM     38  C   UNL     1       9.526   4.474   9.486  1.00  0.00     0.037 A 
BRANCH  25  39
ATOM     39  C   UNL     1       7.574  -1.339   8.810  1.00  0.00     0.064 A 
ATOM     40  C   UNL     1       8.295  -2.367   8.185  1.00  0.00     0.173 A 
ATOM     41  C   UNL     1       6.878  -1.646   9.989  1.00  0.00     0.173 A 
ATOM     42  F   UNL     1       8.966  -2.127   7.049  1.00  0.00    -0.203 F 
ATOM     43  C   UNL     1       8.304  -3.656   8.713  1.00  0.00     0.198 A 
ATOM     44  C   UNL     1       6.907  -2.931  10.525  1.00  0.00     0.198 A 
ATOM     45  F   UNL     1       6.178  -0.696  10.627  1.00  0.00    -0.203 F 
ATOM     46  F   UNL     1       8.973  -4.632   8.082  1.00  0.00    -0.200 F 
ATOM     47  C   UNL     1       7.616  -3.935   9.885  1.00  0.00     0.200 A 
ATOM     48  F   UNL     1       6.248  -3.197  11.662  1.00  0.00    -0.200 F 
ATOM     49  F   UNL     1       7.632  -5.175  10.394  1.00  0.00    -0.200 F 
ENDBRANCH  25  39
BRANCH  26  50
ATOM     50  C   UNL     1       7.115   7.918   5.137  1.00  0.00     0.064 A 
ATOM     51  C   UNL     1       8.225   8.449   4.467  1.00  0.00     0.173 A 
ATOM     52  C   UNL     1       5.962   8.710   5.230  1.00  0.00     0.173 A 
ATOM     53  F   UNL     1       9.355   7.733   4.370  1.00  0.00    -0.203 F 
ATOM     54  C   UNL     1       8.184   9.727   3.915  1.00  0.00     0.198 A 
ATOM     55  C   UNL     1       5.915   9.978   4.658  1.00  0.00     0.198 A 
ATOM     56  F   UNL     1       4.875   8.240   5.859  1.00  0.00    -0.203 F 
ATOM     57  F   UNL     1       9.267  10.224   3.302  1.00  0.00    -0.200 F 
ATOM     58  C   UNL     1       7.027  10.487   4.004  1.00  0.00     0.200 A 
ATOM     59  F   UNL     1       4.792  10.704   4.735  1.00  0.00    -0.200 F 
ATOM     60  F   UNL     1       6.986  11.713   3.463  1.00  0.00    -0.200 F 
ENDBRANCH  26  50
BRANCH  38  61
ATOM     61  C   UNL     1      10.443   5.043  10.525  1.00  0.00     0.064 A 
ATOM     62  C   UNL     1       9.950   5.811  11.590  1.00  0.00     0.173 A 
ATOM     63  C   UNL     1      11.823   4.805  10.465  1.00  0.00     0.173 A 
ATOM     64  F   UNL     1       8.638   6.079  11.678  1.00  0.00    -0.203 F 
ATOM     65  C   UNL     1      10.811   6.338  12.547  1.00  0.00     0.198 A 
ATOM     66  C   UNL     1      12.679   5.317  11.436  1.00  0.00     0.198 A 
ATOM     67  F   UNL     1      12.341   4.074   9.466  1.00  0.00    -0.203 F 
ATOM     68  F   UNL     1      10.325   7.104  13.534  1.00  0.00    -0.200 F 
ATOM     69  C   UNL     1      12.173   6.088  12.472  1.00  0.00     0.200 A 
ATOM     70  F   UNL     1      13.995   5.070  11.365  1.00  0.00    -0.200 F 
ATOM     71  F   UNL     1      13.001   6.599  13.394  1.00  0.00    -0.200 F 
ENDBRANCH  38  61
ENDBRANCH  12  13
ENDBRANCH   5   7
ENDBRANCH   2   3
ENDBRANCH   1   2
BRANCH   1  72
ATOM     72  C   UNL     1       4.494  -3.280  -2.265  1.00  0.00     0.023 C 
BRANCH  72  73
ATOM     73  C   UNL     1       4.855  -2.497  -3.522  1.00  0.00     0.116 C 
BRANCH  73  74
ATOM     74  N   UNL     1       6.287  -2.259  -3.658  1.00  0.00    -0.352 N 
ATOM     75  C   UNL     1       7.173  -2.738  -4.591  1.00  0.00     0.252 C 
ATOM     76  H   UNL     1       6.677  -1.664  -2.978  1.00  0.00     0.163 HD
ATOM     77  O   UNL     1       8.355  -2.421  -4.558  1.00  0.00    -0.269 OA
BRANCH  75  78
ATOM     78  C   UNL     1       6.673  -3.622  -5.655  1.00  0.00     0.059 A 
ATOM     79  C   UNL     1       5.695  -3.125  -6.523  1.00  0.00     0.038 A 
ATOM     80  C   UNL     1       7.096  -4.938  -5.774  1.00  0.00     0.055 A 
ATOM     81  C   UNL     1       5.026  -3.963  -7.441  1.00  0.00     0.102 A 
ATOM     82  C   UNL     1       6.494  -5.754  -6.734  1.00  0.00     0.043 A 
ATOM     83  Cl  UNL     1       8.282  -5.642  -4.741  1.00  0.00    -0.083 Cl
ATOM     84  C   UNL     1       5.446  -5.286  -7.555  1.00  0.00     0.062 A 
ATOM     85  Cl  UNL     1       4.823  -6.488  -8.610  1.00  0.00    -0.083 Cl
BRANCH  81  86
ATOM     86  S   UNL     1       3.644  -3.129  -8.195  1.00  0.00     0.244 S 
ATOM     87  O   UNL     1       2.794  -2.775  -7.073  1.00  0.00    -0.207 OA
ATOM     88  O   UNL     1       4.240  -2.094  -9.015  1.00  0.00    -0.207 OA
BRANCH  86  89
ATOM     89  N   UNL     1       2.735  -4.122  -9.207  1.00  0.00    -0.198 NA
ATOM     90  C   UNL     1       3.255  -4.344 -10.572  1.00  0.00     0.102 C 
ATOM     91  C   UNL     1       1.799  -5.075  -8.574  1.00  0.00     0.102 C 
ATOM     92  C   UNL     1       2.309  -5.122 -11.472  1.00  0.00     0.017 C 
ATOM     93  C   UNL     1       0.908  -5.807  -9.566  1.00  0.00     0.017 C 
ATOM     94  C   UNL     1       1.688  -6.312 -10.764  1.00  0.00     0.003 C 
ENDBRANCH  86  89
ENDBRANCH  81  86
ENDBRANCH  75  78
ENDBRANCH  73  74
ENDBRANCH  72  73
ENDBRANCH   1  72
TORSDOF 13
