REMARK SMILES O=C(NCCCCNC(=O)c1cncc(Oc2cc(F)ccc2F)n1)c1ccc(-c2c3nc(c(-c4c(F)c(F)c(F)c(F)c4F)c4ccc([nH]4)c(-c4c(F)c(F)c(F)c(F)c4F)c4nc(c(-c5c(F)c(F)c(F)c(F)c5F)c5ccc2[nH]5)C=C4)C=C3)cc1
REMARK SMILES IDX 5 1 4 2 3 3 1 4 2 5 26 7 27 8 88 9 28 10 87 11 29 12 30 13
REMARK SMILES IDX 31 14 81 15 32 16 86 17 80 18 82 19 33 20 85 21 79 22 78 23
REMARK SMILES IDX 34 25 66 26 46 27 65 28 47 29 50 30 64 31 83 32 48 33 49 34
REMARK SMILES IDX 63 36 84 37 51 38 35 39 36 40 44 41 37 42 38 43 42 44 45 45
REMARK SMILES IDX 39 46 40 47 43 48 41 49 67 50 68 51 76 52 69 53 70 54 74 55
REMARK SMILES IDX 77 56 71 57 72 58 75 59 73 60 52 61 53 62 61 63 54 64 55 65
REMARK SMILES IDX 59 66 62 67 56 68 57 69 60 70 58 71 6 72 7 73 8 74 9 75
REMARK SMILES IDX 10 77 11 78 12 79 25 80 13 81 15 82 14 83 16 84 17 85 18 86
REMARK SMILES IDX 23 87 19 88 22 89 24 90 20 91 21 92
REMARK H PARENT 3 6 82 24 50 35 8 76
REMARK Flexibility Score: inf
ROOT
ATOM      1  C   UNL     1       4.806  -0.317  -2.853  1.00  0.00     0.023 C 
ENDROOT
BRANCH   1   2
ATOM      2  C   UNL     1       4.510   0.323  -1.503  1.00  0.00     0.116 C 
BRANCH   2   3
ATOM      3  N   UNL     1       3.088   0.440  -1.217  1.00  0.00    -0.352 N 
ATOM      4  O   UNL     1       1.159   0.111  -0.090  1.00  0.00    -0.269 OA
ATOM      5  C   UNL     1       2.384   0.026  -0.110  1.00  0.00     0.251 C 
ATOM      6  H   UNL     1       2.552   0.879  -1.917  1.00  0.00     0.163 HD
BRANCH   5   7
ATOM      7  C   UNL     1       3.100  -0.558   1.046  1.00  0.00     0.039 A 
ATOM      8  C   UNL     1       4.268   0.030   1.532  1.00  0.00     0.014 A 
ATOM      9  C   UNL     1       2.599  -1.718   1.646  1.00  0.00     0.014 A 
ATOM     10  C   UNL     1       5.023  -0.632   2.493  1.00  0.00     0.010 A 
ATOM     11  C   UNL     1       3.312  -2.332   2.682  1.00  0.00     0.010 A 
ATOM     12  C   UNL     1       4.551  -1.816   3.086  1.00  0.00    -0.014 A 
BRANCH  12  13
ATOM     13  C   UNL     1       5.361  -2.447   4.160  1.00  0.00     0.031 A 
ATOM     14  C   UNL     1       5.991  -3.798   3.980  1.00  0.00     0.074 A 
ATOM     15  C   UNL     1       5.580  -1.746   5.289  1.00  0.00     0.049 A 
ATOM     16  N   UNL     1       6.814  -4.434   4.778  1.00  0.00    -0.248 NA
ATOM     17  C   UNL     1       5.652  -4.542   2.758  1.00  0.00     0.031 C 
ATOM     18  C   UNL     1       4.997  -0.435   5.584  1.00  0.00     0.029 A 
ATOM     19  N   UNL     1       6.377  -2.008   6.373  1.00  0.00    -0.354 N 
ATOM     20  C   UNL     1       7.073  -5.653   4.168  1.00  0.00     0.074 A 
ATOM     21  C   UNL     1       6.304  -5.682   2.942  1.00  0.00     0.031 C 
ATOM     22  C   UNL     1       5.514   0.026   6.730  1.00  0.00     0.029 A 
ATOM     23  C   UNL     1       6.420  -0.978   7.280  1.00  0.00     0.049 A 
ATOM     24  H   UNL     1       6.869  -2.853   6.491  1.00  0.00     0.167 HD
ATOM     25  C   UNL     1       7.887  -6.650   4.590  1.00  0.00     0.037 A 
ATOM     26  C   UNL     1       7.114  -0.847   8.425  1.00  0.00     0.037 A 
ATOM     27  C   UNL     1       8.675  -6.601   5.795  1.00  0.00     0.049 A 
ATOM     28  C   UNL     1       8.019  -1.959   8.864  1.00  0.00     0.074 A 
ATOM     29  C   UNL     1       9.575  -7.538   6.275  1.00  0.00     0.029 A 
ATOM     30  N   UNL     1       8.656  -5.560   6.712  1.00  0.00    -0.354 N 
ATOM     31  N   UNL     1       8.287  -3.088   8.256  1.00  0.00    -0.248 NA
ATOM     32  C   UNL     1       8.710  -1.786  10.148  1.00  0.00     0.031 C 
ATOM     33  C   UNL     1      10.066  -7.084   7.504  1.00  0.00     0.029 A 
ATOM     34  C   UNL     1       9.506  -5.844   7.769  1.00  0.00     0.049 A 
ATOM     35  H   UNL     1       8.117  -4.740   6.625  1.00  0.00     0.167 HD
ATOM     36  C   UNL     1       9.175  -3.763   9.079  1.00  0.00     0.074 A 
ATOM     37  C   UNL     1       9.420  -2.905  10.221  1.00  0.00     0.031 C 
ATOM     38  C   UNL     1       9.730  -4.986   8.905  1.00  0.00     0.037 A 
BRANCH  25  39
ATOM     39  C   UNL     1       7.968  -7.893   3.753  1.00  0.00     0.064 A 
ATOM     40  C   UNL     1       7.413  -9.096   4.215  1.00  0.00     0.173 A 
ATOM     41  C   UNL     1       8.650  -7.914   2.527  1.00  0.00     0.173 A 
ATOM     42  F   UNL     1       6.758  -9.133   5.386  1.00  0.00    -0.203 F 
ATOM     43  C   UNL     1       7.544 -10.275   3.486  1.00  0.00     0.198 A 
ATOM     44  C   UNL     1       8.758  -9.090   1.788  1.00  0.00     0.198 A 
ATOM     45  F   UNL     1       9.192  -6.789   2.037  1.00  0.00    -0.203 F 
ATOM     46  F   UNL     1       7.027 -11.417   3.960  1.00  0.00    -0.200 F 
ATOM     47  C   UNL     1       8.212 -10.270   2.271  1.00  0.00     0.200 A 
ATOM     48  F   UNL     1       9.387  -9.080   0.604  1.00  0.00    -0.200 F 
ATOM     49  F   UNL     1       8.328 -11.402   1.563  1.00  0.00    -0.200 F 
ENDBRANCH  25  39
BRANCH  26  50
ATOM     50  C   UNL     1       6.981   0.408   9.206  1.00  0.00     0.064 A 
ATOM     51  C   UNL     1       5.787   0.727   9.869  1.00  0.00     0.173 A 
ATOM     52  C   UNL     1       8.015   1.352   9.227  1.00  0.00     0.173 A 
ATOM     53  F   UNL     1       4.766  -0.143   9.867  1.00  0.00    -0.203 F 
ATOM     54  C   UNL     1       5.620   1.959  10.494  1.00  0.00     0.198 A 
ATOM     55  C   UNL     1       7.856   2.575   9.874  1.00  0.00     0.198 A 
ATOM     56  F   UNL     1       9.180   1.084   8.618  1.00  0.00    -0.203 F 
ATOM     57  F   UNL     1       4.450   2.260  11.075  1.00  0.00    -0.200 F 
ATOM     58  C   UNL     1       6.654   2.883  10.496  1.00  0.00     0.200 A 
ATOM     59  F   UNL     1       8.861   3.460   9.887  1.00  0.00    -0.200 F 
ATOM     60  F   UNL     1       6.491   4.072  11.092  1.00  0.00    -0.200 F 
ENDBRANCH  26  50
BRANCH  38  61
ATOM     61  C   UNL     1      10.654  -5.482   9.975  1.00  0.00     0.064 A 
ATOM     62  C   UNL     1      12.036  -5.549   9.750  1.00  0.00     0.173 A 
ATOM     63  C   UNL     1      10.159  -5.962  11.196  1.00  0.00     0.173 A 
ATOM     64  F   UNL     1      12.555  -5.108   8.595  1.00  0.00    -0.203 F 
ATOM     65  C   UNL     1      12.890  -6.093  10.706  1.00  0.00     0.198 A 
ATOM     66  C   UNL     1      11.018  -6.484  12.158  1.00  0.00     0.198 A 
ATOM     67  F   UNL     1       8.845  -5.905  11.461  1.00  0.00    -0.203 F 
ATOM     68  F   UNL     1      14.205  -6.174  10.459  1.00  0.00    -0.200 F 
ATOM     69  C   UNL     1      12.380  -6.558  11.909  1.00  0.00     0.200 A 
ATOM     70  F   UNL     1      10.527  -6.915  13.329  1.00  0.00    -0.200 F 
ATOM     71  F   UNL     1      13.204  -7.076  12.830  1.00  0.00    -0.200 F 
ENDBRANCH  38  61
ENDBRANCH  12  13
ENDBRANCH   5   7
ENDBRANCH   2   3
ENDBRANCH   1   2
BRANCH   1  72
ATOM     72  C   UNL     1       4.320   0.460  -4.075  1.00  0.00     0.023 C 
BRANCH  72  73
ATOM     73  C   UNL     1       4.740   1.927  -4.134  1.00  0.00     0.116 C 
BRANCH  73  74
ATOM     74  N   UNL     1       6.181   2.105  -4.077  1.00  0.00    -0.351 N 
ATOM     75  C   UNL     1       7.010   2.772  -4.952  1.00  0.00     0.271 C 
ATOM     76  H   UNL     1       6.628   1.690  -3.304  1.00  0.00     0.163 HD
ATOM     77  O   UNL     1       8.222   2.773  -4.759  1.00  0.00    -0.267 OA
BRANCH  75  78
ATOM     78  C   UNL     1       6.432   3.498  -6.103  1.00  0.00     0.150 A 
ATOM     79  C   UNL     1       5.572   4.566  -5.886  1.00  0.00     0.145 A 
ATOM     80  N   UNL     1       6.765   3.059  -7.343  1.00  0.00    -0.205 NA
ATOM     81  N   UNL     1       4.966   5.226  -6.903  1.00  0.00    -0.257 NA
ATOM     82  C   UNL     1       6.187   3.738  -8.360  1.00  0.00     0.238 A 
ATOM     83  C   UNL     1       5.296   4.785  -8.144  1.00  0.00     0.179 A 
BRANCH  82  84
ATOM     84  O   UNL     1       6.429   3.382  -9.681  1.00  0.00    -0.434 OA
BRANCH  84  85
ATOM     85  C   UNL     1       7.527   2.590  -9.906  1.00  0.00     0.168 A 
ATOM     86  C   UNL     1       7.491   1.220  -9.648  1.00  0.00     0.089 A 
ATOM     87  C   UNL     1       8.657   3.160 -10.496  1.00  0.00     0.166 A 
ATOM     88  C   UNL     1       8.608   0.448  -9.948  1.00  0.00     0.127 A 
ATOM     89  C   UNL     1       9.769   2.380 -10.802  1.00  0.00     0.046 A 
ATOM     90  F   UNL     1       8.678   4.469 -10.783  1.00  0.00    -0.203 F 
ATOM     91  F   UNL     1       8.586  -0.867  -9.693  1.00  0.00    -0.207 F 
ATOM     92  C   UNL     1       9.745   1.013 -10.523  1.00  0.00     0.042 A 
ENDBRANCH  84  85
ENDBRANCH  82  84
ENDBRANCH  75  78
ENDBRANCH  73  74
ENDBRANCH  72  73
ENDBRANCH   1  72
TORSDOF 13
