REMARK SMILES C[C@](O)(C(=O)NCCCCNC(=O)c1ccc(-c2c3nc(c(-c4c(F)c(F)c(F)c(F)c4F)c4ccc([nH]4)c(-c4c(F)c(F)c(F)c(F)c4F)c4nc(c(-c5c(F)c(F)c(F)c(F)c5F)c5ccc2[nH]5)C=C4)C=C3)cc1)c1ccc(O)cc1
REMARK SMILES IDX 8 1 7 2 6 3 4 4 5 5 2 7 1 8 77 9 78 10 83 11 79 12 82 13
REMARK SMILES IDX 80 14 81 15 3 17 9 19 10 20 11 21 12 22 13 24 14 25 15 26
REMARK SMILES IDX 76 27 16 28 75 29 17 30 18 31 19 32 69 33 20 34 74 35 68 36
REMARK SMILES IDX 70 37 21 38 73 39 67 40 66 41 22 43 54 44 34 45 53 46 35 47
REMARK SMILES IDX 38 48 52 49 71 50 36 51 37 52 51 54 72 55 39 56 23 57 24 58
REMARK SMILES IDX 32 59 25 60 26 61 30 62 33 63 27 64 28 65 31 66 29 67 55 68
REMARK SMILES IDX 56 69 64 70 57 71 58 72 62 73 65 74 59 75 60 76 63 77 61 78
REMARK SMILES IDX 40 79 41 80 49 81 42 82 43 83 47 84 50 85 44 86 45 87 48 88
REMARK SMILES IDX 46 89
REMARK H PARENT 6 6 81 16 3 18 11 23 70 42 38 53
REMARK Flexibility Score: inf
ROOT
ATOM      1  C   UNL     1      -1.244  -2.699   0.112  1.00  0.00     0.023 C 
ENDROOT
BRANCH   1   2
ATOM      2  C   UNL     1      -0.906  -1.962  -1.184  1.00  0.00     0.116 C 
BRANCH   2   3
ATOM      3  N   UNL     1      -1.480  -0.631  -1.180  1.00  0.00    -0.353 N 
ATOM      4  C   UNL     1      -0.939   0.620  -1.067  1.00  0.00     0.256 C 
ATOM      5  O   UNL     1      -1.774   1.517  -0.918  1.00  0.00    -0.271 OA
ATOM      6  H   UNL     1      -2.460  -0.627  -1.278  1.00  0.00     0.163 HD
BRANCH   4   7
ATOM      7  C   UNL     1       0.618   0.855  -1.147  1.00  0.00     0.165 C 
ATOM      8  C   UNL     1       1.171   0.312  -2.476  1.00  0.00     0.058 C 
BRANCH   7   9
ATOM      9  C   UNL     1       1.049   2.334  -1.051  1.00  0.00    -0.007 A 
ATOM     10  C   UNL     1       2.308   2.657  -0.498  1.00  0.00     0.011 A 
ATOM     11  C   UNL     1       0.289   3.394  -1.577  1.00  0.00     0.011 A 
ATOM     12  C   UNL     1       2.763   3.975  -0.433  1.00  0.00     0.046 A 
ATOM     13  C   UNL     1       0.732   4.720  -1.491  1.00  0.00     0.046 A 
ATOM     14  C   UNL     1       1.965   4.998  -0.916  1.00  0.00     0.115 A 
BRANCH  14  15
ATOM     15  O   UNL     1       2.433   6.274  -0.814  1.00  0.00    -0.508 OA
ATOM     16  H   UNL     1       3.268   6.437  -0.422  1.00  0.00     0.293 HD
ENDBRANCH  14  15
ENDBRANCH   7   9
BRANCH   7  17
ATOM     17  O   UNL     1       1.272   0.173  -0.066  1.00  0.00    -0.376 OA
ATOM     18  H   UNL     1       0.932   0.507   0.779  1.00  0.00     0.212 HD
ENDBRANCH   7  17
ENDBRANCH   4   7
ENDBRANCH   2   3
ENDBRANCH   1   2
BRANCH   1  19
ATOM     19  C   UNL     1      -2.733  -2.998   0.303  1.00  0.00     0.023 C 
BRANCH  19  20
ATOM     20  C   UNL     1      -3.394  -3.754  -0.845  1.00  0.00     0.116 C 
BRANCH  20  21
ATOM     21  N   UNL     1      -2.748  -5.026  -1.130  1.00  0.00    -0.352 N 
ATOM     22  C   UNL     1      -3.320  -6.253  -1.355  1.00  0.00     0.251 C 
ATOM     23  H   UNL     1      -1.765  -5.003  -1.168  1.00  0.00     0.163 HD
ATOM     24  O   UNL     1      -2.619  -7.256  -1.446  1.00  0.00    -0.269 OA
BRANCH  22  25
ATOM     25  C   UNL     1      -4.790  -6.366  -1.453  1.00  0.00     0.039 A 
ATOM     26  C   UNL     1      -5.439  -7.365  -0.724  1.00  0.00     0.014 A 
ATOM     27  C   UNL     1      -5.524  -5.476  -2.241  1.00  0.00     0.014 A 
ATOM     28  C   UNL     1      -6.833  -7.428  -0.731  1.00  0.00     0.010 A 
ATOM     29  C   UNL     1      -6.914  -5.493  -2.187  1.00  0.00     0.010 A 
ATOM     30  C   UNL     1      -7.583  -6.468  -1.432  1.00  0.00    -0.014 A 
BRANCH  30  31
ATOM     31  C   UNL     1      -9.066  -6.466  -1.381  1.00  0.00     0.031 A 
ATOM     32  C   UNL     1      -9.866  -6.699  -2.632  1.00  0.00     0.074 A 
ATOM     33  C   UNL     1      -9.692  -6.189  -0.220  1.00  0.00     0.049 A 
ATOM     34  N   UNL     1     -11.163  -6.668  -2.804  1.00  0.00    -0.248 NA
ATOM     35  C   UNL     1      -9.105  -6.976  -3.860  1.00  0.00     0.031 C 
ATOM     36  C   UNL     1      -9.027  -5.899   1.052  1.00  0.00     0.029 A 
ATOM     37  N   UNL     1     -11.029  -6.094   0.077  1.00  0.00    -0.354 N 
ATOM     38  C   UNL     1     -11.371  -6.906  -4.156  1.00  0.00     0.074 A 
ATOM     39  C   UNL     1     -10.067  -7.025  -4.770  1.00  0.00     0.031 C 
ATOM     40  C   UNL     1      -9.957  -5.684   1.996  1.00  0.00     0.029 A 
ATOM     41  C   UNL     1     -11.281  -5.779   1.390  1.00  0.00     0.049 A 
ATOM     42  H   UNL     1     -11.740  -6.239  -0.589  1.00  0.00     0.167 HD
ATOM     43  C   UNL     1     -12.544  -7.036  -4.820  1.00  0.00     0.037 A 
ATOM     44  C   UNL     1     -12.450  -5.581   2.030  1.00  0.00     0.037 A 
ATOM     45  C   UNL     1     -13.839  -6.942  -4.199  1.00  0.00     0.049 A 
ATOM     46  C   UNL     1     -13.738  -5.721   1.264  1.00  0.00     0.074 A 
ATOM     47  C   UNL     1     -15.085  -7.124  -4.773  1.00  0.00     0.029 A 
ATOM     48  N   UNL     1     -14.055  -6.635  -2.864  1.00  0.00    -0.354 N 
ATOM     49  N   UNL     1     -13.924  -6.021   0.002  1.00  0.00    -0.248 NA
ATOM     50  C   UNL     1     -14.982  -5.498   2.016  1.00  0.00     0.031 C 
ATOM     51  C   UNL     1     -16.056  -6.874  -3.798  1.00  0.00     0.029 A 
ATOM     52  C   UNL     1     -15.416  -6.595  -2.602  1.00  0.00     0.049 A 
ATOM     53  H   UNL     1     -13.347  -6.469  -2.201  1.00  0.00     0.167 HD
ATOM     54  C   UNL     1     -15.299  -6.057  -0.184  1.00  0.00     0.074 A 
ATOM     55  C   UNL     1     -15.901  -5.762   1.099  1.00  0.00     0.031 C 
ATOM     56  C   UNL     1     -16.000  -6.311  -1.316  1.00  0.00     0.037 A 
BRANCH  43  57
ATOM     57  C   UNL     1     -12.483  -7.297  -6.298  1.00  0.00     0.064 A 
ATOM     58  C   UNL     1     -12.022  -8.518  -6.813  1.00  0.00     0.173 A 
ATOM     59  C   UNL     1     -12.933  -6.330  -7.210  1.00  0.00     0.173 A 
ATOM     60  F   UNL     1     -11.570  -9.473  -5.985  1.00  0.00    -0.203 F 
ATOM     61  C   UNL     1     -11.986  -8.750  -8.185  1.00  0.00     0.198 A 
ATOM     62  C   UNL     1     -12.926  -6.578  -8.580  1.00  0.00     0.198 A 
ATOM     63  F   UNL     1     -13.389  -5.147  -6.772  1.00  0.00    -0.203 F 
ATOM     64  F   UNL     1     -11.495  -9.905  -8.655  1.00  0.00    -0.200 F 
ATOM     65  C   UNL     1     -12.446  -7.784  -9.067  1.00  0.00     0.200 A 
ATOM     66  F   UNL     1     -13.385  -5.648  -9.430  1.00  0.00    -0.200 F 
ATOM     67  F   UNL     1     -12.421  -8.013 -10.387  1.00  0.00    -0.200 F 
ENDBRANCH  43  57
BRANCH  44  68
ATOM     68  C   UNL     1     -12.460  -5.252   3.480  1.00  0.00     0.064 A 
ATOM     69  C   UNL     1     -12.961  -6.163   4.421  1.00  0.00     0.173 A 
ATOM     70  C   UNL     1     -11.989  -4.019   3.954  1.00  0.00     0.173 A 
ATOM     71  F   UNL     1     -13.442  -7.348   4.015  1.00  0.00    -0.203 F 
ATOM     72  C   UNL     1     -13.014  -5.844   5.776  1.00  0.00     0.198 A 
ATOM     73  C   UNL     1     -12.013  -3.713   5.314  1.00  0.00     0.198 A 
ATOM     74  F   UNL     1     -11.495  -3.114   3.097  1.00  0.00    -0.203 F 
ATOM     75  F   UNL     1     -13.546  -6.713   6.646  1.00  0.00    -0.200 F 
ATOM     76  C   UNL     1     -12.535  -4.622   6.222  1.00  0.00     0.200 A 
ATOM     77  F   UNL     1     -11.536  -2.537   5.742  1.00  0.00    -0.200 F 
ATOM     78  F   UNL     1     -12.585  -4.316   7.526  1.00  0.00    -0.200 F 
ENDBRANCH  44  68
BRANCH  56  79
ATOM     79  C   UNL     1     -17.498  -6.325  -1.211  1.00  0.00     0.064 A 
ATOM     80  C   UNL     1     -18.236  -5.149  -1.017  1.00  0.00     0.173 A 
ATOM     81  C   UNL     1     -18.206  -7.530  -1.348  1.00  0.00     0.173 A 
ATOM     82  F   UNL     1     -17.607  -3.974  -0.866  1.00  0.00    -0.203 F 
ATOM     83  C   UNL     1     -19.626  -5.181  -0.935  1.00  0.00     0.198 A 
ATOM     84  C   UNL     1     -19.597  -7.554  -1.300  1.00  0.00     0.198 A 
ATOM     85  F   UNL     1     -17.549  -8.683  -1.543  1.00  0.00    -0.203 F 
ATOM     86  F   UNL     1     -20.308  -4.052  -0.698  1.00  0.00    -0.200 F 
ATOM     87  C   UNL     1     -20.305  -6.381  -1.085  1.00  0.00     0.200 A 
ATOM     88  F   UNL     1     -20.252  -8.712  -1.461  1.00  0.00    -0.200 F 
ATOM     89  F   UNL     1     -21.643  -6.409  -1.015  1.00  0.00    -0.200 F 
ENDBRANCH  56  79
ENDBRANCH  30  31
ENDBRANCH  22  25
ENDBRANCH  20  21
ENDBRANCH  19  20
ENDBRANCH   1  19
TORSDOF 14
