REMARK SMILES NC(=O)[C@@H]1CCC[N@@H+]1[C@@H](C(=O)NCCCCNC(=O)c1ccc(-c2c3nc(c(-c4c(F)c(F)c(F)c(F)c4F)c4ccc([nH]4)c(-c4c(F)c(F)c(F)c(F)c4F)c4nc(c(-c5c(F)c(F)c(F)c(F)c5F)c5ccc2[nH]5)C=C4)C=C3)cc1)c1c[nH]c2cc(OCc3ccccc3)ccc12
REMARK SMILES IDX 13 1 12 2 10 3 11 4 9 6 8 7 4 8 5 9 6 10 7 11 2 13 1 14 3 17
REMARK SMILES IDX 83 18 84 19 99 20 85 21 86 22 98 23 87 25 97 26 88 27 89 28
REMARK SMILES IDX 90 29 91 30 92 31 96 32 93 33 95 34 94 35 14 36 15 37 16 38
REMARK SMILES IDX 17 39 18 40 19 42 20 43 21 44 82 45 22 46 81 47 23 48 24 49
REMARK SMILES IDX 25 50 75 51 26 52 80 53 74 54 76 55 27 56 79 57 73 58 72 59
REMARK SMILES IDX 28 61 60 62 40 63 59 64 41 65 44 66 58 67 77 68 42 69 43 70
REMARK SMILES IDX 57 72 78 73 45 74 29 75 30 76 38 77 31 78 32 79 36 80 39 81
REMARK SMILES IDX 33 82 34 83 37 84 35 85 61 86 62 87 70 88 63 89 64 90 68 91
REMARK SMILES IDX 71 92 65 93 66 94 69 95 67 96 46 97 47 98 55 99 48 100
REMARK SMILES IDX 49 101 53 102 56 103 50 104 51 105 54 106 52 107
REMARK H PARENT 12 5 8 12 1 15 1 16 85 24 17 41 76 60 44 71
REMARK Flexibility Score: inf
ROOT
ATOM      1  C   UNL     1      -1.731  -0.284   2.205  1.00  0.00     0.116 C 
ENDROOT
BRANCH   1   2
ATOM      2  N   UNL     1      -1.750   0.246   3.557  1.00  0.00    -0.351 N 
ATOM      3  C   UNL     1      -1.379   1.386   4.206  1.00  0.00     0.283 C 
ATOM      4  O   UNL     1      -1.528   1.256   5.428  1.00  0.00    -0.268 OA
ATOM      5  H   UNL     1      -2.143  -0.403   4.184  1.00  0.00     0.163 HD
BRANCH   3   6
ATOM      6  C   UNL     1      -0.855   2.708   3.535  1.00  0.00     0.308 C 
BRANCH   6   7
ATOM      7  N   UNL     1       0.646   2.781   3.264  1.00  0.00    -0.311 N 
ATOM      8  C   UNL     1       1.304   1.756   2.432  1.00  0.00     0.275 C 
ATOM      9  C   UNL     1       1.625   0.624   3.412  1.00  0.00     0.081 C 
ATOM     10  C   UNL     1       1.845   1.322   4.742  1.00  0.00     0.068 C 
ATOM     11  C   UNL     1       1.549   2.768   4.427  1.00  0.00     0.264 C 
ATOM     12  H   UNL     1       0.556   3.676   2.783  1.00  0.00     0.349 HD
BRANCH   8  13
ATOM     13  C   UNL     1       0.728   1.519   1.034  1.00  0.00     0.275 C 
ATOM     14  N   UNL     1       1.442   0.648   0.252  1.00  0.00    -0.365 N 
ATOM     15  H   UNL     1       1.137   0.443  -0.662  1.00  0.00     0.159 HD
ATOM     16  H   UNL     1       2.261   0.228   0.603  1.00  0.00     0.159 HD
ATOM     17  O   UNL     1      -0.245   2.089   0.552  1.00  0.00    -0.268 OA
ENDBRANCH   8  13
ENDBRANCH   6   7
BRANCH   6  18
ATOM     18  C   UNL     1      -1.197   4.013   4.376  1.00  0.00     0.044 A 
ATOM     19  C   UNL     1      -0.995   5.330   3.963  1.00  0.00     0.094 A 
ATOM     20  C   UNL     1      -1.209   4.192   5.805  1.00  0.00     0.009 A 
ATOM     21  N   UNL     1      -0.003   5.755   4.835  1.00  0.00    -0.361 N 
ATOM     22  C   UNL     1      -0.131   5.054   6.010  1.00  0.00     0.050 A 
ATOM     23  C   UNL     1      -1.758   3.554   6.931  1.00  0.00     0.015 A 
ATOM     24  H   UNL     1       0.675   6.442   4.645  1.00  0.00     0.166 HD
ATOM     25  C   UNL     1       0.668   4.966   7.152  1.00  0.00     0.073 A 
ATOM     26  C   UNL     1      -1.052   3.565   8.141  1.00  0.00     0.047 A 
ATOM     27  C   UNL     1       0.209   4.149   8.192  1.00  0.00     0.121 A 
BRANCH  27  28
ATOM     28  O   UNL     1       1.149   3.803   9.128  1.00  0.00    -0.489 OA
BRANCH  28  29
ATOM     29  C   UNL     1       0.790   4.003  10.495  1.00  0.00     0.265 C 
BRANCH  29  30
ATOM     30  C   UNL     1       1.039   5.426  10.944  1.00  0.00    -0.011 A 
ATOM     31  C   UNL     1       0.519   5.865  12.167  1.00  0.00     0.007 A 
ATOM     32  C   UNL     1       1.798   6.323  10.178  1.00  0.00     0.007 A 
ATOM     33  C   UNL     1       0.701   7.187  12.575  1.00  0.00     0.000 A 
ATOM     34  C   UNL     1       1.954   7.650  10.568  1.00  0.00     0.000 A 
ATOM     35  C   UNL     1       1.399   8.083  11.766  1.00  0.00     0.000 A 
ENDBRANCH  29  30
ENDBRANCH  28  29
ENDBRANCH  27  28
ENDBRANCH   6  18
ENDBRANCH   3   6
ENDBRANCH   1   2
BRANCH   1  36
ATOM     36  C   UNL     1      -0.624  -1.327   1.945  1.00  0.00     0.023 C 
BRANCH  36  37
ATOM     37  C   UNL     1      -0.358  -2.341   3.068  1.00  0.00     0.023 C 
BRANCH  37  38
ATOM     38  C   UNL     1      -0.690  -3.745   2.627  1.00  0.00     0.116 C 
BRANCH  38  39
ATOM     39  N   UNL     1       0.216  -4.248   1.606  1.00  0.00    -0.352 N 
ATOM     40  C   UNL     1       0.406  -5.565   1.224  1.00  0.00     0.251 C 
ATOM     41  H   UNL     1       0.757  -3.574   1.133  1.00  0.00     0.163 HD
ATOM     42  O   UNL     1       1.272  -5.881   0.454  1.00  0.00    -0.269 OA
BRANCH  40  43
ATOM     43  C   UNL     1      -0.475  -6.583   1.850  1.00  0.00     0.039 A 
ATOM     44  C   UNL     1       0.100  -7.728   2.400  1.00  0.00     0.014 A 
ATOM     45  C   UNL     1      -1.848  -6.356   1.952  1.00  0.00     0.014 A 
ATOM     46  C   UNL     1      -0.708  -8.624   3.100  1.00  0.00     0.010 A 
ATOM     47  C   UNL     1      -2.621  -7.172   2.758  1.00  0.00     0.010 A 
ATOM     48  C   UNL     1      -2.068  -8.337   3.304  1.00  0.00    -0.014 A 
BRANCH  48  49
ATOM     49  C   UNL     1      -2.963  -9.286   4.001  1.00  0.00     0.031 A 
ATOM     50  C   UNL     1      -4.110  -9.895   3.241  1.00  0.00     0.074 A 
ATOM     51  C   UNL     1      -2.780  -9.546   5.308  1.00  0.00     0.049 A 
ATOM     52  N   UNL     1      -5.056 -10.693   3.664  1.00  0.00    -0.248 NA
ATOM     53  C   UNL     1      -4.239  -9.520   1.822  1.00  0.00     0.031 C 
ATOM     54  C   UNL     1      -1.740  -8.957   6.153  1.00  0.00     0.029 A 
ATOM     55  N   UNL     1      -3.468 -10.375   6.156  1.00  0.00    -0.354 N 
ATOM     56  C   UNL     1      -5.895 -10.888   2.575  1.00  0.00     0.074 A 
ATOM     57  C   UNL     1      -5.399 -10.065   1.497  1.00  0.00     0.031 C 
ATOM     58  C   UNL     1      -1.835  -9.472   7.390  1.00  0.00     0.029 A 
ATOM     59  C   UNL     1      -2.960 -10.401   7.431  1.00  0.00     0.049 A 
ATOM     60  H   UNL     1      -4.252 -10.901   5.877  1.00  0.00     0.167 HD
ATOM     61  C   UNL     1      -6.962 -11.713   2.470  1.00  0.00     0.037 A 
ATOM     62  C   UNL     1      -3.362 -11.106   8.505  1.00  0.00     0.037 A 
ATOM     63  C   UNL     1      -7.412 -12.564   3.536  1.00  0.00     0.049 A 
ATOM     64  C   UNL     1      -4.527 -12.047   8.353  1.00  0.00     0.074 A 
ATOM     65  C   UNL     1      -8.442 -13.485   3.532  1.00  0.00     0.029 A 
ATOM     66  N   UNL     1      -6.842 -12.601   4.801  1.00  0.00    -0.354 N 
ATOM     67  N   UNL     1      -5.274 -12.278   7.299  1.00  0.00    -0.248 NA
ATOM     68  C   UNL     1      -4.896 -12.838   9.534  1.00  0.00     0.031 C 
ATOM     69  C   UNL     1      -8.520 -14.053   4.808  1.00  0.00     0.029 A 
ATOM     70  C   UNL     1      -7.504 -13.524   5.590  1.00  0.00     0.049 A 
ATOM     71  H   UNL     1      -6.079 -12.051   5.094  1.00  0.00     0.167 HD
ATOM     72  C   UNL     1      -6.174 -13.264   7.676  1.00  0.00     0.074 A 
ATOM     73  C   UNL     1      -5.872 -13.596   9.054  1.00  0.00     0.031 C 
ATOM     74  C   UNL     1      -7.163 -13.846   6.952  1.00  0.00     0.037 A 
BRANCH  61  75
ATOM     75  C   UNL     1      -7.694 -11.739   1.159  1.00  0.00     0.064 A 
ATOM     76  C   UNL     1      -7.102 -12.253  -0.007  1.00  0.00     0.173 A 
ATOM     77  C   UNL     1      -9.005 -11.249   1.064  1.00  0.00     0.173 A 
ATOM     78  F   UNL     1      -5.843 -12.717   0.023  1.00  0.00    -0.203 F 
ATOM     79  C   UNL     1      -7.780 -12.241  -1.223  1.00  0.00     0.198 A 
ATOM     80  C   UNL     1      -9.693 -11.272  -0.146  1.00  0.00     0.198 A 
ATOM     81  F   UNL     1      -9.619 -10.747   2.145  1.00  0.00    -0.203 F 
ATOM     82  F   UNL     1      -7.169 -12.678  -2.333  1.00  0.00    -0.200 F 
ATOM     83  C   UNL     1      -9.078 -11.758  -1.290  1.00  0.00     0.200 A 
ATOM     84  F   UNL     1     -10.951 -10.814  -0.208  1.00  0.00    -0.200 F 
ATOM     85  F   UNL     1      -9.731 -11.751  -2.460  1.00  0.00    -0.200 F 
ENDBRANCH  61  75
BRANCH  62  86
ATOM     86  C   UNL     1      -2.626 -10.991   9.791  1.00  0.00     0.064 A 
ATOM     87  C   UNL     1      -1.859 -12.058  10.280  1.00  0.00     0.173 A 
ATOM     88  C   UNL     1      -2.671  -9.818  10.559  1.00  0.00     0.173 A 
ATOM     89  F   UNL     1      -1.794 -13.207   9.590  1.00  0.00    -0.203 F 
ATOM     90  C   UNL     1      -1.187 -11.967  11.497  1.00  0.00     0.198 A 
ATOM     91  C   UNL     1      -1.976  -9.717  11.762  1.00  0.00     0.198 A 
ATOM     92  F   UNL     1      -3.382  -8.764  10.132  1.00  0.00    -0.203 F 
ATOM     93  F   UNL     1      -0.500 -13.020  11.961  1.00  0.00    -0.200 F 
ATOM     94  C   UNL     1      -1.242 -10.795  12.235  1.00  0.00     0.200 A 
ATOM     95  F   UNL     1      -2.018  -8.577  12.464  1.00  0.00    -0.200 F 
ATOM     96  F   UNL     1      -0.593 -10.706  13.405  1.00  0.00    -0.200 F 
ENDBRANCH  62  86
BRANCH  74  97
ATOM     97  C   UNL     1      -7.949 -14.935   7.619  1.00  0.00     0.064 A 
ATOM     98  C   UNL     1      -8.871 -14.663   8.639  1.00  0.00     0.173 A 
ATOM     99  C   UNL     1      -7.808 -16.265   7.194  1.00  0.00     0.173 A 
ATOM    100  F   UNL     1      -9.032 -13.409   9.087  1.00  0.00    -0.203 F 
ATOM    101  C   UNL     1      -9.601 -15.688   9.232  1.00  0.00     0.198 A 
ATOM    102  C   UNL     1      -8.564 -17.283   7.766  1.00  0.00     0.198 A 
ATOM    103  F   UNL     1      -6.946 -16.575   6.213  1.00  0.00    -0.203 F 
ATOM    104  F   UNL     1     -10.439 -15.414  10.241  1.00  0.00    -0.200 F 
ATOM    105  C   UNL     1      -9.453 -16.995   8.790  1.00  0.00     0.200 A 
ATOM    106  F   UNL     1      -8.432 -18.542   7.326  1.00  0.00    -0.200 F 
ATOM    107  F   UNL     1     -10.164 -17.980   9.357  1.00  0.00    -0.200 F 
ENDBRANCH  74  97
ENDBRANCH  48  49
ENDBRANCH  40  43
ENDBRANCH  38  39
ENDBRANCH  37  38
ENDBRANCH  36  37
ENDBRANCH   1  36
TORSDOF 17
