REMARK SMILES O=C(NCCCCNC(=O)[C@@H]1[C@@H](C(=O)NCc2ccccc2OCc2ccccc2)[C@@H]2C=C[C@H]1C2)c1ccc(-c2c3nc(c(-c4c(F)c(F)c(F)c(F)c4F)c4ccc([nH]4)c(-c4c(F)c(F)c(F)c(F)c4F)c4nc(c(-c5c(F)c(F)c(F)c(F)c5F)c5ccc2[nH]5)C=C4)C=C3)cc1
REMARK SMILES IDX 8 1 9 2 10 3 7 5 6 6 5 7 4 8 3 9 1 10 2 11 36 13 37 14 98 15
REMARK SMILES IDX 38 16 97 17 39 18 40 19 41 20 91 21 42 22 96 23 90 24 92 25
REMARK SMILES IDX 43 26 95 27 89 28 88 29 44 31 76 32 56 33 75 34 57 35 60 36
REMARK SMILES IDX 74 37 93 38 58 39 59 40 73 42 94 43 61 44 45 45 46 46 54 47
REMARK SMILES IDX 47 48 48 49 52 50 55 51 49 52 50 53 53 54 51 55 77 56 78 57
REMARK SMILES IDX 86 58 79 59 80 60 84 61 87 62 81 63 82 64 85 65 83 66 62 67
REMARK SMILES IDX 63 68 71 69 64 70 65 71 69 72 72 73 66 74 67 75 70 76 68 77
REMARK SMILES IDX 11 78 12 79 34 80 31 81 33 82 35 83 32 84 13 85 14 86 15 87
REMARK SMILES IDX 16 89 17 90 18 91 22 92 19 93 21 94 20 95 23 96 24 97 25 98
REMARK SMILES IDX 26 99 30 100 27 101 29 102 28 103
REMARK H PARENT 8 4 3 12 92 30 60 41 15 88
REMARK Flexibility Score: inf
ROOT
ATOM      1  N   UNL     1       6.305  -0.599  -4.138  1.00  0.00    -0.356 N 
ATOM      2  C   UNL     1       7.096  -0.139  -5.155  1.00  0.00     0.224 C 
ATOM      3  O   UNL     1       8.308  -0.068  -4.961  1.00  0.00    -0.275 OA
ATOM      4  H   UNL     1       6.773  -0.889  -3.322  1.00  0.00     0.163 HD
ENDROOT
BRANCH   1   5
ATOM      5  C   UNL     1       4.860  -0.712  -4.117  1.00  0.00     0.116 C 
BRANCH   5   6
ATOM      6  C   UNL     1       4.354  -1.801  -3.183  1.00  0.00     0.023 C 
BRANCH   6   7
ATOM      7  C   UNL     1       4.781  -1.640  -1.727  1.00  0.00     0.023 C 
BRANCH   7   8
ATOM      8  C   UNL     1       4.504  -0.268  -1.129  1.00  0.00     0.116 C 
BRANCH   8   9
ATOM      9  N   UNL     1       3.080   0.012  -1.007  1.00  0.00    -0.352 N 
ATOM     10  O   UNL     1       1.085   0.158   0.045  1.00  0.00    -0.269 OA
ATOM     11  C   UNL     1       2.301   0.092   0.126  1.00  0.00     0.251 C 
ATOM     12  H   UNL     1       2.607   0.167  -1.857  1.00  0.00     0.163 HD
BRANCH  11  13
ATOM     13  C   UNL     1       2.959   0.070   1.450  1.00  0.00     0.039 A 
ATOM     14  C   UNL     1       4.068   0.880   1.692  1.00  0.00     0.014 A 
ATOM     15  C   UNL     1       2.477  -0.785   2.443  1.00  0.00     0.014 A 
ATOM     16  C   UNL     1       4.801   0.709   2.858  1.00  0.00     0.010 A 
ATOM     17  C   UNL     1       3.155  -0.878   3.662  1.00  0.00     0.010 A 
ATOM     18  C   UNL     1       4.343  -0.157   3.865  1.00  0.00    -0.014 A 
BRANCH  18  19
ATOM     19  C   UNL     1       5.091  -0.231   5.144  1.00  0.00     0.031 A 
ATOM     20  C   UNL     1       5.751  -1.503   5.594  1.00  0.00     0.074 A 
ATOM     21  C   UNL     1       5.195   0.889   5.886  1.00  0.00     0.049 A 
ATOM     22  N   UNL     1       6.445  -1.730   6.682  1.00  0.00    -0.248 NA
ATOM     23  C   UNL     1       5.611  -2.676   4.719  1.00  0.00     0.031 C 
ATOM     24  C   UNL     1       4.588   2.179   5.548  1.00  0.00     0.029 A 
ATOM     25  N   UNL     1       5.860   1.133   7.059  1.00  0.00    -0.354 N 
ATOM     26  C   UNL     1       6.807  -3.070   6.632  1.00  0.00     0.074 A 
ATOM     27  C   UNL     1       6.235  -3.614   5.419  1.00  0.00     0.031 C 
ATOM     28  C   UNL     1       4.949   3.089   6.462  1.00  0.00     0.029 A 
ATOM     29  C   UNL     1       5.750   2.433   7.488  1.00  0.00     0.049 A 
ATOM     30  H   UNL     1       6.367   0.444   7.546  1.00  0.00     0.167 HD
ATOM     31  C   UNL     1       7.553  -3.774   7.518  1.00  0.00     0.037 A 
ATOM     32  C   UNL     1       6.221   3.029   8.598  1.00  0.00     0.037 A 
ATOM     33  C   UNL     1       8.131  -3.216   8.715  1.00  0.00     0.049 A 
ATOM     34  C   UNL     1       7.021   2.215   9.572  1.00  0.00     0.074 A 
ATOM     35  C   UNL     1       8.929  -3.839   9.660  1.00  0.00     0.029 A 
ATOM     36  N   UNL     1       7.970  -1.903   9.134  1.00  0.00    -0.354 N 
ATOM     37  N   UNL     1       7.375   0.956   9.502  1.00  0.00    -0.248 NA
ATOM     38  C   UNL     1       7.481   2.905  10.784  1.00  0.00     0.031 C 
ATOM     39  C   UNL     1       9.210  -2.917  10.674  1.00  0.00     0.029 A 
ATOM     40  C   UNL     1       8.633  -1.703  10.336  1.00  0.00     0.049 A 
ATOM     41  H   UNL     1       7.460  -1.214   8.649  1.00  0.00     0.167 HD
ATOM     42  C   UNL     1       8.111   0.703  10.649  1.00  0.00     0.074 A 
ATOM     43  C   UNL     1       8.172   1.949  11.387  1.00  0.00     0.031 C 
ATOM     44  C   UNL     1       8.681  -0.457  11.057  1.00  0.00     0.037 A 
BRANCH  31  45
ATOM     45  C   UNL     1       7.776  -5.234   7.242  1.00  0.00     0.064 A 
ATOM     46  C   UNL     1       8.618  -5.671   6.209  1.00  0.00     0.173 A 
ATOM     47  C   UNL     1       7.181  -6.209   8.058  1.00  0.00     0.173 A 
ATOM     48  F   UNL     1       9.204  -4.781   5.393  1.00  0.00    -0.203 F 
ATOM     49  C   UNL     1       8.839  -7.029   5.989  1.00  0.00     0.198 A 
ATOM     50  C   UNL     1       7.426  -7.565   7.853  1.00  0.00     0.198 A 
ATOM     51  F   UNL     1       6.373  -5.847   9.065  1.00  0.00    -0.203 F 
ATOM     52  F   UNL     1       9.617  -7.424   4.971  1.00  0.00    -0.200 F 
ATOM     53  C   UNL     1       8.249  -7.974   6.816  1.00  0.00     0.200 A 
ATOM     54  F   UNL     1       6.866  -8.476   8.661  1.00  0.00    -0.200 F 
ATOM     55  F   UNL     1       8.471  -9.280   6.609  1.00  0.00    -0.200 F 
ENDBRANCH  31  45
BRANCH  32  56
ATOM     56  C   UNL     1       5.933   4.465   8.839  1.00  0.00     0.064 A 
ATOM     57  C   UNL     1       6.953   5.424   8.794  1.00  0.00     0.173 A 
ATOM     58  C   UNL     1       4.628   4.910   9.100  1.00  0.00     0.173 A 
ATOM     59  F   UNL     1       8.219   5.045   8.565  1.00  0.00    -0.203 F 
ATOM     60  C   UNL     1       6.680   6.773   9.013  1.00  0.00     0.198 A 
ATOM     61  C   UNL     1       4.352   6.261   9.286  1.00  0.00     0.198 A 
ATOM     62  F   UNL     1       3.615   4.032   9.146  1.00  0.00    -0.203 F 
ATOM     63  F   UNL     1       7.680   7.665   9.003  1.00  0.00    -0.200 F 
ATOM     64  C   UNL     1       5.380   7.191   9.250  1.00  0.00     0.200 A 
ATOM     65  F   UNL     1       3.091   6.663   9.495  1.00  0.00    -0.200 F 
ATOM     66  F   UNL     1       5.117   8.490   9.450  1.00  0.00    -0.200 F 
ENDBRANCH  32  56
BRANCH  44  67
ATOM     67  C   UNL     1       9.442  -0.420  12.349  1.00  0.00     0.064 A 
ATOM     68  C   UNL     1       8.787  -0.314  13.585  1.00  0.00     0.173 A 
ATOM     69  C   UNL     1      10.842  -0.513  12.352  1.00  0.00     0.173 A 
ATOM     70  F   UNL     1       7.450  -0.204  13.633  1.00  0.00    -0.203 F 
ATOM     71  C   UNL     1       9.508  -0.273  14.775  1.00  0.00     0.198 A 
ATOM     72  C   UNL     1      11.557  -0.501  13.545  1.00  0.00     0.198 A 
ATOM     73  F   UNL     1      11.515  -0.620  11.196  1.00  0.00    -0.203 F 
ATOM     74  F   UNL     1       8.865  -0.117  15.940  1.00  0.00    -0.200 F 
ATOM     75  C   UNL     1      10.891  -0.373  14.754  1.00  0.00     0.200 A 
ATOM     76  F   UNL     1      12.893  -0.609  13.525  1.00  0.00    -0.200 F 
ATOM     77  F   UNL     1      11.583  -0.336  15.901  1.00  0.00    -0.200 F 
ENDBRANCH  44  67
ENDBRANCH  18  19
ENDBRANCH  11  13
ENDBRANCH   8   9
ENDBRANCH   7   8
ENDBRANCH   6   7
ENDBRANCH   5   6
ENDBRANCH   1   5
BRANCH   2  78
ATOM     78  C   UNL     1       6.420   0.260  -6.456  1.00  0.00     0.098 C 
ATOM     79  C   UNL     1       7.409   0.743  -7.575  1.00  0.00     0.098 C 
ATOM     80  C   UNL     1       5.499   1.502  -6.255  1.00  0.00     0.025 C 
ATOM     81  C   UNL     1       6.881   2.147  -7.875  1.00  0.00     0.025 C 
ATOM     82  C   UNL     1       6.295   2.660  -5.709  1.00  0.00    -0.027 C 
ATOM     83  C   UNL     1       5.369   1.978  -7.692  1.00  0.00     0.017 C 
ATOM     84  C   UNL     1       7.139   3.040  -6.678  1.00  0.00    -0.027 C 
BRANCH  79  85
ATOM     85  C   UNL     1       7.514  -0.287  -8.704  1.00  0.00     0.224 C 
ATOM     86  O   UNL     1       7.900  -1.431  -8.425  1.00  0.00    -0.275 OA
ATOM     87  N   UNL     1       7.296  -0.059 -10.024  1.00  0.00    -0.352 N 
ATOM     88  H   UNL     1       7.877  -0.586 -10.619  1.00  0.00     0.163 HD
BRANCH  87  89
ATOM     89  C   UNL     1       6.373   0.811 -10.729  1.00  0.00     0.155 C 
BRANCH  89  90
ATOM     90  C   UNL     1       6.997   1.667 -11.802  1.00  0.00     0.013 A 
ATOM     91  C   UNL     1       7.497   1.075 -12.972  1.00  0.00     0.009 A 
ATOM     92  C   UNL     1       6.988   3.073 -11.710  1.00  0.00     0.124 A 
ATOM     93  C   UNL     1       8.002   1.865 -14.006  1.00  0.00     0.001 A 
ATOM     94  C   UNL     1       7.528   3.860 -12.727  1.00  0.00     0.047 A 
ATOM     95  C   UNL     1       8.027   3.253 -13.879  1.00  0.00     0.004 A 
BRANCH  92  96
ATOM     96  O   UNL     1       6.502   3.640 -10.566  1.00  0.00    -0.489 OA
BRANCH  96  97
ATOM     97  C   UNL     1       5.370   4.508 -10.686  1.00  0.00     0.265 C 
BRANCH  97  98
ATOM     98  C   UNL     1       4.048   3.769 -10.777  1.00  0.00    -0.011 A 
ATOM     99  C   UNL     1       3.759   2.933 -11.864  1.00  0.00     0.007 A 
ATOM    100  C   UNL     1       3.063   3.936  -9.789  1.00  0.00     0.007 A 
ATOM    101  C   UNL     1       2.547   2.246 -11.942  1.00  0.00     0.000 A 
ATOM    102  C   UNL     1       1.839   3.266  -9.879  1.00  0.00     0.000 A 
ATOM    103  C   UNL     1       1.585   2.415 -10.951  1.00  0.00     0.000 A 
ENDBRANCH  97  98
ENDBRANCH  96  97
ENDBRANCH  92  96
ENDBRANCH  89  90
ENDBRANCH  87  89
ENDBRANCH  79  85
ENDBRANCH   2  78
TORSDOF 17
