REMARK SMILES COc1ccc(-c2ccc(C#N)c(S[C@@H](C)C(=O)NCCCCNC(=O)c3ccc(-c4c5nc(c(-c6c(F)c(F)c(F)c(F)c6F)c6ccc([nH]6)c(-c6c(F)c(F)c(F)c(F)c6F)c6nc(c(-c7c(F)c(F)c(F)c(F)c7F)c7ccc4[nH]7)C=C6)C=C5)cc3)n2)cc1
REMARK SMILES IDX 20 1 19 2 17 3 18 4 15 6 16 7 14 8 13 9 7 10 8 11 90 12 9 13
REMARK SMILES IDX 10 14 6 15 3 16 4 17 92 18 5 19 91 20 2 21 1 22 11 23 12 24
REMARK SMILES IDX 21 25 22 26 23 27 24 28 25 29 26 31 27 32 28 33 89 34 29 35
REMARK SMILES IDX 88 36 30 37 31 38 32 39 82 40 33 41 87 42 81 43 83 44 34 45
REMARK SMILES IDX 86 46 80 47 79 48 35 50 67 51 47 52 66 53 48 54 51 55 65 56
REMARK SMILES IDX 84 57 49 58 50 59 64 61 85 62 52 63 36 64 37 65 45 66 38 67
REMARK SMILES IDX 39 68 43 69 46 70 40 71 41 72 44 73 42 74 68 75 69 76 77 77
REMARK SMILES IDX 70 78 71 79 75 80 78 81 72 82 73 83 76 84 74 85 53 86 54 87
REMARK SMILES IDX 62 88 55 89 56 90 60 91 63 92 57 93 58 94 61 95 59 96
REMARK H PARENT 19 5 24 30 83 49 51 60
REMARK Flexibility Score: inf
ROOT
ATOM      1  C   UNL     1       2.040  10.576  -1.655  1.00  0.00     0.116 C 
ENDROOT
BRANCH   1   2
ATOM      2  N   UNL     1       1.069  11.416  -1.008  1.00  0.00    -0.355 N 
ATOM      3  C   UNL     1       0.835  11.723   0.287  1.00  0.00     0.233 C 
ATOM      4  O   UNL     1       0.164  12.755   0.449  1.00  0.00    -0.274 OA
ATOM      5  H   UNL     1       0.451  11.857  -1.634  1.00  0.00     0.163 HD
BRANCH   3   6
ATOM      6  C   UNL     1       1.347  10.980   1.521  1.00  0.00     0.139 C 
ATOM      7  C   UNL     1       2.477  11.655   2.283  1.00  0.00     0.030 C 
BRANCH   6   8
ATOM      8  S   UNL     1       1.160   9.170   1.647  1.00  0.00    -0.092 SA
BRANCH   8   9
ATOM      9  C   UNL     1       2.407   8.228   0.811  1.00  0.00     0.115 A 
ATOM     10  C   UNL     1       2.597   6.091  -0.206  1.00  0.00     0.072 A 
ATOM     11  C   UNL     1       3.897   6.357  -0.599  1.00  0.00     0.030 A 
ATOM     12  N   UNL     1       1.861   7.026   0.445  1.00  0.00    -0.240 NA
ATOM     13  C   UNL     1       4.475   7.556  -0.212  1.00  0.00     0.024 A 
ATOM     14  C   UNL     1       3.747   8.492   0.539  1.00  0.00     0.084 A 
BRANCH  10  15
ATOM     15  C   UNL     1       1.985   4.765  -0.403  1.00  0.00     0.000 A 
ATOM     16  C   UNL     1       0.873   2.177  -0.711  1.00  0.00     0.118 A 
ATOM     17  C   UNL     1       0.081   3.313  -0.881  1.00  0.00     0.047 A 
ATOM     18  C   UNL     1       2.224   2.325  -0.421  1.00  0.00     0.047 A 
ATOM     19  C   UNL     1       0.626   4.595  -0.713  1.00  0.00     0.014 A 
ATOM     20  C   UNL     1       2.766   3.601  -0.261  1.00  0.00     0.014 A 
BRANCH  16  21
ATOM     21  O   UNL     1       0.254   0.968  -0.878  1.00  0.00    -0.497 OA
ATOM     22  C   UNL     1       0.748  -0.068  -0.032  1.00  0.00     0.278 C 
ENDBRANCH  16  21
ENDBRANCH  10  15
BRANCH  14  23
ATOM     23  C   UNL     1       4.464   9.667   0.897  1.00  0.00     0.102 C 
ATOM     24  N   UNL     1       5.128  10.607   1.076  1.00  0.00    -0.192 NA
ENDBRANCH  14  23
ENDBRANCH   8   9
ENDBRANCH   6   8
ENDBRANCH   3   6
ENDBRANCH   1   2
BRANCH   1  25
ATOM     25  C   UNL     1       1.415   9.370  -2.356  1.00  0.00     0.023 C 
BRANCH  25  26
ATOM     26  C   UNL     1       1.726   9.293  -3.850  1.00  0.00     0.023 C 
BRANCH  26  27
ATOM     27  C   UNL     1       3.202   9.338  -4.226  1.00  0.00     0.116 C 
BRANCH  27  28
ATOM     28  N   UNL     1       3.970   8.174  -3.813  1.00  0.00    -0.352 N 
ATOM     29  C   UNL     1       4.928   7.483  -4.528  1.00  0.00     0.251 C 
ATOM     30  H   UNL     1       3.784   7.836  -2.908  1.00  0.00     0.163 HD
ATOM     31  O   UNL     1       5.495   6.512  -4.040  1.00  0.00    -0.269 OA
BRANCH  29  32
ATOM     32  C   UNL     1       5.194   7.892  -5.926  1.00  0.00     0.039 A 
ATOM     33  C   UNL     1       4.996   6.958  -6.946  1.00  0.00     0.014 A 
ATOM     34  C   UNL     1       5.459   9.229  -6.229  1.00  0.00     0.014 A 
ATOM     35  C   UNL     1       4.927   7.395  -8.271  1.00  0.00     0.010 A 
ATOM     36  C   UNL     1       5.292   9.673  -7.537  1.00  0.00     0.010 A 
ATOM     37  C   UNL     1       4.996   8.766  -8.568  1.00  0.00    -0.014 A 
BRANCH  37  38
ATOM     38  C   UNL     1       4.715   9.284  -9.934  1.00  0.00     0.031 A 
ATOM     39  C   UNL     1       5.768  10.060 -10.672  1.00  0.00     0.074 A 
ATOM     40  C   UNL     1       3.483   9.144 -10.466  1.00  0.00     0.049 A 
ATOM     41  N   UNL     1       5.683  10.697 -11.813  1.00  0.00    -0.248 NA
ATOM     42  C   UNL     1       7.085  10.164 -10.024  1.00  0.00     0.031 C 
ATOM     43  C   UNL     1       2.356   8.460  -9.828  1.00  0.00     0.029 A 
ATOM     44  N   UNL     1       2.964   9.585 -11.660  1.00  0.00    -0.354 N 
ATOM     45  C   UNL     1       6.924  11.289 -12.007  1.00  0.00     0.074 A 
ATOM     46  C   UNL     1       7.724  10.988 -10.840  1.00  0.00     0.031 C 
ATOM     47  C   UNL     1       1.290   8.506 -10.643  1.00  0.00     0.029 A 
ATOM     48  C   UNL     1       1.639   9.264 -11.841  1.00  0.00     0.049 A 
ATOM     49  H   UNL     1       3.492  10.085 -12.324  1.00  0.00     0.167 HD
ATOM     50  C   UNL     1       7.364  11.997 -13.073  1.00  0.00     0.037 A 
ATOM     51  C   UNL     1       0.796   9.560 -12.850  1.00  0.00     0.037 A 
ATOM     52  C   UNL     1       6.573  12.271 -14.243  1.00  0.00     0.049 A 
ATOM     53  C   UNL     1       1.305  10.367 -14.015  1.00  0.00     0.074 A 
ATOM     54  C   UNL     1       6.949  12.917 -15.406  1.00  0.00     0.029 A 
ATOM     55  N   UNL     1       5.240  11.916 -14.394  1.00  0.00    -0.354 N 
ATOM     56  N   UNL     1       2.505  10.854 -14.222  1.00  0.00    -0.248 NA
ATOM     57  C   UNL     1       0.344  10.669 -15.085  1.00  0.00     0.031 C 
ATOM     58  C   UNL     1       5.830  13.002 -16.240  1.00  0.00     0.029 A 
ATOM     59  C   UNL     1       4.770  12.360 -15.619  1.00  0.00     0.049 A 
ATOM     60  H   UNL     1       4.707  11.423 -13.729  1.00  0.00     0.167 HD
ATOM     61  C   UNL     1       2.450  11.497 -15.451  1.00  0.00     0.074 A 
ATOM     62  C   UNL     1       1.102  11.324 -15.953  1.00  0.00     0.031 C 
ATOM     63  C   UNL     1       3.426  12.173 -16.105  1.00  0.00     0.037 A 
BRANCH  50  64
ATOM     64  C   UNL     1       8.770  12.522 -13.024  1.00  0.00     0.064 A 
ATOM     65  C   UNL     1       9.879  11.664 -13.081  1.00  0.00     0.173 A 
ATOM     66  C   UNL     1       9.014  13.902 -12.949  1.00  0.00     0.173 A 
ATOM     67  F   UNL     1       9.702  10.335 -13.140  1.00  0.00    -0.203 F 
ATOM     68  C   UNL     1      11.178  12.164 -13.029  1.00  0.00     0.198 A 
ATOM     69  C   UNL     1      10.314  14.401 -12.932  1.00  0.00     0.198 A 
ATOM     70  F   UNL     1       7.990  14.768 -12.899  1.00  0.00    -0.203 F 
ATOM     71  F   UNL     1      12.219  11.320 -13.026  1.00  0.00    -0.200 F 
ATOM     72  C   UNL     1      11.394  13.532 -12.962  1.00  0.00     0.200 A 
ATOM     73  F   UNL     1      10.521  15.724 -12.881  1.00  0.00    -0.200 F 
ATOM     74  F   UNL     1      12.644  14.012 -12.918  1.00  0.00    -0.200 F 
ENDBRANCH  50  64
BRANCH  51  75
ATOM     75  C   UNL     1      -0.614   9.085 -12.813  1.00  0.00     0.064 A 
ATOM     76  C   UNL     1      -1.070   8.115 -13.717  1.00  0.00     0.173 A 
ATOM     77  C   UNL     1      -1.536   9.594 -11.886  1.00  0.00     0.173 A 
ATOM     78  F   UNL     1      -0.235   7.613 -14.638  1.00  0.00    -0.203 F 
ATOM     79  C   UNL     1      -2.397   7.688 -13.709  1.00  0.00     0.198 A 
ATOM     80  C   UNL     1      -2.855   9.145 -11.860  1.00  0.00     0.198 A 
ATOM     81  F   UNL     1      -1.152  10.522 -10.997  1.00  0.00    -0.203 F 
ATOM     82  F   UNL     1      -2.817   6.796 -14.617  1.00  0.00    -0.200 F 
ATOM     83  C   UNL     1      -3.287   8.199 -12.777  1.00  0.00     0.200 A 
ATOM     84  F   UNL     1      -3.708   9.630 -10.947  1.00  0.00    -0.200 F 
ATOM     85  F   UNL     1      -4.562   7.785 -12.767  1.00  0.00    -0.200 F 
ENDBRANCH  51  75
BRANCH  63  86
ATOM     86  C   UNL     1       3.086  12.759 -17.444  1.00  0.00     0.064 A 
ATOM     87  C   UNL     1       2.259  13.885 -17.564  1.00  0.00     0.173 A 
ATOM     88  C   UNL     1       3.647  12.227 -18.615  1.00  0.00     0.173 A 
ATOM     89  F   UNL     1       1.686  14.421 -16.475  1.00  0.00    -0.203 F 
ATOM     90  C   UNL     1       1.995  14.449 -18.809  1.00  0.00     0.198 A 
ATOM     91  C   UNL     1       3.405  12.811 -19.855  1.00  0.00     0.198 A 
ATOM     92  F   UNL     1       4.449  11.153 -18.553  1.00  0.00    -0.203 F 
ATOM     93  F   UNL     1       1.172  15.502 -18.904  1.00  0.00    -0.200 F 
ATOM     94  C   UNL     1       2.576  13.918 -19.951  1.00  0.00     0.200 A 
ATOM     95  F   UNL     1       3.981  12.307 -20.955  1.00  0.00    -0.200 F 
ATOM     96  F   UNL     1       2.334  14.473 -21.147  1.00  0.00    -0.200 F 
ENDBRANCH  63  86
ENDBRANCH  37  38
ENDBRANCH  29  32
ENDBRANCH  27  28
ENDBRANCH  26  27
ENDBRANCH  25  26
ENDBRANCH   1  25
TORSDOF 16
