REMARK SMILES CCC[C@]1(C(=O)NCCCCNC(=O)c2ccc(-c3c4nc(c(-c5c(F)c(F)c(F)c(F)c5F)c5ccc([nH]5)c(-c5c(F)c(F)c(F)c(F)c5F)c5nc(c(-c6c(F)c(F)c(F)c(F)c6F)c6ccc3[nH]6)C=C5)C=C4)cc2)CCCN(C(=O)N[C@H]2CCOC2)C1
REMARK SMILES IDX 9 1 8 2 7 3 5 4 6 5 4 7 78 8 90 9 79 10 81 11 80 12 3 13
REMARK SMILES IDX 2 14 1 15 82 16 83 17 84 18 85 20 86 21 89 22 87 23 88 24
REMARK SMILES IDX 10 25 11 26 12 27 13 28 14 30 15 31 16 32 77 33 17 34 76 35
REMARK SMILES IDX 18 36 19 37 20 38 70 39 21 40 75 41 69 42 71 43 22 44 74 45
REMARK SMILES IDX 68 46 67 47 23 49 55 50 35 51 54 52 36 53 39 54 53 55 72 56
REMARK SMILES IDX 37 57 38 58 52 60 73 61 40 62 24 63 25 64 33 65 26 66 27 67
REMARK SMILES IDX 31 68 34 69 28 70 29 71 32 72 30 73 56 74 57 75 65 76 58 77
REMARK SMILES IDX 59 78 63 79 66 80 60 81 61 82 64 83 62 84 41 85 42 86 50 87
REMARK SMILES IDX 43 88 44 89 48 90 51 91 45 92 46 93 49 94 47 95
REMARK H PARENT 7 6 84 19 12 29 71 48 39 59
REMARK Flexibility Score: inf
ROOT
ATOM      1  C   UNL     1      -0.452  -6.399   5.605  1.00  0.00     0.023 C 
ENDROOT
BRANCH   1   2
ATOM      2  C   UNL     1       0.450  -5.477   4.781  1.00  0.00     0.116 C 
BRANCH   2   3
ATOM      3  N   UNL     1       1.845  -5.502   5.181  1.00  0.00    -0.356 N 
ATOM      4  C   UNL     1       2.981  -5.916   4.536  1.00  0.00     0.228 C 
ATOM      5  O   UNL     1       4.027  -5.548   5.073  1.00  0.00    -0.274 OA
ATOM      6  H   UNL     1       2.006  -5.157   6.089  1.00  0.00     0.163 HD
BRANCH   4   7
ATOM      7  C   UNL     1       2.943  -6.711   3.196  1.00  0.00     0.067 C 
ATOM      8  C   UNL     1       1.901  -7.870   3.308  1.00  0.00     0.020 C 
ATOM      9  C   UNL     1       2.585  -5.645   2.110  1.00  0.00     0.138 C 
ATOM     10  C   UNL     1       1.035  -8.143   2.074  1.00  0.00     0.023 C 
ATOM     11  N   UNL     1       1.960  -6.246   0.926  1.00  0.00    -0.324 N 
ATOM     12  C   UNL     1       0.724  -6.909   1.238  1.00  0.00     0.121 C 
BRANCH   7  13
ATOM     13  C   UNL     1       4.305  -7.378   2.736  1.00  0.00     0.018 C 
BRANCH  13  14
ATOM     14  C   UNL     1       5.509  -7.455   3.679  1.00  0.00    -0.002 C 
ATOM     15  C   UNL     1       5.308  -8.329   4.905  1.00  0.00     0.004 C 
ENDBRANCH  13  14
ENDBRANCH   7  13
BRANCH  11  16
ATOM     16  C   UNL     1       2.575  -6.134  -0.278  1.00  0.00     0.317 C 
ATOM     17  O   UNL     1       3.530  -5.367  -0.441  1.00  0.00    -0.249 OA
ATOM     18  N   UNL     1       2.252  -6.843  -1.368  1.00  0.00    -0.333 N 
ATOM     19  H   UNL     1       2.869  -6.594  -2.094  1.00  0.00     0.165 HD
BRANCH  18  20
ATOM     20  C   UNL     1       1.317  -7.855  -1.881  1.00  0.00     0.112 C 
ATOM     21  C   UNL     1       1.986  -8.580  -3.047  1.00  0.00     0.056 C 
ATOM     22  C   UNL     1       0.935  -9.067  -1.041  1.00  0.00     0.185 C 
ATOM     23  C   UNL     1       1.210  -9.870  -3.192  1.00  0.00     0.162 C 
ATOM     24  O   UNL     1       0.586 -10.130  -1.937  1.00  0.00    -0.379 OA
ENDBRANCH  18  20
ENDBRANCH  11  16
ENDBRANCH   4   7
ENDBRANCH   2   3
ENDBRANCH   1   2
BRANCH   1  25
ATOM     25  C   UNL     1      -0.615  -6.003   7.066  1.00  0.00     0.023 C 
BRANCH  25  26
ATOM     26  C   UNL     1      -1.019  -4.556   7.286  1.00  0.00     0.116 C 
BRANCH  26  27
ATOM     27  N   UNL     1      -2.215  -4.183   6.546  1.00  0.00    -0.352 N 
ATOM     28  C   UNL     1      -3.282  -3.419   6.952  1.00  0.00     0.251 C 
ATOM     29  H   UNL     1      -2.267  -4.525   5.625  1.00  0.00     0.163 HD
ATOM     30  O   UNL     1      -4.270  -3.312   6.243  1.00  0.00    -0.269 OA
BRANCH  28  31
ATOM     31  C   UNL     1      -3.236  -2.765   8.276  1.00  0.00     0.039 A 
ATOM     32  C   UNL     1      -4.362  -2.846   9.096  1.00  0.00     0.014 A 
ATOM     33  C   UNL     1      -2.083  -2.109   8.718  1.00  0.00     0.014 A 
ATOM     34  C   UNL     1      -4.306  -2.322  10.386  1.00  0.00     0.010 A 
ATOM     35  C   UNL     1      -1.998  -1.673  10.035  1.00  0.00     0.010 A 
ATOM     36  C   UNL     1      -3.112  -1.769  10.880  1.00  0.00    -0.014 A 
BRANCH  36  37
ATOM     37  C   UNL     1      -3.027  -1.306  12.286  1.00  0.00     0.031 A 
ATOM     38  C   UNL     1      -2.784   0.142  12.602  1.00  0.00     0.074 A 
ATOM     39  C   UNL     1      -3.150  -2.207  13.279  1.00  0.00     0.049 A 
ATOM     40  N   UNL     1      -2.736   0.736  13.768  1.00  0.00    -0.248 NA
ATOM     41  C   UNL     1      -2.536   1.041  11.464  1.00  0.00     0.031 C 
ATOM     42  C   UNL     1      -3.311  -3.651  13.094  1.00  0.00     0.029 A 
ATOM     43  N   UNL     1      -3.169  -2.043  14.641  1.00  0.00    -0.354 N 
ATOM     44  C   UNL     1      -2.455   2.069  13.503  1.00  0.00     0.074 A 
ATOM     45  C   UNL     1      -2.274   2.187  12.073  1.00  0.00     0.031 C 
ATOM     46  C   UNL     1      -3.461  -4.234  14.293  1.00  0.00     0.029 A 
ATOM     47  C   UNL     1      -3.373  -3.213  15.332  1.00  0.00     0.049 A 
ATOM     48  H   UNL     1      -3.047  -1.171  15.081  1.00  0.00     0.167 HD
ATOM     49  C   UNL     1      -2.384   3.106  14.372  1.00  0.00     0.037 A 
ATOM     50  C   UNL     1      -3.487  -3.433  16.654  1.00  0.00     0.037 A 
ATOM     51  C   UNL     1      -2.575   2.982  15.794  1.00  0.00     0.049 A 
ATOM     52  C   UNL     1      -3.417  -2.261  17.595  1.00  0.00     0.074 A 
ATOM     53  C   UNL     1      -2.581   3.977  16.755  1.00  0.00     0.029 A 
ATOM     54  N   UNL     1      -2.787   1.782  16.460  1.00  0.00    -0.354 N 
ATOM     55  N   UNL     1      -3.244  -0.990  17.325  1.00  0.00    -0.248 NA
ATOM     56  C   UNL     1      -3.576  -2.555  19.024  1.00  0.00     0.031 C 
ATOM     57  C   UNL     1      -2.739   3.374  18.008  1.00  0.00     0.029 A 
ATOM     58  C   UNL     1      -2.898   2.010  17.823  1.00  0.00     0.049 A 
ATOM     59  H   UNL     1      -2.849   0.900  16.028  1.00  0.00     0.167 HD
ATOM     60  C   UNL     1      -3.295  -0.330  18.546  1.00  0.00     0.074 A 
ATOM     61  C   UNL     1      -3.550  -1.341  19.552  1.00  0.00     0.031 C 
ATOM     62  C   UNL     1      -3.140   0.991  18.813  1.00  0.00     0.037 A 
BRANCH  49  63
ATOM     63  C   UNL     1      -2.090   4.467  13.806  1.00  0.00     0.064 A 
ATOM     64  C   UNL     1      -3.016   5.144  12.996  1.00  0.00     0.173 A 
ATOM     65  C   UNL     1      -0.885   5.119  14.107  1.00  0.00     0.173 A 
ATOM     66  F   UNL     1      -4.178   4.562  12.666  1.00  0.00    -0.203 F 
ATOM     67  C   UNL     1      -2.733   6.409  12.485  1.00  0.00     0.198 A 
ATOM     68  C   UNL     1      -0.621   6.398  13.623  1.00  0.00     0.198 A 
ATOM     69  F   UNL     1       0.034   4.521  14.879  1.00  0.00    -0.203 F 
ATOM     70  F   UNL     1      -3.611   7.012  11.672  1.00  0.00    -0.200 F 
ATOM     71  C   UNL     1      -1.540   7.038  12.806  1.00  0.00     0.200 A 
ATOM     72  F   UNL     1       0.527   7.011  13.945  1.00  0.00    -0.200 F 
ATOM     73  F   UNL     1      -1.274   8.260  12.323  1.00  0.00    -0.200 F 
ENDBRANCH  49  63
BRANCH  50  74
ATOM     74  C   UNL     1      -3.717  -4.811  17.163  1.00  0.00     0.064 A 
ATOM     75  C   UNL     1      -4.933  -5.167  17.765  1.00  0.00     0.173 A 
ATOM     76  C   UNL     1      -2.724  -5.797  17.068  1.00  0.00     0.173 A 
ATOM     77  F   UNL     1      -5.908  -4.255  17.894  1.00  0.00    -0.203 F 
ATOM     78  C   UNL     1      -5.136  -6.447  18.277  1.00  0.00     0.198 A 
ATOM     79  C   UNL     1      -2.941  -7.086  17.550  1.00  0.00     0.198 A 
ATOM     80  F   UNL     1      -1.546  -5.512  16.494  1.00  0.00    -0.203 F 
ATOM     81  F   UNL     1      -6.287  -6.743  18.895  1.00  0.00    -0.200 F 
ATOM     82  C   UNL     1      -4.142  -7.407  18.164  1.00  0.00     0.200 A 
ATOM     83  F   UNL     1      -1.985  -8.016  17.422  1.00  0.00    -0.200 F 
ATOM     84  F   UNL     1      -4.339  -8.638  18.653  1.00  0.00    -0.200 F 
ENDBRANCH  50  74
BRANCH  62  85
ATOM     85  C   UNL     1      -3.268   1.412  20.250  1.00  0.00     0.064 A 
ATOM     86  C   UNL     1      -2.320   1.041  21.216  1.00  0.00     0.173 A 
ATOM     87  C   UNL     1      -4.359   2.189  20.669  1.00  0.00     0.173 A 
ATOM     88  F   UNL     1      -1.264   0.287  20.871  1.00  0.00    -0.203 F 
ATOM     89  C   UNL     1      -2.486   1.387  22.554  1.00  0.00     0.198 A 
ATOM     90  C   UNL     1      -4.501   2.568  22.001  1.00  0.00     0.198 A 
ATOM     91  F   UNL     1      -5.290   2.582  19.786  1.00  0.00    -0.203 F 
ATOM     92  F   UNL     1      -1.608   0.955  23.470  1.00  0.00    -0.200 F 
ATOM     93  C   UNL     1      -3.574   2.153  22.945  1.00  0.00     0.200 A 
ATOM     94  F   UNL     1      -5.544   3.322  22.374  1.00  0.00    -0.200 F 
ATOM     95  F   UNL     1      -3.736   2.480  24.234  1.00  0.00    -0.200 F 
ENDBRANCH  62  85
ENDBRANCH  36  37
ENDBRANCH  28  31
ENDBRANCH  26  27
ENDBRANCH  25  26
ENDBRANCH   1  25
TORSDOF 15
