REMARK SMILES CC(C)N(CCCC(=O)NCCCCNC(=O)c1ccc(-c2c3nc(c(-c4c(F)c(F)c(F)c(F)c4F)c4ccc([nH]4)c(-c4c(F)c(F)c(F)c(F)c4F)c4nc(c(-c5c(F)c(F)c(F)c(F)c5F)c5ccc2[nH]5)C=C4)C=C3)cc1)C(=O)N[C@@H]1CCCC1(C)C
REMARK SMILES IDX 11 1 10 2 8 3 9 4 7 6 6 7 5 8 4 9 2 10 1 11 3 12 81 13 82 14
REMARK SMILES IDX 83 15 84 17 85 18 88 19 86 20 87 21 89 22 90 23 12 24 13 25
REMARK SMILES IDX 14 26 15 27 16 28 17 30 18 31 19 32 80 33 20 34 79 35 21 36
REMARK SMILES IDX 22 37 23 38 73 39 24 40 78 41 72 42 74 43 25 44 77 45 71 46
REMARK SMILES IDX 70 47 26 49 58 50 38 51 57 52 39 53 42 54 56 55 75 56 40 57
REMARK SMILES IDX 41 58 55 60 76 61 43 62 27 63 28 64 36 65 29 66 30 67 34 68
REMARK SMILES IDX 37 69 31 70 32 71 35 72 33 73 59 74 60 75 68 76 61 77 62 78
REMARK SMILES IDX 66 79 69 80 63 81 64 82 67 83 65 84 44 85 45 86 53 87 46 88
REMARK SMILES IDX 47 89 51 90 54 91 48 92 49 93 52 94 50 95
REMARK H PARENT 10 5 83 16 15 29 74 48 42 59
REMARK Flexibility Score: inf
ROOT
ATOM      1  C   UNL     1      -4.094   0.991  -1.174  1.00  0.00     0.116 C 
ENDROOT
BRANCH   1   2
ATOM      2  N   UNL     1      -3.260   0.066  -0.343  1.00  0.00    -0.356 N 
ATOM      3  C   UNL     1      -2.529  -1.099  -0.529  1.00  0.00     0.220 C 
ATOM      4  O   UNL     1      -1.894  -1.489   0.460  1.00  0.00    -0.275 OA
ATOM      5  H   UNL     1      -3.218   0.367   0.594  1.00  0.00     0.163 HD
BRANCH   3   6
ATOM      6  C   UNL     1      -2.501  -1.944  -1.831  1.00  0.00     0.102 C 
BRANCH   6   7
ATOM      7  C   UNL     1      -2.780  -3.507  -1.759  1.00  0.00     0.031 C 
BRANCH   7   8
ATOM      8  C   UNL     1      -4.186  -4.232  -1.899  1.00  0.00     0.122 C 
BRANCH   8   9
ATOM      9  N   UNL     1      -5.318  -3.430  -2.299  1.00  0.00    -0.322 N 
BRANCH   9  10
ATOM     10  C   UNL     1      -6.034  -3.654  -3.600  1.00  0.00     0.080 C 
ATOM     11  C   UNL     1      -6.933  -2.488  -4.099  1.00  0.00     0.031 C 
ATOM     12  C   UNL     1      -5.114  -4.032  -4.765  1.00  0.00     0.031 C 
ENDBRANCH   9  10
BRANCH   9  13
ATOM     13  C   UNL     1      -5.379  -2.240  -1.696  1.00  0.00     0.317 C 
ATOM     14  O   UNL     1      -5.412  -1.246  -2.422  1.00  0.00    -0.249 OA
ATOM     15  N   UNL     1      -5.077  -2.052  -0.407  1.00  0.00    -0.335 N 
ATOM     16  H   UNL     1      -4.516  -1.243  -0.391  1.00  0.00     0.165 HD
BRANCH  15  17
ATOM     17  C   UNL     1      -5.181  -2.472   0.987  1.00  0.00     0.089 C 
ATOM     18  C   UNL     1      -4.515  -3.734   1.505  1.00  0.00     0.025 C 
ATOM     19  C   UNL     1      -6.585  -2.346   1.631  1.00  0.00    -0.015 C 
ATOM     20  C   UNL     1      -5.652  -4.553   2.077  1.00  0.00     0.003 C 
ATOM     21  C   UNL     1      -6.608  -3.507   2.643  1.00  0.00     0.008 C 
ATOM     22  C   UNL     1      -6.724  -1.001   2.377  1.00  0.00     0.013 C 
ATOM     23  C   UNL     1      -7.731  -2.472   0.619  1.00  0.00     0.013 C 
ENDBRANCH  15  17
ENDBRANCH   9  13
ENDBRANCH   8   9
ENDBRANCH   7   8
ENDBRANCH   6   7
ENDBRANCH   3   6
ENDBRANCH   1   2
BRANCH   1  24
ATOM     24  C   UNL     1      -5.639   0.881  -0.985  1.00  0.00     0.023 C 
BRANCH  24  25
ATOM     25  C   UNL     1      -6.472   1.926  -0.286  1.00  0.00     0.023 C 
BRANCH  25  26
ATOM     26  C   UNL     1      -7.002   2.986  -1.218  1.00  0.00     0.116 C 
BRANCH  26  27
ATOM     27  N   UNL     1      -7.877   2.511  -2.300  1.00  0.00    -0.352 N 
ATOM     28  C   UNL     1      -9.009   3.111  -2.816  1.00  0.00     0.251 C 
ATOM     29  H   UNL     1      -7.622   1.653  -2.710  1.00  0.00     0.163 HD
ATOM     30  O   UNL     1      -9.653   2.598  -3.725  1.00  0.00    -0.269 OA
BRANCH  28  31
ATOM     31  C   UNL     1      -9.477   4.361  -2.185  1.00  0.00     0.039 A 
ATOM     32  C   UNL     1     -10.797   4.456  -1.744  1.00  0.00     0.014 A 
ATOM     33  C   UNL     1      -8.542   5.331  -1.838  1.00  0.00     0.014 A 
ATOM     34  C   UNL     1     -11.136   5.455  -0.830  1.00  0.00     0.010 A 
ATOM     35  C   UNL     1      -8.832   6.185  -0.791  1.00  0.00     0.010 A 
ATOM     36  C   UNL     1     -10.136   6.274  -0.282  1.00  0.00    -0.014 A 
BRANCH  36  37
ATOM     37  C   UNL     1     -10.407   7.255   0.801  1.00  0.00     0.031 A 
ATOM     38  C   UNL     1      -9.993   8.691   0.608  1.00  0.00     0.074 A 
ATOM     39  C   UNL     1     -10.912   6.848   1.983  1.00  0.00     0.049 A 
ATOM     40  N   UNL     1      -9.977   9.674   1.470  1.00  0.00    -0.248 NA
ATOM     41  C   UNL     1      -9.455   9.053  -0.716  1.00  0.00     0.031 C 
ATOM     42  C   UNL     1     -11.267   5.471   2.333  1.00  0.00     0.029 A 
ATOM     43  N   UNL     1     -11.206   7.561   3.120  1.00  0.00    -0.354 N 
ATOM     44  C   UNL     1      -9.391  10.742   0.804  1.00  0.00     0.074 A 
ATOM     45  C   UNL     1      -8.972  10.262  -0.491  1.00  0.00     0.031 C 
ATOM     46  C   UNL     1     -11.770   5.447   3.578  1.00  0.00     0.029 A 
ATOM     47  C   UNL     1     -11.733   6.795   4.132  1.00  0.00     0.049 A 
ATOM     48  H   UNL     1     -11.053   8.530   3.202  1.00  0.00     0.167 HD
ATOM     49  C   UNL     1      -9.261  12.027   1.210  1.00  0.00     0.037 A 
ATOM     50  C   UNL     1     -12.138   7.147   5.368  1.00  0.00     0.037 A 
ATOM     51  C   UNL     1      -9.751  12.516   2.467  1.00  0.00     0.049 A 
ATOM     52  C   UNL     1     -12.032   8.590   5.784  1.00  0.00     0.074 A 
ATOM     53  C   UNL     1      -9.760  13.812   2.945  1.00  0.00     0.029 A 
ATOM     54  N   UNL     1     -10.335  11.720   3.443  1.00  0.00    -0.354 N 
ATOM     55  N   UNL     1     -11.550   9.610   5.115  1.00  0.00    -0.248 NA
ATOM     56  C   UNL     1     -12.530   8.933   7.123  1.00  0.00     0.031 C 
ATOM     57  C   UNL     1     -10.319  13.797   4.227  1.00  0.00     0.029 A 
ATOM     58  C   UNL     1     -10.695  12.497   4.530  1.00  0.00     0.049 A 
ATOM     59  H   UNL     1     -10.473  10.748   3.372  1.00  0.00     0.167 HD
ATOM     60  C   UNL     1     -11.699  10.715   5.941  1.00  0.00     0.074 A 
ATOM     61  C   UNL     1     -12.339  10.245   7.153  1.00  0.00     0.031 C 
ATOM     62  C   UNL     1     -11.333  12.002   5.722  1.00  0.00     0.037 A 
BRANCH  49  63
ATOM     63  C   UNL     1      -8.597  12.984   0.262  1.00  0.00     0.064 A 
ATOM     64  C   UNL     1      -9.188  13.339  -0.962  1.00  0.00     0.173 A 
ATOM     65  C   UNL     1      -7.350  13.546   0.573  1.00  0.00     0.173 A 
ATOM     66  F   UNL     1     -10.373  12.817  -1.316  1.00  0.00    -0.203 F 
ATOM     67  C   UNL     1      -8.534  14.178  -1.859  1.00  0.00     0.198 A 
ATOM     68  C   UNL     1      -6.716  14.416  -0.311  1.00  0.00     0.198 A 
ATOM     69  F   UNL     1      -6.740  13.245   1.729  1.00  0.00    -0.203 F 
ATOM     70  F   UNL     1      -9.086  14.438  -3.053  1.00  0.00    -0.200 F 
ATOM     71  C   UNL     1      -7.302  14.721  -1.531  1.00  0.00     0.200 A 
ATOM     72  F   UNL     1      -5.530  14.950   0.012  1.00  0.00    -0.200 F 
ATOM     73  F   UNL     1      -6.673  15.527  -2.396  1.00  0.00    -0.200 F 
ENDBRANCH  49  63
BRANCH  50  74
ATOM     74  C   UNL     1     -12.710   6.124   6.284  1.00  0.00     0.064 A 
ATOM     75  C   UNL     1     -14.075   6.128   6.604  1.00  0.00     0.173 A 
ATOM     76  C   UNL     1     -11.913   5.118   6.850  1.00  0.00     0.173 A 
ATOM     77  F   UNL     1     -14.876   7.081   6.104  1.00  0.00    -0.203 F 
ATOM     78  C   UNL     1     -14.617   5.179   7.469  1.00  0.00     0.198 A 
ATOM     79  C   UNL     1     -12.461   4.152   7.693  1.00  0.00     0.198 A 
ATOM     80  F   UNL     1     -10.602   5.064   6.571  1.00  0.00    -0.203 F 
ATOM     81  F   UNL     1     -15.917   5.233   7.790  1.00  0.00    -0.200 F 
ATOM     82  C   UNL     1     -13.811   4.188   8.007  1.00  0.00     0.200 A 
ATOM     83  F   UNL     1     -11.681   3.188   8.199  1.00  0.00    -0.200 F 
ATOM     84  F   UNL     1     -14.333   3.271   8.833  1.00  0.00    -0.200 F 
ENDBRANCH  50  74
BRANCH  62  85
ATOM     85  C   UNL     1     -11.626  12.993   6.808  1.00  0.00     0.064 A 
ATOM     86  C   UNL     1     -10.880  13.016   7.995  1.00  0.00     0.173 A 
ATOM     87  C   UNL     1     -12.616  13.971   6.630  1.00  0.00     0.173 A 
ATOM     88  F   UNL     1      -9.932  12.093   8.215  1.00  0.00    -0.203 F 
ATOM     89  C   UNL     1     -11.128  13.973   8.975  1.00  0.00     0.198 A 
ATOM     90  C   UNL     1     -12.841  14.944   7.599  1.00  0.00     0.198 A 
ATOM     91  F   UNL     1     -13.349  13.995   5.507  1.00  0.00    -0.203 F 
ATOM     92  F   UNL     1     -10.429  13.955  10.118  1.00  0.00    -0.200 F 
ATOM     93  C   UNL     1     -12.101  14.941   8.772  1.00  0.00     0.200 A 
ATOM     94  F   UNL     1     -13.770  15.888   7.395  1.00  0.00    -0.200 F 
ATOM     95  F   UNL     1     -12.327  15.871   9.710  1.00  0.00    -0.200 F 
ENDBRANCH  62  85
ENDBRANCH  36  37
ENDBRANCH  28  31
ENDBRANCH  26  27
ENDBRANCH  25  26
ENDBRANCH  24  25
ENDBRANCH   1  24
TORSDOF 17
