REMARK SMILES O=C(NCCCCNC(=O)[C@H](NC(=O)[C@H]1CC[C@@H](CNC(=O)[C@@H]2Cc3ccccc3C[NH2+]2)CC1)c1ccccc1)c1ccc(-c2c3nc(c(-c4c(F)c(F)c(F)c(F)c4F)c4ccc([nH]4)c(-c4c(F)c(F)c(F)c(F)c4F)c4nc(c(-c5c(F)c(F)c(F)c(F)c5F)c5ccc2[nH]5)C=C4)C=C3)cc1
REMARK SMILES IDX 7 1 6 2 5 3 4 4 3 5 1 6 2 7 41 9 42 10 103 11 43 12 102 13
REMARK SMILES IDX 44 14 45 15 46 16 96 17 47 18 101 19 95 20 97 21 48 22
REMARK SMILES IDX 100 23 94 24 93 25 49 27 81 28 61 29 80 30 62 31 65 32 79 33
REMARK SMILES IDX 98 34 63 35 64 36 78 38 99 39 66 40 50 41 51 42 59 43 52 44
REMARK SMILES IDX 53 45 57 46 60 47 54 48 55 49 58 50 56 51 82 52 83 53 91 54
REMARK SMILES IDX 84 55 85 56 89 57 92 58 86 59 87 60 90 61 88 62 67 63 68 64
REMARK SMILES IDX 76 65 69 66 70 67 74 68 77 69 71 70 72 71 75 72 73 73 8 74
REMARK SMILES IDX 9 75 10 77 11 78 35 79 36 80 40 81 37 82 39 83 38 84 12 85
REMARK SMILES IDX 13 86 14 88 15 89 34 90 16 91 33 92 17 93 18 94 19 95 20 96
REMARK SMILES IDX 21 97 22 99 23 100 24 101 32 102 25 103 31 104 26 107 30 108
REMARK SMILES IDX 27 109 29 110 28 111
REMARK H PARENT 3 8 97 26 65 37 8 76 12 87 20 98 32 105 32 106
REMARK Flexibility Score: inf
ROOT
ATOM      1  C   UNL     1      15.031 -15.871  -2.229  1.00  0.00     0.116 C 
ENDROOT
BRANCH   1   2
ATOM      2  C   UNL     1      14.752 -15.307  -0.844  1.00  0.00     0.023 C 
BRANCH   2   3
ATOM      3  C   UNL     1      15.899 -15.457   0.144  1.00  0.00     0.023 C 
BRANCH   3   4
ATOM      4  C   UNL     1      17.221 -14.848  -0.309  1.00  0.00     0.116 C 
BRANCH   4   5
ATOM      5  N   UNL     1      17.175 -13.399  -0.465  1.00  0.00    -0.352 N 
ATOM      6  O   UNL     1      17.671 -11.242   0.002  1.00  0.00    -0.269 OA
ATOM      7  C   UNL     1      17.936 -12.430   0.151  1.00  0.00     0.251 C 
ATOM      8  H   UNL     1      16.504 -13.066  -1.103  1.00  0.00     0.163 HD
BRANCH   7   9
ATOM      9  C   UNL     1      19.038 -12.831   1.049  1.00  0.00     0.039 A 
ATOM     10  C   UNL     1      19.921 -13.845   0.677  1.00  0.00     0.014 A 
ATOM     11  C   UNL     1      19.138 -12.237   2.309  1.00  0.00     0.014 A 
ATOM     12  C   UNL     1      20.741 -14.418   1.639  1.00  0.00     0.010 A 
ATOM     13  C   UNL     1      20.046 -12.743   3.242  1.00  0.00     0.010 A 
ATOM     14  C   UNL     1      20.804 -13.883   2.937  1.00  0.00    -0.014 A 
BRANCH  14  15
ATOM     15  C   UNL     1      21.662 -14.550   3.951  1.00  0.00     0.031 A 
ATOM     16  C   UNL     1      21.065 -15.174   5.185  1.00  0.00     0.074 A 
ATOM     17  C   UNL     1      22.984 -14.651   3.716  1.00  0.00     0.049 A 
ATOM     18  N   UNL     1      21.662 -15.840   6.144  1.00  0.00    -0.248 NA
ATOM     19  C   UNL     1      19.614 -15.027   5.378  1.00  0.00     0.031 C 
ATOM     20  C   UNL     1      23.678 -14.081   2.560  1.00  0.00     0.029 A 
ATOM     21  N   UNL     1      23.973 -15.295   4.413  1.00  0.00    -0.354 N 
ATOM     22  C   UNL     1      20.671 -16.154   7.066  1.00  0.00     0.074 A 
ATOM     23  C   UNL     1      19.435 -15.597   6.562  1.00  0.00     0.031 C 
ATOM     24  C   UNL     1      24.964 -14.458   2.589  1.00  0.00     0.029 A 
ATOM     25  C   UNL     1      25.198 -15.242   3.796  1.00  0.00     0.049 A 
ATOM     26  H   UNL     1      23.820 -15.752   5.272  1.00  0.00     0.167 HD
ATOM     27  C   UNL     1      20.783 -16.850   8.223  1.00  0.00     0.037 A 
ATOM     28  C   UNL     1      26.382 -15.764   4.163  1.00  0.00     0.037 A 
ATOM     29  C   UNL     1      22.006 -17.443   8.700  1.00  0.00     0.049 A 
ATOM     30  C   UNL     1      26.471 -16.552   5.437  1.00  0.00     0.074 A 
ATOM     31  C   UNL     1      22.212 -18.201   9.840  1.00  0.00     0.029 A 
ATOM     32  N   UNL     1      23.231 -17.350   8.056  1.00  0.00    -0.354 N 
ATOM     33  N   UNL     1      25.522 -16.857   6.287  1.00  0.00    -0.248 NA
ATOM     34  C   UNL     1      27.797 -17.064   5.803  1.00  0.00     0.031 C 
ATOM     35  C   UNL     1      23.569 -18.539   9.903  1.00  0.00     0.029 A 
ATOM     36  C   UNL     1      24.200 -18.026   8.782  1.00  0.00     0.049 A 
ATOM     37  H   UNL     1      23.390 -16.874   7.209  1.00  0.00     0.167 HD
ATOM     38  C   UNL     1      26.131 -17.608   7.282  1.00  0.00     0.074 A 
ATOM     39  C   UNL     1      27.527 -17.730   6.917  1.00  0.00     0.031 C 
ATOM     40  C   UNL     1      25.583 -18.143   8.400  1.00  0.00     0.037 A 
BRANCH  27  41
ATOM     41  C   UNL     1      19.553 -16.997   9.072  1.00  0.00     0.064 A 
ATOM     42  C   UNL     1      18.504 -17.855   8.713  1.00  0.00     0.173 A 
ATOM     43  C   UNL     1      19.447 -16.303  10.288  1.00  0.00     0.173 A 
ATOM     44  F   UNL     1      18.551 -18.532   7.555  1.00  0.00    -0.203 F 
ATOM     45  C   UNL     1      17.385 -17.999   9.530  1.00  0.00     0.198 A 
ATOM     46  C   UNL     1      18.338 -16.468  11.114  1.00  0.00     0.198 A 
ATOM     47  F   UNL     1      20.426 -15.475  10.681  1.00  0.00    -0.203 F 
ATOM     48  F   UNL     1      16.377 -18.796   9.149  1.00  0.00    -0.200 F 
ATOM     49  C   UNL     1      17.306 -17.311  10.732  1.00  0.00     0.200 A 
ATOM     50  F   UNL     1      18.269 -15.811  12.280  1.00  0.00    -0.200 F 
ATOM     51  F   UNL     1      16.232 -17.457  11.520  1.00  0.00    -0.200 F 
ENDBRANCH  27  41
BRANCH  28  52
ATOM     52  C   UNL     1      27.570 -15.569   3.295  1.00  0.00     0.064 A 
ATOM     53  C   UNL     1      28.120 -16.640   2.579  1.00  0.00     0.173 A 
ATOM     54  C   UNL     1      28.162 -14.307   3.143  1.00  0.00     0.173 A 
ATOM     55  F   UNL     1      27.598 -17.869   2.705  1.00  0.00    -0.203 F 
ATOM     56  C   UNL     1      29.226 -16.458   1.752  1.00  0.00     0.198 A 
ATOM     57  C   UNL     1      29.249 -14.120   2.295  1.00  0.00     0.198 A 
ATOM     58  F   UNL     1      27.665 -13.250   3.803  1.00  0.00    -0.203 F 
ATOM     59  F   UNL     1      29.755 -17.505   1.103  1.00  0.00    -0.200 F 
ATOM     60  C   UNL     1      29.784 -15.197   1.604  1.00  0.00     0.200 A 
ATOM     61  F   UNL     1      29.775 -12.897   2.142  1.00  0.00    -0.200 F 
ATOM     62  F   UNL     1      30.841 -15.020   0.799  1.00  0.00    -0.200 F 
ENDBRANCH  28  52
BRANCH  40  63
ATOM     63  C   UNL     1      26.493 -18.935   9.289  1.00  0.00     0.064 A 
ATOM     64  C   UNL     1      27.453 -18.310  10.098  1.00  0.00     0.173 A 
ATOM     65  C   UNL     1      26.393 -20.332   9.341  1.00  0.00     0.173 A 
ATOM     66  F   UNL     1      27.597 -16.976  10.067  1.00  0.00    -0.203 F 
ATOM     67  C   UNL     1      28.300 -19.060  10.908  1.00  0.00     0.198 A 
ATOM     68  C   UNL     1      27.226 -21.077  10.172  1.00  0.00     0.198 A 
ATOM     69  F   UNL     1      25.488 -20.975   8.588  1.00  0.00    -0.203 F 
ATOM     70  F   UNL     1      29.244 -18.447  11.637  1.00  0.00    -0.200 F 
ATOM     71  C   UNL     1      28.183 -20.441  10.948  1.00  0.00     0.200 A 
ATOM     72  F   UNL     1      27.106 -22.411  10.216  1.00  0.00    -0.200 F 
ATOM     73  F   UNL     1      29.001 -21.162  11.728  1.00  0.00    -0.200 F 
ENDBRANCH  40  63
ENDBRANCH  14  15
ENDBRANCH   7   9
ENDBRANCH   4   5
ENDBRANCH   3   4
ENDBRANCH   2   3
ENDBRANCH   1   2
BRANCH   1  74
ATOM     74  N   UNL     1      15.043 -17.315  -2.300  1.00  0.00    -0.354 N 
ATOM     75  C   UNL     1      14.517 -18.133  -3.274  1.00  0.00     0.247 C 
ATOM     76  H   UNL     1      15.486 -17.774  -1.550  1.00  0.00     0.163 HD
ATOM     77  O   UNL     1      14.873 -19.314  -3.238  1.00  0.00    -0.272 OA
BRANCH  75  78
ATOM     78  C   UNL     1      13.634 -17.531  -4.425  1.00  0.00     0.202 C 
BRANCH  78  79
ATOM     79  C   UNL     1      13.124 -18.574  -5.415  1.00  0.00    -0.016 A 
ATOM     80  C   UNL     1      11.759 -18.858  -5.588  1.00  0.00     0.006 A 
ATOM     81  C   UNL     1      14.050 -19.270  -6.214  1.00  0.00     0.006 A 
ATOM     82  C   UNL     1      11.337 -19.802  -6.527  1.00  0.00     0.000 A 
ATOM     83  C   UNL     1      13.626 -20.218  -7.148  1.00  0.00     0.000 A 
ATOM     84  C   UNL     1      12.269 -20.482  -7.306  1.00  0.00     0.000 A 
ENDBRANCH  78  79
BRANCH  78  85
ATOM     85  N   UNL     1      12.545 -16.756  -3.828  1.00  0.00    -0.340 N 
ATOM     86  C   UNL     1      12.046 -15.522  -4.086  1.00  0.00     0.224 C 
ATOM     87  H   UNL     1      12.084 -17.224  -3.095  1.00  0.00     0.164 HD
ATOM     88  O   UNL     1      11.144 -15.142  -3.334  1.00  0.00    -0.275 OA
BRANCH  86  89
ATOM     89  C   UNL     1      12.578 -14.634  -5.228  1.00  0.00     0.078 C 
ATOM     90  C   UNL     1      11.621 -13.425  -5.385  1.00  0.00     0.014 C 
ATOM     91  C   UNL     1      14.018 -14.146  -4.988  1.00  0.00     0.014 C 
ATOM     92  C   UNL     1      12.140 -12.306  -6.290  1.00  0.00     0.006 C 
ATOM     93  C   UNL     1      14.470 -13.082  -5.978  1.00  0.00     0.006 C 
ATOM     94  C   UNL     1      13.562 -11.853  -5.928  1.00  0.00     0.008 C 
BRANCH  94  95
ATOM     95  C   UNL     1      13.597 -11.117  -4.569  1.00  0.00     0.119 C 
BRANCH  95  96
ATOM     96  N   UNL     1      14.948 -10.777  -4.152  1.00  0.00    -0.351 N 
ATOM     97  C   UNL     1      15.499  -9.560  -3.874  1.00  0.00     0.278 C 
ATOM     98  H   UNL     1      15.560 -11.542  -4.057  1.00  0.00     0.163 HD
ATOM     99  O   UNL     1      16.674  -9.522  -3.500  1.00  0.00    -0.268 OA
BRANCH  97 100
ATOM    100  C   UNL     1      14.678  -8.285  -4.086  1.00  0.00     0.277 C 
ATOM    101  C   UNL     1      14.838  -7.872  -5.556  1.00  0.00     0.111 C 
ATOM    102  N   UNL     1      15.071  -7.263  -3.084  1.00  0.00    -0.332 N 
ATOM    103  C   UNL     1      14.067  -6.603  -5.772  1.00  0.00    -0.033 A 
ATOM    104  C   UNL     1      15.058  -5.884  -3.584  1.00  0.00     0.298 C 
ATOM    105  H   UNL     1      16.016  -7.477  -2.765  1.00  0.00     0.347 HD
ATOM    106  H   UNL     1      14.378  -7.307  -2.337  1.00  0.00     0.347 HD
ATOM    107  C   UNL     1      13.306  -6.377  -6.921  1.00  0.00     0.004 A 
ATOM    108  C   UNL     1      14.131  -5.638  -4.753  1.00  0.00     0.010 A 
ATOM    109  C   UNL     1      12.585  -5.192  -7.045  1.00  0.00     0.000 A 
ATOM    110  C   UNL     1      13.410  -4.450  -4.891  1.00  0.00     0.010 A 
ATOM    111  C   UNL     1      12.631  -4.234  -6.030  1.00  0.00     0.001 A 
ENDBRANCH  97 100
ENDBRANCH  95  96
ENDBRANCH  94  95
ENDBRANCH  86  89
ENDBRANCH  78  85
ENDBRANCH  75  78
ENDBRANCH   1  74
TORSDOF 17
