REMARK SMILES CC(=O)Nc1cccc(NC(=O)N[C@H](C(=O)NCCCCNC(=O)c2ccc(-c3c4nc(c(-c5c(F)c(F)c(F)c(F)c5F)c5ccc([nH]5)c(-c5c(F)c(F)c(F)c(F)c5F)c5nc(c(-c6c(F)c(F)c(F)c(F)c6F)c6ccc3[nH]6)C=C5)C=C4)cc2)C(C)C)c1
REMARK SMILES IDX 19 1 18 2 17 3 15 4 16 5 14 7 13 8 10 9 11 10 12 12 9 14
REMARK SMILES IDX 5 15 6 16 91 17 7 18 8 19 4 20 1 21 2 22 3 23 88 25 89 26
REMARK SMILES IDX 90 27 20 28 21 29 22 30 23 31 24 33 25 34 26 35 87 36 27 37
REMARK SMILES IDX 86 38 28 39 29 40 30 41 80 42 31 43 85 44 79 45 81 46 32 47
REMARK SMILES IDX 84 48 78 49 77 50 33 52 65 53 45 54 64 55 46 56 49 57 63 58
REMARK SMILES IDX 82 59 47 60 48 61 62 63 83 64 50 65 34 66 35 67 43 68 36 69
REMARK SMILES IDX 37 70 41 71 44 72 38 73 39 74 42 75 40 76 66 77 67 78 75 79
REMARK SMILES IDX 68 80 69 81 73 82 76 83 70 84 71 85 74 86 72 87 51 88 52 89
REMARK SMILES IDX 60 90 53 91 54 92 58 93 61 94 55 95 56 96 59 97 57 98
REMARK H PARENT 17 6 10 11 13 13 4 24 22 32 81 51 49 62
REMARK Flexibility Score: inf
ROOT
ATOM      1  C   UNL     1       3.923  -5.585  -3.950  1.00  0.00     0.023 C 
ENDROOT
BRANCH   1   2
ATOM      2  C   UNL     1       3.872  -5.913  -2.459  1.00  0.00     0.116 C 
BRANCH   2   3
ATOM      3  N   UNL     1       4.286  -4.821  -1.595  1.00  0.00    -0.354 N 
ATOM      4  C   UNL     1       4.196  -4.699  -0.226  1.00  0.00     0.242 C 
ATOM      5  O   UNL     1       4.606  -3.632   0.241  1.00  0.00    -0.273 OA
ATOM      6  H   UNL     1       4.691  -4.052  -2.058  1.00  0.00     0.163 HD
BRANCH   4   7
ATOM      7  C   UNL     1       3.473  -5.782   0.657  1.00  0.00     0.175 C 
BRANCH   7   8
ATOM      8  N   UNL     1       3.341  -7.118   0.044  1.00  0.00    -0.326 N 
ATOM      9  N   UNL     1       5.266  -8.508   0.383  1.00  0.00    -0.308 N 
ATOM     10  C   UNL     1       4.038  -8.247  -0.084  1.00  0.00     0.319 C 
ATOM     11  H   UNL     1       5.454  -9.475   0.388  1.00  0.00     0.171 HD
ATOM     12  O   UNL     1       3.442  -9.176  -0.644  1.00  0.00    -0.248 OA
ATOM     13  H   UNL     1       2.472  -7.200  -0.410  1.00  0.00     0.166 HD
BRANCH   9  14
ATOM     14  C   UNL     1       6.349  -7.769   0.866  1.00  0.00     0.044 A 
ATOM     15  C   UNL     1       8.303  -7.682   2.286  1.00  0.00     0.043 A 
ATOM     16  C   UNL     1       8.391  -6.303   2.128  1.00  0.00     0.026 A 
ATOM     17  C   UNL     1       7.270  -8.414   1.690  1.00  0.00     0.052 A 
ATOM     18  C   UNL     1       7.566  -5.694   1.196  1.00  0.00     0.004 A 
ATOM     19  C   UNL     1       6.603  -6.451   0.525  1.00  0.00     0.026 A 
BRANCH  15  20
ATOM     20  N   UNL     1       9.356  -8.340   2.923  1.00  0.00    -0.326 N 
ATOM     21  C   UNL     1      10.257  -9.074   0.730  1.00  0.00     0.114 C 
ATOM     22  C   UNL     1      10.373  -8.962   2.235  1.00  0.00     0.221 C 
ATOM     23  O   UNL     1      11.367  -9.365   2.837  1.00  0.00    -0.275 OA
ATOM     24  H   UNL     1       9.372  -8.361   3.907  1.00  0.00     0.169 HD
ENDBRANCH  15  20
ENDBRANCH   9  14
ENDBRANCH   7   8
BRANCH   7  25
ATOM     25  C   UNL     1       3.774  -5.896   2.183  1.00  0.00     0.015 C 
ATOM     26  C   UNL     1       4.313  -4.648   2.880  1.00  0.00     0.010 C 
ATOM     27  C   UNL     1       2.513  -6.362   2.933  1.00  0.00     0.010 C 
ENDBRANCH   7  25
ENDBRANCH   4   7
ENDBRANCH   2   3
ENDBRANCH   1   2
BRANCH   1  28
ATOM     28  C   UNL     1       5.307  -5.685  -4.598  1.00  0.00     0.023 C 
BRANCH  28  29
ATOM     29  C   UNL     1       5.948  -7.075  -4.592  1.00  0.00     0.116 C 
BRANCH  29  30
ATOM     30  N   UNL     1       5.166  -8.080  -5.302  1.00  0.00    -0.352 N 
ATOM     31  C   UNL     1       5.418  -8.745  -6.480  1.00  0.00     0.251 C 
ATOM     32  H   UNL     1       4.316  -8.322  -4.867  1.00  0.00     0.163 HD
ATOM     33  O   UNL     1       4.554  -9.459  -6.982  1.00  0.00    -0.269 OA
BRANCH  31  34
ATOM     34  C   UNL     1       6.718  -8.588  -7.166  1.00  0.00     0.039 A 
ATOM     35  C   UNL     1       6.737  -8.351  -8.545  1.00  0.00     0.014 A 
ATOM     36  C   UNL     1       7.917  -8.684  -6.459  1.00  0.00     0.014 A 
ATOM     37  C   UNL     1       7.952  -8.113  -9.194  1.00  0.00     0.010 A 
ATOM     38  C   UNL     1       9.117  -8.371  -7.089  1.00  0.00     0.010 A 
ATOM     39  C   UNL     1       9.148  -8.072  -8.461  1.00  0.00    -0.014 A 
BRANCH  39  40
ATOM     40  C   UNL     1      10.449  -7.719  -9.090  1.00  0.00     0.031 A 
ATOM     41  C   UNL     1      11.574  -8.717  -9.089  1.00  0.00     0.074 A 
ATOM     42  C   UNL     1      10.655  -6.473  -9.561  1.00  0.00     0.049 A 
ATOM     43  N   UNL     1      12.831  -8.553  -9.417  1.00  0.00    -0.248 NA
ATOM     44  C   UNL     1      11.246 -10.073  -8.624  1.00  0.00     0.031 C 
ATOM     45  C   UNL     1       9.657  -5.404  -9.593  1.00  0.00     0.029 A 
ATOM     46  N   UNL     1      11.784  -5.888 -10.080  1.00  0.00    -0.354 N 
ATOM     47  C   UNL     1      13.446  -9.773  -9.170  1.00  0.00     0.074 A 
ATOM     48  C   UNL     1      12.437 -10.653  -8.621  1.00  0.00     0.031 C 
ATOM     49  C   UNL     1      10.213  -4.298 -10.113  1.00  0.00     0.029 A 
ATOM     50  C   UNL     1      11.619  -4.563 -10.404  1.00  0.00     0.049 A 
ATOM     51  H   UNL     1      12.632  -6.372 -10.207  1.00  0.00     0.167 HD
ATOM     52  C   UNL     1      14.732 -10.132  -9.396  1.00  0.00     0.037 A 
ATOM     53  C   UNL     1      12.505  -3.659 -10.865  1.00  0.00     0.037 A 
ATOM     54  C   UNL     1      15.725  -9.264  -9.972  1.00  0.00     0.049 A 
ATOM     55  C   UNL     1      13.932  -4.080 -11.098  1.00  0.00     0.074 A 
ATOM     56  C   UNL     1      17.042  -9.549 -10.289  1.00  0.00     0.029 A 
ATOM     57  N   UNL     1      15.508  -7.939 -10.321  1.00  0.00    -0.354 N 
ATOM     58  N   UNL     1      14.493  -5.248 -10.903  1.00  0.00    -0.248 NA
ATOM     59  C   UNL     1      14.850  -3.055 -11.617  1.00  0.00     0.031 C 
ATOM     60  C   UNL     1      17.633  -8.385 -10.790  1.00  0.00     0.029 A 
ATOM     61  C   UNL     1      16.671  -7.389 -10.836  1.00  0.00     0.049 A 
ATOM     62  H   UNL     1      14.654  -7.460 -10.217  1.00  0.00     0.167 HD
ATOM     63  C   UNL     1      15.813  -5.112 -11.312  1.00  0.00     0.074 A 
ATOM     64  C   UNL     1      15.971  -3.747 -11.768  1.00  0.00     0.031 C 
ATOM     65  C   UNL     1      16.804  -6.037 -11.313  1.00  0.00     0.037 A 
BRANCH  52  66
ATOM     66  C   UNL     1      15.140 -11.527  -9.019  1.00  0.00     0.064 A 
ATOM     67  C   UNL     1      14.668 -12.648  -9.720  1.00  0.00     0.173 A 
ATOM     68  C   UNL     1      16.038 -11.746  -7.963  1.00  0.00     0.173 A 
ATOM     69  F   UNL     1      13.801 -12.495 -10.732  1.00  0.00    -0.203 F 
ATOM     70  C   UNL     1      15.052 -13.935  -9.356  1.00  0.00     0.198 A 
ATOM     71  C   UNL     1      16.445 -13.033  -7.622  1.00  0.00     0.198 A 
ATOM     72  F   UNL     1      16.526 -10.710  -7.264  1.00  0.00    -0.203 F 
ATOM     73  F   UNL     1      14.544 -14.992 -10.005  1.00  0.00    -0.200 F 
ATOM     74  C   UNL     1      15.945 -14.127  -8.312  1.00  0.00     0.200 A 
ATOM     75  F   UNL     1      17.320 -13.216  -6.623  1.00  0.00    -0.200 F 
ATOM     76  F   UNL     1      16.318 -15.367  -7.967  1.00  0.00    -0.200 F 
ENDBRANCH  52  66
BRANCH  53  77
ATOM     77  C   UNL     1      12.068  -2.268 -11.157  1.00  0.00     0.064 A 
ATOM     78  C   UNL     1      12.007  -1.798 -12.476  1.00  0.00     0.173 A 
ATOM     79  C   UNL     1      11.715  -1.379 -10.131  1.00  0.00     0.173 A 
ATOM     80  F   UNL     1      12.357  -2.603 -13.490  1.00  0.00    -0.203 F 
ATOM     81  C   UNL     1      11.631  -0.486 -12.757  1.00  0.00     0.198 A 
ATOM     82  C   UNL     1      11.310  -0.076 -10.415  1.00  0.00     0.198 A 
ATOM     83  F   UNL     1      11.752  -1.780  -8.852  1.00  0.00    -0.203 F 
ATOM     84  F   UNL     1      11.628  -0.049 -14.024  1.00  0.00    -0.200 F 
ATOM     85  C   UNL     1      11.277   0.372 -11.727  1.00  0.00     0.200 A 
ATOM     86  F   UNL     1      10.956   0.746  -9.418  1.00  0.00    -0.200 F 
ATOM     87  F   UNL     1      10.913   1.633 -11.998  1.00  0.00    -0.200 F 
ENDBRANCH  53  77
BRANCH  65  88
ATOM     88  C   UNL     1      18.133  -5.632 -11.881  1.00  0.00     0.064 A 
ATOM     89  C   UNL     1      18.998  -4.767 -11.197  1.00  0.00     0.173 A 
ATOM     90  C   UNL     1      18.571  -6.172 -13.100  1.00  0.00     0.173 A 
ATOM     91  F   UNL     1      18.620  -4.212 -10.035  1.00  0.00    -0.203 F 
ATOM     92  C   UNL     1      20.248  -4.446 -11.720  1.00  0.00     0.198 A 
ATOM     93  C   UNL     1      19.832  -5.872 -13.606  1.00  0.00     0.198 A 
ATOM     94  F   UNL     1      17.782  -7.010 -13.790  1.00  0.00    -0.203 F 
ATOM     95  F   UNL     1      21.045  -3.588 -11.069  1.00  0.00    -0.200 F 
ATOM     96  C   UNL     1      20.668  -5.006 -12.918  1.00  0.00     0.200 A 
ATOM     97  F   UNL     1      20.240  -6.426 -14.756  1.00  0.00    -0.200 F 
ATOM     98  F   UNL     1      21.877  -4.707 -13.413  1.00  0.00    -0.200 F 
ENDBRANCH  65  88
ENDBRANCH  39  40
ENDBRANCH  31  34
ENDBRANCH  29  30
ENDBRANCH  28  29
ENDBRANCH   1  28
TORSDOF 15
