REMARK SMILES CC(C)c1nc(C(=O)NCCCCNC(=O)c2ccc(-c3c4nc(c(-c5c(F)c(F)c(F)c(F)c5F)c5ccc([nH]5)c(-c5c(F)c(F)c(F)c(F)c5F)c5nc(c(-c6c(F)c(F)c(F)c(F)c6F)c6ccc3[nH]6)C=C5)C=C4)cc2)nn1-c1ccccc1F
REMARK SMILES IDX 12 1 11 2 10 3 9 4 7 5 8 6 6 8 4 9 5 10 81 11 80 12 2 13
REMARK SMILES IDX 1 14 3 15 82 16 83 17 87 18 84 19 86 20 88 21 85 22 13 23
REMARK SMILES IDX 14 24 15 25 16 27 17 28 18 29 79 30 19 31 78 32 20 33 21 34
REMARK SMILES IDX 22 35 72 36 23 37 77 38 71 39 73 40 24 41 76 42 70 43 69 44
REMARK SMILES IDX 25 46 57 47 37 48 56 49 38 50 41 51 55 52 74 53 39 54 40 55
REMARK SMILES IDX 54 57 75 58 42 59 26 60 27 61 35 62 28 63 29 64 33 65 36 66
REMARK SMILES IDX 30 67 31 68 34 69 32 70 58 71 59 72 67 73 60 74 61 75 65 76
REMARK SMILES IDX 68 77 62 78 63 79 66 80 64 81 43 82 44 83 52 84 45 85 46 86
REMARK SMILES IDX 50 87 53 88 47 89 48 90 51 91 49 92
REMARK H PARENT 9 7 14 26 73 45 41 56
REMARK Flexibility Score: inf
ROOT
ATOM      1  C   UNL     1      -7.963   1.609  -0.139  1.00  0.00     0.023 C 
ENDROOT
BRANCH   1   2
ATOM      2  C   UNL     1      -6.472   1.889   0.078  1.00  0.00     0.023 C 
BRANCH   2   3
ATOM      3  C   UNL     1      -5.871   1.368   1.386  1.00  0.00     0.116 C 
BRANCH   3   4
ATOM      4  N   UNL     1      -5.689  -0.077   1.397  1.00  0.00    -0.349 N 
ATOM      5  C   UNL     1      -4.533  -0.844   1.462  1.00  0.00     0.290 C 
ATOM      6  O   UNL     1      -4.676  -2.068   1.395  1.00  0.00    -0.266 OA
ATOM      7  H   UNL     1      -6.525  -0.596   1.352  1.00  0.00     0.163 HD
BRANCH   5   8
ATOM      8  C   UNL     1      -3.201  -0.203   1.575  1.00  0.00     0.239 A 
ATOM      9  C   UNL     1      -1.098   0.133   1.354  1.00  0.00     0.136 A 
ATOM     10  N   UNL     1      -2.016  -0.811   1.201  1.00  0.00    -0.207 NA
ATOM     11  N   UNL     1      -1.755   1.310   1.673  1.00  0.00    -0.214 N 
ATOM     12  N   UNL     1      -3.001   1.016   2.099  1.00  0.00    -0.140 NA
BRANCH   9  13
ATOM     13  C   UNL     1       0.389  -0.124   1.423  1.00  0.00     0.051 C 
ATOM     14  C   UNL     1       1.022  -0.321   0.050  1.00  0.00     0.016 C 
ATOM     15  C   UNL     1       1.181   0.874   2.269  1.00  0.00     0.016 C 
ENDBRANCH   9  13
BRANCH  11  16
ATOM     16  C   UNL     1      -1.377   2.661   1.585  1.00  0.00     0.102 A 
ATOM     17  C   UNL     1      -1.815   3.561   2.566  1.00  0.00     0.031 A 
ATOM     18  C   UNL     1      -0.655   3.127   0.492  1.00  0.00     0.148 A 
ATOM     19  C   UNL     1      -1.444   4.903   2.485  1.00  0.00     0.002 A 
ATOM     20  C   UNL     1      -0.298   4.469   0.401  1.00  0.00     0.041 A 
ATOM     21  F   UNL     1      -0.363   2.324  -0.537  1.00  0.00    -0.205 F 
ATOM     22  C   UNL     1      -0.678   5.355   1.409  1.00  0.00     0.003 A 
ENDBRANCH  11  16
ENDBRANCH   5   8
ENDBRANCH   3   4
ENDBRANCH   2   3
ENDBRANCH   1   2
BRANCH   1  23
ATOM     23  C   UNL     1      -8.889   2.202   0.919  1.00  0.00     0.116 C 
BRANCH  23  24
ATOM     24  N   UNL     1      -8.864   3.663   0.963  1.00  0.00    -0.352 N 
ATOM     25  C   UNL     1      -9.600   4.493   1.782  1.00  0.00     0.251 C 
ATOM     26  H   UNL     1      -8.250   4.106   0.333  1.00  0.00     0.163 HD
ATOM     27  O   UNL     1      -9.796   5.671   1.473  1.00  0.00    -0.269 OA
BRANCH  25  28
ATOM     28  C   UNL     1     -10.152   3.967   3.042  1.00  0.00     0.039 A 
ATOM     29  C   UNL     1     -11.441   4.310   3.463  1.00  0.00     0.014 A 
ATOM     30  C   UNL     1      -9.360   3.111   3.807  1.00  0.00     0.014 A 
ATOM     31  C   UNL     1     -11.960   3.714   4.611  1.00  0.00     0.010 A 
ATOM     32  C   UNL     1      -9.909   2.439   4.875  1.00  0.00     0.010 A 
ATOM     33  C   UNL     1     -11.199   2.753   5.297  1.00  0.00    -0.014 A 
BRANCH  33  34
ATOM     34  C   UNL     1     -11.826   1.899   6.311  1.00  0.00     0.031 A 
ATOM     35  C   UNL     1     -13.006   1.153   5.782  1.00  0.00     0.074 A 
ATOM     36  C   UNL     1     -11.236   1.621   7.498  1.00  0.00     0.049 A 
ATOM     37  N   UNL     1     -14.228   1.206   6.197  1.00  0.00    -0.248 NA
ATOM     38  C   UNL     1     -12.847   0.372   4.538  1.00  0.00     0.031 C 
ATOM     39  C   UNL     1      -9.920   2.092   7.949  1.00  0.00     0.029 A 
ATOM     40  N   UNL     1     -11.598   0.763   8.501  1.00  0.00    -0.354 N 
ATOM     41  C   UNL     1     -14.936   0.287   5.420  1.00  0.00     0.074 A 
ATOM     42  C   UNL     1     -14.099  -0.022   4.298  1.00  0.00     0.031 C 
ATOM     43  C   UNL     1      -9.490   1.332   8.979  1.00  0.00     0.029 A 
ATOM     44  C   UNL     1     -10.552   0.422   9.364  1.00  0.00     0.049 A 
ATOM     45  H   UNL     1     -12.514   0.418   8.606  1.00  0.00     0.167 HD
ATOM     46  C   UNL     1     -15.991  -0.385   5.963  1.00  0.00     0.037 A 
ATOM     47  C   UNL     1     -10.541  -0.561  10.302  1.00  0.00     0.037 A 
ATOM     48  C   UNL     1     -16.434   0.288   7.159  1.00  0.00     0.049 A 
ATOM     49  C   UNL     1     -11.949  -0.915  10.581  1.00  0.00     0.074 A 
ATOM     50  C   UNL     1     -17.048   1.479   7.474  1.00  0.00     0.029 A 
ATOM     51  N   UNL     1     -15.819  -0.168   8.292  1.00  0.00    -0.354 N 
ATOM     52  N   UNL     1     -12.782  -0.128  11.199  1.00  0.00    -0.248 NA
ATOM     53  C   UNL     1     -12.554  -2.021   9.851  1.00  0.00     0.031 C 
ATOM     54  C   UNL     1     -16.591   1.818   8.785  1.00  0.00     0.029 A 
ATOM     55  C   UNL     1     -15.773   0.793   9.258  1.00  0.00     0.049 A 
ATOM     56  H   UNL     1     -15.456  -1.077   8.398  1.00  0.00     0.167 HD
ATOM     57  C   UNL     1     -13.986  -0.347  10.561  1.00  0.00     0.074 A 
ATOM     58  C   UNL     1     -13.831  -1.633   9.890  1.00  0.00     0.031 C 
ATOM     59  C   UNL     1     -14.850   0.691  10.365  1.00  0.00     0.037 A 
BRANCH  46  60
ATOM     60  C   UNL     1     -16.233  -1.886   5.797  1.00  0.00     0.064 A 
ATOM     61  C   UNL     1     -17.313  -2.471   6.499  1.00  0.00     0.173 A 
ATOM     62  C   UNL     1     -15.285  -2.806   5.297  1.00  0.00     0.173 A 
ATOM     63  F   UNL     1     -18.278  -1.705   7.031  1.00  0.00    -0.203 F 
ATOM     64  C   UNL     1     -17.374  -3.843   6.769  1.00  0.00     0.198 A 
ATOM     65  C   UNL     1     -15.373  -4.180   5.530  1.00  0.00     0.198 A 
ATOM     66  F   UNL     1     -14.176  -2.425   4.657  1.00  0.00    -0.203 F 
ATOM     67  F   UNL     1     -18.344  -4.326   7.558  1.00  0.00    -0.200 F 
ATOM     68  C   UNL     1     -16.396  -4.695   6.294  1.00  0.00     0.200 A 
ATOM     69  F   UNL     1     -14.402  -4.985   5.077  1.00  0.00    -0.200 F 
ATOM     70  F   UNL     1     -16.411  -5.997   6.607  1.00  0.00    -0.200 F 
ENDBRANCH  46  60
BRANCH  47  71
ATOM     71  C   UNL     1      -9.421  -1.386  10.827  1.00  0.00     0.064 A 
ATOM     72  C   UNL     1      -9.569  -2.150  12.000  1.00  0.00     0.173 A 
ATOM     73  C   UNL     1      -8.294  -1.678  10.036  1.00  0.00     0.173 A 
ATOM     74  F   UNL     1     -10.630  -1.965  12.799  1.00  0.00    -0.203 F 
ATOM     75  C   UNL     1      -8.673  -3.173  12.335  1.00  0.00     0.198 A 
ATOM     76  C   UNL     1      -7.396  -2.694  10.374  1.00  0.00     0.198 A 
ATOM     77  F   UNL     1      -8.095  -1.052   8.868  1.00  0.00    -0.203 F 
ATOM     78  F   UNL     1      -8.893  -3.928  13.421  1.00  0.00    -0.200 F 
ATOM     79  C   UNL     1      -7.596  -3.454  11.513  1.00  0.00     0.200 A 
ATOM     80  F   UNL     1      -6.376  -2.979   9.553  1.00  0.00    -0.200 F 
ATOM     81  F   UNL     1      -6.778  -4.479  11.791  1.00  0.00    -0.200 F 
ENDBRANCH  47  71
BRANCH  59  82
ATOM     82  C   UNL     1     -14.734   1.865  11.288  1.00  0.00     0.064 A 
ATOM     83  C   UNL     1     -13.612   2.703  11.396  1.00  0.00     0.173 A 
ATOM     84  C   UNL     1     -15.860   2.186  12.060  1.00  0.00     0.173 A 
ATOM     85  F   UNL     1     -12.531   2.519  10.626  1.00  0.00    -0.203 F 
ATOM     86  C   UNL     1     -13.604   3.779  12.284  1.00  0.00     0.198 A 
ATOM     87  C   UNL     1     -15.866   3.285  12.908  1.00  0.00     0.198 A 
ATOM     88  F   UNL     1     -16.974   1.444  11.964  1.00  0.00    -0.203 F 
ATOM     89  F   UNL     1     -12.511   4.547  12.399  1.00  0.00    -0.200 F 
ATOM     90  C   UNL     1     -14.733   4.072  13.033  1.00  0.00     0.200 A 
ATOM     91  F   UNL     1     -16.977   3.590  13.593  1.00  0.00    -0.200 F 
ATOM     92  F   UNL     1     -14.736   5.124  13.863  1.00  0.00    -0.200 F 
ENDBRANCH  59  82
ENDBRANCH  33  34
ENDBRANCH  25  28
ENDBRANCH  23  24
ENDBRANCH   1  23
TORSDOF 13
