REMARK SMILES COc1cc(Cl)c(C)cc1N1C(=O)C[C@H](Nc2cc(C(=O)NCCCCNC(=O)c3ccc(-c4c5nc(c(-c6c(F)c(F)c(F)c(F)c6F)c6ccc([nH]6)c(-c6c(F)c(F)c(F)c(F)c6F)c6nc(c(-c7c(F)c(F)c(F)c(F)c7F)c7ccc4[nH]7)C=C6)C=C5)cc3)ccc2C)C1=O
REMARK SMILES IDX 23 1 22 2 20 3 21 4 19 6 17 7 18 8 95 9 94 10 96 11 93 12
REMARK SMILES IDX 16 13 15 15 11 16 12 17 97 18 13 19 14 20 98 21 10 22 3 23
REMARK SMILES IDX 4 24 5 25 9 26 6 27 7 28 8 29 2 30 1 31 24 32 25 33 26 34
REMARK SMILES IDX 27 35 28 36 29 38 30 39 31 40 92 41 32 42 91 43 33 44 34 45
REMARK SMILES IDX 35 46 85 47 36 48 90 49 84 50 86 51 37 52 89 53 83 54 82 55
REMARK SMILES IDX 38 57 70 58 50 59 69 60 51 61 54 62 68 63 87 64 52 65 53 66
REMARK SMILES IDX 67 68 88 69 55 70 39 71 40 72 48 73 41 74 42 75 46 76 49 77
REMARK SMILES IDX 43 78 44 79 47 80 45 81 71 82 72 83 80 84 73 85 74 86 78 87
REMARK SMILES IDX 81 88 75 89 76 90 79 91 77 92 56 93 57 94 65 95 58 96 59 97
REMARK SMILES IDX 63 98 66 99 60 100 61 101 64 102 62 103
REMARK H PARENT 22 5 16 14 27 37 86 56 54 67
REMARK Flexibility Score: inf
ROOT
ATOM      1  C   UNL     1       2.857  -4.316   2.567  1.00  0.00     0.116 C 
ENDROOT
BRANCH   1   2
ATOM      2  N   UNL     1       3.751  -4.791   3.609  1.00  0.00    -0.352 N 
ATOM      3  C   UNL     1       5.059  -4.551   3.943  1.00  0.00     0.251 C 
ATOM      4  O   UNL     1       5.467  -5.141   4.949  1.00  0.00    -0.269 OA
ATOM      5  H   UNL     1       3.317  -5.434   4.215  1.00  0.00     0.163 HD
BRANCH   3   6
ATOM      6  C   UNL     1       5.997  -3.635   3.222  1.00  0.00     0.041 A 
ATOM      7  C   UNL     1       6.657  -2.084   1.436  1.00  0.00     0.038 A 
ATOM      8  C   UNL     1       5.744  -2.989   2.011  1.00  0.00     0.039 A 
ATOM      9  C   UNL     1       7.919  -1.921   2.028  1.00  0.00    -0.028 A 
ATOM     10  C   UNL     1       8.206  -2.598   3.219  1.00  0.00     0.006 A 
ATOM     11  C   UNL     1       8.984  -1.036   1.439  1.00  0.00     0.046 C 
ATOM     12  C   UNL     1       7.252  -3.426   3.816  1.00  0.00     0.014 A 
BRANCH   7  13
ATOM     13  N   UNL     1       6.364  -1.450   0.232  1.00  0.00    -0.373 N 
ATOM     14  H   UNL     1       7.012  -1.471  -0.509  1.00  0.00     0.161 HD
BRANCH  13  15
ATOM     15  C   UNL     1       5.089  -0.752   0.071  1.00  0.00     0.179 C 
ATOM     16  N   UNL     1       3.711  -0.538  -1.809  1.00  0.00    -0.245 N 
ATOM     17  C   UNL     1       4.381   0.654  -1.725  1.00  0.00     0.236 C 
ATOM     18  C   UNL     1       4.148  -1.459  -0.887  1.00  0.00     0.256 C 
ATOM     19  O   UNL     1       4.242   1.646  -2.426  1.00  0.00    -0.274 OA
ATOM     20  C   UNL     1       5.313   0.614  -0.553  1.00  0.00     0.136 C 
ATOM     21  O   UNL     1       3.887  -2.655  -0.837  1.00  0.00    -0.272 OA
BRANCH  16  22
ATOM     22  C   UNL     1       2.666  -0.788  -2.727  1.00  0.00     0.094 A 
ATOM     23  C   UNL     1       1.456  -1.365  -2.308  1.00  0.00     0.144 A 
ATOM     24  C   UNL     1       0.444  -1.644  -3.228  1.00  0.00     0.069 A 
ATOM     25  C   UNL     1       0.613  -1.313  -4.573  1.00  0.00     0.047 A 
ATOM     26  C   UNL     1       2.812  -0.436  -4.078  1.00  0.00     0.035 A 
ATOM     27  Cl  UNL     1      -0.694  -1.636  -5.655  1.00  0.00    -0.084 Cl
ATOM     28  C   UNL     1       1.801  -0.713  -5.017  1.00  0.00    -0.030 A 
ATOM     29  C   UNL     1       2.018  -0.355  -6.462  1.00  0.00     0.046 C 
BRANCH  23  30
ATOM     30  O   UNL     1       1.167  -1.635  -0.992  1.00  0.00    -0.495 OA
ATOM     31  C   UNL     1       1.057  -0.440  -0.217  1.00  0.00     0.278 C 
ENDBRANCH  23  30
ENDBRANCH  16  22
ENDBRANCH  13  15
ENDBRANCH   7  13
ENDBRANCH   3   6
ENDBRANCH   1   2
BRANCH   1  32
ATOM     32  C   UNL     1       2.863  -5.232   1.335  1.00  0.00     0.023 C 
BRANCH  32  33
ATOM     33  C   UNL     1       2.123  -6.564   1.525  1.00  0.00     0.023 C 
BRANCH  33  34
ATOM     34  C   UNL     1       0.617  -6.416   1.718  1.00  0.00     0.116 C 
BRANCH  34  35
ATOM     35  N   UNL     1      -0.147  -6.168   0.505  1.00  0.00    -0.352 N 
ATOM     36  C   UNL     1      -1.473  -5.791   0.333  1.00  0.00     0.251 C 
ATOM     37  H   UNL     1       0.358  -6.288  -0.331  1.00  0.00     0.163 HD
ATOM     38  O   UNL     1      -1.949  -5.782  -0.788  1.00  0.00    -0.269 OA
BRANCH  36  39
ATOM     39  C   UNL     1      -2.269  -5.243   1.471  1.00  0.00     0.039 A 
ATOM     40  C   UNL     1      -3.181  -4.212   1.190  1.00  0.00     0.014 A 
ATOM     41  C   UNL     1      -1.984  -5.550   2.794  1.00  0.00     0.014 A 
ATOM     42  C   UNL     1      -3.557  -3.324   2.198  1.00  0.00     0.010 A 
ATOM     43  C   UNL     1      -2.245  -4.607   3.767  1.00  0.00     0.010 A 
ATOM     44  C   UNL     1      -2.965  -3.451   3.448  1.00  0.00    -0.014 A 
BRANCH  44  45
ATOM     45  C   UNL     1      -2.900  -2.391   4.447  1.00  0.00     0.031 A 
ATOM     46  C   UNL     1      -3.562  -2.553   5.760  1.00  0.00     0.074 A 
ATOM     47  C   UNL     1      -2.024  -1.378   4.251  1.00  0.00     0.049 A 
ATOM     48  N   UNL     1      -3.596  -1.630   6.660  1.00  0.00    -0.248 NA
ATOM     49  C   UNL     1      -4.311  -3.749   6.143  1.00  0.00     0.031 C 
ATOM     50  C   UNL     1      -1.395  -0.538   5.270  1.00  0.00     0.029 A 
ATOM     51  N   UNL     1      -1.642  -0.782   3.033  1.00  0.00    -0.354 N 
ATOM     52  C   UNL     1      -4.107  -2.180   7.808  1.00  0.00     0.074 A 
ATOM     53  C   UNL     1      -4.658  -3.448   7.400  1.00  0.00     0.031 C 
ATOM     54  C   UNL     1      -0.942   0.586   4.693  1.00  0.00     0.029 A 
ATOM     55  C   UNL     1      -1.450   0.591   3.334  1.00  0.00     0.049 A 
ATOM     56  H   UNL     1      -1.532  -1.224   2.159  1.00  0.00     0.167 HD
ATOM     57  C   UNL     1      -3.902  -1.533   8.988  1.00  0.00     0.037 A 
ATOM     58  C   UNL     1      -2.282   1.555   2.837  1.00  0.00     0.037 A 
ATOM     59  C   UNL     1      -3.398  -0.180   8.772  1.00  0.00     0.049 A 
ATOM     60  C   UNL     1      -2.990   2.418   3.857  1.00  0.00     0.074 A 
ATOM     61  C   UNL     1      -2.184   0.461   8.936  1.00  0.00     0.029 A 
ATOM     62  N   UNL     1      -4.213   0.706   8.093  1.00  0.00    -0.354 N 
ATOM     63  N   UNL     1      -2.982   2.208   5.141  1.00  0.00    -0.248 NA
ATOM     64  C   UNL     1      -3.883   3.513   3.471  1.00  0.00     0.031 C 
ATOM     65  C   UNL     1      -2.283   1.745   8.316  1.00  0.00     0.029 A 
ATOM     66  C   UNL     1      -3.564   1.886   7.810  1.00  0.00     0.049 A 
ATOM     67  H   UNL     1      -5.146   0.515   7.843  1.00  0.00     0.167 HD
ATOM     68  C   UNL     1      -3.922   3.011   5.727  1.00  0.00     0.074 A 
ATOM     69  C   UNL     1      -4.444   3.829   4.649  1.00  0.00     0.031 C 
ATOM     70  C   UNL     1      -4.269   2.894   7.039  1.00  0.00     0.037 A 
BRANCH  57  71
ATOM     71  C   UNL     1      -4.054  -2.119  10.371  1.00  0.00     0.064 A 
ATOM     72  C   UNL     1      -3.957  -1.276  11.502  1.00  0.00     0.173 A 
ATOM     73  C   UNL     1      -4.163  -3.494  10.666  1.00  0.00     0.173 A 
ATOM     74  F   UNL     1      -3.858   0.055  11.370  1.00  0.00    -0.203 F 
ATOM     75  C   UNL     1      -3.938  -1.772  12.809  1.00  0.00     0.198 A 
ATOM     76  C   UNL     1      -4.204  -3.981  11.975  1.00  0.00     0.198 A 
ATOM     77  F   UNL     1      -4.171  -4.429   9.711  1.00  0.00    -0.203 F 
ATOM     78  F   UNL     1      -3.773  -0.928  13.837  1.00  0.00    -0.200 F 
ATOM     79  C   UNL     1      -4.071  -3.124  13.046  1.00  0.00     0.200 A 
ATOM     80  F   UNL     1      -4.340  -5.299  12.186  1.00  0.00    -0.200 F 
ATOM     81  F   UNL     1      -4.051  -3.602  14.297  1.00  0.00    -0.200 F 
ENDBRANCH  57  71
BRANCH  58  82
ATOM     82  C   UNL     1      -2.910   1.183   1.546  1.00  0.00     0.064 A 
ATOM     83  C   UNL     1      -2.127   1.146   0.385  1.00  0.00     0.173 A 
ATOM     84  C   UNL     1      -4.149   0.529   1.525  1.00  0.00     0.173 A 
ATOM     85  F   UNL     1      -0.937   1.766   0.362  1.00  0.00    -0.203 F 
ATOM     86  C   UNL     1      -2.512   0.382  -0.714  1.00  0.00     0.198 A 
ATOM     87  C   UNL     1      -4.534  -0.229   0.422  1.00  0.00     0.198 A 
ATOM     88  F   UNL     1      -4.931   0.526   2.614  1.00  0.00    -0.203 F 
ATOM     89  F   UNL     1      -1.697   0.279  -1.773  1.00  0.00    -0.200 F 
ATOM     90  C   UNL     1      -3.698  -0.334  -0.680  1.00  0.00     0.200 A 
ATOM     91  F   UNL     1      -5.671  -0.937   0.467  1.00  0.00    -0.200 F 
ATOM     92  F   UNL     1      -4.018  -1.155  -1.689  1.00  0.00    -0.200 F 
ENDBRANCH  58  82
BRANCH  70  93
ATOM     93  C   UNL     1      -5.369   3.697   7.667  1.00  0.00     0.064 A 
ATOM     94  C   UNL     1      -5.446   5.091   7.533  1.00  0.00     0.173 A 
ATOM     95  C   UNL     1      -6.336   3.094   8.498  1.00  0.00     0.173 A 
ATOM     96  F   UNL     1      -4.547   5.758   6.793  1.00  0.00    -0.203 F 
ATOM     97  C   UNL     1      -6.450   5.831   8.164  1.00  0.00     0.198 A 
ATOM     98  C   UNL     1      -7.303   3.840   9.169  1.00  0.00     0.198 A 
ATOM     99  F   UNL     1      -6.393   1.763   8.651  1.00  0.00    -0.203 F 
ATOM    100  F   UNL     1      -6.525   7.154   7.965  1.00  0.00    -0.200 F 
ATOM    101  C   UNL     1      -7.367   5.207   8.993  1.00  0.00     0.200 A 
ATOM    102  F   UNL     1      -8.176   3.222   9.977  1.00  0.00    -0.200 F 
ATOM    103  F   UNL     1      -8.317   5.921   9.612  1.00  0.00    -0.200 F 
ENDBRANCH  70  93
ENDBRANCH  44  45
ENDBRANCH  36  39
ENDBRANCH  34  35
ENDBRANCH  33  34
ENDBRANCH  32  33
ENDBRANCH   1  32
TORSDOF 15
