REMARK SMILES CC(C)(C)OC(=O)N1CCN(c2nc3ccccc3s2)[C@H](C(=O)NCCCCNC(=O)c2ccc(-c3c4nc(c(-c5c(F)c(F)c(F)c(F)c5F)c5ccc([nH]5)c(-c5c(F)c(F)c(F)c(F)c5F)c5nc(c(-c6c(F)c(F)c(F)c(F)c6F)c6ccc3[nH]6)C=C5)C=C4)cc2)C1
REMARK SMILES IDX 26 1 25 2 24 3 22 4 23 5 21 7 8 8 9 9 95 10 10 11 11 12 6 13
REMARK SMILES IDX 7 14 5 15 2 16 1 17 3 18 4 19 12 20 13 21 20 22 14 23 19 24
REMARK SMILES IDX 15 25 18 26 16 27 17 28 27 29 28 30 29 31 30 32 31 34 32 35
REMARK SMILES IDX 33 36 94 37 34 38 93 39 35 40 36 41 37 42 87 43 38 44 92 45
REMARK SMILES IDX 86 46 88 47 39 48 91 49 85 50 84 51 40 53 72 54 52 55 71 56
REMARK SMILES IDX 53 57 56 58 70 59 89 60 54 61 55 62 69 64 90 65 57 66 41 67
REMARK SMILES IDX 42 68 50 69 43 70 44 71 48 72 51 73 45 74 46 75 49 76 47 77
REMARK SMILES IDX 73 78 74 79 82 80 75 81 76 82 80 83 83 84 77 85 78 86 81 87
REMARK SMILES IDX 79 88 58 89 59 90 67 91 60 92 61 93 65 94 68 95 62 96 63 97
REMARK SMILES IDX 66 98 64 99
REMARK H PARENT 24 6 29 33 88 52 56 63
REMARK Flexibility Score: inf
ROOT
ATOM      1  C   UNL     1       4.736  -0.719  -2.781  1.00  0.00     0.023 C 
ENDROOT
BRANCH   1   2
ATOM      2  C   UNL     1       4.019  -1.025  -4.099  1.00  0.00     0.116 C 
BRANCH   2   3
ATOM      3  N   UNL     1       4.605  -2.184  -4.743  1.00  0.00    -0.354 N 
ATOM      4  C   UNL     1       4.122  -3.460  -4.857  1.00  0.00     0.244 C 
ATOM      5  O   UNL     1       4.947  -4.322  -5.162  1.00  0.00    -0.273 OA
ATOM      6  H   UNL     1       5.483  -2.031  -5.161  1.00  0.00     0.163 HD
BRANCH   4   7
ATOM      7  C   UNL     1       2.631  -3.730  -4.572  1.00  0.00     0.193 C 
ATOM      8  N   UNL     1       1.059  -4.152  -2.674  1.00  0.00    -0.304 N 
ATOM      9  C   UNL     1       0.393  -5.228  -3.416  1.00  0.00     0.144 C 
ATOM     10  C   UNL     1       2.458  -3.891  -3.047  1.00  0.00     0.158 C 
ATOM     11  C   UNL     1       0.603  -5.088  -4.937  1.00  0.00     0.141 C 
ATOM     12  N   UNL     1       2.036  -4.932  -5.219  1.00  0.00    -0.332 N 
BRANCH   8  13
ATOM     13  C   UNL     1       0.447  -3.592  -1.577  1.00  0.00     0.410 C 
ATOM     14  O   UNL     1      -0.569  -4.056  -1.065  1.00  0.00    -0.224 OA
BRANCH  13  15
ATOM     15  O   UNL     1       1.064  -2.455  -1.170  1.00  0.00    -0.444 OA
BRANCH  15  16
ATOM     16  C   UNL     1       0.583  -1.692  -0.030  1.00  0.00     0.106 C 
ATOM     17  C   UNL     1       1.278  -0.327  -0.149  1.00  0.00     0.056 C 
ATOM     18  C   UNL     1       1.036  -2.379   1.260  1.00  0.00     0.056 C 
ATOM     19  C   UNL     1      -0.933  -1.451  -0.041  1.00  0.00     0.056 C 
ENDBRANCH  15  16
ENDBRANCH  13  15
ENDBRANCH   8  13
BRANCH  12  20
ATOM     20  C   UNL     1       2.487  -5.362  -6.422  1.00  0.00     0.187 A 
ATOM     21  N   UNL     1       2.123  -4.869  -7.583  1.00  0.00    -0.220 NA
ATOM     22  S   UNL     1       3.535  -6.730  -6.502  1.00  0.00    -0.097 S 
ATOM     23  C   UNL     1       2.808  -5.515  -8.605  1.00  0.00     0.084 A 
ATOM     24  C   UNL     1       3.679  -6.525  -8.197  1.00  0.00     0.056 A 
ATOM     25  C   UNL     1       2.708  -5.236  -9.985  1.00  0.00     0.030 A 
ATOM     26  C   UNL     1       4.497  -7.224  -9.101  1.00  0.00     0.021 A 
ATOM     27  C   UNL     1       3.507  -5.935 -10.898  1.00  0.00     0.002 A 
ATOM     28  C   UNL     1       4.402  -6.906 -10.457  1.00  0.00     0.002 A 
ENDBRANCH  12  20
ENDBRANCH   4   7
ENDBRANCH   2   3
ENDBRANCH   1   2
BRANCH   1  29
ATOM     29  C   UNL     1       6.230  -0.406  -2.923  1.00  0.00     0.023 C 
BRANCH  29  30
ATOM     30  C   UNL     1       6.567   0.714  -3.901  1.00  0.00     0.116 C 
BRANCH  30  31
ATOM     31  N   UNL     1       5.965   1.983  -3.527  1.00  0.00    -0.352 N 
ATOM     32  C   UNL     1       6.536   3.231  -3.475  1.00  0.00     0.251 C 
ATOM     33  H   UNL     1       5.013   1.942  -3.277  1.00  0.00     0.163 HD
ATOM     34  O   UNL     1       5.915   4.173  -2.994  1.00  0.00    -0.269 OA
BRANCH  32  35
ATOM     35  C   UNL     1       7.915   3.430  -3.968  1.00  0.00     0.039 A 
ATOM     36  C   UNL     1       8.811   4.160  -3.183  1.00  0.00     0.014 A 
ATOM     37  C   UNL     1       8.328   2.894  -5.191  1.00  0.00     0.014 A 
ATOM     38  C   UNL     1      10.139   4.295  -3.592  1.00  0.00     0.010 A 
ATOM     39  C   UNL     1       9.668   2.970  -5.563  1.00  0.00     0.010 A 
ATOM     40  C   UNL     1      10.588   3.670  -4.767  1.00  0.00    -0.014 A 
BRANCH  40  41
ATOM     41  C   UNL     1      12.015   3.729  -5.173  1.00  0.00     0.031 A 
ATOM     42  C   UNL     1      12.411   4.416  -6.450  1.00  0.00     0.074 A 
ATOM     43  C   UNL     1      12.947   3.105  -4.425  1.00  0.00     0.049 A 
ATOM     44  N   UNL     1      13.591   4.507  -7.011  1.00  0.00    -0.248 NA
ATOM     45  C   UNL     1      11.334   5.067  -7.213  1.00  0.00     0.031 C 
ATOM     46  C   UNL     1      12.683   2.363  -3.191  1.00  0.00     0.029 A 
ATOM     47  N   UNL     1      14.303   2.982  -4.602  1.00  0.00    -0.354 N 
ATOM     48  C   UNL     1      13.396   5.207  -8.193  1.00  0.00     0.074 A 
ATOM     49  C   UNL     1      11.978   5.476  -8.296  1.00  0.00     0.031 C 
ATOM     50  C   UNL     1      13.840   1.878  -2.713  1.00  0.00     0.029 A 
ATOM     51  C   UNL     1      14.921   2.240  -3.625  1.00  0.00     0.049 A 
ATOM     52  H   UNL     1      14.787   3.388  -5.357  1.00  0.00     0.167 HD
ATOM     53  C   UNL     1      14.318   5.608  -9.100  1.00  0.00     0.037 A 
ATOM     54  C   UNL     1      16.212   1.882  -3.486  1.00  0.00     0.037 A 
ATOM     55  C   UNL     1      15.732   5.363  -8.980  1.00  0.00     0.049 A 
ATOM     56  C   UNL     1      17.216   2.340  -4.511  1.00  0.00     0.074 A 
ATOM     57  C   UNL     1      16.753   5.785  -9.814  1.00  0.00     0.029 A 
ATOM     58  N   UNL     1      16.323   4.630  -7.963  1.00  0.00    -0.354 N 
ATOM     59  N   UNL     1      17.029   3.065  -5.587  1.00  0.00    -0.248 NA
ATOM     60  C   UNL     1      18.613   1.937  -4.297  1.00  0.00     0.031 C 
ATOM     61  C   UNL     1      17.957   5.267  -9.328  1.00  0.00     0.029 A 
ATOM     62  C   UNL     1      17.694   4.568  -8.161  1.00  0.00     0.049 A 
ATOM     63  H   UNL     1      15.841   4.214  -7.212  1.00  0.00     0.167 HD
ATOM     64  C   UNL     1      18.283   3.231  -6.158  1.00  0.00     0.074 A 
ATOM     65  C   UNL     1      19.226   2.543  -5.303  1.00  0.00     0.031 C 
ATOM     66  C   UNL     1      18.622   3.893  -7.291  1.00  0.00     0.037 A 
BRANCH  53  67
ATOM     67  C   UNL     1      13.833   6.362 -10.304  1.00  0.00     0.064 A 
ATOM     68  C   UNL     1      13.345   7.673 -10.203  1.00  0.00     0.173 A 
ATOM     69  C   UNL     1      13.908   5.786 -11.582  1.00  0.00     0.173 A 
ATOM     70  F   UNL     1      13.243   8.265  -9.004  1.00  0.00    -0.203 F 
ATOM     71  C   UNL     1      12.930   8.372 -11.334  1.00  0.00     0.198 A 
ATOM     72  C   UNL     1      13.520   6.499 -12.713  1.00  0.00     0.198 A 
ATOM     73  F   UNL     1      14.372   4.537 -11.735  1.00  0.00    -0.203 F 
ATOM     74  F   UNL     1      12.428   9.609 -11.208  1.00  0.00    -0.200 F 
ATOM     75  C   UNL     1      13.026   7.789 -12.588  1.00  0.00     0.200 A 
ATOM     76  F   UNL     1      13.627   5.939 -13.926  1.00  0.00    -0.200 F 
ATOM     77  F   UNL     1      12.637   8.467 -13.676  1.00  0.00    -0.200 F 
ENDBRANCH  53  67
BRANCH  54  78
ATOM     78  C   UNL     1      16.638   1.058  -2.325  1.00  0.00     0.064 A 
ATOM     79  C   UNL     1      17.456   1.595  -1.321  1.00  0.00     0.173 A 
ATOM     80  C   UNL     1      16.254  -0.286  -2.203  1.00  0.00     0.173 A 
ATOM     81  F   UNL     1      17.867   2.869  -1.403  1.00  0.00    -0.203 F 
ATOM     82  C   UNL     1      17.897   0.814  -0.255  1.00  0.00     0.198 A 
ATOM     83  C   UNL     1      16.670  -1.058  -1.120  1.00  0.00     0.198 A 
ATOM     84  F   UNL     1      15.467  -0.847  -3.132  1.00  0.00    -0.203 F 
ATOM     85  F   UNL     1      18.723   1.338   0.660  1.00  0.00    -0.200 F 
ATOM     86  C   UNL     1      17.500  -0.511  -0.153  1.00  0.00     0.200 A 
ATOM     87  F   UNL     1      16.272  -2.333  -1.017  1.00  0.00    -0.200 F 
ATOM     88  F   UNL     1      17.924  -1.262   0.872  1.00  0.00    -0.200 F 
ENDBRANCH  54  78
BRANCH  66  89
ATOM     89  C   UNL     1      20.079   3.946  -7.649  1.00  0.00     0.064 A 
ATOM     90  C   UNL     1      20.767   2.817  -8.116  1.00  0.00     0.173 A 
ATOM     91  C   UNL     1      20.785   5.157  -7.563  1.00  0.00     0.173 A 
ATOM     92  F   UNL     1      20.141   1.633  -8.202  1.00  0.00    -0.203 F 
ATOM     93  C   UNL     1      22.114   2.891  -8.459  1.00  0.00     0.198 A 
ATOM     94  C   UNL     1      22.123   5.234  -7.937  1.00  0.00     0.198 A 
ATOM     95  F   UNL     1      20.172   6.268  -7.130  1.00  0.00    -0.203 F 
ATOM     96  F   UNL     1      22.764   1.789  -8.857  1.00  0.00    -0.200 F 
ATOM     97  C   UNL     1      22.789   4.101  -8.378  1.00  0.00     0.200 A 
ATOM     98  F   UNL     1      22.769   6.407  -7.872  1.00  0.00    -0.200 F 
ATOM     99  F   UNL     1      24.083   4.172  -8.717  1.00  0.00    -0.200 F 
ENDBRANCH  66  89
ENDBRANCH  40  41
ENDBRANCH  32  35
ENDBRANCH  30  31
ENDBRANCH  29  30
ENDBRANCH   1  29
TORSDOF 15
