REMARK SMILES CC(C)[C@@H]1C(=O)Nc2ccccc2N1C(=O)N[C@H](Cc1ccccc1)C(=O)NCCCCNC(=O)c1ccc(-c2c3nc(c(-c4c(F)c(F)c(F)c(F)c4F)c4ccc([nH]4)c(-c4c(F)c(F)c(F)c(F)c4F)c4nc(c(-c5c(F)c(F)c(F)c(F)c5F)c5ccc2[nH]5)C=C4)C=C3)cc1
REMARK SMILES IDX 30 1 29 2 28 3 26 4 27 5 18 7 17 8 15 9 16 10 14 12 4 13
REMARK SMILES IDX 5 14 6 15 7 16 13 17 8 18 12 20 9 21 11 22 10 23 2 24 1 25
REMARK SMILES IDX 3 26 19 27 20 28 21 29 25 30 22 31 24 32 23 33 31 34 32 35
REMARK SMILES IDX 33 36 34 37 35 39 36 40 37 41 98 42 38 43 97 44 39 45 40 46
REMARK SMILES IDX 41 47 91 48 42 49 96 50 90 51 92 52 43 53 95 54 89 55 88 56
REMARK SMILES IDX 44 58 76 59 56 60 75 61 57 62 60 63 74 64 93 65 58 66 59 67
REMARK SMILES IDX 73 69 94 70 61 71 45 72 46 73 54 74 47 75 48 76 52 77 55 78
REMARK SMILES IDX 49 79 50 80 53 81 51 82 77 83 78 84 86 85 79 86 80 87 84 88
REMARK SMILES IDX 87 89 81 90 82 91 85 92 83 93 62 94 63 95 71 96 64 97 65 98
REMARK SMILES IDX 69 99 72 100 66 101 67 102 70 103 68 104
REMARK H PARENT 28 6 17 11 7 19 33 38 92 57 60 68
REMARK Flexibility Score: inf
ROOT
ATOM      1  C   UNL     1       3.785   4.725   0.173  1.00  0.00     0.023 C 
ENDROOT
BRANCH   1   2
ATOM      2  C   UNL     1       4.337   3.150   0.367  1.00  0.00     0.116 C 
BRANCH   2   3
ATOM      3  N   UNL     1       4.137   1.681   1.812  1.00  0.00    -0.354 N 
ATOM      4  C   UNL     1       3.351   0.367   2.187  1.00  0.00     0.242 C 
ATOM      5  O   UNL     1       3.677  -0.123   3.281  1.00  0.00    -0.273 OA
ATOM      6  H   UNL     1       4.772   1.876   2.538  1.00  0.00     0.163 HD
BRANCH   4   7
ATOM      7  C   UNL     1       2.010  -0.447   1.235  1.00  0.00     0.177 C 
BRANCH   7   8
ATOM      8  N   UNL     1       2.750  -0.957   0.136  1.00  0.00    -0.326 N 
ATOM      9  C   UNL     1       3.342  -0.024  -0.661  1.00  0.00     0.323 C 
ATOM     10  O   UNL     1       3.803  -0.368  -1.745  1.00  0.00    -0.248 OA
ATOM     11  H   UNL     1       2.831  -1.922  -0.038  1.00  0.00     0.166 HD
BRANCH   9  12
ATOM     12  N   UNL     1       3.586   1.197  -0.037  1.00  0.00    -0.280 N 
ATOM     13  C   UNL     1       2.545   2.429   1.112  1.00  0.00     0.184 C 
ATOM     14  C   UNL     1       3.588   3.502   2.410  1.00  0.00     0.247 C 
ATOM     15  O   UNL     1       3.094   4.258   3.240  1.00  0.00    -0.272 OA
ATOM     16  N   UNL     1       5.303   3.336   2.329  1.00  0.00    -0.322 N 
ATOM     17  C   UNL     1       5.417   1.174   0.260  1.00  0.00     0.070 A 
ATOM     18  C   UNL     1       6.189   2.241   1.298  1.00  0.00     0.065 A 
ATOM     19  H   UNL     1       5.833   3.916   2.922  1.00  0.00     0.170 HD
ATOM     20  C   UNL     1       6.261   0.235  -0.310  1.00  0.00     0.028 A 
ATOM     21  C   UNL     1       7.556   2.430   1.194  1.00  0.00     0.028 A 
ATOM     22  C   UNL     1       7.663   0.433  -0.229  1.00  0.00     0.002 A 
ATOM     23  C   UNL     1       8.271   1.554   0.383  1.00  0.00     0.002 A 
BRANCH  13  24
ATOM     24  C   UNL     1       1.259   3.228   0.759  1.00  0.00     0.015 C 
ATOM     25  C   UNL     1       0.915   3.198  -0.720  1.00  0.00     0.010 C 
ATOM     26  C   UNL     1       0.177   3.085   1.900  1.00  0.00     0.010 C 
ENDBRANCH  13  24
ENDBRANCH   9  12
ENDBRANCH   7   8
BRANCH   7  27
ATOM     27  C   UNL     1       0.677   0.168   0.516  1.00  0.00     0.070 C 
BRANCH  27  28
ATOM     28  C   UNL     1      -0.762  -0.141   0.016  1.00  0.00    -0.045 A 
ATOM     29  C   UNL     1      -1.552   1.008  -0.338  1.00  0.00     0.004 A 
ATOM     30  C   UNL     1      -1.346  -1.359  -0.302  1.00  0.00     0.004 A 
ATOM     31  C   UNL     1      -2.782   0.974  -1.002  1.00  0.00     0.000 A 
ATOM     32  C   UNL     1      -2.621  -1.405  -0.942  1.00  0.00     0.000 A 
ATOM     33  C   UNL     1      -3.326  -0.251  -1.308  1.00  0.00     0.000 A 
ENDBRANCH  27  28
ENDBRANCH   7  27
ENDBRANCH   4   7
ENDBRANCH   2   3
ENDBRANCH   1   2
BRANCH   1  34
ATOM     34  C   UNL     1       4.094   6.025   0.919  1.00  0.00     0.023 C 
BRANCH  34  35
ATOM     35  C   UNL     1       5.538   6.449   1.030  1.00  0.00     0.116 C 
BRANCH  35  36
ATOM     36  N   UNL     1       6.300   6.207  -0.176  1.00  0.00    -0.352 N 
ATOM     37  C   UNL     1       7.642   6.381  -0.365  1.00  0.00     0.251 C 
ATOM     38  H   UNL     1       5.791   5.877  -0.952  1.00  0.00     0.163 HD
ATOM     39  O   UNL     1       8.140   6.270  -1.479  1.00  0.00    -0.269 OA
BRANCH  37  40
ATOM     40  C   UNL     1       8.481   6.761   0.780  1.00  0.00     0.039 A 
ATOM     41  C   UNL     1       9.266   7.904   0.671  1.00  0.00     0.014 A 
ATOM     42  C   UNL     1       8.493   5.999   1.950  1.00  0.00     0.014 A 
ATOM     43  C   UNL     1      10.062   8.281   1.745  1.00  0.00     0.010 A 
ATOM     44  C   UNL     1       9.277   6.368   3.025  1.00  0.00     0.010 A 
ATOM     45  C   UNL     1      10.065   7.512   2.922  1.00  0.00    -0.014 A 
BRANCH  45  46
ATOM     46  C   UNL     1      10.806   7.966   4.105  1.00  0.00     0.031 A 
ATOM     47  C   UNL     1      12.032   7.244   4.554  1.00  0.00     0.074 A 
ATOM     48  C   UNL     1      10.302   9.012   4.778  1.00  0.00     0.049 A 
ATOM     49  N   UNL     1      12.867   7.567   5.504  1.00  0.00    -0.248 NA
ATOM     50  C   UNL     1      12.354   5.983   3.867  1.00  0.00     0.031 C 
ATOM     51  C   UNL     1       9.045   9.692   4.450  1.00  0.00     0.029 A 
ATOM     52  N   UNL     1      10.781   9.694   5.859  1.00  0.00    -0.354 N 
ATOM     53  C   UNL     1      13.828   6.568   5.512  1.00  0.00     0.074 A 
ATOM     54  C   UNL     1      13.432   5.585   4.528  1.00  0.00     0.031 C 
ATOM     55  C   UNL     1       8.883  10.734   5.277  1.00  0.00     0.029 A 
ATOM     56  C   UNL     1      10.005  10.770   6.207  1.00  0.00     0.049 A 
ATOM     57  H   UNL     1      11.600   9.438   6.341  1.00  0.00     0.167 HD
ATOM     58  C   UNL     1      14.954   6.508   6.261  1.00  0.00     0.037 A 
ATOM     59  C   UNL     1      10.201  11.690   7.166  1.00  0.00     0.037 A 
ATOM     60  C   UNL     1      15.294   7.498   7.251  1.00  0.00     0.049 A 
ATOM     61  C   UNL     1      11.456  11.594   7.986  1.00  0.00     0.074 A 
ATOM     62  C   UNL     1      16.421   7.574   8.047  1.00  0.00     0.029 A 
ATOM     63  N   UNL     1      14.488   8.579   7.592  1.00  0.00    -0.354 N 
ATOM     64  N   UNL     1      12.425  10.711   7.917  1.00  0.00    -0.248 NA
ATOM     65  C   UNL     1      11.656  12.631   9.002  1.00  0.00     0.031 C 
ATOM     66  C   UNL     1      16.263   8.657   8.919  1.00  0.00     0.029 A 
ATOM     67  C   UNL     1      15.080   9.310   8.609  1.00  0.00     0.049 A 
ATOM     68  H   UNL     1      13.624   8.793   7.172  1.00  0.00     0.167 HD
ATOM     69  C   UNL     1      13.366  11.102   8.858  1.00  0.00     0.074 A 
ATOM     70  C   UNL     1      12.857  12.317   9.465  1.00  0.00     0.031 C 
ATOM     71  C   UNL     1      14.543  10.516   9.192  1.00  0.00     0.037 A 
BRANCH  58  72
ATOM     72  C   UNL     1      15.877   5.344   6.042  1.00  0.00     0.064 A 
ATOM     73  C   UNL     1      16.569   5.167   4.832  1.00  0.00     0.173 A 
ATOM     74  C   UNL     1      16.096   4.404   7.061  1.00  0.00     0.173 A 
ATOM     75  F   UNL     1      16.390   6.028   3.819  1.00  0.00    -0.203 F 
ATOM     76  C   UNL     1      17.416   4.079   4.640  1.00  0.00     0.198 A 
ATOM     77  C   UNL     1      16.973   3.338   6.878  1.00  0.00     0.198 A 
ATOM     78  F   UNL     1      15.463   4.522   8.238  1.00  0.00    -0.203 F 
ATOM     79  F   UNL     1      18.019   3.902   3.456  1.00  0.00    -0.200 F 
ATOM     80  C   UNL     1      17.624   3.170   5.666  1.00  0.00     0.200 A 
ATOM     81  F   UNL     1      17.183   2.468   7.876  1.00  0.00    -0.200 F 
ATOM     82  F   UNL     1      18.446   2.127   5.483  1.00  0.00    -0.200 F 
ENDBRANCH  58  72
BRANCH  59  83
ATOM     83  C   UNL     1       9.216  12.784   7.359  1.00  0.00     0.064 A 
ATOM     84  C   UNL     1       9.551  14.120   7.096  1.00  0.00     0.173 A 
ATOM     85  C   UNL     1       7.912  12.516   7.803  1.00  0.00     0.173 A 
ATOM     86  F   UNL     1      10.784  14.429   6.669  1.00  0.00    -0.203 F 
ATOM     87  C   UNL     1       8.635  15.147   7.310  1.00  0.00     0.198 A 
ATOM     88  C   UNL     1       6.986  13.540   7.980  1.00  0.00     0.198 A 
ATOM     89  F   UNL     1       7.532  11.253   8.047  1.00  0.00    -0.203 F 
ATOM     90  F   UNL     1       9.001  16.420   7.107  1.00  0.00    -0.200 F 
ATOM     91  C   UNL     1       7.352  14.856   7.748  1.00  0.00     0.200 A 
ATOM     92  F   UNL     1       5.739  13.250   8.377  1.00  0.00    -0.200 F 
ATOM     93  F   UNL     1       6.470  15.844   7.951  1.00  0.00    -0.200 F 
ENDBRANCH  59  83
BRANCH  71  94
ATOM     94  C   UNL     1      15.377  11.216  10.228  1.00  0.00     0.064 A 
ATOM     95  C   UNL     1      14.970  11.315  11.567  1.00  0.00     0.173 A 
ATOM     96  C   UNL     1      16.611  11.781   9.873  1.00  0.00     0.173 A 
ATOM     97  F   UNL     1      13.793  10.802  11.957  1.00  0.00    -0.203 F 
ATOM     98  C   UNL     1      15.745  11.998  12.500  1.00  0.00     0.198 A 
ATOM     99  C   UNL     1      17.405  12.422  10.818  1.00  0.00     0.198 A 
ATOM    100  F   UNL     1      17.053  11.705   8.608  1.00  0.00    -0.203 F 
ATOM    101  F   UNL     1      15.300  12.149  13.755  1.00  0.00    -0.200 F 
ATOM    102  C   UNL     1      16.965  12.544  12.127  1.00  0.00     0.200 A 
ATOM    103  F   UNL     1      18.593  12.927  10.460  1.00  0.00    -0.200 F 
ATOM    104  F   UNL     1      17.711  13.197  13.027  1.00  0.00    -0.200 F 
ENDBRANCH  71  94
ENDBRANCH  45  46
ENDBRANCH  37  40
ENDBRANCH  35  36
ENDBRANCH  34  35
ENDBRANCH   1  34
TORSDOF 16
