REMARK SMILES O=C(NCCCCNC(=O)c1ccc(S(=O)(=O)NCc2ccn[nH]2)c(F)c1)c1ccc(-c2c3nc(c(-c4c(F)c(F)c(F)c(F)c4F)c4ccc([nH]4)c(-c4c(F)c(F)c(F)c(F)c4F)c4nc(c(-c5c(F)c(F)c(F)c(F)c5F)c5ccc2[nH]5)C=C4)C=C3)cc1
REMARK SMILES IDX 6 1 5 2 4 3 3 4 1 5 2 6 28 8 29 9 90 10 30 11 89 12 31 13
REMARK SMILES IDX 32 14 33 15 83 16 34 17 88 18 82 19 84 20 35 21 87 22 81 23
REMARK SMILES IDX 80 24 36 26 68 27 48 28 67 29 49 30 52 31 66 32 85 33 50 34
REMARK SMILES IDX 51 35 65 37 86 38 53 39 37 40 38 41 46 42 39 43 40 44 44 45
REMARK SMILES IDX 47 46 41 47 42 48 45 49 43 50 69 51 70 52 78 53 71 54 72 55
REMARK SMILES IDX 76 56 79 57 73 58 74 59 77 60 75 61 54 62 55 63 63 64 56 65
REMARK SMILES IDX 57 66 61 67 64 68 58 69 59 70 62 71 60 72 7 73 8 74 9 75
REMARK SMILES IDX 10 77 11 78 12 79 27 80 13 81 25 82 14 83 26 84 15 85 16 86
REMARK SMILES IDX 17 87 18 88 19 90 20 91 21 92 24 93 22 94 23 95
REMARK H PARENT 3 7 84 25 52 36 8 76 18 89 24 96
REMARK Flexibility Score: inf
ROOT
ATOM      1  C   UNL     1       4.415   2.972  -2.656  1.00  0.00     0.023 C 
ENDROOT
BRANCH   1   2
ATOM      2  C   UNL     1       4.903   1.564  -2.325  1.00  0.00     0.023 C 
BRANCH   2   3
ATOM      3  C   UNL     1       4.579   1.070  -0.921  1.00  0.00     0.116 C 
BRANCH   3   4
ATOM      4  N   UNL     1       3.152   0.970  -0.659  1.00  0.00    -0.352 N 
ATOM      5  O   UNL     1       1.210  -0.032  -0.097  1.00  0.00    -0.269 OA
ATOM      6  C   UNL     1       2.434  -0.087  -0.150  1.00  0.00     0.251 C 
ATOM      7  H   UNL     1       2.626   1.773  -0.877  1.00  0.00     0.163 HD
BRANCH   6   8
ATOM      8  C   UNL     1       3.136  -1.307   0.305  1.00  0.00     0.039 A 
ATOM      9  C   UNL     1       4.282  -1.219   1.098  1.00  0.00     0.014 A 
ATOM     10  C   UNL     1       2.638  -2.560  -0.069  1.00  0.00     0.014 A 
ATOM     11  C   UNL     1       5.007  -2.368   1.393  1.00  0.00     0.010 A 
ATOM     12  C   UNL     1       3.324  -3.722   0.299  1.00  0.00     0.010 A 
ATOM     13  C   UNL     1       4.531  -3.633   1.007  1.00  0.00    -0.014 A 
BRANCH  13  14
ATOM     14  C   UNL     1       5.285  -4.842   1.423  1.00  0.00     0.031 A 
ATOM     15  C   UNL     1       5.976  -5.719   0.418  1.00  0.00     0.074 A 
ATOM     16  C   UNL     1       5.390  -5.107   2.740  1.00  0.00     0.049 A 
ATOM     17  N   UNL     1       6.723  -6.775   0.626  1.00  0.00    -0.248 NA
ATOM     18  C   UNL     1       5.809  -5.375  -1.002  1.00  0.00     0.031 C 
ATOM     19  C   UNL     1       4.754  -4.328   3.804  1.00  0.00     0.029 A 
ATOM     20  N   UNL     1       6.091  -6.076   3.410  1.00  0.00    -0.354 N 
ATOM     21  C   UNL     1       7.104  -7.226  -0.630  1.00  0.00     0.074 A 
ATOM     22  C   UNL     1       6.491  -6.344  -1.600  1.00  0.00     0.031 C 
ATOM     23  C   UNL     1       5.146  -4.807   4.993  1.00  0.00     0.029 A 
ATOM     24  C   UNL     1       6.012  -5.961   4.777  1.00  0.00     0.049 A 
ATOM     25  H   UNL     1       6.602  -6.785   2.957  1.00  0.00     0.167 HD
ATOM     26  C   UNL     1       7.902  -8.277  -0.939  1.00  0.00     0.037 A 
ATOM     27  C   UNL     1       6.571  -6.703   5.750  1.00  0.00     0.037 A 
ATOM     28  C   UNL     1       8.528  -9.139   0.030  1.00  0.00     0.049 A 
ATOM     29  C   UNL     1       7.437  -7.869   5.373  1.00  0.00     0.074 A 
ATOM     30  C   UNL     1       9.374 -10.212  -0.191  1.00  0.00     0.029 A 
ATOM     31  N   UNL     1       8.379  -9.024   1.404  1.00  0.00    -0.354 N 
ATOM     32  N   UNL     1       7.796  -8.277   4.181  1.00  0.00    -0.248 NA
ATOM     33  C   UNL     1       7.964  -8.684   6.475  1.00  0.00     0.031 C 
ATOM     34  C   UNL     1       9.709 -10.769   1.048  1.00  0.00     0.029 A 
ATOM     35  C   UNL     1       9.103 -10.019   2.042  1.00  0.00     0.049 A 
ATOM     36  H   UNL     1       7.840  -8.338   1.859  1.00  0.00     0.167 HD
ATOM     37  C   UNL     1       8.588  -9.396   4.387  1.00  0.00     0.074 A 
ATOM     38  C   UNL     1       8.683  -9.586   5.820  1.00  0.00     0.031 C 
ATOM     39  C   UNL     1       9.175 -10.200   3.468  1.00  0.00     0.037 A 
BRANCH  26  40
ATOM     40  C   UNL     1       8.156  -8.568  -2.388  1.00  0.00     0.064 A 
ATOM     41  C   UNL     1       7.583  -9.694  -2.998  1.00  0.00     0.173 A 
ATOM     42  C   UNL     1       9.049  -7.793  -3.143  1.00  0.00     0.173 A 
ATOM     43  F   UNL     1       6.729 -10.471  -2.315  1.00  0.00    -0.203 F 
ATOM     44  C   UNL     1       7.908 -10.044  -4.306  1.00  0.00     0.198 A 
ATOM     45  C   UNL     1       9.357  -8.136  -4.457  1.00  0.00     0.198 A 
ATOM     46  F   UNL     1       9.616  -6.703  -2.607  1.00  0.00    -0.203 F 
ATOM     47  F   UNL     1       7.374 -11.143  -4.857  1.00  0.00    -0.200 F 
ATOM     48  C   UNL     1       8.796  -9.266  -5.034  1.00  0.00     0.200 A 
ATOM     49  F   UNL     1      10.203  -7.374  -5.166  1.00  0.00    -0.200 F 
ATOM     50  F   UNL     1       9.111  -9.605  -6.292  1.00  0.00    -0.200 F 
ENDBRANCH  26  40
BRANCH  27  51
ATOM     51  C   UNL     1       6.327  -6.351   7.171  1.00  0.00     0.064 A 
ATOM     52  C   UNL     1       5.061  -6.510   7.753  1.00  0.00     0.173 A 
ATOM     53  C   UNL     1       7.349  -5.812   7.963  1.00  0.00     0.173 A 
ATOM     54  F   UNL     1       4.050  -7.017   7.032  1.00  0.00    -0.203 F 
ATOM     55  C   UNL     1       4.821  -6.122   9.068  1.00  0.00     0.198 A 
ATOM     56  C   UNL     1       7.115  -5.449   9.287  1.00  0.00     0.198 A 
ATOM     57  F   UNL     1       8.581  -5.659   7.454  1.00  0.00    -0.203 F 
ATOM     58  F   UNL     1       3.593  -6.251   9.589  1.00  0.00    -0.200 F 
ATOM     59  C   UNL     1       5.849  -5.596   9.836  1.00  0.00     0.200 A 
ATOM     60  F   UNL     1       8.115  -4.961  10.033  1.00  0.00    -0.200 F 
ATOM     61  F   UNL     1       5.621  -5.232  11.105  1.00  0.00    -0.200 F 
ENDBRANCH  27  51
BRANCH  39  62
ATOM     62  C   UNL     1       9.965 -11.364   3.985  1.00  0.00     0.064 A 
ATOM     63  C   UNL     1      11.366 -11.360   3.925  1.00  0.00     0.173 A 
ATOM     64  C   UNL     1       9.327 -12.503   4.496  1.00  0.00     0.173 A 
ATOM     65  F   UNL     1      12.020 -10.294   3.439  1.00  0.00    -0.203 F 
ATOM     66  C   UNL     1      12.101 -12.462   4.354  1.00  0.00     0.198 A 
ATOM     67  C   UNL     1      10.066 -13.593   4.945  1.00  0.00     0.198 A 
ATOM     68  F   UNL     1       7.989 -12.544   4.586  1.00  0.00    -0.203 F 
ATOM     69  F   UNL     1      13.438 -12.447   4.269  1.00  0.00    -0.200 F 
ATOM     70  C   UNL     1      11.451 -13.575   4.867  1.00  0.00     0.200 A 
ATOM     71  F   UNL     1       9.439 -14.659   5.462  1.00  0.00    -0.200 F 
ATOM     72  F   UNL     1      12.161 -14.629   5.292  1.00  0.00    -0.200 F 
ENDBRANCH  39  62
ENDBRANCH  13  14
ENDBRANCH   6   8
ENDBRANCH   3   4
ENDBRANCH   2   3
ENDBRANCH   1   2
BRANCH   1  73
ATOM     73  C   UNL     1       4.795   4.056  -1.652  1.00  0.00     0.116 C 
BRANCH  73  74
ATOM     74  N   UNL     1       6.234   4.179  -1.461  1.00  0.00    -0.352 N 
ATOM     75  C   UNL     1       7.063   5.256  -1.659  1.00  0.00     0.251 C 
ATOM     76  H   UNL     1       6.681   3.363  -1.141  1.00  0.00     0.163 HD
ATOM     77  O   UNL     1       8.279   5.127  -1.560  1.00  0.00    -0.269 OA
BRANCH  75  78
ATOM     78  C   UNL     1       6.499   6.566  -2.039  1.00  0.00     0.042 A 
ATOM     79  C   UNL     1       5.433   7.128  -1.330  1.00  0.00     0.015 A 
ATOM     80  C   UNL     1       7.045   7.237  -3.138  1.00  0.00     0.054 A 
ATOM     81  C   UNL     1       4.815   8.277  -1.818  1.00  0.00     0.026 A 
ATOM     82  C   UNL     1       6.449   8.411  -3.593  1.00  0.00     0.144 A 
ATOM     83  C   UNL     1       5.306   8.899  -2.976  1.00  0.00     0.118 A 
ATOM     84  F   UNL     1       6.988   9.017  -4.659  1.00  0.00    -0.205 F 
BRANCH  83  85
ATOM     85  S   UNL     1       4.355  10.227  -3.640  1.00  0.00     0.243 S 
ATOM     86  O   UNL     1       2.974   9.810  -3.552  1.00  0.00    -0.207 OA
ATOM     87  O   UNL     1       4.818  11.428  -2.980  1.00  0.00    -0.207 OA
BRANCH  85  88
ATOM     88  N   UNL     1       4.735  10.405  -5.246  1.00  0.00    -0.205 NA
ATOM     89  H   UNL     1       5.725  10.651  -5.266  1.00  0.00     0.141 HD
BRANCH  88  90
ATOM     90  C   UNL     1       4.570   9.378  -6.253  1.00  0.00     0.154 C 
BRANCH  90  91
ATOM     91  C   UNL     1       3.154   9.186  -6.620  1.00  0.00     0.050 A 
ATOM     92  C   UNL     1       2.115  10.057  -6.875  1.00  0.00     0.046 A 
ATOM     93  N   UNL     1       2.626   7.934  -6.793  1.00  0.00    -0.281 N 
ATOM     94  C   UNL     1       1.020   9.232  -7.188  1.00  0.00     0.135 A 
ATOM     95  N   UNL     1       1.338   7.936  -7.162  1.00  0.00    -0.184 NA
ATOM     96  H   UNL     1       3.146   7.109  -6.658  1.00  0.00     0.190 HD
ENDBRANCH  90  91
ENDBRANCH  88  90
ENDBRANCH  85  88
ENDBRANCH  83  85
ENDBRANCH  75  78
ENDBRANCH  73  74
ENDBRANCH   1  73
TORSDOF 15
