REMARK SMILES NC(=O)C1CC[NH+](CC[C@H]2CN(C(=O)c3ccccc3)CC[C@H]2CC(=O)NCCCCNC(=O)c2ccc(-c3c4nc(c(-c5c(F)c(F)c(F)c(F)c5F)c5ccc([nH]5)c(-c5c(F)c(F)c(F)c(F)c5F)c5nc(c(-c6c(F)c(F)c(F)c(F)c6F)c6ccc3[nH]6)C=C5)C=C4)cc2)CC1
REMARK SMILES IDX 28 1 27 2 25 3 26 4 24 6 23 7 10 8 11 9 12 10 22 11 21 12
REMARK SMILES IDX 9 13 8 14 7 15 4 16 5 17 99 18 6 19 98 20 2 22 1 23 3 26
REMARK SMILES IDX 13 27 14 28 15 29 16 30 20 31 17 32 19 33 18 34 29 35 30 36
REMARK SMILES IDX 31 37 32 38 33 39 34 41 35 42 36 43 97 44 37 45 96 46 38 47
REMARK SMILES IDX 39 48 40 49 90 50 41 51 95 52 89 53 91 54 42 55 94 56 88 57
REMARK SMILES IDX 87 58 43 60 75 61 55 62 74 63 56 64 59 65 73 66 92 67 57 68
REMARK SMILES IDX 58 69 72 71 93 72 60 73 44 74 45 75 53 76 46 77 47 78 51 79
REMARK SMILES IDX 54 80 48 81 49 82 52 83 50 84 76 85 77 86 85 87 78 88 79 89
REMARK SMILES IDX 83 90 86 91 80 92 81 93 84 94 82 95 61 96 62 97 70 98 63 99
REMARK SMILES IDX 64 100 68 101 71 102 65 103 66 104 69 105 67 106
REMARK H PARENT 27 5 7 21 1 24 1 25 32 40 91 59 59 70
REMARK Flexibility Score: inf
ROOT
ATOM      1  C   UNL     1      -3.422  -1.859  -6.003  1.00  0.00     0.116 C 
ENDROOT
BRANCH   1   2
ATOM      2  N   UNL     1      -4.258  -0.714  -5.713  1.00  0.00    -0.356 N 
ATOM      3  C   UNL     1      -4.240   0.158  -4.669  1.00  0.00     0.220 C 
ATOM      4  O   UNL     1      -5.073   1.065  -4.655  1.00  0.00    -0.275 OA
ATOM      5  H   UNL     1      -4.957  -0.536  -6.383  1.00  0.00     0.163 HD
BRANCH   3   6
ATOM      6  C   UNL     1      -3.219   0.013  -3.554  1.00  0.00     0.104 C 
BRANCH   6   7
ATOM      7  C   UNL     1      -3.770  -0.713  -2.317  1.00  0.00     0.005 C 
ATOM      8  C   UNL     1      -3.553  -2.260  -2.259  1.00  0.00     0.018 C 
ATOM      9  C   UNL     1      -4.420  -2.732  -1.064  1.00  0.00     0.124 C 
ATOM     10  N   UNL     1      -3.866  -2.180   0.167  1.00  0.00    -0.338 N 
ATOM     11  C   UNL     1      -3.293  -0.052  -1.004  1.00  0.00     0.026 C 
ATOM     12  C   UNL     1      -3.880  -0.718   0.253  1.00  0.00     0.120 C 
BRANCH   8  13
ATOM     13  C   UNL     1      -2.105  -2.812  -2.024  1.00  0.00     0.067 C 
BRANCH  13  14
ATOM     14  C   UNL     1      -1.188  -3.200  -3.203  1.00  0.00     0.262 C 
BRANCH  14  15
ATOM     15  N   UNL     1       0.167  -2.604  -3.229  1.00  0.00    -0.335 N 
ATOM     16  C   UNL     1       2.136  -0.759  -2.011  1.00  0.00     0.089 C 
ATOM     17  C   UNL     1       1.400  -0.403  -3.297  1.00  0.00     0.075 C 
ATOM     18  C   UNL     1       2.296  -2.277  -1.936  1.00  0.00     0.075 C 
ATOM     19  C   UNL     1       0.086  -1.159  -3.437  1.00  0.00     0.263 C 
ATOM     20  C   UNL     1       0.952  -3.003  -2.051  1.00  0.00     0.263 C 
ATOM     21  H   UNL     1       0.682  -2.974  -4.027  1.00  0.00     0.348 HD
BRANCH  16  22
ATOM     22  C   UNL     1       1.438  -0.218  -0.766  1.00  0.00     0.220 C 
ATOM     23  N   UNL     1       2.255   0.099   0.274  1.00  0.00    -0.369 N 
ATOM     24  H   UNL     1       1.874   0.453   1.110  1.00  0.00     0.159 HD
ATOM     25  H   UNL     1       3.228  -0.026   0.191  1.00  0.00     0.159 HD
ATOM     26  O   UNL     1       0.227  -0.086  -0.636  1.00  0.00    -0.275 OA
ENDBRANCH  16  22
ENDBRANCH  14  15
ENDBRANCH  13  14
ENDBRANCH   8  13
BRANCH  10  27
ATOM     27  C   UNL     1      -3.194  -3.052   1.019  1.00  0.00     0.253 C 
ATOM     28  O   UNL     1      -3.099  -4.263   0.823  1.00  0.00    -0.269 OA
BRANCH  27  29
ATOM     29  C   UNL     1      -2.524  -2.534   2.218  1.00  0.00     0.040 A 
ATOM     30  C   UNL     1      -1.130  -2.615   2.304  1.00  0.00     0.014 A 
ATOM     31  C   UNL     1      -3.288  -2.118   3.309  1.00  0.00     0.014 A 
ATOM     32  C   UNL     1      -0.495  -2.263   3.494  1.00  0.00     0.001 A 
ATOM     33  C   UNL     1      -2.647  -1.769   4.496  1.00  0.00     0.001 A 
ATOM     34  C   UNL     1      -1.254  -1.845   4.589  1.00  0.00     0.000 A 
ENDBRANCH  27  29
ENDBRANCH  10  27
ENDBRANCH   6   7
ENDBRANCH   3   6
ENDBRANCH   1   2
BRANCH   1  35
ATOM     35  C   UNL     1      -4.150  -3.176  -5.709  1.00  0.00     0.023 C 
BRANCH  35  36
ATOM     36  C   UNL     1      -4.025  -4.198  -6.825  1.00  0.00     0.023 C 
BRANCH  36  37
ATOM     37  C   UNL     1      -2.595  -4.650  -7.084  1.00  0.00     0.116 C 
BRANCH  37  38
ATOM     38  N   UNL     1      -2.046  -5.542  -6.068  1.00  0.00    -0.352 N 
ATOM     39  C   UNL     1      -1.433  -6.775  -6.224  1.00  0.00     0.251 C 
ATOM     40  H   UNL     1      -2.122  -5.223  -5.140  1.00  0.00     0.163 HD
ATOM     41  O   UNL     1      -1.031  -7.410  -5.277  1.00  0.00    -0.269 OA
BRANCH  39  42
ATOM     42  C   UNL     1      -1.364  -7.342  -7.591  1.00  0.00     0.039 A 
ATOM     43  C   UNL     1      -1.982  -8.571  -7.827  1.00  0.00     0.014 A 
ATOM     44  C   UNL     1      -0.876  -6.571  -8.645  1.00  0.00     0.014 A 
ATOM     45  C   UNL     1      -2.258  -8.951  -9.140  1.00  0.00     0.010 A 
ATOM     46  C   UNL     1      -1.257  -6.894  -9.940  1.00  0.00     0.010 A 
ATOM     47  C   UNL     1      -1.981  -8.070 -10.198  1.00  0.00    -0.014 A 
BRANCH  47  48
ATOM     48  C   UNL     1      -2.482  -8.325 -11.574  1.00  0.00     0.031 A 
ATOM     49  C   UNL     1      -1.513  -8.408 -12.717  1.00  0.00     0.074 A 
ATOM     50  C   UNL     1      -3.811  -8.366 -11.808  1.00  0.00     0.049 A 
ATOM     51  N   UNL     1      -1.749  -8.476 -14.002  1.00  0.00    -0.248 NA
ATOM     52  C   UNL     1      -0.083  -8.359 -12.370  1.00  0.00     0.031 C 
ATOM     53  C   UNL     1      -4.860  -8.221 -10.795  1.00  0.00     0.029 A 
ATOM     54  N   UNL     1      -4.509  -8.528 -12.980  1.00  0.00    -0.354 N 
ATOM     55  C   UNL     1      -0.504  -8.438 -14.613  1.00  0.00     0.074 A 
ATOM     56  C   UNL     1       0.481  -8.287 -13.566  1.00  0.00     0.031 C 
ATOM     57  C   UNL     1      -6.062  -8.336 -11.382  1.00  0.00     0.029 A 
ATOM     58  C   UNL     1      -5.874  -8.519 -12.817  1.00  0.00     0.049 A 
ATOM     59  H   UNL     1      -4.072  -8.639 -13.855  1.00  0.00     0.167 HD
ATOM     60  C   UNL     1      -0.207  -8.549 -15.929  1.00  0.00     0.037 A 
ATOM     61  C   UNL     1      -6.861  -8.641 -13.725  1.00  0.00     0.037 A 
ATOM     62  C   UNL     1      -1.185  -8.760 -16.961  1.00  0.00     0.049 A 
ATOM     63  C   UNL     1      -6.503  -8.816 -15.175  1.00  0.00     0.074 A 
ATOM     64  C   UNL     1      -0.982  -8.964 -18.314  1.00  0.00     0.029 A 
ATOM     65  N   UNL     1      -2.555  -8.807 -16.748  1.00  0.00    -0.354 N 
ATOM     66  N   UNL     1      -5.318  -8.844 -15.735  1.00  0.00    -0.248 NA
ATOM     67  C   UNL     1      -7.617  -8.980 -16.120  1.00  0.00     0.031 C 
ATOM     68  C   UNL     1      -2.233  -9.109 -18.925  1.00  0.00     0.029 A 
ATOM     69  C   UNL     1      -3.211  -9.030 -17.947  1.00  0.00     0.049 A 
ATOM     70  H   UNL     1      -2.995  -8.697 -15.874  1.00  0.00     0.167 HD
ATOM     71  C   UNL     1      -5.540  -9.053 -17.089  1.00  0.00     0.074 A 
ATOM     72  C   UNL     1      -6.974  -9.157 -17.266  1.00  0.00     0.031 C 
ATOM     73  C   UNL     1      -4.638  -9.148 -18.095  1.00  0.00     0.037 A 
BRANCH  60  74
ATOM     74  C   UNL     1       1.239  -8.459 -16.317  1.00  0.00     0.064 A 
ATOM     75  C   UNL     1       2.149  -9.478 -15.997  1.00  0.00     0.173 A 
ATOM     76  C   UNL     1       1.719  -7.347 -17.023  1.00  0.00     0.173 A 
ATOM     77  F   UNL     1       1.742 -10.555 -15.308  1.00  0.00    -0.203 F 
ATOM     78  C   UNL     1       3.494  -9.370 -16.337  1.00  0.00     0.198 A 
ATOM     79  C   UNL     1       3.060  -7.256 -17.388  1.00  0.00     0.198 A 
ATOM     80  F   UNL     1       0.890  -6.346 -17.355  1.00  0.00    -0.203 F 
ATOM     81  F   UNL     1       4.356 -10.328 -15.969  1.00  0.00    -0.200 F 
ATOM     82  C   UNL     1       3.947  -8.262 -17.037  1.00  0.00     0.200 A 
ATOM     83  F   UNL     1       3.495  -6.189 -18.073  1.00  0.00    -0.200 F 
ATOM     84  F   UNL     1       5.243  -8.159 -17.364  1.00  0.00    -0.200 F 
ENDBRANCH  60  74
BRANCH  61  85
ATOM     85  C   UNL     1      -8.282  -8.640 -13.288  1.00  0.00     0.064 A 
ATOM     86  C   UNL     1      -9.042  -9.819 -13.323  1.00  0.00     0.173 A 
ATOM     87  C   UNL     1      -8.911  -7.472 -12.835  1.00  0.00     0.173 A 
ATOM     88  F   UNL     1      -8.490 -10.957 -13.769  1.00  0.00    -0.203 F 
ATOM     89  C   UNL     1     -10.381  -9.825 -12.939  1.00  0.00     0.198 A 
ATOM     90  C   UNL     1     -10.245  -7.485 -12.428  1.00  0.00     0.198 A 
ATOM     91  F   UNL     1      -8.228  -6.320 -12.778  1.00  0.00    -0.203 F 
ATOM     92  F   UNL     1     -11.095 -10.956 -13.022  1.00  0.00    -0.200 F 
ATOM     93  C   UNL     1     -10.980  -8.659 -12.487  1.00  0.00     0.200 A 
ATOM     94  F   UNL     1     -10.817  -6.359 -11.982  1.00  0.00    -0.200 F 
ATOM     95  F   UNL     1     -12.268  -8.665 -12.117  1.00  0.00    -0.200 F 
ENDBRANCH  61  85
BRANCH  73  96
ATOM     96  C   UNL     1      -5.170  -9.412 -19.471  1.00  0.00     0.064 A 
ATOM     97  C   UNL     1      -5.800  -8.408 -20.218  1.00  0.00     0.173 A 
ATOM     98  C   UNL     1      -4.992 -10.669 -20.068  1.00  0.00     0.173 A 
ATOM     99  F   UNL     1      -6.005  -7.196 -19.682  1.00  0.00    -0.203 F 
ATOM    100  C   UNL     1      -6.248  -8.658 -21.512  1.00  0.00     0.198 A 
ATOM    101  C   UNL     1      -5.419 -10.908 -21.371  1.00  0.00     0.198 A 
ATOM    102  F   UNL     1      -4.389 -11.659 -19.393  1.00  0.00    -0.203 F 
ATOM    103  F   UNL     1      -6.878  -7.694 -22.199  1.00  0.00    -0.200 F 
ATOM    104  C   UNL     1      -6.050  -9.904 -22.090  1.00  0.00     0.200 A 
ATOM    105  F   UNL     1      -5.217 -12.108 -21.932  1.00  0.00    -0.200 F 
ATOM    106  F   UNL     1      -6.471 -10.138 -23.340  1.00  0.00    -0.200 F 
ENDBRANCH  73  96
ENDBRANCH  47  48
ENDBRANCH  39  42
ENDBRANCH  37  38
ENDBRANCH  36  37
ENDBRANCH  35  36
ENDBRANCH   1  35
TORSDOF 18
