REMARK SMILES Cc1cccc(C[NH2+]Cc2c(C(=O)NCCCCNC(=O)c3ccc(-c4c5nc(c(-c6c(F)c(F)c(F)c(F)c6F)c6ccc([nH]6)c(-c6c(F)c(F)c(F)c(F)c6F)c6nc(c(-c7c(F)c(F)c(F)c(F)c7F)c7ccc4[nH]7)C=C6)C=C5)cc3)c(C)n(Cc3cccc(F)c3)c2C)c1
REMARK SMILES IDX 15 1 14 2 12 3 13 4 11 6 10 7 96 8 85 9 87 10 97 11 86 12
REMARK SMILES IDX 9 13 8 14 7 17 6 18 1 19 2 20 3 21 98 22 4 23 5 24 88 25
REMARK SMILES IDX 89 26 90 27 95 28 91 29 93 30 92 31 94 32 16 33 17 34 18 35
REMARK SMILES IDX 19 36 20 37 21 39 22 40 23 41 84 42 24 43 83 44 25 45 26 46
REMARK SMILES IDX 27 47 77 48 28 49 82 50 76 51 78 52 29 53 81 54 75 55 74 56
REMARK SMILES IDX 30 58 62 59 42 60 61 61 43 62 46 63 60 64 79 65 44 66 45 67
REMARK SMILES IDX 59 69 80 70 47 71 31 72 32 73 40 74 33 75 34 76 38 77 41 78
REMARK SMILES IDX 35 79 36 80 39 81 37 82 63 83 64 84 72 85 65 86 66 87 70 88
REMARK SMILES IDX 73 89 67 90 68 91 71 92 69 93 48 94 49 95 57 96 50 97 51 98
REMARK SMILES IDX 55 99 58 100 52 101 53 102 56 103 54 104
REMARK H PARENT 14 5 8 15 8 16 19 38 78 57 46 68
REMARK Flexibility Score: inf
ROOT
ATOM      1  C   UNL     1      -5.656   5.544  -1.150  1.00  0.00     0.116 C 
ENDROOT
BRANCH   1   2
ATOM      2  N   UNL     1      -4.938   6.775  -0.931  1.00  0.00    -0.352 N 
ATOM      3  C   UNL     1      -3.648   7.225  -0.905  1.00  0.00     0.253 C 
ATOM      4  O   UNL     1      -3.628   8.455  -0.746  1.00  0.00    -0.269 OA
ATOM      5  H   UNL     1      -5.564   7.512  -0.745  1.00  0.00     0.163 HD
BRANCH   3   6
ATOM      6  C   UNL     1      -2.376   6.458  -1.053  1.00  0.00     0.069 A 
ATOM      7  C   UNL     1      -1.996   5.038  -1.037  1.00  0.00     0.040 A 
ATOM      8  C   UNL     1      -0.601   4.988  -1.165  1.00  0.00     0.025 A 
ATOM      9  C   UNL     1      -1.161   7.164  -1.188  1.00  0.00     0.028 A 
ATOM     10  N   UNL     1      -0.133   6.270  -1.378  1.00  0.00    -0.343 N 
ATOM     11  C   UNL     1       0.349   3.838  -1.075  1.00  0.00     0.065 C 
ATOM     12  C   UNL     1      -0.944   8.653  -1.155  1.00  0.00     0.065 C 
BRANCH   7  13
ATOM     13  C   UNL     1      -2.958   3.890  -0.887  1.00  0.00     0.300 C 
BRANCH  13  14
ATOM     14  N   UNL     1      -2.448   2.538  -0.768  1.00  0.00    -0.339 N 
ATOM     15  H   UNL     1      -3.188   1.899  -1.058  1.00  0.00     0.346 HD
ATOM     16  H   UNL     1      -1.615   2.506  -1.356  1.00  0.00     0.346 HD
BRANCH  14  17
ATOM     17  C   UNL     1      -2.009   2.139   0.559  1.00  0.00     0.297 C 
BRANCH  17  18
ATOM     18  C   UNL     1      -1.249   0.830   0.463  1.00  0.00     0.006 A 
ATOM     19  C   UNL     1       2.382  -0.319   0.264  1.00  0.00     0.044 C 
ATOM     20  C   UNL     1       0.882  -0.350   0.271  1.00  0.00    -0.051 A 
ATOM     21  C   UNL     1       0.193  -1.532  -0.010  1.00  0.00     0.003 A 
ATOM     22  C   UNL     1       0.151   0.809   0.551  1.00  0.00     0.013 A 
ATOM     23  C   UNL     1      -1.202  -1.541  -0.047  1.00  0.00     0.001 A 
ATOM     24  C   UNL     1      -1.920  -0.364   0.171  1.00  0.00     0.009 A 
ENDBRANCH  17  18
ENDBRANCH  14  17
ENDBRANCH  13  14
ENDBRANCH   7  13
BRANCH  10  25
ATOM     25  C   UNL     1       1.272   6.614  -1.665  1.00  0.00     0.157 C 
BRANCH  25  26
ATOM     26  C   UNL     1       1.838   5.960  -2.910  1.00  0.00    -0.025 A 
ATOM     27  C   UNL     1       3.203   5.617  -2.939  1.00  0.00     0.006 A 
ATOM     28  C   UNL     1       1.044   5.655  -4.026  1.00  0.00     0.044 A 
ATOM     29  C   UNL     1       3.741   4.921  -4.024  1.00  0.00     0.003 A 
ATOM     30  C   UNL     1       1.589   4.952  -5.095  1.00  0.00     0.123 A 
ATOM     31  C   UNL     1       2.927   4.575  -5.099  1.00  0.00     0.039 A 
ATOM     32  F   UNL     1       0.806   4.613  -6.127  1.00  0.00    -0.207 F 
ENDBRANCH  25  26
ENDBRANCH  10  25
ENDBRANCH   3   6
ENDBRANCH   1   2
BRANCH   1  33
ATOM     33  C   UNL     1      -6.017   4.843   0.168  1.00  0.00     0.023 C 
BRANCH  33  34
ATOM     34  C   UNL     1      -7.216   5.446   0.906  1.00  0.00     0.023 C 
BRANCH  34  35
ATOM     35  C   UNL     1      -8.549   5.159   0.231  1.00  0.00     0.116 C 
BRANCH  35  36
ATOM     36  N   UNL     1      -9.204   3.924   0.644  1.00  0.00    -0.352 N 
ATOM     37  C   UNL     1     -10.251   3.250   0.032  1.00  0.00     0.251 C 
ATOM     38  H   UNL     1      -8.855   3.512   1.468  1.00  0.00     0.163 HD
ATOM     39  O   UNL     1     -10.743   2.261   0.552  1.00  0.00    -0.269 OA
BRANCH  37  40
ATOM     40  C   UNL     1     -10.681   3.668  -1.327  1.00  0.00     0.039 A 
ATOM     41  C   UNL     1     -10.775   2.687  -2.320  1.00  0.00     0.014 A 
ATOM     42  C   UNL     1     -10.763   5.016  -1.667  1.00  0.00     0.014 A 
ATOM     43  C   UNL     1     -10.684   3.063  -3.660  1.00  0.00     0.010 A 
ATOM     44  C   UNL     1     -10.561   5.383  -2.984  1.00  0.00     0.010 A 
ATOM     45  C   UNL     1     -10.451   4.404  -3.976  1.00  0.00    -0.014 A 
BRANCH  45  46
ATOM     46  C   UNL     1      -9.940   4.841  -5.273  1.00  0.00     0.031 A 
ATOM     47  C   UNL     1     -10.778   5.627  -6.206  1.00  0.00     0.074 A 
ATOM     48  C   UNL     1      -8.652   4.590  -5.604  1.00  0.00     0.049 A 
ATOM     49  N   UNL     1     -10.582   5.670  -7.483  1.00  0.00    -0.248 NA
ATOM     50  C   UNL     1     -11.925   6.417  -5.775  1.00  0.00     0.031 C 
ATOM     51  C   UNL     1      -7.904   5.142  -6.732  1.00  0.00     0.029 A 
ATOM     52  N   UNL     1      -7.803   3.598  -5.080  1.00  0.00    -0.354 N 
ATOM     53  C   UNL     1     -11.398   6.643  -8.004  1.00  0.00     0.074 A 
ATOM     54  C   UNL     1     -12.240   7.060  -6.905  1.00  0.00     0.031 C 
ATOM     55  C   UNL     1      -6.897   4.307  -7.029  1.00  0.00     0.029 A 
ATOM     56  C   UNL     1      -7.034   3.141  -6.178  1.00  0.00     0.049 A 
ATOM     57  H   UNL     1      -7.755   3.287  -4.147  1.00  0.00     0.167 HD
ATOM     58  C   UNL     1     -11.219   7.064  -9.288  1.00  0.00     0.037 A 
ATOM     59  C   UNL     1      -7.129   1.851  -6.611  1.00  0.00     0.037 A 
ATOM     60  C   UNL     1     -10.150   6.341  -9.964  1.00  0.00     0.049 A 
ATOM     61  C   UNL     1      -7.655   1.692  -8.022  1.00  0.00     0.074 A 
ATOM     62  C   UNL     1      -8.814   6.601 -10.223  1.00  0.00     0.029 A 
ATOM     63  N   UNL     1     -10.337   5.000 -10.237  1.00  0.00    -0.354 N 
ATOM     64  N   UNL     1      -8.023   2.680  -8.788  1.00  0.00    -0.248 NA
ATOM     65  C   UNL     1      -7.904   0.387  -8.640  1.00  0.00     0.031 C 
ATOM     66  C   UNL     1      -8.198   5.387 -10.641  1.00  0.00     0.029 A 
ATOM     67  C   UNL     1      -9.162   4.396 -10.637  1.00  0.00     0.049 A 
ATOM     68  H   UNL     1     -11.200   4.533 -10.156  1.00  0.00     0.167 HD
ATOM     69  C   UNL     1      -8.595   2.178  -9.926  1.00  0.00     0.074 A 
ATOM     70  C   UNL     1      -8.491   0.739  -9.796  1.00  0.00     0.031 C 
ATOM     71  C   UNL     1      -9.159   2.968 -10.881  1.00  0.00     0.037 A 
BRANCH  58  72
ATOM     72  C   UNL     1     -11.903   8.275  -9.859  1.00  0.00     0.064 A 
ATOM     73  C   UNL     1     -11.236   9.131 -10.759  1.00  0.00     0.173 A 
ATOM     74  C   UNL     1     -13.219   8.652  -9.532  1.00  0.00     0.173 A 
ATOM     75  F   UNL     1     -10.009   8.848 -11.214  1.00  0.00    -0.203 F 
ATOM     76  C   UNL     1     -11.805  10.324 -11.211  1.00  0.00     0.198 A 
ATOM     77  C   UNL     1     -13.764   9.874  -9.936  1.00  0.00     0.198 A 
ATOM     78  F   UNL     1     -14.019   7.831  -8.838  1.00  0.00    -0.203 F 
ATOM     79  F   UNL     1     -11.125  11.103 -12.065  1.00  0.00    -0.200 F 
ATOM     80  C   UNL     1     -13.053  10.715 -10.769  1.00  0.00     0.200 A 
ATOM     81  F   UNL     1     -14.982  10.233  -9.507  1.00  0.00    -0.200 F 
ATOM     82  F   UNL     1     -13.573  11.886 -11.157  1.00  0.00    -0.200 F 
ENDBRANCH  58  72
BRANCH  59  83
ATOM     83  C   UNL     1      -7.346   0.890  -5.499  1.00  0.00     0.064 A 
ATOM     84  C   UNL     1      -6.343   0.772  -4.516  1.00  0.00     0.173 A 
ATOM     85  C   UNL     1      -8.617   0.393  -5.193  1.00  0.00     0.173 A 
ATOM     86  F   UNL     1      -5.107   1.236  -4.762  1.00  0.00    -0.203 F 
ATOM     87  C   UNL     1      -6.632   0.291  -3.243  1.00  0.00     0.198 A 
ATOM     88  C   UNL     1      -8.898  -0.104  -3.920  1.00  0.00     0.198 A 
ATOM     89  F   UNL     1      -9.617   0.495  -6.079  1.00  0.00    -0.203 F 
ATOM     90  F   UNL     1      -5.686   0.299  -2.293  1.00  0.00    -0.200 F 
ATOM     91  C   UNL     1      -7.918  -0.121  -2.937  1.00  0.00     0.200 A 
ATOM     92  F   UNL     1     -10.148  -0.483  -3.618  1.00  0.00    -0.200 F 
ATOM     93  F   UNL     1      -8.223  -0.497  -1.688  1.00  0.00    -0.200 F 
ENDBRANCH  59  83
BRANCH  71  94
ATOM     94  C   UNL     1      -9.756   2.429 -12.142  1.00  0.00     0.064 A 
ATOM     95  C   UNL     1      -9.051   1.546 -12.973  1.00  0.00     0.173 A 
ATOM     96  C   UNL     1     -10.998   2.892 -12.619  1.00  0.00     0.173 A 
ATOM     97  F   UNL     1      -7.844   1.085 -12.612  1.00  0.00    -0.203 F 
ATOM     98  C   UNL     1      -9.569   1.135 -14.202  1.00  0.00     0.198 A 
ATOM     99  C   UNL     1     -11.491   2.516 -13.866  1.00  0.00     0.198 A 
ATOM    100  F   UNL     1     -11.768   3.703 -11.878  1.00  0.00    -0.203 F 
ATOM    101  F   UNL     1      -8.885   0.261 -14.953  1.00  0.00    -0.200 F 
ATOM    102  C   UNL     1     -10.780   1.631 -14.654  1.00  0.00     0.200 A 
ATOM    103  F   UNL     1     -12.658   3.015 -14.298  1.00  0.00    -0.200 F 
ATOM    104  F   UNL     1     -11.263   1.255 -15.846  1.00  0.00    -0.200 F 
ENDBRANCH  71  94
ENDBRANCH  45  46
ENDBRANCH  37  40
ENDBRANCH  35  36
ENDBRANCH  34  35
ENDBRANCH  33  34
ENDBRANCH   1  33
TORSDOF 17
