REMARK SMILES C[C@@H]1[C@H](C(=O)NCCCCNC(=O)c2ccc(-c3c4nc(c(-c5c(F)c(F)c(F)c(F)c5F)c5ccc([nH]5)c(-c5c(F)c(F)c(F)c(F)c5F)c5nc(c(-c6c(F)c(F)c(F)c(F)c6F)c6ccc3[nH]6)C=C5)C=C4)cc2)CCN1C(=O)/C=C/c1cccc(Br)c1
REMARK SMILES IDX 8 1 7 2 6 3 4 4 5 5 3 7 1 8 2 9 79 10 77 11 78 12 80 13
REMARK SMILES IDX 81 14 82 15 83 16 84 17 85 18 90 19 86 20 88 21 87 22 89 23
REMARK SMILES IDX 9 24 10 25 11 26 12 27 13 29 14 30 15 31 76 32 16 33 75 34
REMARK SMILES IDX 17 35 18 36 19 37 69 38 20 39 74 40 68 41 70 42 21 43 73 44
REMARK SMILES IDX 67 45 66 46 22 48 54 49 34 50 53 51 35 52 38 53 52 54 71 55
REMARK SMILES IDX 36 56 37 57 51 59 72 60 39 61 23 62 24 63 32 64 25 65 26 66
REMARK SMILES IDX 30 67 33 68 27 69 28 70 31 71 29 72 55 73 56 74 64 75 57 76
REMARK SMILES IDX 58 77 62 78 65 79 59 80 60 81 63 82 61 83 40 84 41 85 49 86
REMARK SMILES IDX 42 87 43 88 47 89 50 90 44 91 45 92 48 93 46 94
REMARK H PARENT 6 6 11 28 70 47 38 58
REMARK Flexibility Score: inf
ROOT
ATOM      1  C   UNL     1       2.703   1.341   2.579  1.00  0.00     0.023 C 
ENDROOT
BRANCH   1   2
ATOM      2  C   UNL     1       1.266   1.803   2.307  1.00  0.00     0.116 C 
BRANCH   2   3
ATOM      3  N   UNL     1       1.142   2.564   1.076  1.00  0.00    -0.356 N 
ATOM      4  C   UNL     1       0.569   2.316  -0.129  1.00  0.00     0.225 C 
ATOM      5  O   UNL     1       0.689   3.219  -0.968  1.00  0.00    -0.275 OA
ATOM      6  H   UNL     1       1.565   3.452   1.127  1.00  0.00     0.163 HD
BRANCH   4   7
ATOM      7  C   UNL     1      -0.149   1.030  -0.535  1.00  0.00     0.102 C 
ATOM      8  C   UNL     1       1.943  -0.349   0.026  1.00  0.00     0.032 C 
ATOM      9  C   UNL     1       0.724  -0.199  -0.850  1.00  0.00     0.094 C 
ATOM     10  N   UNL     1      -0.178  -1.345  -0.694  1.00  0.00    -0.336 N 
ATOM     11  C   UNL     1      -1.282   0.503   0.335  1.00  0.00     0.037 C 
ATOM     12  C   UNL     1      -1.469  -0.927  -0.163  1.00  0.00     0.121 C 
BRANCH  10  13
ATOM     13  C   UNL     1       0.044  -2.680  -0.977  1.00  0.00     0.246 C 
ATOM     14  O   UNL     1      -0.819  -3.541  -0.805  1.00  0.00    -0.270 OA
BRANCH  13  15
ATOM     15  C   UNL     1       1.417  -3.137  -1.345  1.00  0.00     0.072 C 
ATOM     16  C   UNL     1       2.185  -2.611  -2.312  1.00  0.00     0.014 C 
BRANCH  16  17
ATOM     17  C   UNL     1       3.583  -3.010  -2.519  1.00  0.00    -0.024 A 
ATOM     18  C   UNL     1       4.622  -2.374  -1.820  1.00  0.00     0.008 A 
ATOM     19  C   UNL     1       3.898  -3.994  -3.456  1.00  0.00     0.023 A 
ATOM     20  C   UNL     1       5.957  -2.704  -2.065  1.00  0.00     0.002 A 
ATOM     21  C   UNL     1       5.235  -4.314  -3.704  1.00  0.00     0.018 A 
ATOM     22  C   UNL     1       6.266  -3.672  -3.017  1.00  0.00     0.016 A 
ATOM     23  Br  UNL     1       5.657  -5.617  -5.007  1.00  0.00    -0.051 Br
ENDBRANCH  16  17
ENDBRANCH  13  15
ENDBRANCH  10  13
ENDBRANCH   4   7
ENDBRANCH   2   3
ENDBRANCH   1   2
BRANCH   1  24
ATOM     24  C   UNL     1       3.650   2.393   3.120  1.00  0.00     0.023 C 
BRANCH  24  25
ATOM     25  C   UNL     1       3.256   2.934   4.476  1.00  0.00     0.116 C 
BRANCH  25  26
ATOM     26  N   UNL     1       3.075   1.898   5.485  1.00  0.00    -0.352 N 
ATOM     27  C   UNL     1       3.506   1.897   6.791  1.00  0.00     0.251 C 
ATOM     28  H   UNL     1       2.582   1.097   5.195  1.00  0.00     0.163 HD
ATOM     29  O   UNL     1       3.375   0.913   7.502  1.00  0.00    -0.269 OA
BRANCH  27  30
ATOM     30  C   UNL     1       4.169   3.112   7.299  1.00  0.00     0.039 A 
ATOM     31  C   UNL     1       5.410   2.998   7.926  1.00  0.00     0.014 A 
ATOM     32  C   UNL     1       3.603   4.363   7.045  1.00  0.00     0.014 A 
ATOM     33  C   UNL     1       6.121   4.156   8.238  1.00  0.00     0.010 A 
ATOM     34  C   UNL     1       4.362   5.503   7.245  1.00  0.00     0.010 A 
ATOM     35  C   UNL     1       5.617   5.412   7.863  1.00  0.00    -0.014 A 
BRANCH  35  36
ATOM     36  C   UNL     1       6.350   6.665   8.157  1.00  0.00     0.031 A 
ATOM     37  C   UNL     1       5.710   7.688   9.053  1.00  0.00     0.074 A 
ATOM     38  C   UNL     1       7.530   6.914   7.560  1.00  0.00     0.049 A 
ATOM     39  N   UNL     1       6.109   8.898   9.349  1.00  0.00    -0.248 NA
ATOM     40  C   UNL     1       4.418   7.319   9.657  1.00  0.00     0.031 C 
ATOM     41  C   UNL     1       8.215   6.022   6.622  1.00  0.00     0.029 A 
ATOM     42  N   UNL     1       8.359   8.003   7.648  1.00  0.00    -0.354 N 
ATOM     43  C   UNL     1       5.104   9.438  10.139  1.00  0.00     0.074 A 
ATOM     44  C   UNL     1       4.047   8.457  10.220  1.00  0.00     0.031 C 
ATOM     45  C   UNL     1       9.375   6.586   6.247  1.00  0.00     0.029 A 
ATOM     46  C   UNL     1       9.498   7.890   6.891  1.00  0.00     0.049 A 
ATOM     47  H   UNL     1       8.156   8.791   8.202  1.00  0.00     0.167 HD
ATOM     48  C   UNL     1       5.080  10.634  10.771  1.00  0.00     0.037 A 
ATOM     49  C   UNL     1      10.526   8.747   6.742  1.00  0.00     0.037 A 
ATOM     50  C   UNL     1       6.163  11.578  10.734  1.00  0.00     0.049 A 
ATOM     51  C   UNL     1      10.501  10.049   7.496  1.00  0.00     0.074 A 
ATOM     52  C   UNL     1       6.278  12.789  11.390  1.00  0.00     0.029 A 
ATOM     53  N   UNL     1       7.330  11.402  10.003  1.00  0.00    -0.354 N 
ATOM     54  N   UNL     1       9.574  10.527   8.292  1.00  0.00    -0.248 NA
ATOM     55  C   UNL     1      11.669  10.926   7.341  1.00  0.00     0.031 C 
ATOM     56  C   UNL     1       7.505  13.360  11.035  1.00  0.00     0.029 A 
ATOM     57  C   UNL     1       8.170  12.486  10.190  1.00  0.00     0.049 A 
ATOM     58  H   UNL     1       7.530  10.623   9.436  1.00  0.00     0.167 HD
ATOM     59  C   UNL     1      10.059  11.742   8.757  1.00  0.00     0.074 A 
ATOM     60  C   UNL     1      11.367  11.923   8.161  1.00  0.00     0.031 C 
ATOM     61  C   UNL     1       9.476  12.629   9.600  1.00  0.00     0.037 A 
BRANCH  48  62
ATOM     62  C   UNL     1       3.853  10.969  11.566  1.00  0.00     0.064 A 
ATOM     63  C   UNL     1       3.531  10.282  12.748  1.00  0.00     0.173 A 
ATOM     64  C   UNL     1       2.985  11.986  11.143  1.00  0.00     0.173 A 
ATOM     65  F   UNL     1       4.317   9.287  13.185  1.00  0.00    -0.203 F 
ATOM     66  C   UNL     1       2.368  10.575  13.454  1.00  0.00     0.198 A 
ATOM     67  C   UNL     1       1.839  12.299  11.870  1.00  0.00     0.198 A 
ATOM     68  F   UNL     1       3.245  12.674  10.021  1.00  0.00    -0.203 F 
ATOM     69  F   UNL     1       2.050   9.861  14.543  1.00  0.00    -0.200 F 
ATOM     70  C   UNL     1       1.526  11.587  13.018  1.00  0.00     0.200 A 
ATOM     71  F   UNL     1       1.031  13.284  11.453  1.00  0.00    -0.200 F 
ATOM     72  F   UNL     1       0.406  11.868  13.699  1.00  0.00    -0.200 F 
ENDBRANCH  48  62
BRANCH  49  73
ATOM     73  C   UNL     1      11.685   8.377   5.891  1.00  0.00     0.064 A 
ATOM     74  C   UNL     1      12.924   8.062   6.468  1.00  0.00     0.173 A 
ATOM     75  C   UNL     1      11.584   8.324   4.494  1.00  0.00     0.173 A 
ATOM     76  F   UNL     1      13.074   8.115   7.800  1.00  0.00    -0.203 F 
ATOM     77  C   UNL     1      14.023   7.729   5.679  1.00  0.00     0.198 A 
ATOM     78  C   UNL     1      12.677   7.967   3.707  1.00  0.00     0.198 A 
ATOM     79  F   UNL     1      10.419   8.607   3.894  1.00  0.00    -0.203 F 
ATOM     80  F   UNL     1      15.205   7.473   6.255  1.00  0.00    -0.200 F 
ATOM     81  C   UNL     1      13.898   7.677   4.299  1.00  0.00     0.200 A 
ATOM     82  F   UNL     1      12.549   7.903   2.374  1.00  0.00    -0.200 F 
ATOM     83  F   UNL     1      14.953   7.352   3.541  1.00  0.00    -0.200 F 
ENDBRANCH  49  73
BRANCH  61  84
ATOM     84  C   UNL     1      10.267  13.848   9.965  1.00  0.00     0.064 A 
ATOM     85  C   UNL     1      10.459  14.899   9.058  1.00  0.00     0.173 A 
ATOM     86  C   UNL     1      10.796  13.985  11.257  1.00  0.00     0.173 A 
ATOM     87  F   UNL     1       9.983  14.807   7.807  1.00  0.00    -0.203 F 
ATOM     88  C   UNL     1      11.174  16.036   9.425  1.00  0.00     0.198 A 
ATOM     89  C   UNL     1      11.486  15.134  11.629  1.00  0.00     0.198 A 
ATOM     90  F   UNL     1      10.631  13.009  12.162  1.00  0.00    -0.203 F 
ATOM     91  F   UNL     1      11.382  17.011   8.529  1.00  0.00    -0.200 F 
ATOM     92  C   UNL     1      11.680  16.156  10.711  1.00  0.00     0.200 A 
ATOM     93  F   UNL     1      11.963  15.254  12.875  1.00  0.00    -0.200 F 
ATOM     94  F   UNL     1      12.360  17.255  11.064  1.00  0.00    -0.200 F 
ENDBRANCH  61  84
ENDBRANCH  35  36
ENDBRANCH  27  30
ENDBRANCH  25  26
ENDBRANCH  24  25
ENDBRANCH   1  24
TORSDOF 14
