REMARK SMILES C[NH2+][C@@]1(C(=O)NCCCCNC(=O)c2ccc(-c3c4nc(c(-c5c(F)c(F)c(F)c(F)c5F)c5ccc([nH]5)c(-c5c(F)c(F)c(F)c(F)c5F)c5nc(c(-c6c(F)c(F)c(F)c(F)c6F)c6ccc3[nH]6)C=C5)C=C4)cc2)CCC[C@H]1CCOC
REMARK SMILES IDX 8 1 7 2 6 3 4 4 5 5 3 7 77 8 80 9 78 10 79 11 2 12 1 13
REMARK SMILES IDX 81 16 82 17 83 18 84 19 9 20 10 21 11 22 12 23 13 25 14 26
REMARK SMILES IDX 15 27 76 28 16 29 75 30 17 31 18 32 19 33 69 34 20 35 74 36
REMARK SMILES IDX 68 37 70 38 21 39 73 40 67 41 66 42 22 44 54 45 34 46 53 47
REMARK SMILES IDX 35 48 38 49 52 50 71 51 36 52 37 53 51 55 72 56 39 57 23 58
REMARK SMILES IDX 24 59 32 60 25 61 26 62 30 63 33 64 27 65 28 66 31 67 29 68
REMARK SMILES IDX 55 69 56 70 64 71 57 72 58 73 62 74 65 75 59 76 60 77 63 78
REMARK SMILES IDX 61 79 40 80 41 81 49 82 42 83 43 84 47 85 50 86 44 87 45 88
REMARK SMILES IDX 48 89 46 90
REMARK H PARENT 6 6 2 14 2 15 11 24 70 43 38 54
REMARK Flexibility Score: inf
ROOT
ATOM      1  C   UNL     1      -4.732  -1.283  -0.169  1.00  0.00     0.023 C 
ENDROOT
BRANCH   1   2
ATOM      2  C   UNL     1      -4.044   0.035  -0.495  1.00  0.00     0.116 C 
BRANCH   2   3
ATOM      3  N   UNL     1      -2.816   0.239   0.230  1.00  0.00    -0.351 N 
ATOM      4  C   UNL     1      -1.549   0.559  -0.148  1.00  0.00     0.281 C 
ATOM      5  O   UNL     1      -0.877   0.969   0.810  1.00  0.00    -0.268 OA
ATOM      6  H   UNL     1      -2.914   0.123   1.203  1.00  0.00     0.163 HD
BRANCH   4   7
ATOM      7  C   UNL     1      -0.969   0.496  -1.641  1.00  0.00     0.178 C 
ATOM      8  C   UNL     1      -1.548   1.688  -2.449  1.00  0.00     0.079 C 
ATOM      9  C   UNL     1      -1.381  -0.780  -2.461  1.00  0.00     0.063 C 
ATOM     10  C   UNL     1      -2.641   1.182  -3.366  1.00  0.00     0.008 C 
ATOM     11  C   UNL     1      -2.453  -0.318  -3.488  1.00  0.00     0.011 C 
BRANCH   7  12
ATOM     12  N   UNL     1       0.521   0.697  -1.682  1.00  0.00    -0.336 N 
ATOM     13  C   UNL     1       1.320   0.367  -0.509  1.00  0.00     0.331 C 
ATOM     14  H   UNL     1       0.876   0.131  -2.453  1.00  0.00     0.346 HD
ATOM     15  H   UNL     1       0.624   1.708  -1.767  1.00  0.00     0.346 HD
ENDBRANCH   7  12
BRANCH   9  16
ATOM     16  C   UNL     1      -0.303  -1.516  -3.305  1.00  0.00     0.039 C 
BRANCH  16  17
ATOM     17  C   UNL     1       0.770  -2.349  -2.611  1.00  0.00     0.160 C 
BRANCH  17  18
ATOM     18  O   UNL     1       0.255  -3.558  -2.060  1.00  0.00    -0.385 OA
ATOM     19  C   UNL     1      -0.150  -3.459  -0.705  1.00  0.00     0.194 C 
ENDBRANCH  17  18
ENDBRANCH  16  17
ENDBRANCH   9  16
ENDBRANCH   4   7
ENDBRANCH   2   3
ENDBRANCH   1   2
BRANCH   1  20
ATOM     20  C   UNL     1      -5.441  -1.329   1.182  1.00  0.00     0.023 C 
BRANCH  20  21
ATOM     21  C   UNL     1      -6.418  -0.191   1.460  1.00  0.00     0.116 C 
BRANCH  21  22
ATOM     22  N   UNL     1      -7.412   0.010   0.416  1.00  0.00    -0.352 N 
ATOM     23  C   UNL     1      -8.729   0.389   0.548  1.00  0.00     0.251 C 
ATOM     24  H   UNL     1      -7.102  -0.146  -0.506  1.00  0.00     0.163 HD
ATOM     25  O   UNL     1      -9.462   0.464  -0.427  1.00  0.00    -0.269 OA
BRANCH  23  26
ATOM     26  C   UNL     1      -9.261   0.655   1.901  1.00  0.00     0.039 A 
ATOM     27  C   UNL     1     -10.407  -0.025   2.317  1.00  0.00     0.014 A 
ATOM     28  C   UNL     1      -8.588   1.515   2.771  1.00  0.00     0.014 A 
ATOM     29  C   UNL     1     -10.833   0.093   3.640  1.00  0.00     0.010 A 
ATOM     30  C   UNL     1      -8.971   1.576   4.106  1.00  0.00     0.010 A 
ATOM     31  C   UNL     1     -10.092   0.860   4.555  1.00  0.00    -0.014 A 
BRANCH  31  32
ATOM     32  C   UNL     1     -10.465   0.916   5.989  1.00  0.00     0.031 A 
ATOM     33  C   UNL     1     -10.902   2.217   6.600  1.00  0.00     0.074 A 
ATOM     34  C   UNL     1     -10.334  -0.183   6.756  1.00  0.00     0.049 A 
ATOM     35  N   UNL     1     -11.192   2.490   7.847  1.00  0.00    -0.248 NA
ATOM     36  C   UNL     1     -10.993   3.372   5.694  1.00  0.00     0.031 C 
ATOM     37  C   UNL     1      -9.861  -1.489   6.291  1.00  0.00     0.029 A 
ATOM     38  N   UNL     1     -10.575  -0.376   8.093  1.00  0.00    -0.354 N 
ATOM     39  C   UNL     1     -11.480   3.848   7.877  1.00  0.00     0.074 A 
ATOM     40  C   UNL     1     -11.280   4.354   6.536  1.00  0.00     0.031 C 
ATOM     41  C   UNL     1      -9.868  -2.352   7.320  1.00  0.00     0.029 A 
ATOM     42  C   UNL     1     -10.315  -1.655   8.522  1.00  0.00     0.049 A 
ATOM     43  H   UNL     1     -10.903   0.336   8.689  1.00  0.00     0.167 HD
ATOM     44  C   UNL     1     -11.898   4.598   8.923  1.00  0.00     0.037 A 
ATOM     45  C   UNL     1     -10.424  -2.200   9.748  1.00  0.00     0.037 A 
ATOM     46  C   UNL     1     -12.130   4.084  10.246  1.00  0.00     0.049 A 
ATOM     47  C   UNL     1     -10.915  -1.350  10.888  1.00  0.00     0.074 A 
ATOM     48  C   UNL     1     -12.618   4.747  11.357  1.00  0.00     0.029 A 
ATOM     49  N   UNL     1     -11.893   2.773  10.633  1.00  0.00    -0.354 N 
ATOM     50  N   UNL     1     -11.252  -0.084  10.889  1.00  0.00    -0.248 NA
ATOM     51  C   UNL     1     -11.047  -2.008  12.195  1.00  0.00     0.031 C 
ATOM     52  C   UNL     1     -12.645   3.846  12.427  1.00  0.00     0.029 A 
ATOM     53  C   UNL     1     -12.211   2.611  11.972  1.00  0.00     0.049 A 
ATOM     54  H   UNL     1     -11.549   2.063  10.044  1.00  0.00     0.167 HD
ATOM     55  C   UNL     1     -11.662   0.201  12.184  1.00  0.00     0.074 A 
ATOM     56  C   UNL     1     -11.543  -1.029  12.940  1.00  0.00     0.031 C 
ATOM     57  C   UNL     1     -12.096   1.375  12.702  1.00  0.00     0.037 A 
BRANCH  44  58
ATOM     58  C   UNL     1     -12.140   6.058   8.671  1.00  0.00     0.064 A 
ATOM     59  C   UNL     1     -13.226   6.498   7.899  1.00  0.00     0.173 A 
ATOM     60  C   UNL     1     -11.294   7.027   9.228  1.00  0.00     0.173 A 
ATOM     61  F   UNL     1     -14.056   5.609   7.332  1.00  0.00    -0.203 F 
ATOM     62  C   UNL     1     -13.436   7.854   7.667  1.00  0.00     0.198 A 
ATOM     63  C   UNL     1     -11.525   8.385   9.018  1.00  0.00     0.198 A 
ATOM     64  F   UNL     1     -10.244   6.660   9.978  1.00  0.00    -0.203 F 
ATOM     65  F   UNL     1     -14.449   8.249   6.883  1.00  0.00    -0.200 F 
ATOM     66  C   UNL     1     -12.590   8.796   8.232  1.00  0.00     0.200 A 
ATOM     67  F   UNL     1     -10.712   9.295   9.573  1.00  0.00    -0.200 F 
ATOM     68  F   UNL     1     -12.796  10.102   8.011  1.00  0.00    -0.200 F 
ENDBRANCH  44  58
BRANCH  45  69
ATOM     69  C   UNL     1     -10.099  -3.635   9.954  1.00  0.00     0.064 A 
ATOM     70  C   UNL     1     -11.113  -4.571  10.205  1.00  0.00     0.173 A 
ATOM     71  C   UNL     1      -8.777  -4.100   9.907  1.00  0.00     0.173 A 
ATOM     72  F   UNL     1     -12.390  -4.169  10.278  1.00  0.00    -0.203 F 
ATOM     73  C   UNL     1     -10.815  -5.914  10.421  1.00  0.00     0.198 A 
ATOM     74  C   UNL     1      -8.483  -5.449  10.099  1.00  0.00     0.198 A 
ATOM     75  F   UNL     1      -7.772  -3.246   9.665  1.00  0.00    -0.203 F 
ATOM     76  F   UNL     1     -11.799  -6.779  10.701  1.00  0.00    -0.200 F 
ATOM     77  C   UNL     1      -9.501  -6.353  10.363  1.00  0.00     0.200 A 
ATOM     78  F   UNL     1      -7.213  -5.872  10.029  1.00  0.00    -0.200 F 
ATOM     79  F   UNL     1      -9.215  -7.646  10.568  1.00  0.00    -0.200 F 
ENDBRANCH  45  69
BRANCH  57  80
ATOM     80  C   UNL     1     -12.507   1.379  14.145  1.00  0.00     0.064 A 
ATOM     81  C   UNL     1     -11.560   1.316  15.177  1.00  0.00     0.173 A 
ATOM     82  C   UNL     1     -13.861   1.488  14.496  1.00  0.00     0.173 A 
ATOM     83  F   UNL     1     -10.255   1.194  14.890  1.00  0.00    -0.203 F 
ATOM     84  C   UNL     1     -11.957   1.340  16.511  1.00  0.00     0.198 A 
ATOM     85  C   UNL     1     -14.251   1.540  15.831  1.00  0.00     0.198 A 
ATOM     86  F   UNL     1     -14.803   1.557  13.544  1.00  0.00    -0.203 F 
ATOM     87  F   UNL     1     -11.040   1.236  17.483  1.00  0.00    -0.200 F 
ATOM     88  C   UNL     1     -13.300   1.459  16.837  1.00  0.00     0.200 A 
ATOM     89  F   UNL     1     -15.548   1.666  16.143  1.00  0.00    -0.200 F 
ATOM     90  F   UNL     1     -13.679   1.490  18.122  1.00  0.00    -0.200 F 
ENDBRANCH  57  80
ENDBRANCH  31  32
ENDBRANCH  23  26
ENDBRANCH  21  22
ENDBRANCH  20  21
ENDBRANCH   1  20
TORSDOF 15
