REMARK SMILES CCCC[C@H](C(=O)NCCCCNC(=O)c1ccc(-c2c3nc(c(-c4c(F)c(F)c(F)c(F)c4F)c4ccc([nH]4)c(-c4c(F)c(F)c(F)c(F)c4F)c4nc(c(-c5c(F)c(F)c(F)c(F)c5F)c5ccc2[nH]5)C=C4)C=C3)cc1)[C@](C)(O)c1ccc(Cl)c(Cl)c1
REMARK SMILES IDX 10 1 9 2 8 3 6 4 7 5 5 7 4 8 3 9 2 10 1 11 79 12 80 13 81 14
REMARK SMILES IDX 82 16 83 17 89 18 84 19 87 20 85 21 88 22 86 23 11 24 12 25
REMARK SMILES IDX 13 26 14 27 15 29 16 30 17 31 78 32 18 33 77 34 19 35 20 36
REMARK SMILES IDX 21 37 71 38 22 39 76 40 70 41 72 42 23 43 75 44 69 45 68 46
REMARK SMILES IDX 24 48 56 49 36 50 55 51 37 52 40 53 54 54 73 55 38 56 39 57
REMARK SMILES IDX 53 59 74 60 41 61 25 62 26 63 34 64 27 65 28 66 32 67 35 68
REMARK SMILES IDX 29 69 30 70 33 71 31 72 57 73 58 74 66 75 59 76 60 77 64 78
REMARK SMILES IDX 67 79 61 80 62 81 65 82 63 83 42 84 43 85 51 86 44 87 45 88
REMARK SMILES IDX 49 89 52 90 46 91 47 92 50 93 48 94
REMARK H PARENT 8 6 81 15 13 28 72 47 40 58
REMARK Flexibility Score: inf
ROOT
ATOM      1  C   UNL     1      -3.699   1.728   0.299  1.00  0.00     0.023 C 
ENDROOT
BRANCH   1   2
ATOM      2  C   UNL     1      -2.407   2.422   0.725  1.00  0.00     0.116 C 
BRANCH   2   3
ATOM      3  N   UNL     1      -2.568   3.196   1.945  1.00  0.00    -0.356 N 
ATOM      4  C   UNL     1      -1.874   3.159   3.124  1.00  0.00     0.226 C 
ATOM      5  O   UNL     1      -2.095   4.046   3.947  1.00  0.00    -0.275 OA
ATOM      6  H   UNL     1      -3.298   3.857   1.919  1.00  0.00     0.163 HD
BRANCH   4   7
ATOM      7  C   UNL     1      -0.888   2.021   3.388  1.00  0.00     0.114 C 
BRANCH   7   8
ATOM      8  C   UNL     1       0.361   2.605   4.101  1.00  0.00     0.017 C 
BRANCH   8   9
ATOM      9  C   UNL     1       1.514   1.639   4.388  1.00  0.00     0.001 C 
BRANCH   9  10
ATOM     10  C   UNL     1       2.215   1.071   3.156  1.00  0.00    -0.003 C 
ATOM     11  C   UNL     1       3.012   2.116   2.393  1.00  0.00     0.004 C 
ENDBRANCH   9  10
ENDBRANCH   8   9
ENDBRANCH   7   8
BRANCH   7  12
ATOM     12  C   UNL     1      -1.621   0.756   4.003  1.00  0.00     0.098 C 
ATOM     13  C   UNL     1      -1.280  -0.462   3.109  1.00  0.00     0.048 C 
BRANCH  12  14
ATOM     14  O   UNL     1      -3.051   0.869   3.925  1.00  0.00    -0.385 OA
ATOM     15  H   UNL     1      -3.459   0.078   4.311  1.00  0.00     0.211 HD
ENDBRANCH  12  14
BRANCH  12  16
ATOM     16  C   UNL     1      -1.380   0.488   5.490  1.00  0.00    -0.014 A 
ATOM     17  C   UNL     1      -1.061  -0.791   5.982  1.00  0.00     0.008 A 
ATOM     18  C   UNL     1      -1.458   1.535   6.428  1.00  0.00     0.028 A 
ATOM     19  C   UNL     1      -0.701  -0.987   7.317  1.00  0.00     0.022 A 
ATOM     20  C   UNL     1      -1.057   1.354   7.757  1.00  0.00     0.060 A 
ATOM     21  C   UNL     1      -0.659   0.091   8.198  1.00  0.00     0.059 A 
ATOM     22  Cl  UNL     1      -1.021   2.744   8.783  1.00  0.00    -0.083 Cl
ATOM     23  Cl  UNL     1      -0.093  -0.204   9.803  1.00  0.00    -0.083 Cl
ENDBRANCH  12  16
ENDBRANCH   7  12
ENDBRANCH   4   7
ENDBRANCH   2   3
ENDBRANCH   1   2
BRANCH   1  24
ATOM     24  C   UNL     1      -4.838   2.674  -0.078  1.00  0.00     0.023 C 
BRANCH  24  25
ATOM     25  C   UNL     1      -4.515   3.643  -1.207  1.00  0.00     0.116 C 
BRANCH  25  26
ATOM     26  N   UNL     1      -4.161   2.965  -2.444  1.00  0.00    -0.352 N 
ATOM     27  C   UNL     1      -4.645   3.164  -3.715  1.00  0.00     0.251 C 
ATOM     28  H   UNL     1      -3.477   2.263  -2.359  1.00  0.00     0.163 HD
ATOM     29  O   UNL     1      -4.348   2.386  -4.613  1.00  0.00    -0.269 OA
BRANCH  27  30
ATOM     30  C   UNL     1      -5.541   4.308  -3.991  1.00  0.00     0.039 A 
ATOM     31  C   UNL     1      -6.655   4.109  -4.810  1.00  0.00     0.014 A 
ATOM     32  C   UNL     1      -5.281   5.571  -3.455  1.00  0.00     0.014 A 
ATOM     33  C   UNL     1      -7.533   5.168  -5.052  1.00  0.00     0.010 A 
ATOM     34  C   UNL     1      -6.204   6.598  -3.620  1.00  0.00     0.010 A 
ATOM     35  C   UNL     1      -7.329   6.414  -4.438  1.00  0.00    -0.014 A 
BRANCH  35  36
ATOM     36  C   UNL     1      -8.253   7.553  -4.674  1.00  0.00     0.031 A 
ATOM     37  C   UNL     1      -7.744   8.802  -5.341  1.00  0.00     0.074 A 
ATOM     38  C   UNL     1      -9.528   7.486  -4.247  1.00  0.00     0.049 A 
ATOM     39  N   UNL     1      -8.367   9.929  -5.579  1.00  0.00    -0.248 NA
ATOM     40  C   UNL     1      -6.335   8.797  -5.769  1.00  0.00     0.031 C 
ATOM     41  C   UNL     1     -10.129   6.348  -3.550  1.00  0.00     0.029 A 
ATOM     42  N   UNL     1     -10.548   8.401  -4.328  1.00  0.00    -0.354 N 
ATOM     43  C   UNL     1      -7.425  10.764  -6.167  1.00  0.00     0.074 A 
ATOM     44  C   UNL     1      -6.173  10.041  -6.190  1.00  0.00     0.031 C 
ATOM     45  C   UNL     1     -11.418   6.622  -3.291  1.00  0.00     0.029 A 
ATOM     46  C   UNL     1     -11.723   7.969  -3.764  1.00  0.00     0.049 A 
ATOM     47  H   UNL     1     -10.446   9.284  -4.751  1.00  0.00     0.167 HD
ATOM     48  C   UNL     1      -7.595  12.010  -6.670  1.00  0.00     0.037 A 
ATOM     49  C   UNL     1     -12.910   8.593  -3.638  1.00  0.00     0.037 A 
ATOM     50  C   UNL     1      -8.849  12.715  -6.668  1.00  0.00     0.049 A 
ATOM     51  C   UNL     1     -13.069   9.984  -4.193  1.00  0.00     0.074 A 
ATOM     52  C   UNL     1      -9.140  13.959  -7.199  1.00  0.00     0.029 A 
ATOM     53  N   UNL     1     -10.023  12.237  -6.102  1.00  0.00    -0.354 N 
ATOM     54  N   UNL     1     -12.190  10.737  -4.809  1.00  0.00    -0.248 NA
ATOM     55  C   UNL     1     -14.391  10.608  -4.044  1.00  0.00     0.031 C 
ATOM     56  C   UNL     1     -10.474  14.258  -6.905  1.00  0.00     0.029 A 
ATOM     57  C   UNL     1     -11.034  13.173  -6.251  1.00  0.00     0.049 A 
ATOM     58  H   UNL     1     -10.122  11.363  -5.660  1.00  0.00     0.167 HD
ATOM     59  C   UNL     1     -12.861  11.904  -5.153  1.00  0.00     0.074 A 
ATOM     60  C   UNL     1     -14.224  11.753  -4.689  1.00  0.00     0.031 C 
ATOM     61  C   UNL     1     -12.391  13.001  -5.798  1.00  0.00     0.037 A 
BRANCH  48  62
ATOM     62  C   UNL     1      -6.395  12.689  -7.267  1.00  0.00     0.064 A 
ATOM     63  C   UNL     1      -5.802  12.232  -8.454  1.00  0.00     0.173 A 
ATOM     64  C   UNL     1      -5.848  13.831  -6.661  1.00  0.00     0.173 A 
ATOM     65  F   UNL     1      -6.276  11.137  -9.069  1.00  0.00    -0.203 F 
ATOM     66  C   UNL     1      -4.688  12.871  -8.993  1.00  0.00     0.198 A 
ATOM     67  C   UNL     1      -4.757  14.488  -7.222  1.00  0.00     0.198 A 
ATOM     68  F   UNL     1      -6.378  14.315  -5.527  1.00  0.00    -0.203 F 
ATOM     69  F   UNL     1      -4.104  12.380 -10.095  1.00  0.00    -0.200 F 
ATOM     70  C   UNL     1      -4.171  14.003  -8.381  1.00  0.00     0.200 A 
ATOM     71  F   UNL     1      -4.269  15.591  -6.638  1.00  0.00    -0.200 F 
ATOM     72  F   UNL     1      -3.104  14.621  -8.905  1.00  0.00    -0.200 F 
ENDBRANCH  48  62
BRANCH  49  73
ATOM     73  C   UNL     1     -14.051   7.901  -2.981  1.00  0.00     0.064 A 
ATOM     74  C   UNL     1     -15.186   7.525  -3.714  1.00  0.00     0.173 A 
ATOM     75  C   UNL     1     -14.041   7.618  -1.607  1.00  0.00     0.173 A 
ATOM     76  F   UNL     1     -15.252   7.790  -5.027  1.00  0.00    -0.203 F 
ATOM     77  C   UNL     1     -16.277   6.920  -3.094  1.00  0.00     0.198 A 
ATOM     78  C   UNL     1     -15.119   6.983  -0.994  1.00  0.00     0.198 A 
ATOM     79  F   UNL     1     -12.978   7.951  -0.860  1.00  0.00    -0.203 F 
ATOM     80  F   UNL     1     -17.371   6.622  -3.809  1.00  0.00    -0.200 F 
ATOM     81  C   UNL     1     -16.241   6.645  -1.736  1.00  0.00     0.200 A 
ATOM     82  F   UNL     1     -15.073   6.704   0.316  1.00  0.00    -0.200 F 
ATOM     83  F   UNL     1     -17.290   6.062  -1.140  1.00  0.00    -0.200 F 
ENDBRANCH  49  73
BRANCH  61  84
ATOM     84  C   UNL     1     -13.369  14.103  -6.092  1.00  0.00     0.064 A 
ATOM     85  C   UNL     1     -13.904  14.912  -5.079  1.00  0.00     0.173 A 
ATOM     86  C   UNL     1     -13.744  14.378  -7.417  1.00  0.00     0.173 A 
ATOM     87  F   UNL     1     -13.589  14.683  -3.795  1.00  0.00    -0.203 F 
ATOM     88  C   UNL     1     -14.802  15.933  -5.378  1.00  0.00     0.198 A 
ATOM     89  C   UNL     1     -14.613  15.423  -7.715  1.00  0.00     0.198 A 
ATOM     90  F   UNL     1     -13.254  13.641  -8.425  1.00  0.00    -0.203 F 
ATOM     91  F   UNL     1     -15.343  16.657  -4.388  1.00  0.00    -0.200 F 
ATOM     92  C   UNL     1     -15.149  16.194  -6.695  1.00  0.00     0.200 A 
ATOM     93  F   UNL     1     -14.931  15.685  -8.990  1.00  0.00    -0.200 F 
ATOM     94  F   UNL     1     -16.005  17.184  -6.981  1.00  0.00    -0.200 F 
ENDBRANCH  61  84
ENDBRANCH  35  36
ENDBRANCH  27  30
ENDBRANCH  25  26
ENDBRANCH  24  25
ENDBRANCH   1  24
TORSDOF 17
