REMARK SMILES NS(=O)(=O)c1ccc(C(=O)N2CC[C@H](c3ccccc3C(=O)NCCCCNC(=O)c3ccc(-c4c5nc(c(-c6c(F)c(F)c(F)c(F)c6F)c6ccc([nH]6)c(-c6c(F)c(F)c(F)c(F)c6F)c6nc(c(-c7c(F)c(F)c(F)c(F)c7F)c7ccc4[nH]7)C=C6)C=C5)cc3)C2)cc1
REMARK SMILES IDX 24 1 23 2 21 3 22 4 20 6 15 7 16 8 17 9 19 10 18 11 14 12
REMARK SMILES IDX 11 13 12 14 94 15 13 16 9 17 10 18 8 19 5 20 6 21 96 22 7 23
REMARK SMILES IDX 95 24 2 25 3 26 4 27 1 28 25 31 26 32 27 33 28 34 29 35
REMARK SMILES IDX 30 37 31 38 32 39 93 40 33 41 92 42 34 43 35 44 36 45 86 46
REMARK SMILES IDX 37 47 91 48 85 49 87 50 38 51 90 52 84 53 83 54 39 56 71 57
REMARK SMILES IDX 51 58 70 59 52 60 55 61 69 62 88 63 53 64 54 65 68 67 89 68
REMARK SMILES IDX 56 69 40 70 41 71 49 72 42 73 43 74 47 75 50 76 44 77 45 78
REMARK SMILES IDX 48 79 46 80 72 81 73 82 81 83 74 84 75 85 79 86 82 87 76 88
REMARK SMILES IDX 77 89 80 90 78 91 57 92 58 93 66 94 59 95 60 96 64 97 67 98
REMARK SMILES IDX 61 99 62 100 65 101 63 102
REMARK H PARENT 23 5 1 29 1 30 28 36 87 55 55 66
REMARK Flexibility Score: inf
ROOT
ATOM      1  C   UNL     1       7.786  -7.582  -2.294  1.00  0.00     0.116 C 
ENDROOT
BRANCH   1   2
ATOM      2  N   UNL     1       7.712  -7.462  -3.742  1.00  0.00    -0.352 N 
ATOM      3  C   UNL     1       7.406  -6.262  -4.345  1.00  0.00     0.251 C 
ATOM      4  O   UNL     1       8.150  -5.292  -4.274  1.00  0.00    -0.269 OA
ATOM      5  H   UNL     1       7.884  -8.254  -4.301  1.00  0.00     0.163 HD
BRANCH   3   6
ATOM      6  C   UNL     1       6.206  -6.253  -5.235  1.00  0.00     0.043 A 
ATOM      7  C   UNL     1       4.884  -6.545  -4.807  1.00  0.00    -0.030 A 
ATOM      8  C   UNL     1       3.860  -6.489  -5.769  1.00  0.00     0.005 A 
ATOM      9  C   UNL     1       4.121  -6.117  -7.090  1.00  0.00     0.000 A 
ATOM     10  C   UNL     1       6.454  -5.867  -6.563  1.00  0.00     0.014 A 
ATOM     11  C   UNL     1       5.414  -5.798  -7.486  1.00  0.00     0.001 A 
BRANCH   7  12
ATOM     12  C   UNL     1       4.572  -6.839  -3.359  1.00  0.00     0.041 C 
ATOM     13  N   UNL     1       3.017  -6.668  -1.556  1.00  0.00    -0.338 N 
ATOM     14  C   UNL     1       4.285  -6.104  -1.135  1.00  0.00     0.120 C 
ATOM     15  C   UNL     1       3.147  -7.249  -2.892  1.00  0.00     0.128 C 
ATOM     16  C   UNL     1       4.847  -5.620  -2.456  1.00  0.00     0.032 C 
BRANCH  13  17
ATOM     17  C   UNL     1       1.754  -6.458  -1.027  1.00  0.00     0.253 C 
ATOM     18  O   UNL     1       0.819  -7.221  -1.263  1.00  0.00    -0.269 OA
BRANCH  17  19
ATOM     19  C   UNL     1       1.470  -5.192  -0.284  1.00  0.00     0.040 A 
ATOM     20  C   UNL     1       0.753  -2.751   0.893  1.00  0.00     0.082 A 
ATOM     21  C   UNL     1       0.026  -3.909   1.192  1.00  0.00     0.022 A 
ATOM     22  C   UNL     1       1.825  -2.800   0.009  1.00  0.00     0.022 A 
ATOM     23  C   UNL     1       0.396  -5.133   0.614  1.00  0.00     0.015 A 
ATOM     24  C   UNL     1       2.141  -4.004  -0.608  1.00  0.00     0.015 A 
BRANCH  20  25
ATOM     25  S   UNL     1       0.244  -1.186   1.535  1.00  0.00     0.238 S 
ATOM     26  O   UNL     1       0.975  -0.923   2.738  1.00  0.00    -0.207 OA
ATOM     27  O   UNL     1      -1.204  -1.100   1.443  1.00  0.00    -0.207 OA
BRANCH  25  28
ATOM     28  N   UNL     1       0.814  -0.089   0.388  1.00  0.00    -0.225 NA
ATOM     29  H   UNL     1       0.566   0.859   0.672  1.00  0.00     0.137 HD
ATOM     30  H   UNL     1       0.392  -0.294  -0.518  1.00  0.00     0.137 HD
ENDBRANCH  25  28
ENDBRANCH  20  25
ENDBRANCH  17  19
ENDBRANCH  13  17
ENDBRANCH   7  12
ENDBRANCH   3   6
ENDBRANCH   1   2
BRANCH   1  31
ATOM     31  C   UNL     1       7.391  -8.990  -1.848  1.00  0.00     0.023 C 
BRANCH  31  32
ATOM     32  C   UNL     1       7.843  -9.328  -0.432  1.00  0.00     0.023 C 
BRANCH  32  33
ATOM     33  C   UNL     1       7.347  -8.391   0.660  1.00  0.00     0.116 C 
BRANCH  33  34
ATOM     34  N   UNL     1       5.992  -8.662   1.117  1.00  0.00    -0.352 N 
ATOM     35  C   UNL     1       5.532  -8.699   2.418  1.00  0.00     0.251 C 
ATOM     36  H   UNL     1       5.325  -8.841   0.415  1.00  0.00     0.163 HD
ATOM     37  O   UNL     1       4.364  -8.966   2.672  1.00  0.00    -0.269 OA
BRANCH  35  38
ATOM     38  C   UNL     1       6.498  -8.484   3.517  1.00  0.00     0.039 A 
ATOM     39  C   UNL     1       6.665  -9.495   4.466  1.00  0.00     0.014 A 
ATOM     40  C   UNL     1       7.327  -7.359   3.523  1.00  0.00     0.014 A 
ATOM     41  C   UNL     1       7.736  -9.428   5.358  1.00  0.00     0.010 A 
ATOM     42  C   UNL     1       8.443  -7.339   4.354  1.00  0.00     0.010 A 
ATOM     43  C   UNL     1       8.668  -8.381   5.269  1.00  0.00    -0.014 A 
BRANCH  43  44
ATOM     44  C   UNL     1       9.893  -8.373   6.111  1.00  0.00     0.031 A 
ATOM     45  C   UNL     1      10.114  -7.276   7.112  1.00  0.00     0.074 A 
ATOM     46  C   UNL     1      10.834  -9.322   5.934  1.00  0.00     0.049 A 
ATOM     47  N   UNL     1      11.130  -7.078   7.915  1.00  0.00    -0.248 NA
ATOM     48  C   UNL     1       9.068  -6.247   7.201  1.00  0.00     0.031 C 
ATOM     49  C   UNL     1      10.762 -10.415   4.962  1.00  0.00     0.029 A 
ATOM     50  N   UNL     1      12.037  -9.522   6.566  1.00  0.00    -0.354 N 
ATOM     51  C   UNL     1      10.846  -5.902   8.595  1.00  0.00     0.074 A 
ATOM     52  C   UNL     1       9.601  -5.394   8.060  1.00  0.00     0.031 C 
ATOM     53  C   UNL     1      11.848 -11.194   5.094  1.00  0.00     0.029 A 
ATOM     54  C   UNL     1      12.712 -10.636   6.130  1.00  0.00     0.049 A 
ATOM     55  H   UNL     1      12.382  -8.923   7.267  1.00  0.00     0.167 HD
ATOM     56  C   UNL     1      11.542  -5.314   9.598  1.00  0.00     0.037 A 
ATOM     57  C   UNL     1      13.892 -11.152   6.526  1.00  0.00     0.037 A 
ATOM     58  C   UNL     1      12.774  -5.828  10.136  1.00  0.00     0.049 A 
ATOM     59  C   UNL     1      14.665 -10.462   7.618  1.00  0.00     0.074 A 
ATOM     60  C   UNL     1      13.531  -5.337  11.184  1.00  0.00     0.029 A 
ATOM     61  N   UNL     1      13.434  -6.952   9.659  1.00  0.00    -0.354 N 
ATOM     62  N   UNL     1      14.351  -9.392   8.307  1.00  0.00    -0.248 NA
ATOM     63  C   UNL     1      15.958 -11.055   7.987  1.00  0.00     0.031 C 
ATOM     64  C   UNL     1      14.676  -6.133  11.308  1.00  0.00     0.029 A 
ATOM     65  C   UNL     1      14.605  -7.153  10.373  1.00  0.00     0.049 A 
ATOM     66  H   UNL     1      13.118  -7.522   8.921  1.00  0.00     0.167 HD
ATOM     67  C   UNL     1      15.386  -9.204   9.213  1.00  0.00     0.074 A 
ATOM     68  C   UNL     1      16.334 -10.276   8.992  1.00  0.00     0.031 C 
ATOM     69  C   UNL     1      15.536  -8.231  10.146  1.00  0.00     0.037 A 
BRANCH  56  70
ATOM     70  C   UNL     1      10.979  -4.043  10.167  1.00  0.00     0.064 A 
ATOM     71  C   UNL     1       9.777  -4.030  10.894  1.00  0.00     0.173 A 
ATOM     72  C   UNL     1      11.640  -2.820   9.977  1.00  0.00     0.173 A 
ATOM     73  F   UNL     1       9.097  -5.170  11.095  1.00  0.00    -0.203 F 
ATOM     74  C   UNL     1       9.234  -2.837  11.363  1.00  0.00     0.198 A 
ATOM     75  C   UNL     1      11.112  -1.634  10.480  1.00  0.00     0.198 A 
ATOM     76  F   UNL     1      12.795  -2.774   9.297  1.00  0.00    -0.203 F 
ATOM     77  F   UNL     1       8.048  -2.843  11.989  1.00  0.00    -0.200 F 
ATOM     78  C   UNL     1       9.903  -1.641  11.160  1.00  0.00     0.200 A 
ATOM     79  F   UNL     1      11.768  -0.479  10.294  1.00  0.00    -0.200 F 
ATOM     80  F   UNL     1       9.378  -0.492  11.607  1.00  0.00    -0.200 F 
ENDBRANCH  56  70
BRANCH  57  81
ATOM     81  C   UNL     1      14.392 -12.416   5.924  1.00  0.00     0.064 A 
ATOM     82  C   UNL     1      14.439 -13.597   6.680  1.00  0.00     0.173 A 
ATOM     83  C   UNL     1      14.833 -12.476   4.594  1.00  0.00     0.173 A 
ATOM     84  F   UNL     1      14.049 -13.585   7.963  1.00  0.00    -0.203 F 
ATOM     85  C   UNL     1      14.921 -14.784   6.133  1.00  0.00     0.198 A 
ATOM     86  C   UNL     1      15.289 -13.671   4.041  1.00  0.00     0.198 A 
ATOM     87  F   UNL     1      14.806 -11.376   3.828  1.00  0.00    -0.203 F 
ATOM     88  F   UNL     1      14.992 -15.887   6.891  1.00  0.00    -0.200 F 
ATOM     89  C   UNL     1      15.340 -14.822   4.812  1.00  0.00     0.200 A 
ATOM     90  F   UNL     1      15.681 -13.707   2.760  1.00  0.00    -0.200 F 
ATOM     91  F   UNL     1      15.797 -15.966   4.285  1.00  0.00    -0.200 F 
ENDBRANCH  57  81
BRANCH  69  92
ATOM     92  C   UNL     1      16.750  -8.303  11.027  1.00  0.00     0.064 A 
ATOM     93  C   UNL     1      18.035  -8.027  10.538  1.00  0.00     0.173 A 
ATOM     94  C   UNL     1      16.619  -8.614  12.389  1.00  0.00     0.173 A 
ATOM     95  F   UNL     1      18.217  -7.740   9.240  1.00  0.00    -0.203 F 
ATOM     96  C   UNL     1      19.147  -8.087  11.374  1.00  0.00     0.198 A 
ATOM     97  C   UNL     1      17.729  -8.641  13.229  1.00  0.00     0.198 A 
ATOM     98  F   UNL     1      15.411  -8.881  12.909  1.00  0.00    -0.203 F 
ATOM     99  F   UNL     1      20.371  -7.869  10.874  1.00  0.00    -0.200 F 
ATOM    100  C   UNL     1      18.992  -8.385  12.720  1.00  0.00     0.200 A 
ATOM    101  F   UNL     1      17.575  -8.915  14.532  1.00  0.00    -0.200 F 
ATOM    102  F   UNL     1      20.063  -8.433  13.525  1.00  0.00    -0.200 F 
ENDBRANCH  69  92
ENDBRANCH  43  44
ENDBRANCH  35  38
ENDBRANCH  33  34
ENDBRANCH  32  33
ENDBRANCH  31  32
ENDBRANCH   1  31
TORSDOF 16
