REMARK SMILES Cc1ccc(S(=O)(=O)Nc2ccccn2)cc1C(=O)NCCCCNC(=O)c1ccc(-c2c3nc(c(-c4c(F)c(F)c(F)c(F)c4F)c4ccc([nH]4)c(-c4c(F)c(F)c(F)c(F)c4F)c4nc(c(-c5c(F)c(F)c(F)c(F)c5F)c5ccc2[nH]5)C=C4)C=C3)cc1
REMARK SMILES IDX 22 1 21 2 20 3 18 4 19 5 17 7 1 8 2 9 3 10 4 11 16 12 5 13
REMARK SMILES IDX 6 14 7 15 8 16 9 17 10 19 11 20 15 21 12 22 14 23 13 24
REMARK SMILES IDX 23 25 24 26 25 27 26 28 27 30 28 31 29 32 90 33 30 34 89 35
REMARK SMILES IDX 31 36 32 37 33 38 83 39 34 40 88 41 82 42 84 43 35 44 87 45
REMARK SMILES IDX 81 46 80 47 36 49 68 50 48 51 67 52 49 53 52 54 66 55 85 56
REMARK SMILES IDX 50 57 51 58 65 60 86 61 53 62 37 63 38 64 46 65 39 66 40 67
REMARK SMILES IDX 44 68 47 69 41 70 42 71 45 72 43 73 69 74 70 75 78 76 71 77
REMARK SMILES IDX 72 78 76 79 79 80 73 81 74 82 77 83 75 84 54 85 55 86 63 87
REMARK SMILES IDX 56 88 57 89 61 90 64 91 58 92 59 93 62 94 60 95
REMARK H PARENT 20 6 9 18 25 29 84 48 52 59
REMARK Flexibility Score: inf
ROOT
ATOM      1  C   UNL     1       4.136   1.122  -1.267  1.00  0.00     0.023 C 
ENDROOT
BRANCH   1   2
ATOM      2  C   UNL     1       3.650   1.354   0.170  1.00  0.00     0.116 C 
BRANCH   2   3
ATOM      3  N   UNL     1       2.427   2.119   0.219  1.00  0.00    -0.352 N 
ATOM      4  C   UNL     1       1.085   1.889   0.310  1.00  0.00     0.251 C 
ATOM      5  O   UNL     1       0.455   2.950   0.436  1.00  0.00    -0.269 OA
ATOM      6  H   UNL     1       2.615   3.084   0.173  1.00  0.00     0.163 HD
BRANCH   4   7
ATOM      7  C   UNL     1       0.285   0.597   0.263  1.00  0.00     0.044 A 
ATOM      8  C   UNL     1       1.980  -1.224  -0.518  1.00  0.00     0.045 C 
ATOM      9  C   UNL     1       0.641  -0.726  -0.082  1.00  0.00    -0.038 A 
ATOM     10  C   UNL     1      -0.360  -1.732  -0.121  1.00  0.00     0.005 A 
ATOM     11  C   UNL     1      -1.708  -1.437   0.014  1.00  0.00     0.022 A 
ATOM     12  C   UNL     1      -1.104   0.837   0.492  1.00  0.00     0.036 A 
ATOM     13  C   UNL     1      -2.087  -0.128   0.260  1.00  0.00     0.088 A 
BRANCH  13  14
ATOM     14  S   UNL     1      -3.816   0.236   0.017  1.00  0.00     0.263 S 
ATOM     15  O   UNL     1      -4.056   0.062  -1.400  1.00  0.00    -0.201 OA
ATOM     16  O   UNL     1      -4.531  -0.566   0.992  1.00  0.00    -0.201 OA
BRANCH  14  17
ATOM     17  N   UNL     1      -4.127   1.806   0.413  1.00  0.00    -0.263 N 
ATOM     18  H   UNL     1      -4.847   1.974   1.063  1.00  0.00     0.182 HD
BRANCH  17  19
ATOM     19  C   UNL     1      -3.453   2.919  -0.098  1.00  0.00     0.139 A 
ATOM     20  C   UNL     1      -2.827   3.007  -1.330  1.00  0.00     0.048 A 
ATOM     21  N   UNL     1      -3.438   3.894   0.830  1.00  0.00    -0.239 NA
ATOM     22  C   UNL     1      -2.049   4.136  -1.578  1.00  0.00     0.005 A 
ATOM     23  C   UNL     1      -2.690   4.982   0.553  1.00  0.00     0.113 A 
ATOM     24  C   UNL     1      -1.968   5.139  -0.617  1.00  0.00     0.020 A 
ENDBRANCH  17  19
ENDBRANCH  14  17
ENDBRANCH  13  14
ENDBRANCH   4   7
ENDBRANCH   2   3
ENDBRANCH   1   2
BRANCH   1  25
ATOM     25  C   UNL     1       4.858   2.297  -1.925  1.00  0.00     0.023 C 
BRANCH  25  26
ATOM     26  C   UNL     1       6.233   2.588  -1.349  1.00  0.00     0.116 C 
BRANCH  26  27
ATOM     27  N   UNL     1       7.308   1.722  -1.820  1.00  0.00    -0.352 N 
ATOM     28  C   UNL     1       8.608   1.607  -1.350  1.00  0.00     0.251 C 
ATOM     29  H   UNL     1       7.079   1.138  -2.578  1.00  0.00     0.163 HD
ATOM     30  O   UNL     1       9.411   0.885  -1.934  1.00  0.00    -0.269 OA
BRANCH  28  31
ATOM     31  C   UNL     1       8.981   2.226  -0.052  1.00  0.00     0.039 A 
ATOM     32  C   UNL     1       9.661   1.427   0.877  1.00  0.00     0.014 A 
ATOM     33  C   UNL     1       8.416   3.430   0.349  1.00  0.00     0.014 A 
ATOM     34  C   UNL     1       9.491   1.675   2.236  1.00  0.00     0.010 A 
ATOM     35  C   UNL     1       8.127   3.596   1.687  1.00  0.00     0.010 A 
ATOM     36  C   UNL     1       8.594   2.667   2.622  1.00  0.00    -0.014 A 
BRANCH  36  37
ATOM     37  C   UNL     1       7.958   2.706   3.935  1.00  0.00     0.031 A 
ATOM     38  C   UNL     1       8.215   3.828   4.861  1.00  0.00     0.074 A 
ATOM     39  C   UNL     1       7.012   1.784   4.227  1.00  0.00     0.049 A 
ATOM     40  N   UNL     1       7.957   3.807   6.125  1.00  0.00    -0.248 NA
ATOM     41  C   UNL     1       8.850   5.065   4.431  1.00  0.00     0.031 C 
ATOM     42  C   UNL     1       6.024   1.834   5.302  1.00  0.00     0.029 A 
ATOM     43  N   UNL     1       6.874   0.490   3.691  1.00  0.00    -0.354 N 
ATOM     44  C   UNL     1       8.107   5.088   6.610  1.00  0.00     0.074 A 
ATOM     45  C   UNL     1       8.758   5.803   5.540  1.00  0.00     0.031 C 
ATOM     46  C   UNL     1       5.596   0.587   5.556  1.00  0.00     0.029 A 
ATOM     47  C   UNL     1       6.408  -0.313   4.758  1.00  0.00     0.049 A 
ATOM     48  H   UNL     1       7.062   0.204   2.767  1.00  0.00     0.167 HD
ATOM     49  C   UNL     1       7.527   5.407   7.806  1.00  0.00     0.037 A 
ATOM     50  C   UNL     1       7.164  -1.331   5.264  1.00  0.00     0.037 A 
ATOM     51  C   UNL     1       7.017   4.200   8.467  1.00  0.00     0.049 A 
ATOM     52  C   UNL     1       7.510  -1.172   6.726  1.00  0.00     0.074 A 
ATOM     53  C   UNL     1       5.748   3.659   8.598  1.00  0.00     0.029 A 
ATOM     54  N   UNL     1       7.909   3.202   8.853  1.00  0.00    -0.354 N 
ATOM     55  N   UNL     1       7.428  -0.042   7.372  1.00  0.00    -0.248 NA
ATOM     56  C   UNL     1       8.012  -2.258   7.564  1.00  0.00     0.031 C 
ATOM     57  C   UNL     1       5.886   2.306   9.000  1.00  0.00     0.029 A 
ATOM     58  C   UNL     1       7.235   2.030   9.136  1.00  0.00     0.049 A 
ATOM     59  H   UNL     1       8.885   3.317   8.915  1.00  0.00     0.167 HD
ATOM     60  C   UNL     1       7.878  -0.214   8.654  1.00  0.00     0.074 A 
ATOM     61  C   UNL     1       8.211  -1.624   8.733  1.00  0.00     0.031 C 
ATOM     62  C   UNL     1       7.956   0.829   9.534  1.00  0.00     0.037 A 
BRANCH  49  63
ATOM     63  C   UNL     1       7.146   6.816   8.247  1.00  0.00     0.064 A 
ATOM     64  C   UNL     1       6.145   7.013   9.229  1.00  0.00     0.173 A 
ATOM     65  C   UNL     1       7.637   8.014   7.691  1.00  0.00     0.173 A 
ATOM     66  F   UNL     1       5.655   5.992   9.944  1.00  0.00    -0.203 F 
ATOM     67  C   UNL     1       5.603   8.271   9.521  1.00  0.00     0.198 A 
ATOM     68  C   UNL     1       7.073   9.268   7.956  1.00  0.00     0.198 A 
ATOM     69  F   UNL     1       8.720   8.044   6.915  1.00  0.00    -0.203 F 
ATOM     70  F   UNL     1       4.636   8.380  10.444  1.00  0.00    -0.200 F 
ATOM     71  C   UNL     1       6.043   9.395   8.859  1.00  0.00     0.200 A 
ATOM     72  F   UNL     1       7.548  10.352   7.324  1.00  0.00    -0.200 F 
ATOM     73  F   UNL     1       5.502  10.595   9.108  1.00  0.00    -0.200 F 
ENDBRANCH  49  63
BRANCH  50  74
ATOM     74  C   UNL     1       8.032  -1.976   4.245  1.00  0.00     0.064 A 
ATOM     75  C   UNL     1       7.414  -2.652   3.175  1.00  0.00     0.173 A 
ATOM     76  C   UNL     1       9.378  -1.622   4.096  1.00  0.00     0.173 A 
ATOM     77  F   UNL     1       6.122  -3.009   3.266  1.00  0.00    -0.203 F 
ATOM     78  C   UNL     1       8.076  -2.857   1.967  1.00  0.00     0.198 A 
ATOM     79  C   UNL     1      10.042  -1.840   2.886  1.00  0.00     0.198 A 
ATOM     80  F   UNL     1      10.015  -0.953   5.067  1.00  0.00    -0.203 F 
ATOM     81  F   UNL     1       7.421  -3.398   0.930  1.00  0.00    -0.200 F 
ATOM     82  C   UNL     1       9.382  -2.424   1.814  1.00  0.00     0.200 A 
ATOM     83  F   UNL     1      11.294  -1.388   2.724  1.00  0.00    -0.200 F 
ATOM     84  F   UNL     1       9.989  -2.527   0.624  1.00  0.00    -0.200 F 
ENDBRANCH  50  74
BRANCH  62  85
ATOM     85  C   UNL     1       8.642   0.801  10.877  1.00  0.00     0.064 A 
ATOM     86  C   UNL     1       9.758   0.001  11.170  1.00  0.00     0.173 A 
ATOM     87  C   UNL     1       8.272   1.725  11.884  1.00  0.00     0.173 A 
ATOM     88  F   UNL     1      10.277  -0.833  10.258  1.00  0.00    -0.203 F 
ATOM     89  C   UNL     1      10.420   0.078  12.399  1.00  0.00     0.198 A 
ATOM     90  C   UNL     1       8.969   1.839  13.086  1.00  0.00     0.198 A 
ATOM     91  F   UNL     1       7.237   2.563  11.719  1.00  0.00    -0.203 F 
ATOM     92  F   UNL     1      11.457  -0.734  12.646  1.00  0.00    -0.200 F 
ATOM     93  C   UNL     1      10.035   1.005  13.350  1.00  0.00     0.200 A 
ATOM     94  F   UNL     1       8.615   2.778  13.975  1.00  0.00    -0.200 F 
ATOM     95  F   UNL     1      10.703   1.108  14.507  1.00  0.00    -0.200 F 
ENDBRANCH  62  85
ENDBRANCH  36  37
ENDBRANCH  28  31
ENDBRANCH  26  27
ENDBRANCH  25  26
ENDBRANCH   1  25
TORSDOF 14
