REMARK SMILES O=C(NCCCCNC(=O)[C@H](C[NH+]1CCCC1)c1ccc(Br)cc1)c1ccc(-c2c3nc(c(-c4c(F)c(F)c(F)c(F)c4F)c4ccc([nH]4)c(-c4c(F)c(F)c(F)c(F)c4F)c4nc(c(-c5c(F)c(F)c(F)c(F)c5F)c5ccc2[nH]5)C=C4)C=C3)cc1
REMARK SMILES IDX 5 1 4 2 3 3 1 4 2 5 25 7 26 8 87 9 27 10 86 11 28 12 29 13
REMARK SMILES IDX 30 14 80 15 31 16 85 17 79 18 81 19 32 20 84 21 78 22 77 23
REMARK SMILES IDX 33 25 65 26 45 27 64 28 46 29 49 30 63 31 82 32 47 33 48 34
REMARK SMILES IDX 62 36 83 37 50 38 34 39 35 40 43 41 36 42 37 43 41 44 44 45
REMARK SMILES IDX 38 46 39 47 42 48 40 49 66 50 67 51 75 52 68 53 69 54 73 55
REMARK SMILES IDX 76 56 70 57 71 58 74 59 72 60 51 61 52 62 60 63 53 64 54 65
REMARK SMILES IDX 58 66 61 67 55 68 56 69 59 70 57 71 6 72 7 73 8 74 9 75
REMARK SMILES IDX 10 77 11 78 18 79 19 80 24 81 20 82 23 83 21 84 22 85 12 86
REMARK SMILES IDX 13 87 14 88 17 89 15 91 16 92
REMARK H PARENT 3 6 81 24 49 35 8 76 13 90
REMARK Flexibility Score: inf
ROOT
ATOM      1  C   UNL     1       6.400   6.314   0.635  1.00  0.00     0.023 C 
ENDROOT
BRANCH   1   2
ATOM      2  C   UNL     1       6.856   7.741   0.389  1.00  0.00     0.116 C 
BRANCH   2   3
ATOM      3  N   UNL     1       8.276   7.845   0.082  1.00  0.00    -0.352 N 
ATOM      4  O   UNL     1      10.084   8.752  -0.950  1.00  0.00    -0.269 OA
ATOM      5  C   UNL     1       8.889   8.808  -0.682  1.00  0.00     0.251 C 
ATOM      6  H   UNL     1       8.860   7.150   0.464  1.00  0.00     0.163 HD
BRANCH   5   7
ATOM      7  C   UNL     1       8.052   9.898  -1.214  1.00  0.00     0.039 A 
ATOM      8  C   UNL     1       7.239  10.635  -0.348  1.00  0.00     0.014 A 
ATOM      9  C   UNL     1       8.022  10.122  -2.591  1.00  0.00     0.014 A 
ATOM     10  C   UNL     1       6.307  11.518  -0.872  1.00  0.00     0.010 A 
ATOM     11  C   UNL     1       7.140  11.069  -3.110  1.00  0.00     0.010 A 
ATOM     12  C   UNL     1       6.266  11.760  -2.255  1.00  0.00    -0.014 A 
BRANCH  12  13
ATOM     13  C   UNL     1       5.386  12.830  -2.775  1.00  0.00     0.031 A 
ATOM     14  C   UNL     1       4.227  12.522  -3.674  1.00  0.00     0.074 A 
ATOM     15  C   UNL     1       5.674  14.099  -2.430  1.00  0.00     0.049 A 
ATOM     16  N   UNL     1       3.404  13.353  -4.263  1.00  0.00    -0.248 NA
ATOM     17  C   UNL     1       3.956  11.105  -3.960  1.00  0.00     0.031 C 
ATOM     18  C   UNL     1       6.793  14.502  -1.572  1.00  0.00     0.029 A 
ATOM     19  N   UNL     1       5.064  15.281  -2.755  1.00  0.00    -0.354 N 
ATOM     20  C   UNL     1       2.538  12.566  -5.008  1.00  0.00     0.074 A 
ATOM     21  C   UNL     1       2.934  11.189  -4.804  1.00  0.00     0.031 C 
ATOM     22  C   UNL     1       6.780  15.833  -1.427  1.00  0.00     0.029 A 
ATOM     23  C   UNL     1       5.697  16.382  -2.233  1.00  0.00     0.049 A 
ATOM     24  H   UNL     1       4.251  15.336  -3.308  1.00  0.00     0.167 HD
ATOM     25  C   UNL     1       1.508  12.969  -5.790  1.00  0.00     0.037 A 
ATOM     26  C   UNL     1       5.461  17.692  -2.418  1.00  0.00     0.037 A 
ATOM     27  C   UNL     1       1.106  14.343  -5.953  1.00  0.00     0.049 A 
ATOM     28  C   UNL     1       4.329  18.103  -3.311  1.00  0.00     0.074 A 
ATOM     29  C   UNL     1       0.013  14.846  -6.638  1.00  0.00     0.029 A 
ATOM     30  N   UNL     1       1.788  15.433  -5.433  1.00  0.00    -0.354 N 
ATOM     31  N   UNL     1       3.478  17.347  -3.962  1.00  0.00    -0.248 NA
ATOM     32  C   UNL     1       4.132  19.544  -3.509  1.00  0.00     0.031 C 
ATOM     33  C   UNL     1       0.064  16.242  -6.577  1.00  0.00     0.029 A 
ATOM     34  C   UNL     1       1.165  16.608  -5.820  1.00  0.00     0.049 A 
ATOM     35  H   UNL     1       2.595  15.379  -4.872  1.00  0.00     0.167 HD
ATOM     36  C   UNL     1       2.646  18.218  -4.647  1.00  0.00     0.074 A 
ATOM     37  C   UNL     1       3.076  19.560  -4.310  1.00  0.00     0.031 C 
ATOM     38  C   UNL     1       1.624  17.932  -5.488  1.00  0.00     0.037 A 
BRANCH  25  39
ATOM     39  C   UNL     1       0.740  11.929  -6.550  1.00  0.00     0.064 A 
ATOM     40  C   UNL     1      -0.196  11.096  -5.921  1.00  0.00     0.173 A 
ATOM     41  C   UNL     1       0.869  11.839  -7.944  1.00  0.00     0.173 A 
ATOM     42  F   UNL     1      -0.352  11.140  -4.590  1.00  0.00    -0.203 F 
ATOM     43  C   UNL     1      -0.972  10.207  -6.662  1.00  0.00     0.198 A 
ATOM     44  C   UNL     1       0.078  10.964  -8.684  1.00  0.00     0.198 A 
ATOM     45  F   UNL     1       1.746  12.621  -8.593  1.00  0.00    -0.203 F 
ATOM     46  F   UNL     1      -1.852   9.410  -6.041  1.00  0.00    -0.200 F 
ATOM     47  C   UNL     1      -0.842  10.149  -8.043  1.00  0.00     0.200 A 
ATOM     48  F   UNL     1       0.198  10.919 -10.018  1.00  0.00    -0.200 F 
ATOM     49  F   UNL     1      -1.605   9.309  -8.755  1.00  0.00    -0.200 F 
ENDBRANCH  25  39
BRANCH  26  50
ATOM     50  C   UNL     1       6.350  18.695  -1.781  1.00  0.00     0.064 A 
ATOM     51  C   UNL     1       5.890  19.514  -0.744  1.00  0.00     0.173 A 
ATOM     52  C   UNL     1       7.687  18.836  -2.186  1.00  0.00     0.173 A 
ATOM     53  F   UNL     1       4.616  19.427  -0.336  1.00  0.00    -0.203 F 
ATOM     54  C   UNL     1       6.731  20.447  -0.141  1.00  0.00     0.198 A 
ATOM     55  C   UNL     1       8.534  19.747  -1.563  1.00  0.00     0.198 A 
ATOM     56  F   UNL     1       8.175  18.068  -3.171  1.00  0.00    -0.203 F 
ATOM     57  F   UNL     1       6.258  21.246   0.825  1.00  0.00    -0.200 F 
ATOM     58  C   UNL     1       8.054  20.558  -0.546  1.00  0.00     0.200 A 
ATOM     59  F   UNL     1       9.815  19.837  -1.945  1.00  0.00    -0.200 F 
ATOM     60  F   UNL     1       8.864  21.449   0.041  1.00  0.00    -0.200 F 
ENDBRANCH  26  50
BRANCH  38  61
ATOM     61  C   UNL     1       0.913  19.096  -6.107  1.00  0.00     0.064 A 
ATOM     62  C   UNL     1       1.502  19.837  -7.141  1.00  0.00     0.173 A 
ATOM     63  C   UNL     1      -0.373  19.457  -5.683  1.00  0.00     0.173 A 
ATOM     64  F   UNL     1       2.741  19.540  -7.564  1.00  0.00    -0.203 F 
ATOM     65  C   UNL     1       0.833  20.911  -7.719  1.00  0.00     0.198 A 
ATOM     66  C   UNL     1      -1.049  20.516  -6.280  1.00  0.00     0.198 A 
ATOM     67  F   UNL     1      -0.977  18.776  -4.697  1.00  0.00    -0.203 F 
ATOM     68  F   UNL     1       1.430  21.632  -8.678  1.00  0.00    -0.200 F 
ATOM     69  C   UNL     1      -0.444  21.245  -7.293  1.00  0.00     0.200 A 
ATOM     70  F   UNL     1      -2.286  20.834  -5.874  1.00  0.00    -0.200 F 
ATOM     71  F   UNL     1      -1.089  22.277  -7.854  1.00  0.00    -0.200 F 
ENDBRANCH  38  61
ENDBRANCH  12  13
ENDBRANCH   5   7
ENDBRANCH   2   3
ENDBRANCH   1   2
BRANCH   1  72
ATOM     72  C   UNL     1       7.006   5.710   1.897  1.00  0.00     0.023 C 
BRANCH  72  73
ATOM     73  C   UNL     1       6.408   6.252   3.199  1.00  0.00     0.116 C 
BRANCH  73  74
ATOM     74  N   UNL     1       5.219   5.512   3.545  1.00  0.00    -0.355 N 
ATOM     75  C   UNL     1       5.110   4.349   4.249  1.00  0.00     0.233 C 
ATOM     76  H   UNL     1       4.370   5.898   3.229  1.00  0.00     0.163 HD
ATOM     77  O   UNL     1       4.024   3.768   4.152  1.00  0.00    -0.274 OA
BRANCH  75  78
ATOM     78  C   UNL     1       6.254   3.839   5.169  1.00  0.00     0.163 C 
BRANCH  78  79
ATOM     79  C   UNL     1       5.633   2.886   6.218  1.00  0.00    -0.030 A 
ATOM     80  C   UNL     1       5.663   1.485   6.075  1.00  0.00     0.006 A 
ATOM     81  C   UNL     1       4.905   3.424   7.294  1.00  0.00     0.006 A 
ATOM     82  C   UNL     1       5.014   0.649   6.987  1.00  0.00     0.016 A 
ATOM     83  C   UNL     1       4.234   2.588   8.194  1.00  0.00     0.016 A 
ATOM     84  C   UNL     1       4.295   1.206   8.037  1.00  0.00     0.017 A 
ATOM     85  Br  UNL     1       3.370   0.074   9.236  1.00  0.00    -0.051 Br
ENDBRANCH  78  79
BRANCH  78  86
ATOM     86  C   UNL     1       7.400   3.134   4.386  1.00  0.00     0.280 C 
BRANCH  86  87
ATOM     87  N   UNL     1       8.488   3.951   3.811  1.00  0.00    -0.334 N 
ATOM     88  C   UNL     1       9.373   3.123   2.964  1.00  0.00     0.262 C 
ATOM     89  C   UNL     1       9.333   4.615   4.820  1.00  0.00     0.262 C 
ATOM     90  H   UNL     1       8.014   4.672   3.266  1.00  0.00     0.348 HD
ATOM     91  C   UNL     1      10.690   3.030   3.706  1.00  0.00     0.067 C 
ATOM     92  C   UNL     1      10.769   4.379   4.381  1.00  0.00     0.067 C 
ENDBRANCH  86  87
ENDBRANCH  78  86
ENDBRANCH  75  78
ENDBRANCH  73  74
ENDBRANCH  72  73
ENDBRANCH   1  72
TORSDOF 14
