REMARK SMILES C[C@@H](C(=O)NCCCCNC(=O)c1ccc(-c2c3nc(c(-c4c(F)c(F)c(F)c(F)c4F)c4ccc([nH]4)c(-c4c(F)c(F)c(F)c(F)c4F)c4nc(c(-c5c(F)c(F)c(F)c(F)c5F)c5ccc2[nH]5)C=C4)C=C3)cc1)[C@@H](N[S@](=O)C(C)(C)C)C(C)(C)C
REMARK SMILES IDX 6 1 5 2 3 3 4 4 2 6 1 7 76 8 77 9 78 11 79 12 80 13 81 14
REMARK SMILES IDX 82 15 83 16 84 17 85 18 86 19 87 20 7 21 8 22 9 23 10 24
REMARK SMILES IDX 11 25 12 27 13 28 14 29 75 30 15 31 74 32 16 33 17 34 18 35
REMARK SMILES IDX 68 36 19 37 73 38 67 39 69 40 20 41 72 42 66 43 65 44 21 46
REMARK SMILES IDX 53 47 33 48 52 49 34 50 37 51 51 52 70 53 35 54 36 55 50 57
REMARK SMILES IDX 71 58 38 59 22 60 23 61 31 62 24 63 25 64 29 65 32 66 26 67
REMARK SMILES IDX 27 68 30 69 28 70 54 71 55 72 63 73 56 74 57 75 61 76 64 77
REMARK SMILES IDX 58 78 59 79 62 80 60 81 39 82 40 83 48 84 41 85 42 86 46 87
REMARK SMILES IDX 49 88 43 89 44 90 47 91 45 92
REMARK H PARENT 5 5 77 10 10 26 69 45 37 56
REMARK Flexibility Score: inf
ROOT
ATOM      1  C   UNL     1      -5.440   5.311  -4.317  1.00  0.00     0.116 C 
ENDROOT
BRANCH   1   2
ATOM      2  N   UNL     1      -5.780   5.069  -2.926  1.00  0.00    -0.356 N 
ATOM      3  C   UNL     1      -5.781   3.893  -2.232  1.00  0.00     0.224 C 
ATOM      4  O   UNL     1      -6.494   3.813  -1.232  1.00  0.00    -0.275 OA
ATOM      5  H   UNL     1      -6.048   5.865  -2.411  1.00  0.00     0.163 HD
BRANCH   3   6
ATOM      6  C   UNL     1      -4.934   2.725  -2.728  1.00  0.00     0.094 C 
ATOM      7  C   UNL     1      -5.858   1.957  -3.696  1.00  0.00     0.020 C 
BRANCH   6   8
ATOM      8  C   UNL     1      -4.364   1.843  -1.536  1.00  0.00     0.085 C 
BRANCH   8   9
ATOM      9  N   UNL     1      -3.860   0.560  -2.128  1.00  0.00    -0.233 NA
ATOM     10  H   UNL     1      -3.198   0.831  -2.854  1.00  0.00     0.138 HD
BRANCH   9  11
ATOM     11  S   UNL     1      -3.106  -0.627  -1.247  1.00  0.00     0.097 S 
ATOM     12  O   UNL     1      -1.656  -0.759  -1.602  1.00  0.00    -0.242 OA
BRANCH  11  13
ATOM     13  C   UNL     1      -3.975  -2.137  -1.881  1.00  0.00     0.052 C 
ATOM     14  C   UNL     1      -3.562  -2.442  -3.325  1.00  0.00     0.027 C 
ATOM     15  C   UNL     1      -3.513  -3.293  -0.969  1.00  0.00     0.027 C 
ATOM     16  C   UNL     1      -5.497  -2.005  -1.758  1.00  0.00     0.027 C 
ENDBRANCH  11  13
ENDBRANCH   9  11
ENDBRANCH   8   9
BRANCH   8  17
ATOM     17  C   UNL     1      -3.286   2.614  -0.609  1.00  0.00    -0.021 C 
ATOM     18  C   UNL     1      -3.797   3.963  -0.050  1.00  0.00     0.012 C 
ATOM     19  C   UNL     1      -2.930   1.799   0.665  1.00  0.00     0.012 C 
ATOM     20  C   UNL     1      -1.990   2.918  -1.387  1.00  0.00     0.012 C 
ENDBRANCH   8  17
ENDBRANCH   6   8
ENDBRANCH   3   6
ENDBRANCH   1   2
BRANCH   1  21
ATOM     21  C   UNL     1      -6.717   5.470  -5.147  1.00  0.00     0.023 C 
BRANCH  21  22
ATOM     22  C   UNL     1      -7.540   6.721  -4.816  1.00  0.00     0.023 C 
BRANCH  22  23
ATOM     23  C   UNL     1      -6.829   8.048  -5.059  1.00  0.00     0.116 C 
BRANCH  23  24
ATOM     24  N   UNL     1      -6.421   8.216  -6.444  1.00  0.00    -0.352 N 
ATOM     25  C   UNL     1      -6.525   9.307  -7.264  1.00  0.00     0.251 C 
ATOM     26  H   UNL     1      -6.005   7.424  -6.855  1.00  0.00     0.163 HD
ATOM     27  O   UNL     1      -6.256   9.189  -8.462  1.00  0.00    -0.269 OA
BRANCH  25  28
ATOM     28  C   UNL     1      -6.981  10.615  -6.745  1.00  0.00     0.039 A 
ATOM     29  C   UNL     1      -7.833  11.383  -7.545  1.00  0.00     0.014 A 
ATOM     30  C   UNL     1      -6.559  11.108  -5.507  1.00  0.00     0.014 A 
ATOM     31  C   UNL     1      -8.299  12.614  -7.083  1.00  0.00     0.010 A 
ATOM     32  C   UNL     1      -7.083  12.304  -5.015  1.00  0.00     0.010 A 
ATOM     33  C   UNL     1      -7.956  13.072  -5.799  1.00  0.00    -0.014 A 
BRANCH  33  34
ATOM     34  C   UNL     1      -8.529  14.341  -5.280  1.00  0.00     0.031 A 
ATOM     35  C   UNL     1      -7.649  15.525  -4.989  1.00  0.00     0.074 A 
ATOM     36  C   UNL     1      -9.855  14.418  -5.057  1.00  0.00     0.049 A 
ATOM     37  N   UNL     1      -7.985  16.720  -4.570  1.00  0.00    -0.248 NA
ATOM     38  C   UNL     1      -6.201  15.339  -5.169  1.00  0.00     0.031 C 
ATOM     39  C   UNL     1     -10.805  13.317  -5.234  1.00  0.00     0.029 A 
ATOM     40  N   UNL     1     -10.636  15.465  -4.637  1.00  0.00    -0.354 N 
ATOM     41  C   UNL     1      -6.796  17.427  -4.446  1.00  0.00     0.074 A 
ATOM     42  C   UNL     1      -5.725  16.509  -4.768  1.00  0.00     0.031 C 
ATOM     43  C   UNL     1     -12.043  13.755  -4.958  1.00  0.00     0.029 A 
ATOM     44  C   UNL     1     -11.972  15.157  -4.557  1.00  0.00     0.049 A 
ATOM     45  H   UNL     1     -10.273  16.353  -4.415  1.00  0.00     0.167 HD
ATOM     46  C   UNL     1      -6.616  18.731  -4.124  1.00  0.00     0.037 A 
ATOM     47  C   UNL     1     -13.024  15.919  -4.203  1.00  0.00     0.037 A 
ATOM     48  C   UNL     1      -7.684  19.645  -3.807  1.00  0.00     0.049 A 
ATOM     49  C   UNL     1     -12.796  17.366  -3.860  1.00  0.00     0.074 A 
ATOM     50  C   UNL     1      -7.606  20.993  -3.501  1.00  0.00     0.029 A 
ATOM     51  N   UNL     1      -9.027  19.302  -3.753  1.00  0.00    -0.354 N 
ATOM     52  N   UNL     1     -11.674  18.042  -3.821  1.00  0.00    -0.248 NA
ATOM     53  C   UNL     1     -13.986  18.161  -3.529  1.00  0.00     0.031 C 
ATOM     54  C   UNL     1      -8.897  21.455  -3.220  1.00  0.00     0.029 A 
ATOM     55  C   UNL     1      -9.786  20.409  -3.404  1.00  0.00     0.049 A 
ATOM     56  H   UNL     1      -9.388  18.405  -3.936  1.00  0.00     0.167 HD
ATOM     57  C   UNL     1     -12.022  19.341  -3.479  1.00  0.00     0.074 A 
ATOM     58  C   UNL     1     -13.465  19.366  -3.357  1.00  0.00     0.031 C 
ATOM     59  C   UNL     1     -11.221  20.416  -3.277  1.00  0.00     0.037 A 
BRANCH  46  60
ATOM     60  C   UNL     1      -5.208  19.256  -4.114  1.00  0.00     0.064 A 
ATOM     61  C   UNL     1      -4.479  19.416  -5.304  1.00  0.00     0.173 A 
ATOM     62  C   UNL     1      -4.596  19.651  -2.915  1.00  0.00     0.173 A 
ATOM     63  F   UNL     1      -5.013  19.044  -6.477  1.00  0.00    -0.203 F 
ATOM     64  C   UNL     1      -3.184  19.927  -5.290  1.00  0.00     0.198 A 
ATOM     65  C   UNL     1      -3.312  20.190  -2.908  1.00  0.00     0.198 A 
ATOM     66  F   UNL     1      -5.248  19.526  -1.749  1.00  0.00    -0.203 F 
ATOM     67  F   UNL     1      -2.493  20.027  -6.434  1.00  0.00    -0.200 F 
ATOM     68  C   UNL     1      -2.605  20.322  -4.094  1.00  0.00     0.200 A 
ATOM     69  F   UNL     1      -2.758  20.584  -1.753  1.00  0.00    -0.200 F 
ATOM     70  F   UNL     1      -1.363  20.824  -4.083  1.00  0.00    -0.200 F 
ENDBRANCH  46  60
BRANCH  47  71
ATOM     71  C   UNL     1     -14.391  15.336  -4.180  1.00  0.00     0.064 A 
ATOM     72  C   UNL     1     -15.368  15.739  -5.101  1.00  0.00     0.173 A 
ATOM     73  C   UNL     1     -14.753  14.374  -3.226  1.00  0.00     0.173 A 
ATOM     74  F   UNL     1     -15.077  16.670  -6.022  1.00  0.00    -0.203 F 
ATOM     75  C   UNL     1     -16.662  15.225  -5.050  1.00  0.00     0.198 A 
ATOM     76  C   UNL     1     -16.038  13.835  -3.196  1.00  0.00     0.198 A 
ATOM     77  F   UNL     1     -13.854  13.947  -2.327  1.00  0.00    -0.203 F 
ATOM     78  F   UNL     1     -17.591  15.669  -5.907  1.00  0.00    -0.200 F 
ATOM     79  C   UNL     1     -16.994  14.270  -4.101  1.00  0.00     0.200 A 
ATOM     80  F   UNL     1     -16.349  12.900  -2.289  1.00  0.00    -0.200 F 
ATOM     81  F   UNL     1     -18.238  13.774  -4.053  1.00  0.00    -0.200 F 
ENDBRANCH  47  71
BRANCH  59  82
ATOM     82  C   UNL     1     -11.896  21.710  -2.918  1.00  0.00     0.064 A 
ATOM     83  C   UNL     1     -12.525  21.892  -1.677  1.00  0.00     0.173 A 
ATOM     84  C   UNL     1     -11.915  22.779  -3.826  1.00  0.00     0.173 A 
ATOM     85  F   UNL     1     -12.548  20.896  -0.779  1.00  0.00    -0.203 F 
ATOM     86  C   UNL     1     -13.186  23.081  -1.377  1.00  0.00     0.198 A 
ATOM     87  C   UNL     1     -12.546  23.979  -3.509  1.00  0.00     0.198 A 
ATOM     88  F   UNL     1     -11.321  22.662  -5.024  1.00  0.00    -0.203 F 
ATOM     89  F   UNL     1     -13.838  23.206  -0.213  1.00  0.00    -0.200 F 
ATOM     90  C   UNL     1     -13.192  24.124  -2.290  1.00  0.00     0.200 A 
ATOM     91  F   UNL     1     -12.539  24.991  -4.387  1.00  0.00    -0.200 F 
ATOM     92  F   UNL     1     -13.832  25.265  -2.001  1.00  0.00    -0.200 F 
ENDBRANCH  59  82
ENDBRANCH  33  34
ENDBRANCH  25  28
ENDBRANCH  23  24
ENDBRANCH  22  23
ENDBRANCH  21  22
ENDBRANCH   1  21
TORSDOF 16
