REMARK SMILES CC[C@](C)(C(=O)NCCCCNC(=O)c1ccc(-c2c3nc(c(-c4c(F)c(F)c(F)c(F)c4F)c4ccc([nH]4)c(-c4c(F)c(F)c(F)c(F)c4F)c4nc(c(-c5c(F)c(F)c(F)c(F)c5F)c5ccc2[nH]5)C=C4)C=C3)cc1)[C@H]1CCC[C@H](OC)C1
REMARK SMILES IDX 9 1 8 2 7 3 5 4 6 5 3 7 4 8 2 9 1 10 78 11 79 12 85 13 80 14
REMARK SMILES IDX 82 15 81 16 83 17 84 18 10 19 11 20 12 21 13 22 14 24 15 25
REMARK SMILES IDX 16 26 77 27 17 28 76 29 18 30 19 31 20 32 70 33 21 34 75 35
REMARK SMILES IDX 69 36 71 37 22 38 74 39 68 40 67 41 23 43 55 44 35 45 54 46
REMARK SMILES IDX 36 47 39 48 53 49 72 50 37 51 38 52 52 54 73 55 40 56 24 57
REMARK SMILES IDX 25 58 33 59 26 60 27 61 31 62 34 63 28 64 29 65 32 66 30 67
REMARK SMILES IDX 56 68 57 69 65 70 58 71 59 72 63 73 66 74 60 75 61 76 64 77
REMARK SMILES IDX 62 78 41 79 42 80 50 81 43 82 44 83 48 84 51 85 45 86 46 87
REMARK SMILES IDX 49 88 47 89
REMARK H PARENT 7 6 12 23 71 42 39 53
REMARK Flexibility Score: inf
ROOT
ATOM      1  C   UNL     1       2.792  -1.294  -4.431  1.00  0.00     0.023 C 
ENDROOT
BRANCH   1   2
ATOM      2  C   UNL     1       3.664  -1.469  -3.193  1.00  0.00     0.116 C 
BRANCH   2   3
ATOM      3  N   UNL     1       3.264  -0.564  -2.132  1.00  0.00    -0.356 N 
ATOM      4  C   UNL     1       2.880  -0.779  -0.841  1.00  0.00     0.226 C 
ATOM      5  O   UNL     1       2.391   0.202  -0.280  1.00  0.00    -0.274 OA
ATOM      6  H   UNL     1       3.270   0.386  -2.393  1.00  0.00     0.163 HD
BRANCH   4   7
ATOM      7  C   UNL     1       2.977  -2.180  -0.166  1.00  0.00     0.049 C 
ATOM      8  C   UNL     1       1.828  -3.002  -0.824  1.00  0.00     0.022 C 
BRANCH   7   9
ATOM      9  C   UNL     1       4.395  -2.785  -0.427  1.00  0.00     0.013 C 
ATOM     10  C   UNL     1       4.458  -4.259  -0.821  1.00  0.00     0.005 C 
ENDBRANCH   7   9
BRANCH   7  11
ATOM     11  C   UNL     1       2.616  -2.113   1.399  1.00  0.00     0.007 C 
ATOM     12  C   UNL     1       2.874  -3.421   2.193  1.00  0.00     0.005 C 
ATOM     13  C   UNL     1       3.146  -0.947   2.262  1.00  0.00     0.036 C 
ATOM     14  C   UNL     1       4.295  -3.608   2.742  1.00  0.00     0.003 C 
ATOM     15  C   UNL     1       4.618  -1.059   2.634  1.00  0.00     0.118 C 
ATOM     16  C   UNL     1       4.901  -2.361   3.386  1.00  0.00     0.032 C 
BRANCH  15  17
ATOM     17  O   UNL     1       5.107   0.091   3.338  1.00  0.00    -0.381 OA
ATOM     18  C   UNL     1       4.450   0.435   4.548  1.00  0.00     0.195 C 
ENDBRANCH  15  17
ENDBRANCH   7  11
ENDBRANCH   4   7
ENDBRANCH   2   3
ENDBRANCH   1   2
BRANCH   1  19
ATOM     19  C   UNL     1       2.981   0.043  -5.145  1.00  0.00     0.023 C 
BRANCH  19  20
ATOM     20  C   UNL     1       4.425   0.382  -5.495  1.00  0.00     0.116 C 
BRANCH  20  21
ATOM     21  N   UNL     1       5.066  -0.643  -6.307  1.00  0.00    -0.352 N 
ATOM     22  C   UNL     1       5.734  -0.512  -7.500  1.00  0.00     0.251 C 
ATOM     23  H   UNL     1       5.013  -1.559  -5.950  1.00  0.00     0.163 HD
ATOM     24  O   UNL     1       6.090  -1.498  -8.128  1.00  0.00    -0.269 OA
BRANCH  22  25
ATOM     25  C   UNL     1       5.987   0.842  -8.033  1.00  0.00     0.039 A 
ATOM     26  C   UNL     1       5.646   1.121  -9.357  1.00  0.00     0.014 A 
ATOM     27  C   UNL     1       6.515   1.839  -7.208  1.00  0.00     0.014 A 
ATOM     28  C   UNL     1       5.766   2.426  -9.835  1.00  0.00     0.010 A 
ATOM     29  C   UNL     1       6.557   3.152  -7.661  1.00  0.00     0.010 A 
ATOM     30  C   UNL     1       6.183   3.458  -8.979  1.00  0.00    -0.014 A 
BRANCH  30  31
ATOM     31  C   UNL     1       6.234   4.867  -9.441  1.00  0.00     0.031 A 
ATOM     32  C   UNL     1       7.549   5.592  -9.494  1.00  0.00     0.074 A 
ATOM     33  C   UNL     1       5.090   5.511  -9.743  1.00  0.00     0.049 A 
ATOM     34  N   UNL     1       7.794   6.841  -9.800  1.00  0.00    -0.248 NA
ATOM     35  C   UNL     1       8.745   4.818  -9.126  1.00  0.00     0.031 C 
ATOM     36  C   UNL     1       3.748   4.930  -9.675  1.00  0.00     0.029 A 
ATOM     37  N   UNL     1       4.873   6.802 -10.155  1.00  0.00    -0.354 N 
ATOM     38  C   UNL     1       9.164   7.004  -9.645  1.00  0.00     0.074 A 
ATOM     39  C   UNL     1       9.690   5.746  -9.164  1.00  0.00     0.031 C 
ATOM     40  C   UNL     1       2.850   5.853 -10.057  1.00  0.00     0.029 A 
ATOM     41  C   UNL     1       3.548   7.099 -10.359  1.00  0.00     0.049 A 
ATOM     42  H   UNL     1       5.598   7.453 -10.293  1.00  0.00     0.167 HD
ATOM     43  C   UNL     1       9.918   8.098  -9.906  1.00  0.00     0.037 A 
ATOM     44  C   UNL     1       2.962   8.250 -10.740  1.00  0.00     0.037 A 
ATOM     45  C   UNL     1       9.393   9.339 -10.411  1.00  0.00     0.049 A 
ATOM     46  C   UNL     1       3.824   9.451 -11.023  1.00  0.00     0.074 A 
ATOM     47  C   UNL     1      10.082  10.483 -10.772  1.00  0.00     0.029 A 
ATOM     48  N   UNL     1       8.047   9.597 -10.624  1.00  0.00    -0.354 N 
ATOM     49  N   UNL     1       5.127   9.572 -10.947  1.00  0.00    -0.248 NA
ATOM     50  C   UNL     1       3.132  10.675 -11.451  1.00  0.00     0.031 C 
ATOM     51  C   UNL     1       9.148  11.450 -11.160  1.00  0.00     0.029 A 
ATOM     52  C   UNL     1       7.882  10.891 -11.090  1.00  0.00     0.049 A 
ATOM     53  H   UNL     1       7.317   8.955 -10.468  1.00  0.00     0.167 HD
ATOM     54  C   UNL     1       5.413  10.871 -11.341  1.00  0.00     0.074 A 
ATOM     55  C   UNL     1       4.149  11.495 -11.673  1.00  0.00     0.031 C 
ATOM     56  C   UNL     1       6.616  11.493 -11.421  1.00  0.00     0.037 A 
BRANCH  43  57
ATOM     57  C   UNL     1      11.395   7.997  -9.655  1.00  0.00     0.064 A 
ATOM     58  C   UNL     1      12.223   7.194 -10.454  1.00  0.00     0.173 A 
ATOM     59  C   UNL     1      11.994   8.733  -8.622  1.00  0.00     0.173 A 
ATOM     60  F   UNL     1      11.699   6.460 -11.447  1.00  0.00    -0.203 F 
ATOM     61  C   UNL     1      13.591   7.109 -10.209  1.00  0.00     0.198 A 
ATOM     62  C   UNL     1      13.367   8.670  -8.400  1.00  0.00     0.198 A 
ATOM     63  F   UNL     1      11.248   9.520  -7.831  1.00  0.00    -0.203 F 
ATOM     64  F   UNL     1      14.354   6.296 -10.953  1.00  0.00    -0.200 F 
ATOM     65  C   UNL     1      14.163   7.853  -9.188  1.00  0.00     0.200 A 
ATOM     66  F   UNL     1      13.920   9.399  -7.421  1.00  0.00    -0.200 F 
ATOM     67  F   UNL     1      15.481   7.775  -8.958  1.00  0.00    -0.200 F 
ENDBRANCH  43  57
BRANCH  44  68
ATOM     68  C   UNL     1       1.486   8.316 -10.902  1.00  0.00     0.064 A 
ATOM     69  C   UNL     1       0.908   8.444 -12.172  1.00  0.00     0.173 A 
ATOM     70  C   UNL     1       0.626   8.257  -9.796  1.00  0.00     0.173 A 
ATOM     71  F   UNL     1       1.691   8.524 -13.258  1.00  0.00    -0.203 F 
ATOM     72  C   UNL     1      -0.474   8.532 -12.329  1.00  0.00     0.198 A 
ATOM     73  C   UNL     1      -0.757   8.317  -9.957  1.00  0.00     0.198 A 
ATOM     74  F   UNL     1       1.128   8.130  -8.559  1.00  0.00    -0.203 F 
ATOM     75  F   UNL     1      -0.997   8.701 -13.551  1.00  0.00    -0.200 F 
ATOM     76  C   UNL     1      -1.305   8.463 -11.222  1.00  0.00     0.200 A 
ATOM     77  F   UNL     1      -1.558   8.236  -8.885  1.00  0.00    -0.200 F 
ATOM     78  F   UNL     1      -2.634   8.545 -11.374  1.00  0.00    -0.200 F 
ENDBRANCH  44  68
BRANCH  56  79
ATOM     79  C   UNL     1       6.625  12.911 -11.913  1.00  0.00     0.064 A 
ATOM     80  C   UNL     1       6.143  13.967 -11.126  1.00  0.00     0.173 A 
ATOM     81  C   UNL     1       7.160  13.221 -13.173  1.00  0.00     0.173 A 
ATOM     82  F   UNL     1       5.608  13.720  -9.920  1.00  0.00    -0.203 F 
ATOM     83  C   UNL     1       6.174  15.278 -11.591  1.00  0.00     0.198 A 
ATOM     84  C   UNL     1       7.217  14.537 -13.623  1.00  0.00     0.198 A 
ATOM     85  F   UNL     1       7.639  12.248 -13.962  1.00  0.00    -0.203 F 
ATOM     86  F   UNL     1       5.665  16.265 -10.842  1.00  0.00    -0.200 F 
ATOM     87  C   UNL     1       6.718  15.563 -12.835  1.00  0.00     0.200 A 
ATOM     88  F   UNL     1       7.755  14.812 -14.819  1.00  0.00    -0.200 F 
ATOM     89  F   UNL     1       6.754  16.827 -13.279  1.00  0.00    -0.200 F 
ENDBRANCH  56  79
ENDBRANCH  30  31
ENDBRANCH  22  25
ENDBRANCH  20  21
ENDBRANCH  19  20
ENDBRANCH   1  19
TORSDOF 14
