REMARK SMILES COc1ccc(OC)c(-c2cc(C(=O)NCCCCNC(=O)c3ccc(-c4c5nc(c(-c6c(F)c(F)c(F)c(F)c6F)c6ccc([nH]6)c(-c6c(F)c(F)c(F)c(F)c6F)c6nc(c(-c7c(F)c(F)c(F)c(F)c7F)c7ccc4[nH]7)C=C6)C=C5)cc3)ccn2)c1
REMARK SMILES IDX 17 1 16 2 15 3 13 4 14 5 12 7 10 8 11 9 88 10 87 11 86 12
REMARK SMILES IDX 9 13 3 14 4 15 89 16 5 17 6 18 2 19 1 20 7 21 8 22 18 23
REMARK SMILES IDX 19 24 20 25 21 26 22 28 23 29 24 30 85 31 25 32 84 33 26 34
REMARK SMILES IDX 27 35 28 36 78 37 29 38 83 39 77 40 79 41 30 42 82 43 76 44
REMARK SMILES IDX 75 45 31 47 63 48 43 49 62 50 44 51 47 52 61 53 80 54 45 55
REMARK SMILES IDX 46 56 60 58 81 59 48 60 32 61 33 62 41 63 34 64 35 65 39 66
REMARK SMILES IDX 42 67 36 68 37 69 40 70 38 71 64 72 65 73 73 74 66 75 67 76
REMARK SMILES IDX 71 77 74 78 68 79 69 80 72 81 70 82 49 83 50 84 58 85 51 86
REMARK SMILES IDX 52 87 56 88 59 89 53 90 54 91 57 92 55 93
REMARK H PARENT 15 6 20 27 79 46 47 57
REMARK Flexibility Score: inf
ROOT
ATOM      1  C   UNL     1       5.276  -1.153   4.953  1.00  0.00     0.023 C 
ENDROOT
BRANCH   1   2
ATOM      2  C   UNL     1       6.016  -0.951   3.628  1.00  0.00     0.116 C 
BRANCH   2   3
ATOM      3  N   UNL     1       7.163  -1.836   3.544  1.00  0.00    -0.352 N 
ATOM      4  C   UNL     1       7.345  -3.047   2.922  1.00  0.00     0.251 C 
ATOM      5  O   UNL     1       8.457  -3.570   2.988  1.00  0.00    -0.269 OA
ATOM      6  H   UNL     1       7.958  -1.508   4.022  1.00  0.00     0.163 HD
BRANCH   4   7
ATOM      7  C   UNL     1       6.285  -3.713   2.123  1.00  0.00     0.043 A 
ATOM      8  C   UNL     1       4.012  -4.144   1.492  1.00  0.00     0.075 A 
ATOM      9  C   UNL     1       4.925  -3.595   2.385  1.00  0.00     0.043 A 
ATOM     10  N   UNL     1       4.394  -4.868   0.416  1.00  0.00    -0.256 NA
ATOM     11  C   UNL     1       5.718  -5.064   0.239  1.00  0.00     0.112 A 
ATOM     12  C   UNL     1       6.690  -4.504   1.047  1.00  0.00     0.034 A 
BRANCH   8  13
ATOM     13  C   UNL     1       2.584  -3.838   1.623  1.00  0.00     0.046 A 
ATOM     14  C   UNL     1       0.874  -2.093   1.307  1.00  0.00     0.119 A 
ATOM     15  C   UNL     1      -0.031  -2.871   2.017  1.00  0.00     0.050 A 
ATOM     16  C   UNL     1       2.164  -2.583   1.102  1.00  0.00     0.060 A 
ATOM     17  C   UNL     1       0.349  -4.120   2.509  1.00  0.00     0.051 A 
ATOM     18  C   UNL     1       1.649  -4.616   2.327  1.00  0.00     0.128 A 
BRANCH  14  19
ATOM     19  O   UNL     1       0.404  -0.871   0.919  1.00  0.00    -0.497 OA
ATOM     20  C   UNL     1       1.155  -0.168  -0.061  1.00  0.00     0.278 C 
ENDBRANCH  14  19
BRANCH  18  21
ATOM     21  O   UNL     1       1.830  -5.810   2.971  1.00  0.00    -0.496 OA
ATOM     22  C   UNL     1       2.883  -6.668   2.559  1.00  0.00     0.278 C 
ENDBRANCH  18  21
ENDBRANCH   8  13
ENDBRANCH   4   7
ENDBRANCH   2   3
ENDBRANCH   1   2
BRANCH   1  23
ATOM     23  C   UNL     1       5.933  -0.456   6.147  1.00  0.00     0.023 C 
BRANCH  23  24
ATOM     24  C   UNL     1       5.951   1.066   6.063  1.00  0.00     0.116 C 
BRANCH  24  25
ATOM     25  N   UNL     1       4.625   1.653   5.963  1.00  0.00    -0.352 N 
ATOM     26  C   UNL     1       4.206   2.893   6.386  1.00  0.00     0.251 C 
ATOM     27  H   UNL     1       3.938   1.090   5.537  1.00  0.00     0.163 HD
ATOM     28  O   UNL     1       3.030   3.209   6.322  1.00  0.00    -0.269 OA
BRANCH  26  29
ATOM     29  C   UNL     1       5.197   3.827   6.961  1.00  0.00     0.039 A 
ATOM     30  C   UNL     1       4.907   4.439   8.183  1.00  0.00     0.014 A 
ATOM     31  C   UNL     1       6.408   4.079   6.312  1.00  0.00     0.014 A 
ATOM     32  C   UNL     1       5.859   5.264   8.783  1.00  0.00     0.010 A 
ATOM     33  C   UNL     1       7.382   4.846   6.943  1.00  0.00     0.010 A 
ATOM     34  C   UNL     1       7.114   5.451   8.181  1.00  0.00    -0.014 A 
BRANCH  34  35
ATOM     35  C   UNL     1       8.153   6.297   8.818  1.00  0.00     0.031 A 
ATOM     36  C   UNL     1       8.597   7.566   8.147  1.00  0.00     0.074 A 
ATOM     37  C   UNL     1       8.735   5.893   9.963  1.00  0.00     0.049 A 
ATOM     38  N   UNL     1       9.544   8.399   8.495  1.00  0.00    -0.248 NA
ATOM     39  C   UNL     1       7.903   7.932   6.902  1.00  0.00     0.031 C 
ATOM     40  C   UNL     1       8.424   4.656  10.681  1.00  0.00     0.029 A 
ATOM     41  N   UNL     1       9.722   6.476  10.717  1.00  0.00    -0.354 N 
ATOM     42  C   UNL     1       9.565   9.377   7.509  1.00  0.00     0.074 A 
ATOM     43  C   UNL     1       8.579   9.004   6.519  1.00  0.00     0.031 C 
ATOM     44  C   UNL     1       9.196   4.579  11.777  1.00  0.00     0.029 A 
ATOM     45  C   UNL     1      10.075   5.743  11.823  1.00  0.00     0.049 A 
ATOM     46  H   UNL     1      10.138   7.338  10.487  1.00  0.00     0.167 HD
ATOM     47  C   UNL     1      10.319  10.501   7.450  1.00  0.00     0.037 A 
ATOM     48  C   UNL     1      11.008   5.983  12.764  1.00  0.00     0.037 A 
ATOM     49  C   UNL     1      11.283  10.881   8.449  1.00  0.00     0.049 A 
ATOM     50  C   UNL     1      11.820   7.248  12.684  1.00  0.00     0.074 A 
ATOM     51  C   UNL     1      12.079  12.012   8.496  1.00  0.00     0.029 A 
ATOM     52  N   UNL     1      11.574  10.138   9.583  1.00  0.00    -0.354 N 
ATOM     53  N   UNL     1      11.796   8.191  11.774  1.00  0.00    -0.248 NA
ATOM     54  C   UNL     1      12.779   7.490  13.772  1.00  0.00     0.031 C 
ATOM     55  C   UNL     1      12.873  11.940   9.645  1.00  0.00     0.029 A 
ATOM     56  C   UNL     1      12.540  10.786  10.336  1.00  0.00     0.049 A 
ATOM     57  H   UNL     1      11.157   9.278   9.819  1.00  0.00     0.167 HD
ATOM     58  C   UNL     1      12.708   9.150  12.193  1.00  0.00     0.074 A 
ATOM     59  C   UNL     1      13.260   8.681  13.447  1.00  0.00     0.031 C 
ATOM     60  C   UNL     1      13.059  10.313  11.593  1.00  0.00     0.037 A 
BRANCH  47  61
ATOM     61  C   UNL     1      10.115  11.409   6.273  1.00  0.00     0.064 A 
ATOM     62  C   UNL     1       8.939  12.160   6.124  1.00  0.00     0.173 A 
ATOM     63  C   UNL     1      11.115  11.556   5.300  1.00  0.00     0.173 A 
ATOM     64  F   UNL     1       7.947  12.044   7.019  1.00  0.00    -0.203 F 
ATOM     65  C   UNL     1       8.761  13.004   5.031  1.00  0.00     0.198 A 
ATOM     66  C   UNL     1      10.945  12.424   4.224  1.00  0.00     0.198 A 
ATOM     67  F   UNL     1      12.260  10.864   5.396  1.00  0.00    -0.203 F 
ATOM     68  F   UNL     1       7.609  13.673   4.886  1.00  0.00    -0.200 F 
ATOM     69  C   UNL     1       9.766  13.141   4.087  1.00  0.00     0.200 A 
ATOM     70  F   UNL     1      11.922  12.564   3.318  1.00  0.00    -0.200 F 
ATOM     71  F   UNL     1       9.596  13.959   3.039  1.00  0.00    -0.200 F 
ENDBRANCH  47  61
BRANCH  48  72
ATOM     72  C   UNL     1      11.208   5.019  13.877  1.00  0.00     0.064 A 
ATOM     73  C   UNL     1      10.840   5.347  15.190  1.00  0.00     0.173 A 
ATOM     74  C   UNL     1      11.782   3.759  13.656  1.00  0.00     0.173 A 
ATOM     75  F   UNL     1      10.305   6.548  15.455  1.00  0.00    -0.203 F 
ATOM     76  C   UNL     1      11.065   4.463  16.243  1.00  0.00     0.198 A 
ATOM     77  C   UNL     1      11.980   2.864  14.705  1.00  0.00     0.198 A 
ATOM     78  F   UNL     1      12.144   3.394  12.417  1.00  0.00    -0.203 F 
ATOM     79  F   UNL     1      10.752   4.822  17.495  1.00  0.00    -0.200 F 
ATOM     80  C   UNL     1      11.631   3.220  15.999  1.00  0.00     0.200 A 
ATOM     81  F   UNL     1      12.514   1.659  14.464  1.00  0.00    -0.200 F 
ATOM     82  F   UNL     1      11.848   2.370  17.012  1.00  0.00    -0.200 F 
ENDBRANCH  48  72
BRANCH  60  83
ATOM     83  C   UNL     1      14.048  11.185  12.309  1.00  0.00     0.064 A 
ATOM     84  C   UNL     1      15.406  10.847  12.392  1.00  0.00     0.173 A 
ATOM     85  C   UNL     1      13.634  12.397  12.885  1.00  0.00     0.173 A 
ATOM     86  F   UNL     1      15.847   9.693  11.869  1.00  0.00    -0.203 F 
ATOM     87  C   UNL     1      16.310  11.678  13.048  1.00  0.00     0.198 A 
ATOM     88  C   UNL     1      14.546  13.238  13.515  1.00  0.00     0.198 A 
ATOM     89  F   UNL     1      12.347  12.769  12.826  1.00  0.00    -0.203 F 
ATOM     90  F   UNL     1      17.596  11.313  13.156  1.00  0.00    -0.200 F 
ATOM     91  C   UNL     1      15.881  12.875  13.603  1.00  0.00     0.200 A 
ATOM     92  F   UNL     1      14.132  14.400  14.039  1.00  0.00    -0.200 F 
ATOM     93  F   UNL     1      16.755  13.676  14.228  1.00  0.00    -0.200 F 
ENDBRANCH  60  83
ENDBRANCH  34  35
ENDBRANCH  26  29
ENDBRANCH  24  25
ENDBRANCH  23  24
ENDBRANCH   1  23
TORSDOF 14
