REMARK SMILES O=C(NCCCCNC(=O)[C@@H]1CN(C(=O)C2CCCC2)C[C@H]1c1ccccc1)c1ccc(-c2c3nc(c(-c4c(F)c(F)c(F)c(F)c4F)c4ccc([nH]4)c(-c4c(F)c(F)c(F)c(F)c4F)c4nc(c(-c5c(F)c(F)c(F)c(F)c5F)c5ccc2[nH]5)C=C4)C=C3)cc1
REMARK SMILES IDX 5 1 4 2 3 3 1 4 2 5 29 7 30 8 91 9 31 10 90 11 32 12 33 13
REMARK SMILES IDX 34 14 84 15 35 16 89 17 83 18 85 19 36 20 88 21 82 22 81 23
REMARK SMILES IDX 37 25 69 26 49 27 68 28 50 29 53 30 67 31 86 32 51 33 52 34
REMARK SMILES IDX 66 36 87 37 54 38 38 39 39 40 47 41 40 42 41 43 45 44 48 45
REMARK SMILES IDX 42 46 43 47 46 48 44 49 70 50 71 51 79 52 72 53 73 54 77 55
REMARK SMILES IDX 80 56 74 57 75 58 78 59 76 60 55 61 56 62 64 63 57 64 58 65
REMARK SMILES IDX 62 66 65 67 59 68 60 69 63 70 61 71 6 72 7 73 8 74 9 75
REMARK SMILES IDX 10 77 11 78 12 79 22 80 13 81 21 82 23 83 24 84 28 85 25 86
REMARK SMILES IDX 27 87 26 88 14 89 15 90 16 91 17 92 20 93 18 94 19 95
REMARK H PARENT 3 6 85 24 53 35 8 76
REMARK Flexibility Score: inf
ROOT
ATOM      1  C   UNL     1       4.848  -2.716  -0.302  1.00  0.00     0.023 C 
ENDROOT
BRANCH   1   2
ATOM      2  C   UNL     1       4.596  -1.219  -0.448  1.00  0.00     0.116 C 
BRANCH   2   3
ATOM      3  N   UNL     1       3.191  -0.883  -0.621  1.00  0.00    -0.352 N 
ATOM      4  O   UNL     1       1.252   0.201  -0.204  1.00  0.00    -0.269 OA
ATOM      5  C   UNL     1       2.463   0.121  -0.025  1.00  0.00     0.251 C 
ATOM      6  H   UNL     1       2.692  -1.452  -1.251  1.00  0.00     0.163 HD
BRANCH   5   7
ATOM      7  C   UNL     1       3.144   1.081   0.870  1.00  0.00     0.039 A 
ATOM      8  C   UNL     1       4.351   1.673   0.492  1.00  0.00     0.014 A 
ATOM      9  C   UNL     1       2.585   1.358   2.120  1.00  0.00     0.014 A 
ATOM     10  C   UNL     1       5.079   2.401   1.424  1.00  0.00     0.010 A 
ATOM     11  C   UNL     1       3.280   2.162   3.027  1.00  0.00     0.010 A 
ATOM     12  C   UNL     1       4.557   2.648   2.705  1.00  0.00    -0.014 A 
BRANCH  12  13
ATOM     13  C   UNL     1       5.369   3.421   3.681  1.00  0.00     0.031 A 
ATOM     14  C   UNL     1       5.887   2.779   4.939  1.00  0.00     0.074 A 
ATOM     15  C   UNL     1       5.685   4.699   3.397  1.00  0.00     0.049 A 
ATOM     16  N   UNL     1       6.661   3.287   5.867  1.00  0.00    -0.248 NA
ATOM     17  C   UNL     1       5.481   1.389   5.198  1.00  0.00     0.031 C 
ATOM     18  C   UNL     1       5.230   5.434   2.216  1.00  0.00     0.029 A 
ATOM     19  N   UNL     1       6.482   5.595   4.061  1.00  0.00    -0.354 N 
ATOM     20  C   UNL     1       6.811   2.294   6.826  1.00  0.00     0.074 A 
ATOM     21  C   UNL     1       6.031   1.159   6.382  1.00  0.00     0.031 C 
ATOM     22  C   UNL     1       5.800   6.647   2.208  1.00  0.00     0.029 A 
ATOM     23  C   UNL     1       6.618   6.794   3.407  1.00  0.00     0.049 A 
ATOM     24  H   UNL     1       6.915   5.398   4.923  1.00  0.00     0.167 HD
ATOM     25  C   UNL     1       7.539   2.325   7.969  1.00  0.00     0.037 A 
ATOM     26  C   UNL     1       7.323   7.892   3.736  1.00  0.00     0.037 A 
ATOM     27  C   UNL     1       8.342   3.444   8.393  1.00  0.00     0.049 A 
ATOM     28  C   UNL     1       8.132   7.892   5.001  1.00  0.00     0.074 A 
ATOM     29  C   UNL     1       9.149   3.553   9.512  1.00  0.00     0.029 A 
ATOM     30  N   UNL     1       8.440   4.648   7.712  1.00  0.00    -0.354 N 
ATOM     31  N   UNL     1       8.293   6.933   5.880  1.00  0.00    -0.248 NA
ATOM     32  C   UNL     1       8.857   9.129   5.320  1.00  0.00     0.031 C 
ATOM     33  C   UNL     1       9.706   4.837   9.529  1.00  0.00     0.029 A 
ATOM     34  C   UNL     1       9.281   5.512   8.396  1.00  0.00     0.049 A 
ATOM     35  H   UNL     1       7.980   4.859   6.867  1.00  0.00     0.167 HD
ATOM     36  C   UNL     1       9.153   7.441   6.843  1.00  0.00     0.074 A 
ATOM     37  C   UNL     1       9.493   8.787   6.431  1.00  0.00     0.031 C 
ATOM     38  C   UNL     1       9.616   6.846   7.969  1.00  0.00     0.037 A 
BRANCH  25  39
ATOM     39  C   UNL     1       7.493   1.116   8.858  1.00  0.00     0.064 A 
ATOM     40  C   UNL     1       8.144  -0.078   8.516  1.00  0.00     0.173 A 
ATOM     41  C   UNL     1       6.829   1.170  10.093  1.00  0.00     0.173 A 
ATOM     42  F   UNL     1       8.784  -0.186   7.342  1.00  0.00    -0.203 F 
ATOM     43  C   UNL     1       8.113  -1.181   9.368  1.00  0.00     0.198 A 
ATOM     44  C   UNL     1       6.821   0.075  10.953  1.00  0.00     0.198 A 
ATOM     45  F   UNL     1       6.196   2.291  10.471  1.00  0.00    -0.203 F 
ATOM     46  F   UNL     1       8.708  -2.324   9.002  1.00  0.00    -0.200 F 
ATOM     47  C   UNL     1       7.458  -1.101  10.588  1.00  0.00     0.200 A 
ATOM     48  F   UNL     1       6.197   0.158  12.136  1.00  0.00    -0.200 F 
ATOM     49  F   UNL     1       7.435  -2.160  11.408  1.00  0.00    -0.200 F 
ENDBRANCH  25  39
BRANCH  26  50
ATOM     50  C   UNL     1       7.310   9.072   2.835  1.00  0.00     0.064 A 
ATOM     51  C   UNL     1       8.450   9.430   2.103  1.00  0.00     0.173 A 
ATOM     52  C   UNL     1       6.157   9.853   2.675  1.00  0.00     0.173 A 
ATOM     53  F   UNL     1       9.582   8.722   2.237  1.00  0.00    -0.203 F 
ATOM     54  C   UNL     1       8.441  10.534   1.254  1.00  0.00     0.198 A 
ATOM     55  C   UNL     1       6.141  10.940   1.806  1.00  0.00     0.198 A 
ATOM     56  F   UNL     1       5.040   9.546   3.350  1.00  0.00    -0.203 F 
ATOM     57  F   UNL     1       9.555  10.878   0.593  1.00  0.00    -0.200 F 
ATOM     58  C   UNL     1       7.284  11.284   1.101  1.00  0.00     0.200 A 
ATOM     59  F   UNL     1       5.016  11.652   1.649  1.00  0.00    -0.200 F 
ATOM     60  F   UNL     1       7.273  12.341   0.278  1.00  0.00    -0.200 F 
ENDBRANCH  26  50
BRANCH  38  61
ATOM     61  C   UNL     1      10.569   7.637   8.814  1.00  0.00     0.064 A 
ATOM     62  C   UNL     1      10.136   8.720   9.592  1.00  0.00     0.173 A 
ATOM     63  C   UNL     1      11.929   7.295   8.858  1.00  0.00     0.173 A 
ATOM     64  F   UNL     1       8.848   9.095   9.570  1.00  0.00    -0.203 F 
ATOM     65  C   UNL     1      11.036   9.452  10.361  1.00  0.00     0.198 A 
ATOM     66  C   UNL     1      12.821   8.013   9.649  1.00  0.00     0.198 A 
ATOM     67  F   UNL     1      12.391   6.264   8.135  1.00  0.00    -0.203 F 
ATOM     68  F   UNL     1      10.610  10.515  11.058  1.00  0.00    -0.200 F 
ATOM     69  C   UNL     1      12.376   9.095  10.393  1.00  0.00     0.200 A 
ATOM     70  F   UNL     1      14.114   7.661   9.686  1.00  0.00    -0.200 F 
ATOM     71  F   UNL     1      13.242   9.801  11.134  1.00  0.00    -0.200 F 
ENDBRANCH  38  61
ENDBRANCH  12  13
ENDBRANCH   5   7
ENDBRANCH   2   3
ENDBRANCH   1   2
BRANCH   1  72
ATOM     72  C   UNL     1       4.385  -3.576  -1.480  1.00  0.00     0.023 C 
BRANCH  72  73
ATOM     73  C   UNL     1       4.901  -3.116  -2.841  1.00  0.00     0.116 C 
BRANCH  73  74
ATOM     74  N   UNL     1       6.349  -3.201  -2.919  1.00  0.00    -0.356 N 
ATOM     75  C   UNL     1       7.138  -4.034  -3.653  1.00  0.00     0.225 C 
ATOM     76  H   UNL     1       6.835  -2.557  -2.355  1.00  0.00     0.163 HD
ATOM     77  O   UNL     1       8.358  -3.892  -3.579  1.00  0.00    -0.275 OA
BRANCH  75  78
ATOM     78  C   UNL     1       6.505  -5.085  -4.532  1.00  0.00     0.107 C 
ATOM     79  C   UNL     1       7.115  -6.439  -4.198  1.00  0.00     0.133 C 
ATOM     80  C   UNL     1       6.820  -4.929  -6.039  1.00  0.00     0.053 C 
ATOM     81  N   UNL     1       6.767  -7.240  -5.351  1.00  0.00    -0.341 N 
ATOM     82  C   UNL     1       6.679  -6.391  -6.535  1.00  0.00     0.128 C 
BRANCH  80  83
ATOM     83  C   UNL     1       5.971  -3.867  -6.729  1.00  0.00    -0.042 A 
ATOM     84  C   UNL     1       5.098  -4.142  -7.793  1.00  0.00     0.004 A 
ATOM     85  C   UNL     1       6.070  -2.526  -6.311  1.00  0.00     0.004 A 
ATOM     86  C   UNL     1       4.314  -3.135  -8.367  1.00  0.00     0.000 A 
ATOM     87  C   UNL     1       5.278  -1.522  -6.875  1.00  0.00     0.000 A 
ATOM     88  C   UNL     1       4.392  -1.829  -7.899  1.00  0.00     0.000 A 
ENDBRANCH  80  83
BRANCH  81  89
ATOM     89  C   UNL     1       6.425  -8.568  -5.432  1.00  0.00     0.225 C 
ATOM     90  O   UNL     1       6.148  -9.075  -6.525  1.00  0.00    -0.275 OA
BRANCH  89  91
ATOM     91  C   UNL     1       6.312  -9.431  -4.180  1.00  0.00     0.078 C 
ATOM     92  C   UNL     1       7.570  -9.562  -3.330  1.00  0.00     0.013 C 
ATOM     93  C   UNL     1       5.191  -9.020  -3.218  1.00  0.00     0.013 C 
ATOM     94  C   UNL     1       7.034 -10.038  -1.989  1.00  0.00     0.001 C 
ATOM     95  C   UNL     1       5.726  -9.279  -1.809  1.00  0.00     0.001 C 
ENDBRANCH  89  91
ENDBRANCH  81  89
ENDBRANCH  75  78
ENDBRANCH  73  74
ENDBRANCH  72  73
ENDBRANCH   1  72
TORSDOF 14
