REMARK SMILES C[C@@H]1[C@@H](C(=O)NCCCCNC(=O)c2ccc(-c3c4nc(c(-c5c(F)c(F)c(F)c(F)c5F)c5ccc([nH]5)c(-c5c(F)c(F)c(F)c(F)c5F)c5nc(c(-c6c(F)c(F)c(F)c(F)c6F)c6ccc3[nH]6)C=C5)C=C4)cc2)CCN1C(=O)Nc1nccs1
REMARK SMILES IDX 8 1 7 2 6 3 4 4 5 5 3 7 1 8 2 9 79 10 77 11 78 12 80 13
REMARK SMILES IDX 81 14 82 15 83 17 84 18 87 19 85 20 86 21 9 22 10 23 11 24
REMARK SMILES IDX 12 25 13 27 14 28 15 29 76 30 16 31 75 32 17 33 18 34 19 35
REMARK SMILES IDX 69 36 20 37 74 38 68 39 70 40 21 41 73 42 67 43 66 44 22 46
REMARK SMILES IDX 54 47 34 48 53 49 35 50 38 51 52 52 71 53 36 54 37 55 51 57
REMARK SMILES IDX 72 58 39 59 23 60 24 61 32 62 25 63 26 64 30 65 33 66 27 67
REMARK SMILES IDX 28 68 31 69 29 70 55 71 56 72 64 73 57 74 58 75 62 76 65 77
REMARK SMILES IDX 59 78 60 79 63 80 61 81 40 82 41 83 49 84 42 85 43 86 47 87
REMARK SMILES IDX 50 88 44 89 45 90 48 91 46 92
REMARK H PARENT 6 6 82 16 11 26 70 45 38 56
REMARK Flexibility Score: inf
ROOT
ATOM      1  C   UNL     1      -2.858   4.388  -1.158  1.00  0.00     0.023 C 
ENDROOT
BRANCH   1   2
ATOM      2  C   UNL     1      -2.544   2.955  -0.749  1.00  0.00     0.116 C 
BRANCH   2   3
ATOM      3  N   UNL     1      -1.817   2.219  -1.762  1.00  0.00    -0.356 N 
ATOM      4  C   UNL     1      -0.842   1.277  -1.588  1.00  0.00     0.225 C 
ATOM      5  O   UNL     1      -0.388   0.732  -2.592  1.00  0.00    -0.275 OA
ATOM      6  H   UNL     1      -2.055   2.423  -2.696  1.00  0.00     0.163 HD
BRANCH   4   7
ATOM      7  C   UNL     1      -0.335   1.008  -0.174  1.00  0.00     0.102 C 
ATOM      8  C   UNL     1       1.715   0.246   1.061  1.00  0.00     0.032 C 
ATOM      9  C   UNL     1       0.808  -0.022  -0.151  1.00  0.00     0.096 C 
ATOM     10  N   UNL     1       0.132  -1.319  -0.018  1.00  0.00    -0.321 N 
ATOM     11  C   UNL     1      -1.382   0.354   0.730  1.00  0.00     0.037 C 
ATOM     12  C   UNL     1      -1.233  -1.129   0.443  1.00  0.00     0.122 C 
BRANCH  10  13
ATOM     13  C   UNL     1       0.465  -2.562  -0.477  1.00  0.00     0.323 C 
ATOM     14  O   UNL     1      -0.317  -3.510  -0.312  1.00  0.00    -0.248 OA
ATOM     15  N   UNL     1       1.534  -2.825  -1.250  1.00  0.00    -0.283 N 
ATOM     16  H   UNL     1       1.463  -3.671  -1.748  1.00  0.00     0.174 HD
BRANCH  15  17
ATOM     17  C   UNL     1       2.691  -2.154  -1.479  1.00  0.00     0.190 A 
ATOM     18  N   UNL     1       3.298  -1.238  -0.770  1.00  0.00    -0.228 NA
ATOM     19  S   UNL     1       3.478  -2.617  -2.926  1.00  0.00    -0.105 S 
ATOM     20  C   UNL     1       4.394  -0.766  -1.460  1.00  0.00     0.125 A 
ATOM     21  C   UNL     1       4.624  -1.362  -2.680  1.00  0.00     0.088 A 
ENDBRANCH  15  17
ENDBRANCH  10  13
ENDBRANCH   4   7
ENDBRANCH   2   3
ENDBRANCH   1   2
BRANCH   1  22
ATOM     22  C   UNL     1      -3.716   4.534  -2.412  1.00  0.00     0.023 C 
BRANCH  22  23
ATOM     23  C   UNL     1      -4.985   3.691  -2.437  1.00  0.00     0.116 C 
BRANCH  23  24
ATOM     24  N   UNL     1      -5.889   3.990  -1.336  1.00  0.00    -0.352 N 
ATOM     25  C   UNL     1      -7.187   4.446  -1.362  1.00  0.00     0.251 C 
ATOM     26  H   UNL     1      -5.515   3.845  -0.437  1.00  0.00     0.163 HD
ATOM     27  O   UNL     1      -7.743   4.782  -0.326  1.00  0.00    -0.269 OA
BRANCH  25  28
ATOM     28  C   UNL     1      -7.899   4.559  -2.653  1.00  0.00     0.039 A 
ATOM     29  C   UNL     1      -8.625   5.721  -2.925  1.00  0.00     0.014 A 
ATOM     30  C   UNL     1      -7.837   3.533  -3.598  1.00  0.00     0.014 A 
ATOM     31  C   UNL     1      -9.226   5.884  -4.175  1.00  0.00     0.010 A 
ATOM     32  C   UNL     1      -8.352   3.737  -4.874  1.00  0.00     0.010 A 
ATOM     33  C   UNL     1      -9.059   4.911  -5.175  1.00  0.00    -0.014 A 
BRANCH  33  34
ATOM     34  C   UNL     1      -9.630   5.091  -6.534  1.00  0.00     0.031 A 
ATOM     35  C   UNL     1     -10.656   4.121  -7.052  1.00  0.00     0.074 A 
ATOM     36  C   UNL     1      -9.179   6.083  -7.327  1.00  0.00     0.049 A 
ATOM     37  N   UNL     1     -11.218   4.058  -8.233  1.00  0.00    -0.248 NA
ATOM     38  C   UNL     1     -11.086   3.059  -6.128  1.00  0.00     0.031 C 
ATOM     39  C   UNL     1      -8.154   7.061  -6.960  1.00  0.00     0.029 A 
ATOM     40  N   UNL     1      -9.520   6.427  -8.612  1.00  0.00    -0.354 N 
ATOM     41  C   UNL     1     -12.049   2.946  -8.197  1.00  0.00     0.074 A 
ATOM     42  C   UNL     1     -11.870   2.326  -6.903  1.00  0.00     0.031 C 
ATOM     43  C   UNL     1      -7.969   7.910  -7.984  1.00  0.00     0.029 A 
ATOM     44  C   UNL     1      -8.829   7.512  -9.094  1.00  0.00     0.049 A 
ATOM     45  H   UNL     1     -10.196   5.941  -9.138  1.00  0.00     0.167 HD
ATOM     46  C   UNL     1     -12.907   2.498  -9.145  1.00  0.00     0.037 A 
ATOM     47  C   UNL     1      -8.880   8.113 -10.299  1.00  0.00     0.037 A 
ATOM     48  C   UNL     1     -13.097   3.130 -10.424  1.00  0.00     0.049 A 
ATOM     49  C   UNL     1      -9.829   7.587 -11.342  1.00  0.00     0.074 A 
ATOM     50  C   UNL     1     -13.977   2.786 -11.435  1.00  0.00     0.029 A 
ATOM     51  N   UNL     1     -12.390   4.238 -10.870  1.00  0.00    -0.354 N 
ATOM     52  N   UNL     1     -10.660   6.575 -11.273  1.00  0.00    -0.248 NA
ATOM     53  C   UNL     1      -9.854   8.294 -12.630  1.00  0.00     0.031 C 
ATOM     54  C   UNL     1     -13.764   3.650 -12.513  1.00  0.00     0.029 A 
ATOM     55  C   UNL     1     -12.799   4.576 -12.150  1.00  0.00     0.049 A 
ATOM     56  H   UNL     1     -11.700   4.714 -10.353  1.00  0.00     0.167 HD
ATOM     57  C   UNL     1     -11.332   6.547 -12.488  1.00  0.00     0.074 A 
ATOM     58  C   UNL     1     -10.819   7.651 -13.272  1.00  0.00     0.031 C 
ATOM     59  C   UNL     1     -12.290   5.687 -12.914  1.00  0.00     0.037 A 
BRANCH  46  60
ATOM     60  C   UNL     1     -13.703   1.263  -8.831  1.00  0.00     0.064 A 
ATOM     61  C   UNL     1     -14.698   1.258  -7.840  1.00  0.00     0.173 A 
ATOM     62  C   UNL     1     -13.485   0.074  -9.543  1.00  0.00     0.173 A 
ATOM     63  F   UNL     1     -14.941   2.365  -7.121  1.00  0.00    -0.203 F 
ATOM     64  C   UNL     1     -15.416   0.101  -7.549  1.00  0.00     0.198 A 
ATOM     65  C   UNL     1     -14.230  -1.071  -9.274  1.00  0.00     0.198 A 
ATOM     66  F   UNL     1     -12.551   0.022 -10.504  1.00  0.00    -0.203 F 
ATOM     67  F   UNL     1     -16.317   0.106  -6.556  1.00  0.00    -0.200 F 
ATOM     68  C   UNL     1     -15.187  -1.060  -8.270  1.00  0.00     0.200 A 
ATOM     69  F   UNL     1     -14.018  -2.188  -9.983  1.00  0.00    -0.200 F 
ATOM     70  F   UNL     1     -15.883  -2.171  -7.993  1.00  0.00    -0.200 F 
ENDBRANCH  46  60
BRANCH  47  71
ATOM     71  C   UNL     1      -8.027   9.300 -10.575  1.00  0.00     0.064 A 
ATOM     72  C   UNL     1      -8.596  10.570 -10.745  1.00  0.00     0.173 A 
ATOM     73  C   UNL     1      -6.633   9.191 -10.683  1.00  0.00     0.173 A 
ATOM     74  F   UNL     1      -9.926  10.723 -10.671  1.00  0.00    -0.203 F 
ATOM     75  C   UNL     1      -7.806  11.681 -11.037  1.00  0.00     0.198 A 
ATOM     76  C   UNL     1      -5.841  10.308 -10.944  1.00  0.00     0.198 A 
ATOM     77  F   UNL     1      -6.037   8.001 -10.523  1.00  0.00    -0.203 F 
ATOM     78  F   UNL     1      -8.382  12.873 -11.246  1.00  0.00    -0.200 F 
ATOM     79  C   UNL     1      -6.429  11.550 -11.130  1.00  0.00     0.200 A 
ATOM     80  F   UNL     1      -4.510  10.181 -11.016  1.00  0.00    -0.200 F 
ATOM     81  F   UNL     1      -5.670  12.619 -11.407  1.00  0.00    -0.200 F 
ENDBRANCH  47  71
BRANCH  59  82
ATOM     82  C   UNL     1     -12.889   5.936 -14.269  1.00  0.00     0.064 A 
ATOM     83  C   UNL     1     -12.165   5.731 -15.452  1.00  0.00     0.173 A 
ATOM     84  C   UNL     1     -14.226   6.351 -14.382  1.00  0.00     0.173 A 
ATOM     85  F   UNL     1     -10.880   5.349 -15.399  1.00  0.00    -0.203 F 
ATOM     86  C   UNL     1     -12.746   5.962 -16.696  1.00  0.00     0.198 A 
ATOM     87  C   UNL     1     -14.815   6.545 -15.629  1.00  0.00     0.198 A 
ATOM     88  F   UNL     1     -14.968   6.553 -13.283  1.00  0.00    -0.203 F 
ATOM     89  F   UNL     1     -12.017   5.813 -17.811  1.00  0.00    -0.200 F 
ATOM     90  C   UNL     1     -14.071   6.360 -16.784  1.00  0.00     0.200 A 
ATOM     91  F   UNL     1     -16.101   6.913 -15.711  1.00  0.00    -0.200 F 
ATOM     92  F   UNL     1     -14.631   6.573 -17.983  1.00  0.00    -0.200 F 
ENDBRANCH  59  82
ENDBRANCH  33  34
ENDBRANCH  25  28
ENDBRANCH  23  24
ENDBRANCH  22  23
ENDBRANCH   1  22
TORSDOF 13
