REMARK SMILES COc1cccc(-c2c(C(=O)NCCCCNC(=O)c3ccc(-c4c5nc(c(-c6c(F)c(F)c(F)c(F)c6F)c6ccc([nH]6)c(-c6c(F)c(F)c(F)c(F)c6F)c6nc(c(-c7c(F)c(F)c(F)c(F)c7F)c7ccc4[nH]7)C=C6)C=C5)cc3)nnn2Cc2ccc(OC(F)(F)F)cc2)c1
REMARK SMILES IDX 13 1 12 2 10 3 11 4 9 6 8 7 85 8 83 9 84 10 7 11 3 12 4 13
REMARK SMILES IDX 98 14 5 15 6 16 2 17 1 18 86 19 87 20 88 21 97 22 89 23
REMARK SMILES IDX 96 24 90 25 91 26 92 27 93 28 94 29 95 30 14 31 15 32 16 33
REMARK SMILES IDX 17 34 18 35 19 37 20 38 21 39 82 40 22 41 81 42 23 43 24 44
REMARK SMILES IDX 25 45 75 46 26 47 80 48 74 49 76 50 27 51 79 52 73 53 72 54
REMARK SMILES IDX 28 56 60 57 40 58 59 59 41 60 44 61 58 62 77 63 42 64 43 65
REMARK SMILES IDX 57 67 78 68 45 69 29 70 30 71 38 72 31 73 32 74 36 75 39 76
REMARK SMILES IDX 33 77 34 78 37 79 35 80 61 81 62 82 70 83 63 84 64 85 68 86
REMARK SMILES IDX 71 87 65 88 66 89 69 90 67 91 46 92 47 93 55 94 48 95 49 96
REMARK SMILES IDX 53 97 56 98 50 99 51 100 54 101 52 102
REMARK H PARENT 12 5 17 36 76 55 44 66
REMARK Flexibility Score: inf
ROOT
ATOM      1  C   UNL     1       1.629   1.939   5.160  1.00  0.00     0.116 C 
ENDROOT
BRANCH   1   2
ATOM      2  N   UNL     1       2.800   2.121   5.970  1.00  0.00    -0.351 N 
ATOM      3  C   UNL     1       4.067   2.561   5.643  1.00  0.00     0.274 C 
ATOM      4  O   UNL     1       4.815   2.694   6.619  1.00  0.00    -0.267 OA
ATOM      5  H   UNL     1       2.678   1.893   6.920  1.00  0.00     0.163 HD
BRANCH   3   6
ATOM      6  C   UNL     1       4.577   2.809   4.278  1.00  0.00     0.178 A 
ATOM      7  C   UNL     1       4.039   3.103   3.014  1.00  0.00     0.102 A 
ATOM      8  N   UNL     1       5.153   3.182   2.199  1.00  0.00    -0.239 N 
ATOM      9  N   UNL     1       5.956   2.734   4.134  1.00  0.00    -0.124 NA
ATOM     10  N   UNL     1       6.278   2.899   2.869  1.00  0.00    -0.066 NA
BRANCH   7  11
ATOM     11  C   UNL     1       2.692   3.256   2.467  1.00  0.00     0.006 A 
ATOM     12  C   UNL     1       0.848   2.253   1.224  1.00  0.00     0.119 A 
ATOM     13  C   UNL     1       0.030   3.308   1.631  1.00  0.00     0.046 A 
ATOM     14  C   UNL     1       2.174   2.227   1.648  1.00  0.00     0.056 A 
ATOM     15  C   UNL     1       0.533   4.338   2.432  1.00  0.00     0.005 A 
ATOM     16  C   UNL     1       1.868   4.323   2.840  1.00  0.00     0.011 A 
BRANCH  12  17
ATOM     17  O   UNL     1       0.239   1.324   0.428  1.00  0.00    -0.497 OA
ATOM     18  C   UNL     1       0.938   0.114   0.161  1.00  0.00     0.278 C 
ENDBRANCH  12  17
ENDBRANCH   7  11
BRANCH   8  19
ATOM     19  C   UNL     1       5.229   3.408   0.761  1.00  0.00     0.182 C 
BRANCH  19  20
ATOM     20  C   UNL     1       5.821   4.752   0.422  1.00  0.00    -0.026 A 
ATOM     21  C   UNL     1       5.040   5.766  -0.144  1.00  0.00     0.009 A 
ATOM     22  C   UNL     1       7.180   4.999   0.657  1.00  0.00     0.009 A 
ATOM     23  C   UNL     1       5.617   6.998  -0.466  1.00  0.00     0.047 A 
ATOM     24  C   UNL     1       7.749   6.234   0.348  1.00  0.00     0.047 A 
ATOM     25  C   UNL     1       6.972   7.242  -0.218  1.00  0.00     0.129 A 
BRANCH  25  26
ATOM     26  O   UNL     1       7.405   8.487  -0.576  1.00  0.00    -0.406 OA
BRANCH  26  27
ATOM     27  C   UNL     1       8.746   8.823  -0.258  1.00  0.00     0.573 C 
ATOM     28  F   UNL     1       8.963   8.758   1.073  1.00  0.00    -0.132 F 
ATOM     29  F   UNL     1       9.618   8.015  -0.898  1.00  0.00    -0.132 F 
ATOM     30  F   UNL     1       8.981  10.092  -0.659  1.00  0.00    -0.132 F 
ENDBRANCH  26  27
ENDBRANCH  25  26
ENDBRANCH  19  20
ENDBRANCH   8  19
ENDBRANCH   3   6
ENDBRANCH   1   2
BRANCH   1  31
ATOM     31  C   UNL     1       1.040   0.537   5.089  1.00  0.00     0.023 C 
BRANCH  31  32
ATOM     32  C   UNL     1       0.009   0.167   6.151  1.00  0.00     0.023 C 
BRANCH  32  33
ATOM     33  C   UNL     1      -1.170   1.122   6.258  1.00  0.00     0.116 C 
BRANCH  33  34
ATOM     34  N   UNL     1      -1.992   1.239   5.044  1.00  0.00    -0.352 N 
ATOM     35  C   UNL     1      -3.137   2.011   4.889  1.00  0.00     0.251 C 
ATOM     36  H   UNL     1      -1.701   0.717   4.261  1.00  0.00     0.163 HD
ATOM     37  O   UNL     1      -3.946   1.821   3.987  1.00  0.00    -0.269 OA
BRANCH  35  38
ATOM     38  C   UNL     1      -3.318   3.127   5.828  1.00  0.00     0.039 A 
ATOM     39  C   UNL     1      -4.500   3.379   6.535  1.00  0.00     0.014 A 
ATOM     40  C   UNL     1      -2.164   3.854   6.071  1.00  0.00     0.014 A 
ATOM     41  C   UNL     1      -4.473   4.335   7.552  1.00  0.00     0.010 A 
ATOM     42  C   UNL     1      -2.076   4.558   7.229  1.00  0.00     0.010 A 
ATOM     43  C   UNL     1      -3.245   4.912   7.894  1.00  0.00    -0.014 A 
BRANCH  43  44
ATOM     44  C   UNL     1      -3.063   5.873   8.973  1.00  0.00     0.031 A 
ATOM     45  C   UNL     1      -3.362   5.368  10.341  1.00  0.00     0.074 A 
ATOM     46  C   UNL     1      -2.333   6.991   8.735  1.00  0.00     0.049 A 
ATOM     47  N   UNL     1      -4.189   5.854  11.207  1.00  0.00    -0.248 NA
ATOM     48  C   UNL     1      -2.735   4.103  10.768  1.00  0.00     0.031 C 
ATOM     49  C   UNL     1      -1.702   7.418   7.472  1.00  0.00     0.029 A 
ATOM     50  N   UNL     1      -1.860   7.911   9.613  1.00  0.00    -0.354 N 
ATOM     51  C   UNL     1      -4.043   5.078  12.356  1.00  0.00     0.074 A 
ATOM     52  C   UNL     1      -3.283   3.918  11.970  1.00  0.00     0.031 C 
ATOM     53  C   UNL     1      -0.747   8.338   7.722  1.00  0.00     0.029 A 
ATOM     54  C   UNL     1      -0.827   8.704   9.120  1.00  0.00     0.049 A 
ATOM     55  H   UNL     1      -2.218   8.010  10.524  1.00  0.00     0.167 HD
ATOM     56  C   UNL     1      -4.334   5.578  13.589  1.00  0.00     0.037 A 
ATOM     57  C   UNL     1      -0.068   9.570   9.836  1.00  0.00     0.037 A 
ATOM     58  C   UNL     1      -5.137   6.770  13.494  1.00  0.00     0.049 A 
ATOM     59  C   UNL     1      -0.819   9.861  11.085  1.00  0.00     0.074 A 
ATOM     60  C   UNL     1      -6.382   7.060  12.972  1.00  0.00     0.029 A 
ATOM     61  N   UNL     1      -4.506   7.983  13.630  1.00  0.00    -0.354 N 
ATOM     62  N   UNL     1      -1.967  10.484  11.102  1.00  0.00    -0.248 NA
ATOM     63  C   UNL     1      -0.546   9.015  12.237  1.00  0.00     0.031 C 
ATOM     64  C   UNL     1      -6.230   8.335  12.349  1.00  0.00     0.029 A 
ATOM     65  C   UNL     1      -4.931   8.779  12.596  1.00  0.00     0.049 A 
ATOM     66  H   UNL     1      -3.868   8.234  14.336  1.00  0.00     0.167 HD
ATOM     67  C   UNL     1      -2.729   9.798  12.037  1.00  0.00     0.074 A 
ATOM     68  C   UNL     1      -1.780   8.939  12.745  1.00  0.00     0.031 C 
ATOM     69  C   UNL     1      -4.092   9.761  11.948  1.00  0.00     0.037 A 
BRANCH  56  70
ATOM     70  C   UNL     1      -3.589   5.217  14.851  1.00  0.00     0.064 A 
ATOM     71  C   UNL     1      -4.096   5.643  16.096  1.00  0.00     0.173 A 
ATOM     72  C   UNL     1      -2.259   4.744  14.866  1.00  0.00     0.173 A 
ATOM     73  F   UNL     1      -5.342   6.131  16.193  1.00  0.00    -0.203 F 
ATOM     74  C   UNL     1      -3.304   5.662  17.247  1.00  0.00     0.198 A 
ATOM     75  C   UNL     1      -1.491   4.712  16.028  1.00  0.00     0.198 A 
ATOM     76  F   UNL     1      -1.611   4.404  13.746  1.00  0.00    -0.203 F 
ATOM     77  F   UNL     1      -3.787   6.194  18.378  1.00  0.00    -0.200 F 
ATOM     78  C   UNL     1      -2.000   5.203  17.211  1.00  0.00     0.200 A 
ATOM     79  F   UNL     1      -0.223   4.281  15.967  1.00  0.00    -0.200 F 
ATOM     80  F   UNL     1      -1.219   5.280  18.296  1.00  0.00    -0.200 F 
ENDBRANCH  56  70
BRANCH  57  81
ATOM     81  C   UNL     1       1.381   9.845   9.676  1.00  0.00     0.064 A 
ATOM     82  C   UNL     1       1.976  10.984  10.242  1.00  0.00     0.173 A 
ATOM     83  C   UNL     1       2.262   8.856   9.192  1.00  0.00     0.173 A 
ATOM     84  F   UNL     1       1.209  11.950  10.769  1.00  0.00    -0.203 F 
ATOM     85  C   UNL     1       3.367  11.118  10.332  1.00  0.00     0.198 A 
ATOM     86  C   UNL     1       3.649   8.993   9.279  1.00  0.00     0.198 A 
ATOM     87  F   UNL     1       1.793   7.697   8.708  1.00  0.00    -0.203 F 
ATOM     88  F   UNL     1       3.898  12.196  10.927  1.00  0.00    -0.200 F 
ATOM     89  C   UNL     1       4.202  10.119   9.859  1.00  0.00     0.200 A 
ATOM     90  F   UNL     1       4.442   8.000   8.852  1.00  0.00    -0.200 F 
ATOM     91  F   UNL     1       5.531  10.221   9.998  1.00  0.00    -0.200 F 
ENDBRANCH  57  81
BRANCH  69  92
ATOM     92  C   UNL     1      -4.754  10.649  10.926  1.00  0.00     0.064 A 
ATOM     93  C   UNL     1      -4.598  10.498   9.536  1.00  0.00     0.173 A 
ATOM     94  C   UNL     1      -5.701  11.581  11.361  1.00  0.00     0.173 A 
ATOM     95  F   UNL     1      -3.796   9.558   9.031  1.00  0.00    -0.203 F 
ATOM     96  C   UNL     1      -5.322  11.272   8.630  1.00  0.00     0.198 A 
ATOM     97  C   UNL     1      -6.449  12.331  10.455  1.00  0.00     0.198 A 
ATOM     98  F   UNL     1      -5.943  11.727  12.673  1.00  0.00    -0.203 F 
ATOM     99  F   UNL     1      -5.144  11.106   7.310  1.00  0.00    -0.200 F 
ATOM    100  C   UNL     1      -6.252  12.185   9.091  1.00  0.00     0.200 A 
ATOM    101  F   UNL     1      -7.386  13.176  10.906  1.00  0.00    -0.200 F 
ATOM    102  F   UNL     1      -6.980  12.901   8.223  1.00  0.00    -0.200 F 
ENDBRANCH  69  92
ENDBRANCH  43  44
ENDBRANCH  35  38
ENDBRANCH  33  34
ENDBRANCH  32  33
ENDBRANCH  31  32
ENDBRANCH   1  31
TORSDOF 17
