REMARK SMILES CC1(C)[C@H](C(=O)NCCCCNC(=O)c2ccc(-c3c4nc(c(-c5c(F)c(F)c(F)c(F)c5F)c5ccc([nH]5)c(-c5c(F)c(F)c(F)c(F)c5F)c5nc(c(-c6c(F)c(F)c(F)c(F)c6F)c6ccc3[nH]6)C=C5)C=C4)cc2)[C@H]1C(=O)Nc1cccc2[nH]ccc12
REMARK SMILES IDX 9 1 8 2 7 3 5 4 6 5 4 7 1 8 2 9 3 10 78 11 79 12 80 13 81 14
REMARK SMILES IDX 82 16 83 17 90 18 84 19 86 20 89 21 85 22 87 23 88 24 10 26
REMARK SMILES IDX 11 27 12 28 13 29 14 31 15 32 16 33 77 34 17 35 76 36 18 37
REMARK SMILES IDX 19 38 20 39 70 40 21 41 75 42 69 43 71 44 22 45 74 46 68 47
REMARK SMILES IDX 67 48 23 50 55 51 35 52 54 53 36 54 39 55 53 56 72 57 37 58
REMARK SMILES IDX 38 59 52 61 73 62 40 63 24 64 25 65 33 66 26 67 27 68 31 69
REMARK SMILES IDX 34 70 28 71 29 72 32 73 30 74 56 75 57 76 65 77 58 78 59 79
REMARK SMILES IDX 63 80 66 81 60 82 61 83 64 84 62 85 41 86 42 87 50 88 43 89
REMARK SMILES IDX 44 90 48 91 51 92 45 93 46 94 49 95 47 96
REMARK H PARENT 7 6 81 15 87 25 12 30 71 49 39 60
REMARK Flexibility Score: inf
ROOT
ATOM      1  C   UNL     1      -0.386   3.928  -0.785  1.00  0.00     0.023 C 
ENDROOT
BRANCH   1   2
ATOM      2  C   UNL     1      -1.622   3.172  -0.304  1.00  0.00     0.116 C 
BRANCH   2   3
ATOM      3  N   UNL     1      -2.054   2.194  -1.266  1.00  0.00    -0.356 N 
ATOM      4  C   UNL     1      -1.771   0.874  -1.455  1.00  0.00     0.224 C 
ATOM      5  O   UNL     1      -2.378   0.337  -2.385  1.00  0.00    -0.275 OA
ATOM      6  H   UNL     1      -2.688   2.554  -1.928  1.00  0.00     0.163 HD
BRANCH   4   7
ATOM      7  C   UNL     1      -0.828   0.018  -0.684  1.00  0.00     0.098 C 
ATOM      8  C   UNL     1       1.617  -0.481  -0.349  1.00  0.00     0.013 C 
ATOM      9  C   UNL     1       0.444   0.347   0.112  1.00  0.00    -0.011 C 
ATOM     10  C   UNL     1       0.969   1.580   0.792  1.00  0.00     0.013 C 
ATOM     11  C   UNL     1      -0.840  -0.181   0.786  1.00  0.00     0.098 C 
BRANCH  11  12
ATOM     12  C   UNL     1      -0.848  -1.409   1.636  1.00  0.00     0.228 C 
ATOM     13  O   UNL     1      -0.726  -1.246   2.850  1.00  0.00    -0.274 OA
ATOM     14  N   UNL     1      -1.265  -2.632   1.172  1.00  0.00    -0.325 N 
ATOM     15  H   UNL     1      -1.922  -3.104   1.732  1.00  0.00     0.169 HD
BRANCH  14  16
ATOM     16  C   UNL     1      -0.872  -3.292   0.003  1.00  0.00     0.050 A 
ATOM     17  C   UNL     1      -1.873  -3.796  -0.832  1.00  0.00     0.027 A 
ATOM     18  C   UNL     1       0.477  -3.594  -0.293  1.00  0.00     0.023 A 
ATOM     19  C   UNL     1      -1.546  -4.413  -2.038  1.00  0.00     0.004 A 
ATOM     20  C   UNL     1       0.775  -4.155  -1.538  1.00  0.00     0.047 A 
ATOM     21  C   UNL     1       1.714  -3.520   0.415  1.00  0.00     0.030 A 
ATOM     22  C   UNL     1      -0.215  -4.551  -2.442  1.00  0.00     0.027 A 
ATOM     23  N   UNL     1       2.147  -4.203  -1.648  1.00  0.00    -0.361 N 
ATOM     24  C   UNL     1       2.726  -3.858  -0.456  1.00  0.00     0.083 A 
ATOM     25  H   UNL     1       2.640  -4.449  -2.464  1.00  0.00     0.166 HD
ENDBRANCH  14  16
ENDBRANCH  11  12
ENDBRANCH   4   7
ENDBRANCH   2   3
ENDBRANCH   1   2
BRANCH   1  26
ATOM     26  C   UNL     1      -0.661   5.140  -1.669  1.00  0.00     0.023 C 
BRANCH  26  27
ATOM     27  C   UNL     1      -1.533   6.216  -1.039  1.00  0.00     0.116 C 
BRANCH  27  28
ATOM     28  N   UNL     1      -1.059   6.686   0.258  1.00  0.00    -0.352 N 
ATOM     29  C   UNL     1      -1.112   7.964   0.765  1.00  0.00     0.251 C 
ATOM     30  H   UNL     1      -0.652   6.006   0.841  1.00  0.00     0.163 HD
ATOM     31  O   UNL     1      -0.614   8.239   1.851  1.00  0.00    -0.269 OA
BRANCH  29  32
ATOM     32  C   UNL     1      -1.735   9.015  -0.060  1.00  0.00     0.039 A 
ATOM     33  C   UNL     1      -0.977  10.133  -0.412  1.00  0.00     0.014 A 
ATOM     34  C   UNL     1      -3.010   8.813  -0.594  1.00  0.00     0.014 A 
ATOM     35  C   UNL     1      -1.458  11.001  -1.392  1.00  0.00     0.010 A 
ATOM     36  C   UNL     1      -3.450   9.632  -1.624  1.00  0.00     0.010 A 
ATOM     37  C   UNL     1      -2.667  10.719  -2.048  1.00  0.00    -0.014 A 
BRANCH  37  38
ATOM     38  C   UNL     1      -3.122  11.515  -3.214  1.00  0.00     0.031 A 
ATOM     39  C   UNL     1      -4.408  12.282  -3.138  1.00  0.00     0.074 A 
ATOM     40  C   UNL     1      -2.429  11.456  -4.368  1.00  0.00     0.049 A 
ATOM     41  N   UNL     1      -5.042  12.930  -4.082  1.00  0.00    -0.248 NA
ATOM     42  C   UNL     1      -5.090  12.295  -1.835  1.00  0.00     0.031 C 
ATOM     43  C   UNL     1      -1.191  10.703  -4.576  1.00  0.00     0.029 A 
ATOM     44  N   UNL     1      -2.680  12.024  -5.592  1.00  0.00    -0.354 N 
ATOM     45  C   UNL     1      -6.201  13.412  -3.491  1.00  0.00     0.074 A 
ATOM     46  C   UNL     1      -6.211  12.938  -2.124  1.00  0.00     0.031 C 
ATOM     47  C   UNL     1      -0.781  10.870  -5.844  1.00  0.00     0.029 A 
ATOM     48  C   UNL     1      -1.750  11.702  -6.551  1.00  0.00     0.049 A 
ATOM     49  H   UNL     1      -3.453  12.608  -5.767  1.00  0.00     0.167 HD
ATOM     50  C   UNL     1      -7.157  14.200  -4.035  1.00  0.00     0.037 A 
ATOM     51  C   UNL     1      -1.694  12.027  -7.856  1.00  0.00     0.037 A 
ATOM     52  C   UNL     1      -7.127  14.687  -5.388  1.00  0.00     0.049 A 
ATOM     53  C   UNL     1      -2.786  12.879  -8.444  1.00  0.00     0.074 A 
ATOM     54  C   UNL     1      -8.005  15.554  -6.013  1.00  0.00     0.029 A 
ATOM     55  N   UNL     1      -6.168  14.341  -6.329  1.00  0.00    -0.354 N 
ATOM     56  N   UNL     1      -3.839  13.394  -7.858  1.00  0.00    -0.248 NA
ATOM     57  C   UNL     1      -2.686  13.189  -9.877  1.00  0.00     0.031 C 
ATOM     58  C   UNL     1      -7.605  15.695  -7.345  1.00  0.00     0.029 A 
ATOM     59  C   UNL     1      -6.452  14.951  -7.540  1.00  0.00     0.049 A 
ATOM     60  H   UNL     1      -5.399  13.750  -6.161  1.00  0.00     0.167 HD
ATOM     61  C   UNL     1      -4.516  14.101  -8.841  1.00  0.00     0.074 A 
ATOM     62  C   UNL     1      -3.746  13.965 -10.059  1.00  0.00     0.031 C 
ATOM     63  C   UNL     1      -5.674  14.800  -8.743  1.00  0.00     0.037 A 
BRANCH  50  64
ATOM     64  C   UNL     1      -8.314  14.585  -3.162  1.00  0.00     0.064 A 
ATOM     65  C   UNL     1      -8.159  15.472  -2.085  1.00  0.00     0.173 A 
ATOM     66  C   UNL     1      -9.599  14.084  -3.420  1.00  0.00     0.173 A 
ATOM     67  F   UNL     1      -6.948  15.969  -1.790  1.00  0.00    -0.203 F 
ATOM     68  C   UNL     1      -9.240  15.817  -1.280  1.00  0.00     0.198 A 
ATOM     69  C   UNL     1     -10.684  14.456  -2.630  1.00  0.00     0.198 A 
ATOM     70  F   UNL     1      -9.803  13.237  -4.439  1.00  0.00    -0.203 F 
ATOM     71  F   UNL     1      -9.057  16.624  -0.226  1.00  0.00    -0.200 F 
ATOM     72  C   UNL     1     -10.502  15.315  -1.556  1.00  0.00     0.200 A 
ATOM     73  F   UNL     1     -11.906  13.978  -2.905  1.00  0.00    -0.200 F 
ATOM     74  F   UNL     1     -11.543  15.652  -0.783  1.00  0.00    -0.200 F 
ENDBRANCH  50  64
BRANCH  51  75
ATOM     75  C   UNL     1      -0.561  11.554  -8.693  1.00  0.00     0.064 A 
ATOM     76  C   UNL     1       0.405  12.453  -9.165  1.00  0.00     0.173 A 
ATOM     77  C   UNL     1      -0.416  10.201  -9.034  1.00  0.00     0.173 A 
ATOM     78  F   UNL     1       0.297  13.760  -8.884  1.00  0.00    -0.203 F 
ATOM     79  C   UNL     1       1.466  12.020  -9.958  1.00  0.00     0.198 A 
ATOM     80  C   UNL     1       0.659   9.765  -9.805  1.00  0.00     0.198 A 
ATOM     81  F   UNL     1      -1.312   9.300  -8.604  1.00  0.00    -0.203 F 
ATOM     82  F   UNL     1       2.353  12.906 -10.428  1.00  0.00    -0.200 F 
ATOM     83  C   UNL     1       1.596  10.675 -10.272  1.00  0.00     0.200 A 
ATOM     84  F   UNL     1       0.789   8.463 -10.095  1.00  0.00    -0.200 F 
ATOM     85  F   UNL     1       2.619  10.258 -11.029  1.00  0.00    -0.200 F 
ENDBRANCH  51  75
BRANCH  63  86
ATOM     86  C   UNL     1      -6.174  15.479  -9.983  1.00  0.00     0.064 A 
ATOM     87  C   UNL     1      -6.750  14.751 -11.033  1.00  0.00     0.173 A 
ATOM     88  C   UNL     1      -6.132  16.877 -10.095  1.00  0.00     0.173 A 
ATOM     89  F   UNL     1      -6.797  13.411 -10.979  1.00  0.00    -0.203 F 
ATOM     90  C   UNL     1      -7.255  15.397 -12.158  1.00  0.00     0.198 A 
ATOM     91  C   UNL     1      -6.663  17.521 -11.209  1.00  0.00     0.198 A 
ATOM     92  F   UNL     1      -5.595  17.619  -9.114  1.00  0.00    -0.203 F 
ATOM     93  F   UNL     1      -7.770  14.679 -13.165  1.00  0.00    -0.200 F 
ATOM     94  C   UNL     1      -7.220  16.781 -12.240  1.00  0.00     0.200 A 
ATOM     95  F   UNL     1      -6.640  18.860 -11.281  1.00  0.00    -0.200 F 
ATOM     96  F   UNL     1      -7.720  17.402 -13.318  1.00  0.00    -0.200 F 
ENDBRANCH  63  86
ENDBRANCH  37  38
ENDBRANCH  29  32
ENDBRANCH  27  28
ENDBRANCH  26  27
ENDBRANCH   1  26
TORSDOF 13
