REMARK SMILES O=C(NCCCCNC(=O)[C@H](CO)NC(=O)[C@H](Cc1ccc(O)cc1)NC(=O)c1ccc(F)cc1)c1ccc(-c2c3nc(c(-c4c(F)c(F)c(F)c(F)c4F)c4ccc([nH]4)c(-c4c(F)c(F)c(F)c(F)c4F)c4nc(c(-c5c(F)c(F)c(F)c(F)c5F)c5ccc2[nH]5)C=C4)C=C3)cc1
REMARK SMILES IDX 7 1 6 2 5 3 4 4 3 5 1 6 2 7 36 9 37 10 98 11 38 12 97 13
REMARK SMILES IDX 39 14 40 15 41 16 91 17 42 18 96 19 90 20 92 21 43 22 95 23
REMARK SMILES IDX 89 24 88 25 44 27 76 28 56 29 75 30 57 31 60 32 74 33 93 34
REMARK SMILES IDX 58 35 59 36 73 38 94 39 61 40 45 41 46 42 54 43 47 44 48 45
REMARK SMILES IDX 52 46 55 47 49 48 50 49 53 50 51 51 77 52 78 53 86 54 79 55
REMARK SMILES IDX 80 56 84 57 87 58 81 59 82 60 85 61 83 62 62 63 63 64 71 65
REMARK SMILES IDX 64 66 65 67 69 68 72 69 66 70 67 71 70 72 68 73 8 74 9 75
REMARK SMILES IDX 10 77 11 78 14 79 15 80 16 82 17 83 26 84 27 85 28 87 29 88
REMARK SMILES IDX 30 89 35 90 31 91 34 92 32 93 33 94 18 95 19 96 20 97 25 98
REMARK SMILES IDX 21 99 24 100 22 101 23 102 12 104 13 105
REMARK H PARENT 3 8 92 26 60 37 8 76 14 81 26 86 23 103 13 106
REMARK Flexibility Score: inf
ROOT
ATOM      1  C   UNL     1       6.185  -8.053  -0.130  1.00  0.00     0.116 C 
ENDROOT
BRANCH   1   2
ATOM      2  C   UNL     1       6.360  -9.008   1.042  1.00  0.00     0.023 C 
BRANCH   2   3
ATOM      3  C   UNL     1       5.993  -8.405   2.395  1.00  0.00     0.023 C 
BRANCH   3   4
ATOM      4  C   UNL     1       4.603  -7.783   2.472  1.00  0.00     0.116 C 
BRANCH   4   5
ATOM      5  N   UNL     1       3.527  -8.716   2.177  1.00  0.00    -0.352 N 
ATOM      6  O   UNL     1       1.544  -9.756   2.540  1.00  0.00    -0.269 OA
ATOM      7  C   UNL     1       2.320  -8.859   2.826  1.00  0.00     0.251 C 
ATOM      8  H   UNL     1       3.680  -9.323   1.417  1.00  0.00     0.163 HD
BRANCH   7   9
ATOM      9  C   UNL     1       2.000  -7.920   3.921  1.00  0.00     0.039 A 
ATOM     10  C   UNL     1       2.122  -6.543   3.720  1.00  0.00     0.014 A 
ATOM     11  C   UNL     1       1.653  -8.430   5.174  1.00  0.00     0.014 A 
ATOM     12  C   UNL     1       2.058  -5.686   4.811  1.00  0.00     0.010 A 
ATOM     13  C   UNL     1       1.513  -7.557   6.255  1.00  0.00     0.010 A 
ATOM     14  C   UNL     1       1.764  -6.186   6.092  1.00  0.00    -0.014 A 
BRANCH  14  15
ATOM     15  C   UNL     1       1.720  -5.250   7.242  1.00  0.00     0.031 A 
ATOM     16  C   UNL     1       2.742  -5.328   8.342  1.00  0.00     0.074 A 
ATOM     17  C   UNL     1       0.779  -4.289   7.262  1.00  0.00     0.049 A 
ATOM     18  N   UNL     1       2.876  -4.566   9.399  1.00  0.00    -0.248 NA
ATOM     19  C   UNL     1       3.742  -6.402   8.249  1.00  0.00     0.031 C 
ATOM     20  C   UNL     1      -0.262  -4.115   6.248  1.00  0.00     0.029 A 
ATOM     21  N   UNL     1       0.559  -3.266   8.148  1.00  0.00    -0.354 N 
ATOM     22  C   UNL     1       3.960  -5.074  10.102  1.00  0.00     0.074 A 
ATOM     23  C   UNL     1       4.433  -6.229   9.368  1.00  0.00     0.031 C 
ATOM     24  C   UNL     1      -0.978  -3.020   6.540  1.00  0.00     0.029 A 
ATOM     25  C   UNL     1      -0.482  -2.447   7.788  1.00  0.00     0.049 A 
ATOM     26  H   UNL     1       1.095  -3.132   8.963  1.00  0.00     0.167 HD
ATOM     27  C   UNL     1       4.514  -4.612  11.248  1.00  0.00     0.037 A 
ATOM     28  C   UNL     1      -0.985  -1.357   8.396  1.00  0.00     0.037 A 
ATOM     29  C   UNL     1       4.047  -3.455  11.968  1.00  0.00     0.049 A 
ATOM     30  C   UNL     1      -0.364  -0.875   9.673  1.00  0.00     0.074 A 
ATOM     31  C   UNL     1       4.551  -2.902  13.133  1.00  0.00     0.029 A 
ATOM     32  N   UNL     1       2.968  -2.670  11.589  1.00  0.00    -0.354 N 
ATOM     33  N   UNL     1       0.665  -1.360  10.323  1.00  0.00    -0.248 NA
ATOM     34  C   UNL     1      -0.973   0.304  10.302  1.00  0.00     0.031 C 
ATOM     35  C   UNL     1       3.753  -1.807  13.479  1.00  0.00     0.029 A 
ATOM     36  C   UNL     1       2.782  -1.646  12.504  1.00  0.00     0.049 A 
ATOM     37  H   UNL     1       2.415  -2.819  10.788  1.00  0.00     0.167 HD
ATOM     38  C   UNL     1       0.838  -0.541  11.429  1.00  0.00     0.074 A 
ATOM     39  C   UNL     1      -0.185   0.483  11.354  1.00  0.00     0.031 C 
ATOM     40  C   UNL     1       1.762  -0.632  12.416  1.00  0.00     0.037 A 
BRANCH  27  41
ATOM     41  C   UNL     1       5.686  -5.364  11.810  1.00  0.00     0.064 A 
ATOM     42  C   UNL     1       5.556  -6.102  12.996  1.00  0.00     0.173 A 
ATOM     43  C   UNL     1       6.951  -5.309  11.207  1.00  0.00     0.173 A 
ATOM     44  F   UNL     1       4.370  -6.181  13.617  1.00  0.00    -0.203 F 
ATOM     45  C   UNL     1       6.652  -6.750  13.562  1.00  0.00     0.198 A 
ATOM     46  C   UNL     1       8.039  -5.981  11.761  1.00  0.00     0.198 A 
ATOM     47  F   UNL     1       7.126  -4.628  10.064  1.00  0.00    -0.203 F 
ATOM     48  F   UNL     1       6.509  -7.428  14.710  1.00  0.00    -0.200 F 
ATOM     49  C   UNL     1       7.890  -6.693  12.941  1.00  0.00     0.200 A 
ATOM     50  F   UNL     1       9.230  -5.944  11.147  1.00  0.00    -0.200 F 
ATOM     51  F   UNL     1       8.941  -7.329  13.478  1.00  0.00    -0.200 F 
ENDBRANCH  27  41
BRANCH  28  52
ATOM     52  C   UNL     1      -2.123  -0.644   7.766  1.00  0.00     0.064 A 
ATOM     53  C   UNL     1      -3.403  -1.217   7.717  1.00  0.00     0.173 A 
ATOM     54  C   UNL     1      -1.934   0.594   7.138  1.00  0.00     0.173 A 
ATOM     55  F   UNL     1      -3.628  -2.405   8.296  1.00  0.00    -0.203 F 
ATOM     56  C   UNL     1      -4.444  -0.591   7.037  1.00  0.00     0.198 A 
ATOM     57  C   UNL     1      -2.983   1.231   6.479  1.00  0.00     0.198 A 
ATOM     58  F   UNL     1      -0.731   1.185   7.172  1.00  0.00    -0.203 F 
ATOM     59  F   UNL     1      -5.644  -1.181   6.964  1.00  0.00    -0.200 F 
ATOM     60  C   UNL     1      -4.234   0.633   6.419  1.00  0.00     0.200 A 
ATOM     61  F   UNL     1      -2.781   2.421   5.897  1.00  0.00    -0.200 F 
ATOM     62  F   UNL     1      -5.235   1.234   5.763  1.00  0.00    -0.200 F 
ENDBRANCH  28  52
BRANCH  40  63
ATOM     63  C   UNL     1       1.732   0.415  13.489  1.00  0.00     0.064 A 
ATOM     64  C   UNL     1       2.739   1.390  13.556  1.00  0.00     0.173 A 
ATOM     65  C   UNL     1       0.747   0.415  14.486  1.00  0.00     0.173 A 
ATOM     66  F   UNL     1       3.707   1.427  12.628  1.00  0.00    -0.203 F 
ATOM     67  C   UNL     1       2.766   2.321  14.590  1.00  0.00     0.198 A 
ATOM     68  C   UNL     1       0.763   1.363  15.506  1.00  0.00     0.198 A 
ATOM     69  F   UNL     1      -0.243  -0.489  14.457  1.00  0.00    -0.203 F 
ATOM     70  F   UNL     1       3.752   3.226  14.649  1.00  0.00    -0.200 F 
ATOM     71  C   UNL     1       1.777   2.309  15.562  1.00  0.00     0.200 A 
ATOM     72  F   UNL     1      -0.206   1.366  16.431  1.00  0.00    -0.200 F 
ATOM     73  F   UNL     1       1.798   3.213  16.551  1.00  0.00    -0.200 F 
ENDBRANCH  40  63
ENDBRANCH  14  15
ENDBRANCH   7   9
ENDBRANCH   4   5
ENDBRANCH   3   4
ENDBRANCH   2   3
ENDBRANCH   1   2
BRANCH   1  74
ATOM     74  N   UNL     1       7.157  -6.969  -0.123  1.00  0.00    -0.354 N 
ATOM     75  C   UNL     1       8.049  -6.631  -1.106  1.00  0.00     0.244 C 
ATOM     76  H   UNL     1       7.175  -6.410   0.687  1.00  0.00     0.163 HD
ATOM     77  O   UNL     1       8.765  -5.639  -0.956  1.00  0.00    -0.273 OA
BRANCH  75  78
ATOM     78  C   UNL     1       8.159  -7.533  -2.341  1.00  0.00     0.197 C 
BRANCH  78  79
ATOM     79  N   UNL     1       8.632  -6.768  -3.487  1.00  0.00    -0.340 N 
ATOM     80  C   UNL     1       8.235  -6.795  -4.785  1.00  0.00     0.243 C 
ATOM     81  H   UNL     1       9.354  -6.129  -3.289  1.00  0.00     0.164 HD
ATOM     82  O   UNL     1       8.790  -5.996  -5.550  1.00  0.00    -0.273 OA
BRANCH  80  83
ATOM     83  C   UNL     1       7.029  -7.624  -5.302  1.00  0.00     0.176 C 
BRANCH  83  84
ATOM     84  N   UNL     1       6.853  -8.988  -4.784  1.00  0.00    -0.340 N 
ATOM     85  C   UNL     1       6.546 -10.158  -5.419  1.00  0.00     0.251 C 
ATOM     86  H   UNL     1       6.978  -9.073  -3.811  1.00  0.00     0.164 HD
ATOM     87  O   UNL     1       6.202 -11.127  -4.747  1.00  0.00    -0.269 OA
BRANCH  85  88
ATOM     88  C   UNL     1       6.578 -10.282  -6.888  1.00  0.00     0.040 A 
ATOM     89  C   UNL     1       7.685  -9.872  -7.639  1.00  0.00     0.017 A 
ATOM     90  C   UNL     1       5.498 -10.922  -7.513  1.00  0.00     0.017 A 
ATOM     91  C   UNL     1       7.681 -10.046  -9.024  1.00  0.00     0.040 A 
ATOM     92  C   UNL     1       5.504 -11.105  -8.896  1.00  0.00     0.040 A 
ATOM     93  C   UNL     1       6.591 -10.657  -9.639  1.00  0.00     0.123 A 
ATOM     94  F   UNL     1       6.596 -10.829 -10.966  1.00  0.00    -0.207 F 
ENDBRANCH  85  88
ENDBRANCH  83  84
BRANCH  83  95
ATOM     95  C   UNL     1       5.740  -6.768  -5.266  1.00  0.00     0.070 C 
BRANCH  95  96
ATOM     96  C   UNL     1       4.948  -6.708  -3.978  1.00  0.00    -0.045 A 
ATOM     97  C   UNL     1       4.990  -5.569  -3.159  1.00  0.00     0.007 A 
ATOM     98  C   UNL     1       4.083  -7.758  -3.631  1.00  0.00     0.007 A 
ATOM     99  C   UNL     1       4.163  -5.470  -2.036  1.00  0.00     0.046 A 
ATOM    100  C   UNL     1       3.267  -7.664  -2.503  1.00  0.00     0.046 A 
ATOM    101  C   UNL     1       3.301  -6.516  -1.724  1.00  0.00     0.115 A 
BRANCH 101 102
ATOM    102  O   UNL     1       2.484  -6.458  -0.634  1.00  0.00    -0.508 OA
ATOM    103  H   UNL     1       2.484  -5.697  -0.088  1.00  0.00     0.293 HD
ENDBRANCH 101 102
ENDBRANCH  95  96
ENDBRANCH  83  95
ENDBRANCH  80  83
ENDBRANCH  78  79
BRANCH  78 104
ATOM    104  C   UNL     1       9.098  -8.704  -2.024  1.00  0.00     0.191 C 
BRANCH 104 105
ATOM    105  O   UNL     1       8.357  -9.822  -1.540  1.00  0.00    -0.394 OA
ATOM    106  H   UNL     1       7.890  -9.573  -0.727  1.00  0.00     0.210 HD
ENDBRANCH 104 105
ENDBRANCH  78 104
ENDBRANCH  75  78
ENDBRANCH   1  74
TORSDOF 20
