REMARK SMILES CCCc1cc(-n2ccc(C(=O)NCCCCNC(=O)c3ccc(-c4c5nc(c(-c6c(F)c(F)c(F)c(F)c6F)c6ccc([nH]6)c(-c6c(F)c(F)c(F)c(F)c6F)c6nc(c(-c7c(F)c(F)c(F)c(F)c7F)c7ccc4[nH]7)C=C6)C=C5)cc3)n2)nc(-c2ccc(C(F)(F)F)cc2)n1
REMARK SMILES IDX 15 1 14 2 13 3 11 4 12 5 10 7 7 8 8 9 84 10 9 11 6 12 4 13
REMARK SMILES IDX 5 14 97 15 86 16 85 17 3 18 2 19 1 20 87 21 88 22 96 23
REMARK SMILES IDX 89 24 95 25 90 26 91 27 92 28 93 29 94 30 16 31 17 32 18 33
REMARK SMILES IDX 19 34 20 36 21 37 22 38 83 39 23 40 82 41 24 42 25 43 26 44
REMARK SMILES IDX 76 45 27 46 81 47 75 48 77 49 28 50 80 51 74 52 73 53 29 55
REMARK SMILES IDX 61 56 41 57 60 58 42 59 45 60 59 61 78 62 43 63 44 64 58 66
REMARK SMILES IDX 79 67 46 68 30 69 31 70 39 71 32 72 33 73 37 74 40 75 34 76
REMARK SMILES IDX 35 77 38 78 36 79 62 80 63 81 71 82 64 83 65 84 69 85 72 86
REMARK SMILES IDX 66 87 67 88 70 89 68 90 47 91 48 92 56 93 49 94 50 95 54 96
REMARK SMILES IDX 57 97 51 98 52 99 55 100 53 101
REMARK H PARENT 13 6 18 35 77 54 45 65
REMARK Flexibility Score: inf
ROOT
ATOM      1  C   UNL     1       1.148   4.261  -5.142  1.00  0.00     0.023 C 
ENDROOT
BRANCH   1   2
ATOM      2  C   UNL     1       0.119   5.160  -4.446  1.00  0.00     0.116 C 
BRANCH   2   3
ATOM      3  N   UNL     1      -1.224   5.008  -4.987  1.00  0.00    -0.351 N 
ATOM      4  C   UNL     1      -2.392   4.559  -4.406  1.00  0.00     0.271 C 
ATOM      5  O   UNL     1      -3.379   4.454  -5.139  1.00  0.00    -0.267 OA
ATOM      6  H   UNL     1      -1.313   5.270  -5.932  1.00  0.00     0.163 HD
BRANCH   4   7
ATOM      7  C   UNL     1      -2.452   4.152  -2.991  1.00  0.00     0.150 A 
ATOM      8  N   UNL     1      -1.861   3.801  -0.961  1.00  0.00    -0.222 N 
ATOM      9  C   UNL     1      -2.990   3.035  -1.143  1.00  0.00     0.118 A 
ATOM     10  N   UNL     1      -1.625   4.598  -2.030  1.00  0.00    -0.161 NA
ATOM     11  C   UNL     1      -3.410   3.264  -2.431  1.00  0.00     0.056 A 
BRANCH   8  12
ATOM     12  C   UNL     1      -0.915   3.721   0.103  1.00  0.00     0.157 A 
ATOM     13  C   UNL     1       0.420   2.400   1.514  1.00  0.00     0.047 A 
ATOM     14  C   UNL     1      -0.679   2.486   0.680  1.00  0.00     0.073 A 
ATOM     15  N   UNL     1       1.120   3.496   1.875  1.00  0.00    -0.233 NA
ATOM     16  C   UNL     1       0.746   4.677   1.346  1.00  0.00     0.161 A 
ATOM     17  N   UNL     1      -0.214   4.829   0.423  1.00  0.00    -0.209 NA
BRANCH  13  18
ATOM     18  C   UNL     1       0.908   1.093   2.092  1.00  0.00     0.056 C 
BRANCH  18  19
ATOM     19  C   UNL     1       0.595  -0.190   1.308  1.00  0.00     0.003 C 
ATOM     20  C   UNL     1       1.224  -0.234  -0.079  1.00  0.00     0.004 C 
ENDBRANCH  18  19
ENDBRANCH  13  18
BRANCH  16  21
ATOM     21  C   UNL     1       1.305   5.892   1.945  1.00  0.00     0.019 A 
ATOM     22  C   UNL     1       2.684   6.053   2.151  1.00  0.00     0.012 A 
ATOM     23  C   UNL     1       0.450   6.920   2.384  1.00  0.00     0.012 A 
ATOM     24  C   UNL     1       3.189   7.200   2.776  1.00  0.00     0.014 A 
ATOM     25  C   UNL     1       0.948   8.057   3.025  1.00  0.00     0.014 A 
ATOM     26  C   UNL     1       2.324   8.209   3.230  1.00  0.00     0.056 A 
BRANCH  26  27
ATOM     27  C   UNL     1       2.876   9.426   3.930  1.00  0.00     0.416 C 
ATOM     28  F   UNL     1       3.595   9.106   5.042  1.00  0.00    -0.166 F 
ATOM     29  F   UNL     1       3.713  10.150   3.139  1.00  0.00    -0.166 F 
ATOM     30  F   UNL     1       1.914  10.296   4.350  1.00  0.00    -0.166 F 
ENDBRANCH  26  27
ENDBRANCH  16  21
ENDBRANCH   8  12
ENDBRANCH   4   7
ENDBRANCH   2   3
ENDBRANCH   1   2
BRANCH   1  31
ATOM     31  C   UNL     1       1.408   4.537  -6.630  1.00  0.00     0.023 C 
BRANCH  31  32
ATOM     32  C   UNL     1       1.850   5.958  -6.957  1.00  0.00     0.116 C 
BRANCH  32  33
ATOM     33  N   UNL     1       3.134   6.315  -6.363  1.00  0.00    -0.352 N 
ATOM     34  C   UNL     1       3.825   7.506  -6.488  1.00  0.00     0.251 C 
ATOM     35  H   UNL     1       3.560   5.624  -5.807  1.00  0.00     0.163 HD
ATOM     36  O   UNL     1       5.030   7.550  -6.298  1.00  0.00    -0.269 OA
BRANCH  34  37
ATOM     37  C   UNL     1       3.088   8.733  -6.856  1.00  0.00     0.039 A 
ATOM     38  C   UNL     1       3.658   9.669  -7.724  1.00  0.00     0.014 A 
ATOM     39  C   UNL     1       1.822   8.952  -6.314  1.00  0.00     0.014 A 
ATOM     40  C   UNL     1       2.908  10.781  -8.105  1.00  0.00     0.010 A 
ATOM     41  C   UNL     1       1.040   9.990  -6.771  1.00  0.00     0.010 A 
ATOM     42  C   UNL     1       1.587  10.922  -7.646  1.00  0.00    -0.014 A 
BRANCH  42  43
ATOM     43  C   UNL     1       0.710  11.931  -8.242  1.00  0.00     0.031 A 
ATOM     44  C   UNL     1       0.604  11.796  -9.722  1.00  0.00     0.074 A 
ATOM     45  C   UNL     1      -0.089  12.760  -7.532  1.00  0.00     0.049 A 
ATOM     46  N   UNL     1       1.048  12.614 -10.616  1.00  0.00    -0.248 NA
ATOM     47  C   UNL     1       0.104  10.527 -10.280  1.00  0.00     0.031 C 
ATOM     48  C   UNL     1      -0.307  12.764  -6.083  1.00  0.00     0.029 A 
ATOM     49  N   UNL     1      -0.960  13.721  -7.964  1.00  0.00    -0.354 N 
ATOM     50  C   UNL     1       0.687  12.071 -11.848  1.00  0.00     0.074 A 
ATOM     51  C   UNL     1       0.304  10.711 -11.587  1.00  0.00     0.031 C 
ATOM     52  C   UNL     1      -1.398  13.506  -5.787  1.00  0.00     0.029 A 
ATOM     53  C   UNL     1      -1.865  14.158  -6.996  1.00  0.00     0.049 A 
ATOM     54  H   UNL     1      -0.949  14.075  -8.883  1.00  0.00     0.167 HD
ATOM     55  C   UNL     1       0.459  12.891 -12.912  1.00  0.00     0.037 A 
ATOM     56  C   UNL     1      -2.932  14.979  -7.181  1.00  0.00     0.037 A 
ATOM     57  C   UNL     1       1.016  14.198 -12.652  1.00  0.00     0.049 A 
ATOM     58  C   UNL     1      -2.709  15.697  -8.455  1.00  0.00     0.074 A 
ATOM     59  C   UNL     1       2.275  14.720 -12.440  1.00  0.00     0.029 A 
ATOM     60  N   UNL     1       0.123  15.123 -12.179  1.00  0.00    -0.354 N 
ATOM     61  N   UNL     1      -1.790  16.603  -8.629  1.00  0.00    -0.248 NA
ATOM     62  C   UNL     1      -3.267  15.127  -9.670  1.00  0.00     0.031 C 
ATOM     63  C   UNL     1       2.090  15.788 -11.509  1.00  0.00     0.029 A 
ATOM     64  C   UNL     1       0.725  15.926 -11.255  1.00  0.00     0.049 A 
ATOM     65  H   UNL     1      -0.816  15.198 -12.465  1.00  0.00     0.167 HD
ATOM     66  C   UNL     1      -1.328  16.377  -9.913  1.00  0.00     0.074 A 
ATOM     67  C   UNL     1      -2.369  15.575 -10.551  1.00  0.00     0.031 C 
ATOM     68  C   UNL     1      -0.016  16.601 -10.213  1.00  0.00     0.037 A 
BRANCH  55  69
ATOM     69  C   UNL     1      -0.674  12.713 -13.917  1.00  0.00     0.064 A 
ATOM     70  C   UNL     1      -0.851  13.707 -14.908  1.00  0.00     0.173 A 
ATOM     71  C   UNL     1      -1.769  11.837 -13.754  1.00  0.00     0.173 A 
ATOM     72  F   UNL     1       0.118  14.599 -15.164  1.00  0.00    -0.203 F 
ATOM     73  C   UNL     1      -2.065  13.884 -15.580  1.00  0.00     0.198 A 
ATOM     74  C   UNL     1      -2.963  11.989 -14.461  1.00  0.00     0.198 A 
ATOM     75  F   UNL     1      -1.787  10.864 -12.840  1.00  0.00    -0.203 F 
ATOM     76  F   UNL     1      -2.226  14.934 -16.396  1.00  0.00    -0.200 F 
ATOM     77  C   UNL     1      -3.125  13.033 -15.345  1.00  0.00     0.200 A 
ATOM     78  F   UNL     1      -3.986  11.159 -14.208  1.00  0.00    -0.200 F 
ATOM     79  F   UNL     1      -4.312  13.241 -15.930  1.00  0.00    -0.200 F 
ENDBRANCH  55  69
BRANCH  56  80
ATOM     80  C   UNL     1      -4.245  15.041  -6.488  1.00  0.00     0.064 A 
ATOM     81  C   UNL     1      -5.101  16.147  -6.654  1.00  0.00     0.173 A 
ATOM     82  C   UNL     1      -4.819  13.893  -5.912  1.00  0.00     0.173 A 
ATOM     83  F   UNL     1      -4.651  17.271  -7.230  1.00  0.00    -0.203 F 
ATOM     84  C   UNL     1      -6.456  16.090  -6.309  1.00  0.00     0.198 A 
ATOM     85  C   UNL     1      -6.171  13.840  -5.562  1.00  0.00     0.198 A 
ATOM     86  F   UNL     1      -4.105  12.767  -5.772  1.00  0.00    -0.203 F 
ATOM     87  F   UNL     1      -7.255  17.139  -6.556  1.00  0.00    -0.200 F 
ATOM     88  C   UNL     1      -6.994  14.931  -5.777  1.00  0.00     0.200 A 
ATOM     89  F   UNL     1      -6.689  12.700  -5.083  1.00  0.00    -0.200 F 
ATOM     90  F   UNL     1      -8.306  14.849  -5.516  1.00  0.00    -0.200 F 
ENDBRANCH  56  80
BRANCH  68  91
ATOM     91  C   UNL     1       0.768  17.490  -9.290  1.00  0.00     0.064 A 
ATOM     92  C   UNL     1       1.041  17.214  -7.939  1.00  0.00     0.173 A 
ATOM     93  C   UNL     1       1.361  18.630  -9.850  1.00  0.00     0.173 A 
ATOM     94  F   UNL     1       0.585  16.100  -7.351  1.00  0.00    -0.203 F 
ATOM     95  C   UNL     1       1.839  18.069  -7.179  1.00  0.00     0.198 A 
ATOM     96  C   UNL     1       2.191  19.456  -9.102  1.00  0.00     0.198 A 
ATOM     97  F   UNL     1       1.167  18.920 -11.146  1.00  0.00    -0.203 F 
ATOM     98  F   UNL     1       2.070  17.801  -5.886  1.00  0.00    -0.200 F 
ATOM     99  C   UNL     1       2.420  19.183  -7.764  1.00  0.00     0.200 A 
ATOM    100  F   UNL     1       2.788  20.504  -9.687  1.00  0.00    -0.200 F 
ATOM    101  F   UNL     1       3.221  19.982  -7.045  1.00  0.00    -0.200 F 
ENDBRANCH  68  91
ENDBRANCH  42  43
ENDBRANCH  34  37
ENDBRANCH  32  33
ENDBRANCH  31  32
ENDBRANCH   1  31
TORSDOF 16
