REMARK SMILES C[C@H](C1CC1)n1c(SCC(=O)NCCCCNC(=O)c2ccc(-c3c4nc(c(-c5c(F)c(F)c(F)c(F)c5F)c5ccc([nH]5)c(-c5c(F)c(F)c(F)c(F)c5F)c5nc(c(-c6c(F)c(F)c(F)c(F)c6F)c6ccc3[nH]6)C=C5)C=C4)cc2)nc2cc(Cl)c(Cl)cc21
REMARK SMILES IDX 13 1 12 2 10 3 11 4 9 6 8 7 7 8 6 9 91 10 83 11 84 12 90 13
REMARK SMILES IDX 85 14 88 15 86 16 89 17 87 18 2 19 1 20 3 21 4 22 5 23 14 24
REMARK SMILES IDX 15 25 16 26 17 27 18 28 19 30 20 31 21 32 82 33 22 34 81 35
REMARK SMILES IDX 23 36 24 37 25 38 75 39 26 40 80 41 74 42 76 43 27 44 79 45
REMARK SMILES IDX 73 46 72 47 28 49 60 50 40 51 59 52 41 53 44 54 58 55 77 56
REMARK SMILES IDX 42 57 43 58 57 60 78 61 45 62 29 63 30 64 38 65 31 66 32 67
REMARK SMILES IDX 36 68 39 69 33 70 34 71 37 72 35 73 61 74 62 75 70 76 63 77
REMARK SMILES IDX 64 78 68 79 71 80 65 81 66 82 69 83 67 84 46 85 47 86 55 87
REMARK SMILES IDX 48 88 49 89 53 90 56 91 50 92 51 93 54 94 52 95
REMARK H PARENT 12 5 17 29 76 48 44 59
REMARK Flexibility Score: inf
ROOT
ATOM      1  C   UNL     1      -0.462  -4.955  -4.090  1.00  0.00     0.116 C 
ENDROOT
BRANCH   1   2
ATOM      2  N   UNL     1       0.525  -3.930  -3.818  1.00  0.00    -0.355 N 
ATOM      3  C   UNL     1       0.916  -3.439  -2.616  1.00  0.00     0.230 C 
ATOM      4  O   UNL     1       1.695  -2.485  -2.609  1.00  0.00    -0.274 OA
ATOM      5  H   UNL     1       0.968  -3.541  -4.606  1.00  0.00     0.163 HD
BRANCH   3   6
ATOM      6  C   UNL     1       0.461  -4.123  -1.357  1.00  0.00     0.178 C 
BRANCH   6   7
ATOM      7  S   UNL     1      -1.100  -3.594  -0.680  1.00  0.00    -0.078 SA
BRANCH   7   8
ATOM      8  C   UNL     1      -1.449  -1.907  -0.884  1.00  0.00     0.169 A 
ATOM      9  N   UNL     1      -0.694  -0.737  -0.748  1.00  0.00    -0.316 N 
ATOM     10  C   UNL     1      -1.589   0.311  -1.062  1.00  0.00     0.071 A 
ATOM     11  N   UNL     1      -2.733  -1.629  -0.997  1.00  0.00    -0.222 NA
ATOM     12  C   UNL     1      -2.847  -0.283  -1.052  1.00  0.00     0.091 A 
ATOM     13  C   UNL     1      -1.483   1.693  -1.320  1.00  0.00     0.050 A 
ATOM     14  C   UNL     1      -4.018   0.491  -1.120  1.00  0.00     0.052 A 
ATOM     15  C   UNL     1      -2.656   2.470  -1.357  1.00  0.00     0.061 A 
ATOM     16  C   UNL     1      -3.912   1.878  -1.229  1.00  0.00     0.061 A 
ATOM     17  Cl  UNL     1      -2.461   4.181  -1.543  1.00  0.00    -0.083 Cl
ATOM     18  Cl  UNL     1      -5.375   2.800  -1.219  1.00  0.00    -0.083 Cl
BRANCH   9  19
ATOM     19  C   UNL     1       0.732  -0.555  -0.340  1.00  0.00     0.090 C 
ATOM     20  C   UNL     1       1.335  -1.714   0.475  1.00  0.00     0.032 C 
BRANCH  19  21
ATOM     21  C   UNL     1       1.054   0.780   0.352  1.00  0.00     0.012 C 
ATOM     22  C   UNL     1       1.207   0.951   1.845  1.00  0.00     0.006 C 
ATOM     23  C   UNL     1       2.418   1.057   0.950  1.00  0.00     0.006 C 
ENDBRANCH  19  21
ENDBRANCH   9  19
ENDBRANCH   7   8
ENDBRANCH   6   7
ENDBRANCH   3   6
ENDBRANCH   1   2
BRANCH   1  24
ATOM     24  C   UNL     1      -1.582  -4.399  -4.954  1.00  0.00     0.023 C 
BRANCH  24  25
ATOM     25  C   UNL     1      -1.117  -3.824  -6.294  1.00  0.00     0.023 C 
BRANCH  25  26
ATOM     26  C   UNL     1      -0.089  -4.677  -7.048  1.00  0.00     0.116 C 
BRANCH  26  27
ATOM     27  N   UNL     1      -0.484  -6.057  -7.247  1.00  0.00    -0.352 N 
ATOM     28  C   UNL     1      -1.264  -6.705  -8.160  1.00  0.00     0.251 C 
ATOM     29  H   UNL     1      -0.104  -6.664  -6.571  1.00  0.00     0.163 HD
ATOM     30  O   UNL     1      -1.283  -7.938  -8.089  1.00  0.00    -0.269 OA
BRANCH  28  31
ATOM     31  C   UNL     1      -2.129  -6.031  -9.159  1.00  0.00     0.039 A 
ATOM     32  C   UNL     1      -2.168  -4.657  -9.382  1.00  0.00     0.014 A 
ATOM     33  C   UNL     1      -3.023  -6.855  -9.868  1.00  0.00     0.014 A 
ATOM     34  C   UNL     1      -3.171  -4.103 -10.155  1.00  0.00     0.010 A 
ATOM     35  C   UNL     1      -3.999  -6.309 -10.692  1.00  0.00     0.010 A 
ATOM     36  C   UNL     1      -4.108  -4.927 -10.780  1.00  0.00    -0.014 A 
BRANCH  36  37
ATOM     37  C   UNL     1      -5.126  -4.261 -11.579  1.00  0.00     0.031 A 
ATOM     38  C   UNL     1      -4.588  -3.352 -12.632  1.00  0.00     0.074 A 
ATOM     39  C   UNL     1      -6.447  -4.442 -11.404  1.00  0.00     0.049 A 
ATOM     40  N   UNL     1      -4.737  -2.070 -12.726  1.00  0.00    -0.248 NA
ATOM     41  C   UNL     1      -3.661  -3.922 -13.621  1.00  0.00     0.031 C 
ATOM     42  C   UNL     1      -7.141  -5.434 -10.582  1.00  0.00     0.029 A 
ATOM     43  N   UNL     1      -7.468  -3.779 -12.012  1.00  0.00    -0.354 N 
ATOM     44  C   UNL     1      -4.038  -1.680 -13.866  1.00  0.00     0.074 A 
ATOM     45  C   UNL     1      -3.307  -2.837 -14.311  1.00  0.00     0.031 C 
ATOM     46  C   UNL     1      -8.452  -5.450 -10.916  1.00  0.00     0.029 A 
ATOM     47  C   UNL     1      -8.709  -4.377 -11.861  1.00  0.00     0.049 A 
ATOM     48  H   UNL     1      -7.337  -2.944 -12.517  1.00  0.00     0.167 HD
ATOM     49  C   UNL     1      -4.250  -0.471 -14.455  1.00  0.00     0.037 A 
ATOM     50  C   UNL     1      -9.848  -4.038 -12.512  1.00  0.00     0.037 A 
ATOM     51  C   UNL     1      -4.855   0.459 -13.539  1.00  0.00     0.049 A 
ATOM     52  C   UNL     1      -9.686  -2.644 -12.997  1.00  0.00     0.074 A 
ATOM     53  C   UNL     1      -4.456   1.046 -12.354  1.00  0.00     0.029 A 
ATOM     54  N   UNL     1      -6.208   0.669 -13.620  1.00  0.00    -0.354 N 
ATOM     55  N   UNL     1      -9.655  -1.606 -12.208  1.00  0.00    -0.248 NA
ATOM     56  C   UNL     1      -9.108  -2.446 -14.318  1.00  0.00     0.031 C 
ATOM     57  C   UNL     1      -5.641   1.130 -11.568  1.00  0.00     0.029 A 
ATOM     58  C   UNL     1      -6.693   0.636 -12.340  1.00  0.00     0.049 A 
ATOM     59  H   UNL     1      -6.731   0.816 -14.442  1.00  0.00     0.167 HD
ATOM     60  C   UNL     1      -8.694  -0.774 -12.762  1.00  0.00     0.074 A 
ATOM     61  C   UNL     1      -8.454  -1.301 -14.103  1.00  0.00     0.031 C 
ATOM     62  C   UNL     1      -7.980   0.091 -11.987  1.00  0.00     0.037 A 
BRANCH  49  63
ATOM     63  C   UNL     1      -4.228  -0.230 -15.944  1.00  0.00     0.064 A 
ATOM     64  C   UNL     1      -4.396   1.084 -16.431  1.00  0.00     0.173 A 
ATOM     65  C   UNL     1      -4.373  -1.256 -16.901  1.00  0.00     0.173 A 
ATOM     66  F   UNL     1      -4.284   2.140 -15.610  1.00  0.00    -0.203 F 
ATOM     67  C   UNL     1      -4.782   1.339 -17.749  1.00  0.00     0.198 A 
ATOM     68  C   UNL     1      -4.709  -0.994 -18.228  1.00  0.00     0.198 A 
ATOM     69  F   UNL     1      -4.307  -2.551 -16.574  1.00  0.00    -0.203 F 
ATOM     70  F   UNL     1      -5.063   2.592 -18.129  1.00  0.00    -0.200 F 
ATOM     71  C   UNL     1      -4.951   0.298 -18.643  1.00  0.00     0.200 A 
ATOM     72  F   UNL     1      -4.881  -2.017 -19.076  1.00  0.00    -0.200 F 
ATOM     73  F   UNL     1      -5.391   0.532 -19.886  1.00  0.00    -0.200 F 
ENDBRANCH  49  63
BRANCH  50  74
ATOM     74  C   UNL     1     -10.935  -4.927 -12.979  1.00  0.00     0.064 A 
ATOM     75  C   UNL     1     -12.195  -4.418 -13.332  1.00  0.00     0.173 A 
ATOM     76  C   UNL     1     -10.672  -6.261 -13.346  1.00  0.00     0.173 A 
ATOM     77  F   UNL     1     -12.506  -3.142 -13.064  1.00  0.00    -0.203 F 
ATOM     78  C   UNL     1     -13.130  -5.194 -14.027  1.00  0.00     0.198 A 
ATOM     79  C   UNL     1     -11.607  -7.035 -14.034  1.00  0.00     0.198 A 
ATOM     80  F   UNL     1      -9.468  -6.809 -13.130  1.00  0.00    -0.203 F 
ATOM     81  F   UNL     1     -14.300  -4.656 -14.398  1.00  0.00    -0.200 F 
ATOM     82  C   UNL     1     -12.831  -6.498 -14.385  1.00  0.00     0.200 A 
ATOM     83  F   UNL     1     -11.290  -8.283 -14.409  1.00  0.00    -0.200 F 
ATOM     84  F   UNL     1     -13.703  -7.221 -15.102  1.00  0.00    -0.200 F 
ENDBRANCH  50  74
BRANCH  62  85
ATOM     85  C   UNL     1      -8.411   0.287 -10.563  1.00  0.00     0.064 A 
ATOM     86  C   UNL     1      -8.333  -0.721  -9.586  1.00  0.00     0.173 A 
ATOM     87  C   UNL     1      -8.710   1.586 -10.133  1.00  0.00     0.173 A 
ATOM     88  F   UNL     1      -7.960  -1.966  -9.909  1.00  0.00    -0.203 F 
ATOM     89  C   UNL     1      -8.562  -0.439  -8.241  1.00  0.00     0.198 A 
ATOM     90  C   UNL     1      -8.904   1.871  -8.785  1.00  0.00     0.198 A 
ATOM     91  F   UNL     1      -8.741   2.595 -11.018  1.00  0.00    -0.203 F 
ATOM     92  F   UNL     1      -8.470  -1.414  -7.324  1.00  0.00    -0.200 F 
ATOM     93  C   UNL     1      -8.834   0.859  -7.840  1.00  0.00     0.200 A 
ATOM     94  F   UNL     1      -9.116   3.136  -8.397  1.00  0.00    -0.200 F 
ATOM     95  F   UNL     1      -8.993   1.142  -6.540  1.00  0.00    -0.200 F 
ENDBRANCH  62  85
ENDBRANCH  36  37
ENDBRANCH  28  31
ENDBRANCH  26  27
ENDBRANCH  25  26
ENDBRANCH  24  25
ENDBRANCH   1  24
TORSDOF 15
