REMARK SMILES C[C@H]1C[NH+](CC[C@@H]2CCC[C@]2([NH3+])C(=O)NCCCCNC(=O)c2ccc(-c3c4nc(c(-c5c(F)c(F)c(F)c(F)c5F)c5ccc([nH]5)c(-c5c(F)c(F)c(F)c(F)c5F)c5nc(c(-c6c(F)c(F)c(F)c(F)c6F)c6ccc3[nH]6)C=C5)C=C4)cc2)C[C@H](C)O1
REMARK SMILES IDX 17 1 16 2 15 3 13 4 14 5 11 7 7 8 8 9 9 10 10 11 6 12 5 13
REMARK SMILES IDX 4 14 1 15 2 16 3 17 89 18 87 19 86 20 88 22 12 23 18 27
REMARK SMILES IDX 19 28 20 29 21 30 22 32 23 33 24 34 85 35 25 36 84 37 26 38
REMARK SMILES IDX 27 39 28 40 78 41 29 42 83 43 77 44 79 45 30 46 82 47 76 48
REMARK SMILES IDX 75 49 31 51 63 52 43 53 62 54 44 55 47 56 61 57 80 58 45 59
REMARK SMILES IDX 46 60 60 62 81 63 48 64 32 65 33 66 41 67 34 68 35 69 39 70
REMARK SMILES IDX 42 71 36 72 37 73 40 74 38 75 64 76 65 77 73 78 66 79 67 80
REMARK SMILES IDX 71 81 74 82 68 83 69 84 72 85 70 86 49 87 50 88 58 89 51 90
REMARK SMILES IDX 52 91 56 92 59 93 53 94 54 95 57 96 55 97
REMARK H PARENT 15 6 4 21 12 24 12 25 12 26 20 31 79 50 47 61
REMARK Flexibility Score: inf
ROOT
ATOM      1  C   UNL     1      -0.581  -1.488   5.092  1.00  0.00     0.023 C 
ENDROOT
BRANCH   1   2
ATOM      2  C   UNL     1       0.367  -2.608   5.520  1.00  0.00     0.116 C 
BRANCH   2   3
ATOM      3  N   UNL     1      -0.391  -3.771   5.926  1.00  0.00    -0.351 N 
ATOM      4  C   UNL     1      -0.771  -4.902   5.274  1.00  0.00     0.281 C 
ATOM      5  O   UNL     1      -1.534  -5.629   5.925  1.00  0.00    -0.268 OA
ATOM      6  H   UNL     1      -0.692  -3.737   6.863  1.00  0.00     0.163 HD
BRANCH   4   7
ATOM      7  C   UNL     1      -0.279  -5.321   3.829  1.00  0.00     0.177 C 
ATOM      8  C   UNL     1      -1.162  -4.918   2.610  1.00  0.00     0.066 C 
ATOM      9  C   UNL     1      -2.425  -5.770   2.836  1.00  0.00     0.011 C 
ATOM     10  C   UNL     1      -1.911  -7.106   3.369  1.00  0.00     0.008 C 
ATOM     11  C   UNL     1      -0.440  -6.868   3.730  1.00  0.00     0.079 C 
BRANCH   8  12
ATOM     12  C   UNL     1      -1.541  -3.472   2.275  1.00  0.00     0.072 C 
BRANCH  12  13
ATOM     13  C   UNL     1      -0.421  -2.447   2.051  1.00  0.00     0.262 C 
BRANCH  13  14
ATOM     14  N   UNL     1       0.359  -2.358   0.829  1.00  0.00    -0.331 N 
ATOM     15  C   UNL     1       0.050  -0.938  -2.688  1.00  0.00     0.045 C 
ATOM     16  C   UNL     1       0.712  -1.478  -1.429  1.00  0.00     0.170 C 
ATOM     17  C   UNL     1      -0.334  -1.807  -0.338  1.00  0.00     0.294 C 
ATOM     18  O   UNL     1       1.467  -2.646  -1.802  1.00  0.00    -0.364 OA
ATOM     19  C   UNL     1       2.113  -3.267  -0.676  1.00  0.00     0.170 C 
ATOM     20  C   UNL     1       1.109  -3.555   0.459  1.00  0.00     0.294 C 
ATOM     21  H   UNL     1       1.045  -1.661   1.119  1.00  0.00     0.348 HD
ATOM     22  C   UNL     1       3.321  -2.457  -0.202  1.00  0.00     0.045 C 
ENDBRANCH  13  14
ENDBRANCH  12  13
ENDBRANCH   8  12
BRANCH   7  23
ATOM     23  N   UNL     1       1.153  -5.014   3.669  1.00  0.00    -0.345 N 
ATOM     24  H   UNL     1       1.457  -5.288   2.735  1.00  0.00     0.345 HD
ATOM     25  H   UNL     1       1.690  -5.528   4.367  1.00  0.00     0.345 HD
ATOM     26  H   UNL     1       1.301  -4.012   3.796  1.00  0.00     0.345 HD
ENDBRANCH   7  23
ENDBRANCH   4   7
ENDBRANCH   2   3
ENDBRANCH   1   2
BRANCH   1  27
ATOM     27  C   UNL     1      -0.984  -0.533   6.205  1.00  0.00     0.023 C 
BRANCH  27  28
ATOM     28  C   UNL     1       0.115   0.454   6.561  1.00  0.00     0.116 C 
BRANCH  28  29
ATOM     29  N   UNL     1       0.465   1.367   5.476  1.00  0.00    -0.352 N 
ATOM     30  C   UNL     1       0.926   2.659   5.575  1.00  0.00     0.251 C 
ATOM     31  H   UNL     1       0.357   1.014   4.563  1.00  0.00     0.163 HD
ATOM     32  O   UNL     1       1.123   3.345   4.579  1.00  0.00    -0.269 OA
BRANCH  30  33
ATOM     33  C   UNL     1       1.117   3.225   6.923  1.00  0.00     0.039 A 
ATOM     34  C   UNL     1       0.467   4.415   7.252  1.00  0.00     0.014 A 
ATOM     35  C   UNL     1       1.823   2.503   7.887  1.00  0.00     0.014 A 
ATOM     36  C   UNL     1       0.445   4.833   8.582  1.00  0.00     0.010 A 
ATOM     37  C   UNL     1       1.715   2.867   9.220  1.00  0.00     0.010 A 
ATOM     38  C   UNL     1       1.022   4.032   9.582  1.00  0.00    -0.014 A 
BRANCH  38  39
ATOM     39  C   UNL     1       0.919   4.388  11.017  1.00  0.00     0.031 A 
ATOM     40  C   UNL     1       2.171   4.644  11.808  1.00  0.00     0.074 A 
ATOM     41  C   UNL     1      -0.283   4.383  11.626  1.00  0.00     0.049 A 
ATOM     42  N   UNL     1       2.312   4.849  13.092  1.00  0.00    -0.248 NA
ATOM     43  C   UNL     1       3.438   4.620  11.060  1.00  0.00     0.031 C 
ATOM     44  C   UNL     1      -1.561   4.076  10.980  1.00  0.00     0.029 A 
ATOM     45  N   UNL     1      -0.623   4.632  12.931  1.00  0.00    -0.354 N 
ATOM     46  C   UNL     1       3.680   4.941  13.307  1.00  0.00     0.074 A 
ATOM     47  C   UNL     1       4.329   4.715  12.034  1.00  0.00     0.031 C 
ATOM     48  C   UNL     1      -2.548   4.185  11.885  1.00  0.00     0.029 A 
ATOM     49  C   UNL     1      -1.971   4.536  13.178  1.00  0.00     0.049 A 
ATOM     50  H   UNL     1       0.037   4.857  13.626  1.00  0.00     0.167 HD
ATOM     51  C   UNL     1       4.336   5.217  14.458  1.00  0.00     0.037 A 
ATOM     52  C   UNL     1      -2.659   4.716  14.321  1.00  0.00     0.037 A 
ATOM     53  C   UNL     1       3.684   5.502  15.707  1.00  0.00     0.049 A 
ATOM     54  C   UNL     1      -1.912   5.088  15.573  1.00  0.00     0.074 A 
ATOM     55  C   UNL     1       4.250   5.871  16.913  1.00  0.00     0.029 A 
ATOM     56  N   UNL     1       2.311   5.462  15.902  1.00  0.00    -0.354 N 
ATOM     57  N   UNL     1      -0.622   5.237  15.751  1.00  0.00    -0.248 NA
ATOM     58  C   UNL     1      -2.716   5.324  16.779  1.00  0.00     0.031 C 
ATOM     59  C   UNL     1       3.220   6.033  17.846  1.00  0.00     0.029 A 
ATOM     60  C   UNL     1       2.011   5.797  17.211  1.00  0.00     0.049 A 
ATOM     61  H   UNL     1       1.648   5.230  15.211  1.00  0.00     0.167 HD
ATOM     62  C   UNL     1      -0.461   5.610  17.078  1.00  0.00     0.074 A 
ATOM     63  C   UNL     1      -1.787   5.676  17.657  1.00  0.00     0.031 C 
ATOM     64  C   UNL     1       0.681   5.873  17.758  1.00  0.00     0.037 A 
BRANCH  51  65
ATOM     65  C   UNL     1       5.835   5.242  14.408  1.00  0.00     0.064 A 
ATOM     66  C   UNL     1       6.530   6.261  13.738  1.00  0.00     0.173 A 
ATOM     67  C   UNL     1       6.586   4.243  15.043  1.00  0.00     0.173 A 
ATOM     68  F   UNL     1       5.856   7.230  13.100  1.00  0.00    -0.203 F 
ATOM     69  C   UNL     1       7.920   6.259  13.677  1.00  0.00     0.198 A 
ATOM     70  C   UNL     1       7.978   4.261  15.005  1.00  0.00     0.198 A 
ATOM     71  F   UNL     1       5.971   3.247  15.698  1.00  0.00    -0.203 F 
ATOM     72  F   UNL     1       8.559   7.211  12.982  1.00  0.00    -0.200 F 
ATOM     73  C   UNL     1       8.643   5.263  14.315  1.00  0.00     0.200 A 
ATOM     74  F   UNL     1       8.676   3.302  15.630  1.00  0.00    -0.200 F 
ATOM     75  F   UNL     1       9.982   5.263  14.256  1.00  0.00    -0.200 F 
ENDBRANCH  51  65
BRANCH  52  76
ATOM     76  C   UNL     1      -4.139   4.598  14.324  1.00  0.00     0.064 A 
ATOM     77  C   UNL     1      -4.946   5.739  14.445  1.00  0.00     0.173 A 
ATOM     78  C   UNL     1      -4.777   3.356  14.206  1.00  0.00     0.173 A 
ATOM     79  F   UNL     1      -4.379   6.947  14.580  1.00  0.00    -0.203 F 
ATOM     80  C   UNL     1      -6.335   5.639  14.469  1.00  0.00     0.198 A 
ATOM     81  C   UNL     1      -6.168   3.260  14.206  1.00  0.00     0.198 A 
ATOM     82  F   UNL     1      -4.050   2.237  14.080  1.00  0.00    -0.203 F 
ATOM     83  F   UNL     1      -7.081   6.741  14.627  1.00  0.00    -0.200 F 
ATOM     84  C   UNL     1      -6.945   4.400  14.345  1.00  0.00     0.200 A 
ATOM     85  F   UNL     1      -6.755   2.062  14.075  1.00  0.00    -0.200 F 
ATOM     86  F   UNL     1      -8.281   4.304  14.367  1.00  0.00    -0.200 F 
ENDBRANCH  52  76
BRANCH  64  87
ATOM     87  C   UNL     1       0.546   6.293  19.190  1.00  0.00     0.064 A 
ATOM     88  C   UNL     1       0.230   5.370  20.196  1.00  0.00     0.173 A 
ATOM     89  C   UNL     1       0.785   7.624  19.563  1.00  0.00     0.173 A 
ATOM     90  F   UNL     1      -0.021   4.090  19.884  1.00  0.00    -0.203 F 
ATOM     91  C   UNL     1       0.140   5.770  21.527  1.00  0.00     0.198 A 
ATOM     92  C   UNL     1       0.718   8.014  20.896  1.00  0.00     0.198 A 
ATOM     93  F   UNL     1       1.096   8.541  18.634  1.00  0.00    -0.203 F 
ATOM     94  F   UNL     1      -0.199   4.880  22.470  1.00  0.00    -0.200 F 
ATOM     95  C   UNL     1       0.392   7.089  21.876  1.00  0.00     0.200 A 
ATOM     96  F   UNL     1       0.972   9.286  21.234  1.00  0.00    -0.200 F 
ATOM     97  F   UNL     1       0.313   7.469  23.159  1.00  0.00    -0.200 F 
ENDBRANCH  64  87
ENDBRANCH  38  39
ENDBRANCH  30  33
ENDBRANCH  28  29
ENDBRANCH  27  28
ENDBRANCH   1  27
TORSDOF 15
