REMARK SMILES Cc1c(CCC(=O)N2CCC[C@H]2C(=O)NCCCCNC(=O)c2ccc(-c3c4nc(c(-c5c(F)c(F)c(F)c(F)c5F)c5ccc([nH]5)c(-c5c(F)c(F)c(F)c(F)c5F)c5nc(c(-c6c(F)c(F)c(F)c(F)c6F)c6ccc3[nH]6)C=C5)C=C4)cc2)c(=O)oc2cc3oc4c(c3cc12)CCCC4
REMARK SMILES IDX 16 1 15 2 13 3 14 4 12 6 8 7 9 8 10 9 11 10 6 11 7 12 5 13
REMARK SMILES IDX 4 14 3 15 1 16 2 17 97 18 86 19 89 20 96 21 87 22 88 23
REMARK SMILES IDX 90 24 95 25 91 26 94 27 92 28 93 29 98 30 101 31 99 32
REMARK SMILES IDX 100 33 17 34 18 35 19 36 20 37 21 38 22 40 23 41 24 42 85 43
REMARK SMILES IDX 25 44 84 45 26 46 27 47 28 48 78 49 29 50 83 51 77 52 79 53
REMARK SMILES IDX 30 54 82 55 76 56 75 57 31 59 63 60 43 61 62 62 44 63 47 64
REMARK SMILES IDX 61 65 80 66 45 67 46 68 60 70 81 71 48 72 32 73 33 74 41 75
REMARK SMILES IDX 34 76 35 77 39 78 42 79 36 80 37 81 40 82 38 83 64 84 65 85
REMARK SMILES IDX 73 86 66 87 67 88 71 89 74 90 68 91 69 92 72 93 70 94 49 95
REMARK SMILES IDX 50 96 58 97 51 98 52 99 56 100 59 101 53 102 54 103 57 104
REMARK SMILES IDX 55 105
REMARK H PARENT 15 5 20 39 79 58 47 69
REMARK Flexibility Score: inf
ROOT
ATOM      1  C   UNL     1      -2.045  -2.494   3.614  1.00  0.00     0.116 C 
ENDROOT
BRANCH   1   2
ATOM      2  N   UNL     1      -1.157  -2.487   2.466  1.00  0.00    -0.354 N 
ATOM      3  C   UNL     1      -0.445  -1.450   1.920  1.00  0.00     0.242 C 
ATOM      4  O   UNL     1       0.175  -1.687   0.885  1.00  0.00    -0.273 OA
ATOM      5  H   UNL     1      -1.049  -3.354   2.013  1.00  0.00     0.163 HD
BRANCH   3   6
ATOM      6  C   UNL     1      -0.532  -0.061   2.592  1.00  0.00     0.174 C 
ATOM      7  N   UNL     1       0.374   1.022   2.160  1.00  0.00    -0.331 N 
ATOM      8  C   UNL     1      -0.346   2.282   2.057  1.00  0.00     0.120 C 
ATOM      9  C   UNL     1      -1.754   2.007   2.542  1.00  0.00     0.024 C 
ATOM     10  C   UNL     1      -1.926   0.524   2.302  1.00  0.00     0.037 C 
BRANCH   7  11
ATOM     11  C   UNL     1       1.752   0.886   2.175  1.00  0.00     0.223 C 
ATOM     12  O   UNL     1       2.289  -0.183   2.475  1.00  0.00    -0.275 OA
BRANCH  11  13
ATOM     13  C   UNL     1       2.625   2.106   1.831  1.00  0.00     0.105 C 
BRANCH  13  14
ATOM     14  C   UNL     1       3.042   2.267   0.357  1.00  0.00     0.053 C 
BRANCH  14  15
ATOM     15  C   UNL     1       1.855   2.416  -0.556  1.00  0.00     0.042 A 
ATOM     16  C   UNL     1       1.958   0.019  -1.352  1.00  0.00     0.046 C 
ATOM     17  C   UNL     1       1.297   1.356  -1.161  1.00  0.00    -0.030 A 
ATOM     18  C   UNL     1      -0.120   1.490  -1.476  1.00  0.00     0.022 A 
ATOM     19  C   UNL     1       1.240   3.771  -0.678  1.00  0.00     0.339 A 
ATOM     20  C   UNL     1      -0.668   2.746  -1.728  1.00  0.00     0.142 A 
ATOM     21  C   UNL     1      -0.960   0.385  -1.388  1.00  0.00     0.024 A 
ATOM     22  O   UNL     1       1.719   4.745  -0.108  1.00  0.00    -0.246 OA
ATOM     23  O   UNL     1       0.119   3.890  -1.502  1.00  0.00    -0.422 OA
ATOM     24  C   UNL     1      -1.998   2.930  -2.134  1.00  0.00     0.095 A 
ATOM     25  C   UNL     1      -2.305   0.534  -1.718  1.00  0.00     0.025 A 
ATOM     26  C   UNL     1      -2.753   1.762  -2.193  1.00  0.00     0.138 A 
ATOM     27  C   UNL     1      -3.363  -0.380  -1.865  1.00  0.00     0.001 A 
ATOM     28  O   UNL     1      -3.956   1.586  -2.827  1.00  0.00    -0.461 OA
ATOM     29  C   UNL     1      -4.195   0.248  -2.763  1.00  0.00     0.108 A 
ATOM     30  C   UNL     1      -3.352  -1.857  -1.756  1.00  0.00     0.040 C 
ATOM     31  C   UNL     1      -4.746  -0.490  -3.934  1.00  0.00     0.076 C 
ATOM     32  C   UNL     1      -3.154  -2.443  -3.166  1.00  0.00     0.005 C 
ATOM     33  C   UNL     1      -3.640  -1.520  -4.328  1.00  0.00     0.008 C 
ENDBRANCH  14  15
ENDBRANCH  13  14
ENDBRANCH  11  13
ENDBRANCH   7  11
ENDBRANCH   3   6
ENDBRANCH   1   2
BRANCH   1  34
ATOM     34  C   UNL     1      -3.404  -3.104   3.264  1.00  0.00     0.023 C 
BRANCH  34  35
ATOM     35  C   UNL     1      -3.343  -4.592   2.913  1.00  0.00     0.023 C 
BRANCH  35  36
ATOM     36  C   UNL     1      -2.655  -5.442   3.976  1.00  0.00     0.116 C 
BRANCH  36  37
ATOM     37  N   UNL     1      -3.466  -5.615   5.173  1.00  0.00    -0.352 N 
ATOM     38  C   UNL     1      -4.289  -6.674   5.502  1.00  0.00     0.251 C 
ATOM     39  H   UNL     1      -3.421  -4.885   5.832  1.00  0.00     0.163 HD
ATOM     40  O   UNL     1      -4.993  -6.664   6.489  1.00  0.00    -0.269 OA
BRANCH  38  41
ATOM     41  C   UNL     1      -4.311  -7.811   4.565  1.00  0.00     0.039 A 
ATOM     42  C   UNL     1      -3.122  -8.496   4.301  1.00  0.00     0.014 A 
ATOM     43  C   UNL     1      -5.473  -8.043   3.828  1.00  0.00     0.014 A 
ATOM     44  C   UNL     1      -3.045  -9.289   3.170  1.00  0.00     0.010 A 
ATOM     45  C   UNL     1      -5.408  -8.889   2.728  1.00  0.00     0.010 A 
ATOM     46  C   UNL     1      -4.180  -9.460   2.369  1.00  0.00    -0.014 A 
BRANCH  46  47
ATOM     47  C   UNL     1      -4.022 -10.333   1.205  1.00  0.00     0.031 A 
ATOM     48  C   UNL     1      -4.732 -11.632   1.357  1.00  0.00     0.074 A 
ATOM     49  C   UNL     1      -3.853  -9.855  -0.042  1.00  0.00     0.049 A 
ATOM     50  N   UNL     1      -6.000 -11.770   1.105  1.00  0.00    -0.248 NA
ATOM     51  C   UNL     1      -4.135 -12.750   2.082  1.00  0.00     0.031 C 
ATOM     52  C   UNL     1      -4.453  -8.618  -0.555  1.00  0.00     0.029 A 
ATOM     53  N   UNL     1      -3.353 -10.486  -1.156  1.00  0.00    -0.354 N 
ATOM     54  C   UNL     1      -6.400 -12.938   1.721  1.00  0.00     0.074 A 
ATOM     55  C   UNL     1      -5.206 -13.529   2.288  1.00  0.00     0.031 C 
ATOM     56  C   UNL     1      -4.468  -8.680  -1.902  1.00  0.00     0.029 A 
ATOM     57  C   UNL     1      -3.739  -9.866  -2.338  1.00  0.00     0.049 A 
ATOM     58  H   UNL     1      -2.783 -11.288  -1.120  1.00  0.00     0.167 HD
ATOM     59  C   UNL     1      -7.694 -13.340   1.776  1.00  0.00     0.037 A 
ATOM     60  C   UNL     1      -3.906 -10.521  -3.518  1.00  0.00     0.037 A 
ATOM     61  C   UNL     1      -8.649 -12.501   1.120  1.00  0.00     0.049 A 
ATOM     62  C   UNL     1      -5.236 -11.196  -3.268  1.00  0.00     0.074 A 
ATOM     63  C   UNL     1      -9.499 -11.479   1.481  1.00  0.00     0.029 A 
ATOM     64  N   UNL     1      -8.779 -12.606  -0.245  1.00  0.00    -0.354 N 
ATOM     65  N   UNL     1      -6.416 -10.635  -3.357  1.00  0.00    -0.248 NA
ATOM     66  C   UNL     1      -5.225 -12.467  -2.539  1.00  0.00     0.031 C 
ATOM     67  C   UNL     1      -9.747 -10.744   0.280  1.00  0.00     0.029 A 
ATOM     68  C   UNL     1      -8.983 -11.335  -0.725  1.00  0.00     0.049 A 
ATOM     69  H   UNL     1      -8.734 -13.434  -0.777  1.00  0.00     0.167 HD
ATOM     70  C   UNL     1      -7.228 -11.343  -2.464  1.00  0.00     0.074 A 
ATOM     71  C   UNL     1      -6.453 -12.487  -2.041  1.00  0.00     0.031 C 
ATOM     72  C   UNL     1      -8.397 -10.858  -1.956  1.00  0.00     0.037 A 
BRANCH  59  73
ATOM     73  C   UNL     1      -8.120 -14.611   2.377  1.00  0.00     0.064 A 
ATOM     74  C   UNL     1      -8.373 -15.696   1.530  1.00  0.00     0.173 A 
ATOM     75  C   UNL     1      -8.426 -14.734   3.734  1.00  0.00     0.173 A 
ATOM     76  F   UNL     1      -8.093 -15.600   0.219  1.00  0.00    -0.203 F 
ATOM     77  C   UNL     1      -8.943 -16.863   2.019  1.00  0.00     0.198 A 
ATOM     78  C   UNL     1      -8.996 -15.907   4.224  1.00  0.00     0.198 A 
ATOM     79  F   UNL     1      -8.203 -13.713   4.575  1.00  0.00    -0.203 F 
ATOM     80  F   UNL     1      -9.202 -17.878   1.183  1.00  0.00    -0.200 F 
ATOM     81  C   UNL     1      -9.263 -16.965   3.364  1.00  0.00     0.200 A 
ATOM     82  F   UNL     1      -9.307 -16.009   5.523  1.00  0.00    -0.200 F 
ATOM     83  F   UNL     1      -9.836 -18.083   3.831  1.00  0.00    -0.200 F 
ENDBRANCH  59  73
BRANCH  60  84
ATOM     84  C   UNL     1      -2.657 -11.213  -3.983  1.00  0.00     0.064 A 
ATOM     85  C   UNL     1      -1.477 -10.438  -4.079  1.00  0.00     0.173 A 
ATOM     86  C   UNL     1      -2.519 -12.574  -4.281  1.00  0.00     0.173 A 
ATOM     87  F   UNL     1      -1.533  -9.105  -3.927  1.00  0.00    -0.203 F 
ATOM     88  C   UNL     1      -0.226 -11.014  -4.298  1.00  0.00     0.198 A 
ATOM     89  C   UNL     1      -1.262 -13.156  -4.473  1.00  0.00     0.198 A 
ATOM     90  F   UNL     1      -3.585 -13.377  -4.370  1.00  0.00    -0.203 F 
ATOM     91  F   UNL     1       0.871 -10.244  -4.320  1.00  0.00    -0.200 F 
ATOM     92  C   UNL     1      -0.115 -12.381  -4.457  1.00  0.00     0.200 A 
ATOM     93  F   UNL     1      -1.166 -14.483  -4.638  1.00  0.00    -0.200 F 
ATOM     94  F   UNL     1       1.089 -12.952  -4.595  1.00  0.00    -0.200 F 
ENDBRANCH  60  84
BRANCH  72  95
ATOM     95  C   UNL     1      -8.905  -9.609  -2.584  1.00  0.00     0.064 A 
ATOM     96  C   UNL     1      -9.490  -9.653  -3.855  1.00  0.00     0.173 A 
ATOM     97  C   UNL     1      -8.867  -8.377  -1.914  1.00  0.00     0.173 A 
ATOM     98  F   UNL     1      -9.555 -10.812  -4.531  1.00  0.00    -0.203 F 
ATOM     99  C   UNL     1     -10.045  -8.511  -4.424  1.00  0.00     0.198 A 
ATOM    100  C   UNL     1      -9.445  -7.243  -2.475  1.00  0.00     0.198 A 
ATOM    101  F   UNL     1      -8.296  -8.270  -0.704  1.00  0.00    -0.203 F 
ATOM    102  F   UNL     1     -10.612  -8.576  -5.636  1.00  0.00    -0.200 F 
ATOM    103  C   UNL     1     -10.036  -7.311  -3.728  1.00  0.00     0.200 A 
ATOM    104  F   UNL     1      -9.449  -6.088  -1.794  1.00  0.00    -0.200 F 
ATOM    105  F   UNL     1     -10.607  -6.221  -4.259  1.00  0.00    -0.200 F 
ENDBRANCH  72  95
ENDBRANCH  46  47
ENDBRANCH  38  41
ENDBRANCH  36  37
ENDBRANCH  35  36
ENDBRANCH  34  35
ENDBRANCH   1  34
TORSDOF 15
