REMARK SMILES Cc1nc2cc(C(=O)NCCCCNC(=O)c3ccc(-c4c5nc(c(-c6c(F)c(F)c(F)c(F)c6F)c6ccc([nH]6)c(-c6c(F)c(F)c(F)c(F)c6F)c6nc(c(-c7c(F)c(F)c(F)c(F)c7F)c7ccc4[nH]7)C=C6)C=C5)cc3)ccc2n1CCC[NH+]1CCOCC1
REMARK SMILES IDX 10 1 9 2 7 3 8 4 6 6 1 7 2 8 3 9 83 10 4 11 82 12 5 13 81 14
REMARK SMILES IDX 80 15 84 16 85 17 86 18 87 19 88 20 92 21 89 23 91 24 90 25
REMARK SMILES IDX 11 26 12 27 13 28 14 29 15 30 16 32 17 33 18 34 79 35 19 36
REMARK SMILES IDX 78 37 20 38 21 39 22 40 72 41 23 42 77 43 71 44 73 45 24 46
REMARK SMILES IDX 76 47 70 48 69 49 25 51 57 52 37 53 56 54 38 55 41 56 55 57
REMARK SMILES IDX 74 58 39 59 40 60 54 62 75 63 42 64 26 65 27 66 35 67 28 68
REMARK SMILES IDX 29 69 33 70 36 71 30 72 31 73 34 74 32 75 58 76 59 77 67 78
REMARK SMILES IDX 60 79 61 80 65 81 68 82 62 83 63 84 66 85 64 86 43 87 44 88
REMARK SMILES IDX 52 89 45 90 46 91 50 92 53 93 47 94 48 95 51 96 49 97
REMARK H PARENT 9 5 87 22 14 31 73 50 41 61
REMARK Flexibility Score: inf
ROOT
ATOM      1  C   UNL     1      -1.241   5.372  -6.949  1.00  0.00     0.116 C 
ENDROOT
BRANCH   1   2
ATOM      2  N   UNL     1      -1.330   4.031  -7.491  1.00  0.00    -0.352 N 
ATOM      3  C   UNL     1      -1.091   2.795  -6.943  1.00  0.00     0.251 C 
ATOM      4  O   UNL     1      -1.265   1.813  -7.652  1.00  0.00    -0.269 OA
ATOM      5  H   UNL     1      -1.616   4.001  -8.433  1.00  0.00     0.163 HD
BRANCH   3   6
ATOM      6  C   UNL     1      -0.703   2.614  -5.518  1.00  0.00     0.042 A 
ATOM      7  C   UNL     1      -0.278  -0.648  -0.597  1.00  0.00     0.088 C 
ATOM      8  C   UNL     1      -0.545   0.412  -1.590  1.00  0.00     0.106 A 
ATOM      9  N   UNL     1      -1.116   0.155  -2.752  1.00  0.00    -0.233 NA
ATOM     10  N   UNL     1      -0.148   1.728  -1.525  1.00  0.00    -0.328 N 
ATOM     11  C   UNL     1      -0.863   1.235  -3.543  1.00  0.00     0.090 A 
ATOM     12  C   UNL     1      -0.170   2.203  -2.833  1.00  0.00     0.068 A 
ATOM     13  C   UNL     1      -1.163   1.443  -4.893  1.00  0.00     0.044 A 
ATOM     14  C   UNL     1       0.348   3.352  -3.440  1.00  0.00     0.029 A 
ATOM     15  C   UNL     1       0.105   3.509  -4.809  1.00  0.00     0.016 A 
BRANCH  10  16
ATOM     16  C   UNL     1       0.332   2.564  -0.444  1.00  0.00     0.130 C 
BRANCH  16  17
ATOM     17  C   UNL     1      -0.108   2.427   1.012  1.00  0.00     0.083 C 
BRANCH  17  18
ATOM     18  C   UNL     1       0.615   1.471   1.972  1.00  0.00     0.264 C 
BRANCH  18  19
ATOM     19  N   UNL     1       2.059   1.418   2.073  1.00  0.00    -0.331 N 
ATOM     20  C   UNL     1       2.833   2.627   2.311  1.00  0.00     0.291 C 
ATOM     21  C   UNL     1       2.793   0.412   1.316  1.00  0.00     0.291 C 
ATOM     22  H   UNL     1       1.972   1.028   3.011  1.00  0.00     0.348 HD
ATOM     23  C   UNL     1       3.585   3.137   1.072  1.00  0.00     0.221 C 
ATOM     24  C   UNL     1       3.499   0.969   0.075  1.00  0.00     0.221 C 
ATOM     25  O   UNL     1       4.312   2.105   0.394  1.00  0.00    -0.370 OA
ENDBRANCH  18  19
ENDBRANCH  17  18
ENDBRANCH  16  17
ENDBRANCH  10  16
ENDBRANCH   3   6
ENDBRANCH   1   2
BRANCH   1  26
ATOM     26  C   UNL     1      -0.011   6.088  -7.511  1.00  0.00     0.023 C 
BRANCH  26  27
ATOM     27  C   UNL     1      -0.163   6.527  -8.977  1.00  0.00     0.023 C 
BRANCH  27  28
ATOM     28  C   UNL     1      -1.325   7.495  -9.221  1.00  0.00     0.116 C 
BRANCH  28  29
ATOM     29  N   UNL     1      -1.264   8.653  -8.351  1.00  0.00    -0.352 N 
ATOM     30  C   UNL     1      -0.706   9.898  -8.432  1.00  0.00     0.251 C 
ATOM     31  H   UNL     1      -1.736   8.509  -7.499  1.00  0.00     0.163 HD
ATOM     32  O   UNL     1      -0.883  10.632  -7.456  1.00  0.00    -0.269 OA
BRANCH  30  33
ATOM     33  C   UNL     1       0.081  10.422  -9.584  1.00  0.00     0.039 A 
ATOM     34  C   UNL     1       0.510   9.675 -10.678  1.00  0.00     0.014 A 
ATOM     35  C   UNL     1       0.438  11.785  -9.528  1.00  0.00     0.014 A 
ATOM     36  C   UNL     1       1.270  10.268 -11.684  1.00  0.00     0.010 A 
ATOM     37  C   UNL     1       1.201  12.384 -10.533  1.00  0.00     0.010 A 
ATOM     38  C   UNL     1       1.631  11.619 -11.610  1.00  0.00    -0.014 A 
BRANCH  38  39
ATOM     39  C   UNL     1       2.406  12.158 -12.729  1.00  0.00     0.031 A 
ATOM     40  C   UNL     1       1.789  12.018 -14.079  1.00  0.00     0.074 A 
ATOM     41  C   UNL     1       3.597  12.781 -12.630  1.00  0.00     0.049 A 
ATOM     42  N   UNL     1       2.211  11.306 -15.075  1.00  0.00    -0.248 NA
ATOM     43  C   UNL     1       0.520  12.713 -14.332  1.00  0.00     0.031 C 
ATOM     44  C   UNL     1       4.268  13.283 -11.432  1.00  0.00     0.029 A 
ATOM     45  N   UNL     1       4.440  13.149 -13.643  1.00  0.00    -0.354 N 
ATOM     46  C   UNL     1       1.343  11.564 -16.133  1.00  0.00     0.074 A 
ATOM     47  C   UNL     1       0.275  12.370 -15.598  1.00  0.00     0.031 C 
ATOM     48  C   UNL     1       5.316  14.055 -11.800  1.00  0.00     0.029 A 
ATOM     49  C   UNL     1       5.476  13.974 -13.243  1.00  0.00     0.049 A 
ATOM     50  H   UNL     1       4.320  12.853 -14.575  1.00  0.00     0.167 HD
ATOM     51  C   UNL     1       1.658  11.230 -17.415  1.00  0.00     0.037 A 
ATOM     52  C   UNL     1       6.386  14.575 -14.043  1.00  0.00     0.037 A 
ATOM     53  C   UNL     1       2.730  10.275 -17.472  1.00  0.00     0.049 A 
ATOM     54  C   UNL     1       6.483  13.800 -15.301  1.00  0.00     0.074 A 
ATOM     55  C   UNL     1       2.903   8.957 -17.106  1.00  0.00     0.029 A 
ATOM     56  N   UNL     1       3.978  10.763 -17.753  1.00  0.00    -0.354 N 
ATOM     57  N   UNL     1       6.998  12.606 -15.392  1.00  0.00    -0.248 NA
ATOM     58  C   UNL     1       5.753  14.255 -16.476  1.00  0.00     0.031 C 
ATOM     59  C   UNL     1       4.291   8.821 -16.809  1.00  0.00     0.029 A 
ATOM     60  C   UNL     1       4.891  10.065 -17.011  1.00  0.00     0.049 A 
ATOM     61  H   UNL     1       4.183  11.493 -18.381  1.00  0.00     0.167 HD
ATOM     62  C   UNL     1       6.318  12.013 -16.440  1.00  0.00     0.074 A 
ATOM     63  C   UNL     1       5.709  13.115 -17.168  1.00  0.00     0.031 C 
ATOM     64  C   UNL     1       6.072  10.672 -16.441  1.00  0.00     0.037 A 
BRANCH  51  65
ATOM     65  C   UNL     1       1.247  12.011 -18.642  1.00  0.00     0.064 A 
ATOM     66  C   UNL     1       1.504  11.473 -19.922  1.00  0.00     0.173 A 
ATOM     67  C   UNL     1       0.921  13.382 -18.612  1.00  0.00     0.173 A 
ATOM     68  F   UNL     1       1.843  10.183 -20.067  1.00  0.00    -0.203 F 
ATOM     69  C   UNL     1       1.514  12.269 -21.071  1.00  0.00     0.198 A 
ATOM     70  C   UNL     1       0.881  14.162 -19.768  1.00  0.00     0.198 A 
ATOM     71  F   UNL     1       0.743  14.041 -17.460  1.00  0.00    -0.203 F 
ATOM     72  F   UNL     1       1.890  11.742 -22.244  1.00  0.00    -0.200 F 
ATOM     73  C   UNL     1       1.210  13.615 -20.992  1.00  0.00     0.200 A 
ATOM     74  F   UNL     1       0.604  15.470 -19.671  1.00  0.00    -0.200 F 
ATOM     75  F   UNL     1       1.282  14.394 -22.079  1.00  0.00    -0.200 F 
ENDBRANCH  51  65
BRANCH  52  76
ATOM     76  C   UNL     1       7.026  15.900 -13.883  1.00  0.00     0.064 A 
ATOM     77  C   UNL     1       8.168  16.247 -14.624  1.00  0.00     0.173 A 
ATOM     78  C   UNL     1       6.363  16.951 -13.222  1.00  0.00     0.173 A 
ATOM     79  F   UNL     1       8.837  15.312 -15.314  1.00  0.00    -0.203 F 
ATOM     80  C   UNL     1       8.595  17.574 -14.732  1.00  0.00     0.198 A 
ATOM     81  C   UNL     1       6.796  18.273 -13.322  1.00  0.00     0.198 A 
ATOM     82  F   UNL     1       5.224  16.731 -12.549  1.00  0.00    -0.203 F 
ATOM     83  F   UNL     1       9.645  17.876 -15.509  1.00  0.00    -0.200 F 
ATOM     84  C   UNL     1       7.901  18.587 -14.092  1.00  0.00     0.200 A 
ATOM     85  F   UNL     1       6.096  19.248 -12.725  1.00  0.00    -0.200 F 
ATOM     86  F   UNL     1       8.269  19.865 -14.251  1.00  0.00    -0.200 F 
ENDBRANCH  52  76
BRANCH  64  87
ATOM     87  C   UNL     1       6.929   9.809 -15.566  1.00  0.00     0.064 A 
ATOM     88  C   UNL     1       6.939   9.872 -14.164  1.00  0.00     0.173 A 
ATOM     89  C   UNL     1       7.681   8.795 -16.178  1.00  0.00     0.173 A 
ATOM     90  F   UNL     1       6.171  10.752 -13.507  1.00  0.00    -0.203 F 
ATOM     91  C   UNL     1       7.705   8.984 -13.412  1.00  0.00     0.198 A 
ATOM     92  C   UNL     1       8.415   7.886 -15.422  1.00  0.00     0.198 A 
ATOM     93  F   UNL     1       7.664   8.658 -17.513  1.00  0.00    -0.203 F 
ATOM     94  F   UNL     1       7.713   9.070 -12.073  1.00  0.00    -0.200 F 
ATOM     95  C   UNL     1       8.435   7.988 -14.041  1.00  0.00     0.200 A 
ATOM     96  F   UNL     1       9.080   6.896 -16.033  1.00  0.00    -0.200 F 
ATOM     97  F   UNL     1       9.139   7.108 -13.314  1.00  0.00    -0.200 F 
ENDBRANCH  64  87
ENDBRANCH  38  39
ENDBRANCH  30  33
ENDBRANCH  28  29
ENDBRANCH  27  28
ENDBRANCH  26  27
ENDBRANCH   1  26
TORSDOF 15
