REMARK SMILES C#CC[N@@H+](CC(=O)NCCCCNC(=O)c1ccc(-c2c3nc(c(-c4c(F)c(F)c(F)c(F)c4F)c4ccc([nH]4)c(-c4c(F)c(F)c(F)c(F)c4F)c4nc(c(-c5c(F)c(F)c(F)c(F)c5F)c5ccc2[nH]5)C=C4)C=C3)cc1)CC(=O)NC(=O)NC
REMARK SMILES IDX 10 1 9 2 8 3 6 4 7 5 5 7 4 8 3 10 2 11 1 12 79 13 80 14
REMARK SMILES IDX 81 15 82 16 83 17 84 19 85 20 86 21 11 23 12 24 13 25 14 26
REMARK SMILES IDX 15 28 16 29 17 30 78 31 18 32 77 33 19 34 20 35 21 36 71 37
REMARK SMILES IDX 22 38 76 39 70 40 72 41 23 42 75 43 69 44 68 45 24 47 56 48
REMARK SMILES IDX 36 49 55 50 37 51 40 52 54 53 73 54 38 55 39 56 53 58 74 59
REMARK SMILES IDX 41 60 25 61 26 62 34 63 27 64 28 65 32 66 35 67 29 68 30 69
REMARK SMILES IDX 33 70 31 71 57 72 58 73 66 74 59 75 60 76 64 77 67 78 61 79
REMARK SMILES IDX 62 80 65 81 63 82 42 83 43 84 51 85 44 86 45 87 49 88 52 89
REMARK SMILES IDX 46 90 47 91 50 92 48 93
REMARK H PARENT 8 6 4 9 82 18 85 22 13 27 72 46 40 57
REMARK Flexibility Score: inf
ROOT
ATOM      1  C   UNL     1      -2.132  -1.584   2.564  1.00  0.00     0.023 C 
ENDROOT
BRANCH   1   2
ATOM      2  C   UNL     1      -3.479  -1.660   1.807  1.00  0.00     0.116 C 
BRANCH   2   3
ATOM      3  N   UNL     1      -4.245  -0.424   1.844  1.00  0.00    -0.351 N 
ATOM      4  C   UNL     1      -4.548   0.527   0.912  1.00  0.00     0.275 C 
ATOM      5  O   UNL     1      -5.383   1.368   1.266  1.00  0.00    -0.269 OA
ATOM      6  H   UNL     1      -4.626  -0.232   2.731  1.00  0.00     0.163 HD
BRANCH   4   7
ATOM      7  C   UNL     1      -3.971   0.588  -0.530  1.00  0.00     0.364 C 
BRANCH   7   8
ATOM      8  N   UNL     1      -2.532   0.975  -0.703  1.00  0.00    -0.309 N 
ATOM      9  H   UNL     1      -2.351   1.028  -1.705  1.00  0.00     0.349 HD
BRANCH   8  10
ATOM     10  C   UNL     1      -1.751  -0.049  -0.048  1.00  0.00     0.354 C 
BRANCH  10  11
ATOM     11  C   UNL     1      -0.231  -0.049  -0.048  1.00  0.00    -0.047 C 
ATOM     12  C   UNL     1       1.073  -0.049  -0.048  1.00  0.00     0.010 C 
ENDBRANCH  10  11
ENDBRANCH   8  10
BRANCH   8  13
ATOM     13  C   UNL     1      -2.142   2.337  -0.276  1.00  0.00     0.365 C 
BRANCH  13  14
ATOM     14  C   UNL     1      -2.882   2.977   0.881  1.00  0.00     0.283 C 
ATOM     15  O   UNL     1      -2.632   2.638   2.045  1.00  0.00    -0.268 OA
ATOM     16  N   UNL     1      -3.816   3.977   0.668  1.00  0.00    -0.273 N 
ATOM     17  C   UNL     1      -4.891   4.099  -0.159  1.00  0.00     0.321 C 
ATOM     18  H   UNL     1      -3.672   4.768   1.235  1.00  0.00     0.175 HD
ATOM     19  O   UNL     1      -5.991   4.367   0.329  1.00  0.00    -0.248 OA
ATOM     20  N   UNL     1      -4.822   3.966  -1.493  1.00  0.00    -0.341 N 
ATOM     21  C   UNL     1      -3.731   4.111  -2.420  1.00  0.00     0.144 C 
ATOM     22  H   UNL     1      -5.678   3.725  -1.916  1.00  0.00     0.165 HD
ENDBRANCH  13  14
ENDBRANCH   8  13
ENDBRANCH   7   8
ENDBRANCH   4   7
ENDBRANCH   2   3
ENDBRANCH   1   2
BRANCH   1  23
ATOM     23  C   UNL     1      -2.209  -1.677   4.068  1.00  0.00     0.023 C 
BRANCH  23  24
ATOM     24  C   UNL     1      -2.812  -2.967   4.540  1.00  0.00     0.116 C 
BRANCH  24  25
ATOM     25  N   UNL     1      -2.203  -4.149   3.934  1.00  0.00    -0.352 N 
ATOM     26  C   UNL     1      -1.948  -5.355   4.546  1.00  0.00     0.251 C 
ATOM     27  H   UNL     1      -1.949  -4.075   2.986  1.00  0.00     0.163 HD
ATOM     28  O   UNL     1      -1.350  -6.254   3.994  1.00  0.00    -0.269 OA
BRANCH  26  29
ATOM     29  C   UNL     1      -2.413  -5.471   5.937  1.00  0.00     0.039 A 
ATOM     30  C   UNL     1      -1.474  -5.664   6.947  1.00  0.00     0.014 A 
ATOM     31  C   UNL     1      -3.738  -5.125   6.216  1.00  0.00     0.014 A 
ATOM     32  C   UNL     1      -1.863  -5.452   8.266  1.00  0.00     0.010 A 
ATOM     33  C   UNL     1      -4.074  -4.771   7.507  1.00  0.00     0.010 A 
ATOM     34  C   UNL     1      -3.153  -4.970   8.546  1.00  0.00    -0.014 A 
BRANCH  34  35
ATOM     35  C   UNL     1      -3.612  -4.750   9.933  1.00  0.00     0.031 A 
ATOM     36  C   UNL     1      -4.782  -5.553  10.429  1.00  0.00     0.074 A 
ATOM     37  C   UNL     1      -3.042  -3.801  10.696  1.00  0.00     0.049 A 
ATOM     38  N   UNL     1      -5.429  -5.464  11.560  1.00  0.00    -0.248 NA
ATOM     39  C   UNL     1      -5.339  -6.554   9.500  1.00  0.00     0.031 C 
ATOM     40  C   UNL     1      -1.953  -2.913  10.282  1.00  0.00     0.029 A 
ATOM     41  N   UNL     1      -3.308  -3.421  11.985  1.00  0.00    -0.354 N 
ATOM     42  C   UNL     1      -6.483  -6.361  11.454  1.00  0.00     0.074 A 
ATOM     43  C   UNL     1      -6.443  -6.923  10.126  1.00  0.00     0.031 C 
ATOM     44  C   UNL     1      -1.619  -2.118  11.313  1.00  0.00     0.029 A 
ATOM     45  C   UNL     1      -2.488  -2.420  12.445  1.00  0.00     0.049 A 
ATOM     46  H   UNL     1      -4.019  -3.828  12.531  1.00  0.00     0.167 HD
ATOM     47  C   UNL     1      -7.378  -6.721  12.401  1.00  0.00     0.037 A 
ATOM     48  C   UNL     1      -2.448  -1.829  13.653  1.00  0.00     0.037 A 
ATOM     49  C   UNL     1      -7.354  -6.211  13.741  1.00  0.00     0.049 A 
ATOM     50  C   UNL     1      -3.411  -2.293  14.713  1.00  0.00     0.074 A 
ATOM     51  C   UNL     1      -8.149  -6.564  14.814  1.00  0.00     0.029 A 
ATOM     52  N   UNL     1      -6.468  -5.243  14.192  1.00  0.00    -0.354 N 
ATOM     53  N   UNL     1      -4.356  -3.200  14.632  1.00  0.00    -0.248 NA
ATOM     54  C   UNL     1      -3.296  -1.662  16.034  1.00  0.00     0.031 C 
ATOM     55  C   UNL     1      -7.762  -5.787  15.911  1.00  0.00     0.029 A 
ATOM     56  C   UNL     1      -6.701  -4.979  15.529  1.00  0.00     0.049 A 
ATOM     57  H   UNL     1      -5.776  -4.809  13.642  1.00  0.00     0.167 HD
ATOM     58  C   UNL     1      -4.930  -3.269  15.894  1.00  0.00     0.074 A 
ATOM     59  C   UNL     1      -4.215  -2.322  16.726  1.00  0.00     0.031 C 
ATOM     60  C   UNL     1      -5.957  -4.040  16.328  1.00  0.00     0.037 A 
BRANCH  47  61
ATOM     61  C   UNL     1      -8.423  -7.726  12.016  1.00  0.00     0.064 A 
ATOM     62  C   UNL     1      -8.094  -9.063  11.739  1.00  0.00     0.173 A 
ATOM     63  C   UNL     1      -9.769  -7.348  11.916  1.00  0.00     0.173 A 
ATOM     64  F   UNL     1      -6.817  -9.470  11.797  1.00  0.00    -0.203 F 
ATOM     65  C   UNL     1      -9.068  -9.973  11.340  1.00  0.00     0.198 A 
ATOM     66  C   UNL     1     -10.746  -8.270  11.550  1.00  0.00     0.198 A 
ATOM     67  F   UNL     1     -10.137  -6.082  12.167  1.00  0.00    -0.203 F 
ATOM     68  F   UNL     1      -8.719 -11.226  11.017  1.00  0.00    -0.200 F 
ATOM     69  C   UNL     1     -10.394  -9.578  11.253  1.00  0.00     0.200 A 
ATOM     70  F   UNL     1     -12.029  -7.889  11.474  1.00  0.00    -0.200 F 
ATOM     71  F   UNL     1     -11.332 -10.456  10.871  1.00  0.00    -0.200 F 
ENDBRANCH  47  61
BRANCH  48  72
ATOM     72  C   UNL     1      -1.433  -0.782  13.939  1.00  0.00     0.064 A 
ATOM     73  C   UNL     1      -0.359  -1.041  14.803  1.00  0.00     0.173 A 
ATOM     74  C   UNL     1      -1.509   0.492  13.358  1.00  0.00     0.173 A 
ATOM     75  F   UNL     1      -0.252  -2.240  15.395  1.00  0.00    -0.203 F 
ATOM     76  C   UNL     1       0.587  -0.060  15.092  1.00  0.00     0.198 A 
ATOM     77  C   UNL     1      -0.548   1.465  13.629  1.00  0.00     0.198 A 
ATOM     78  F   UNL     1      -2.511   0.788  12.518  1.00  0.00    -0.203 F 
ATOM     79  F   UNL     1       1.579  -0.322  15.954  1.00  0.00    -0.200 F 
ATOM     80  C   UNL     1       0.494   1.191  14.501  1.00  0.00     0.200 A 
ATOM     81  F   UNL     1      -0.633   2.668  13.046  1.00  0.00    -0.200 F 
ATOM     82  F   UNL     1       1.406   2.134  14.778  1.00  0.00    -0.200 F 
ENDBRANCH  48  72
BRANCH  60  83
ATOM     83  C   UNL     1      -6.343  -3.913  17.770  1.00  0.00     0.064 A 
ATOM     84  C   UNL     1      -7.035  -2.791  18.245  1.00  0.00     0.173 A 
ATOM     85  C   UNL     1      -6.068  -4.953  18.669  1.00  0.00     0.173 A 
ATOM     86  F   UNL     1      -7.309  -1.767  17.423  1.00  0.00    -0.203 F 
ATOM     87  C   UNL     1      -7.420  -2.705  19.580  1.00  0.00     0.198 A 
ATOM     88  C   UNL     1      -6.479  -4.876  19.996  1.00  0.00     0.198 A 
ATOM     89  F   UNL     1      -5.416  -6.051  18.256  1.00  0.00    -0.203 F 
ATOM     90  F   UNL     1      -8.045  -1.607  20.025  1.00  0.00    -0.200 F 
ATOM     91  C   UNL     1      -7.149  -3.751  20.451  1.00  0.00     0.200 A 
ATOM     92  F   UNL     1      -6.230  -5.893  20.833  1.00  0.00    -0.200 F 
ATOM     93  F   UNL     1      -7.530  -3.670  21.733  1.00  0.00    -0.200 F 
ENDBRANCH  60  83
ENDBRANCH  34  35
ENDBRANCH  26  29
ENDBRANCH  24  25
ENDBRANCH  23  24
ENDBRANCH   1  23
TORSDOF 16
