REMARK SMILES Cn1nnnc1Sc1csc(C(=O)NCCCCNC(=O)c2ccc(-c3c4nc(c(-c5c(F)c(F)c(F)c(F)c5F)c5ccc([nH]5)c(-c5c(F)c(F)c(F)c(F)c5F)c5nc(c(-c6c(F)c(F)c(F)c(F)c6F)c6ccc3[nH]6)C=C5)C=C4)cc2)c1
REMARK SMILES IDX 16 1 15 2 14 3 12 4 13 5 11 7 8 8 9 9 85 10 10 11 7 12 6 13
REMARK SMILES IDX 1 14 2 15 3 16 4 17 5 18 17 19 18 20 19 21 20 22 21 24 22 25
REMARK SMILES IDX 23 26 84 27 24 28 83 29 25 30 26 31 27 32 77 33 28 34 82 35
REMARK SMILES IDX 76 36 78 37 29 38 81 39 75 40 74 41 30 43 62 44 42 45 61 46
REMARK SMILES IDX 43 47 46 48 60 49 79 50 44 51 45 52 59 54 80 55 47 56 31 57
REMARK SMILES IDX 32 58 40 59 33 60 34 61 38 62 41 63 35 64 36 65 39 66 37 67
REMARK SMILES IDX 63 68 64 69 72 70 65 71 66 72 70 73 73 74 67 75 68 76 71 77
REMARK SMILES IDX 69 78 48 79 49 80 57 81 50 82 51 83 55 84 58 85 52 86 53 87
REMARK SMILES IDX 56 88 54 89
REMARK H PARENT 14 6 19 23 78 42 46 53
REMARK Flexibility Score: inf
ROOT
ATOM      1  C   UNL     1      -3.078  -4.341   4.376  1.00  0.00     0.023 C 
ENDROOT
BRANCH   1   2
ATOM      2  C   UNL     1      -3.480  -5.188   3.169  1.00  0.00     0.116 C 
BRANCH   2   3
ATOM      3  N   UNL     1      -4.749  -4.743   2.636  1.00  0.00    -0.351 N 
ATOM      4  C   UNL     1      -5.083  -3.988   1.538  1.00  0.00     0.261 C 
ATOM      5  O   UNL     1      -6.296  -3.814   1.384  1.00  0.00    -0.268 OA
ATOM      6  H   UNL     1      -5.526  -5.039   3.164  1.00  0.00     0.163 HD
BRANCH   4   7
ATOM      7  C   UNL     1      -4.080  -3.466   0.615  1.00  0.00     0.093 A 
ATOM      8  C   UNL     1      -2.133  -2.780  -0.498  1.00  0.00     0.027 A 
ATOM      9  C   UNL     1      -3.055  -2.680  -1.510  1.00  0.00     0.081 A 
ATOM     10  C   UNL     1      -2.724  -3.197   0.734  1.00  0.00     0.041 A 
ATOM     11  S   UNL     1      -4.628  -3.056  -0.974  1.00  0.00    -0.137 S 
BRANCH   8  12
ATOM     12  S   UNL     1      -0.417  -2.599  -0.746  1.00  0.00    -0.047 SA
BRANCH  12  13
ATOM     13  C   UNL     1      -0.014  -1.012  -0.196  1.00  0.00     0.213 A 
ATOM     14  C   UNL     1      -2.220   0.272   0.099  1.00  0.00     0.179 C 
ATOM     15  N   UNL     1      -0.800   0.070   0.092  1.00  0.00    -0.223 N 
ATOM     16  N   UNL     1      -0.014   1.120   0.409  1.00  0.00    -0.045 NA
ATOM     17  N   UNL     1       1.227   0.675   0.312  1.00  0.00    -0.023 NA
ATOM     18  N   UNL     1       1.244  -0.640  -0.059  1.00  0.00    -0.101 NA
ENDBRANCH  12  13
ENDBRANCH   8  12
ENDBRANCH   4   7
ENDBRANCH   2   3
ENDBRANCH   1   2
BRANCH   1  19
ATOM     19  C   UNL     1      -3.841  -4.686   5.662  1.00  0.00     0.023 C 
BRANCH  19  20
ATOM     20  C   UNL     1      -3.653  -6.116   6.165  1.00  0.00     0.116 C 
BRANCH  20  21
ATOM     21  N   UNL     1      -2.263  -6.466   6.399  1.00  0.00    -0.352 N 
ATOM     22  C   UNL     1      -1.731  -7.308   7.349  1.00  0.00     0.251 C 
ATOM     23  H   UNL     1      -1.611  -6.043   5.794  1.00  0.00     0.163 HD
ATOM     24  O   UNL     1      -0.522  -7.409   7.475  1.00  0.00    -0.269 OA
BRANCH  22  25
ATOM     25  C   UNL     1      -2.637  -8.063   8.242  1.00  0.00     0.039 A 
ATOM     26  C   UNL     1      -2.368  -8.072   9.613  1.00  0.00     0.014 A 
ATOM     27  C   UNL     1      -3.741  -8.754   7.736  1.00  0.00     0.014 A 
ATOM     28  C   UNL     1      -3.239  -8.730  10.484  1.00  0.00     0.010 A 
ATOM     29  C   UNL     1      -4.645  -9.348   8.610  1.00  0.00     0.010 A 
ATOM     30  C   UNL     1      -4.400  -9.348   9.992  1.00  0.00    -0.014 A 
BRANCH  30  31
ATOM     31  C   UNL     1      -5.355 -10.023  10.907  1.00  0.00     0.031 A 
ATOM     32  C   UNL     1      -5.564 -11.510  10.810  1.00  0.00     0.074 A 
ATOM     33  C   UNL     1      -6.067  -9.295  11.789  1.00  0.00     0.049 A 
ATOM     34  N   UNL     1      -6.396 -12.275  11.470  1.00  0.00    -0.248 NA
ATOM     35  C   UNL     1      -4.744 -12.229   9.822  1.00  0.00     0.031 C 
ATOM     36  C   UNL     1      -5.987  -7.842  11.948  1.00  0.00     0.029 A 
ATOM     37  N   UNL     1      -7.006  -9.678  12.713  1.00  0.00    -0.354 N 
ATOM     38  C   UNL     1      -6.202 -13.558  10.975  1.00  0.00     0.074 A 
ATOM     39  C   UNL     1      -5.223 -13.460   9.914  1.00  0.00     0.031 C 
ATOM     40  C   UNL     1      -6.826  -7.460  12.924  1.00  0.00     0.029 A 
ATOM     41  C   UNL     1      -7.527  -8.633  13.437  1.00  0.00     0.049 A 
ATOM     42  H   UNL     1      -7.281 -10.614  12.846  1.00  0.00     0.167 HD
ATOM     43  C   UNL     1      -6.763 -14.719  11.389  1.00  0.00     0.037 A 
ATOM     44  C   UNL     1      -8.466  -8.625  14.402  1.00  0.00     0.037 A 
ATOM     45  C   UNL     1      -7.725 -14.818  12.454  1.00  0.00     0.049 A 
ATOM     46  C   UNL     1      -9.079  -9.931  14.837  1.00  0.00     0.074 A 
ATOM     47  C   UNL     1      -8.348 -15.947  12.957  1.00  0.00     0.029 A 
ATOM     48  N   UNL     1      -8.198 -13.741  13.189  1.00  0.00    -0.354 N 
ATOM     49  N   UNL     1      -8.851 -11.143  14.393  1.00  0.00    -0.248 NA
ATOM     50  C   UNL     1     -10.070  -9.867  15.920  1.00  0.00     0.031 C 
ATOM     51  C   UNL     1      -9.219 -15.550  13.976  1.00  0.00     0.029 A 
ATOM     52  C   UNL     1      -9.104 -14.180  14.141  1.00  0.00     0.049 A 
ATOM     53  H   UNL     1      -7.930 -12.803  13.054  1.00  0.00     0.167 HD
ATOM     54  C   UNL     1      -9.636 -11.987  15.168  1.00  0.00     0.074 A 
ATOM     55  C   UNL     1     -10.336 -11.149  16.119  1.00  0.00     0.031 C 
ATOM     56  C   UNL     1      -9.767 -13.334  15.099  1.00  0.00     0.037 A 
BRANCH  43  57
ATOM     57  C   UNL     1      -6.331 -15.981  10.700  1.00  0.00     0.064 A 
ATOM     58  C   UNL     1      -5.040 -16.503  10.879  1.00  0.00     0.173 A 
ATOM     59  C   UNL     1      -7.220 -16.696   9.884  1.00  0.00     0.173 A 
ATOM     60  F   UNL     1      -4.147 -15.850  11.637  1.00  0.00    -0.203 F 
ATOM     61  C   UNL     1      -4.648 -17.679  10.245  1.00  0.00     0.198 A 
ATOM     62  C   UNL     1      -6.834 -17.889   9.277  1.00  0.00     0.198 A 
ATOM     63  F   UNL     1      -8.467 -16.244   9.682  1.00  0.00    -0.203 F 
ATOM     64  F   UNL     1      -3.395 -18.131  10.393  1.00  0.00    -0.200 F 
ATOM     65  C   UNL     1      -5.547 -18.375   9.452  1.00  0.00     0.200 A 
ATOM     66  F   UNL     1      -7.708 -18.567   8.521  1.00  0.00    -0.200 F 
ATOM     67  F   UNL     1      -5.171 -19.512   8.851  1.00  0.00    -0.200 F 
ENDBRANCH  43  57
BRANCH  44  68
ATOM     68  C   UNL     1      -8.872  -7.348  15.046  1.00  0.00     0.064 A 
ATOM     69  C   UNL     1      -8.574  -7.093  16.393  1.00  0.00     0.173 A 
ATOM     70  C   UNL     1      -9.599  -6.375  14.345  1.00  0.00     0.173 A 
ATOM     71  F   UNL     1      -7.898  -8.002  17.112  1.00  0.00    -0.203 F 
ATOM     72  C   UNL     1      -9.021  -5.934  17.024  1.00  0.00     0.198 A 
ATOM     73  C   UNL     1     -10.017  -5.201  14.968  1.00  0.00     0.198 A 
ATOM     74  F   UNL     1      -9.903  -6.565  13.053  1.00  0.00    -0.203 F 
ATOM     75  F   UNL     1      -8.778  -5.748  18.328  1.00  0.00    -0.200 F 
ATOM     76  C   UNL     1      -9.740  -4.987  16.310  1.00  0.00     0.200 A 
ATOM     77  F   UNL     1     -10.699  -4.282  14.271  1.00  0.00    -0.200 F 
ATOM     78  F   UNL     1     -10.175  -3.876  16.918  1.00  0.00    -0.200 F 
ENDBRANCH  44  68
BRANCH  56  79
ATOM     79  C   UNL     1     -10.649 -13.992  16.120  1.00  0.00     0.064 A 
ATOM     80  C   UNL     1     -12.045 -13.857  16.092  1.00  0.00     0.173 A 
ATOM     81  C   UNL     1     -10.086 -14.791  17.128  1.00  0.00     0.173 A 
ATOM     82  F   UNL     1     -12.630 -13.093  15.158  1.00  0.00    -0.203 F 
ATOM     83  C   UNL     1     -12.842 -14.471  17.055  1.00  0.00     0.198 A 
ATOM     84  C   UNL     1     -10.888 -15.428  18.069  1.00  0.00     0.198 A 
ATOM     85  F   UNL     1      -8.756 -14.959  17.194  1.00  0.00    -0.203 F 
ATOM     86  F   UNL     1     -14.168 -14.282  17.042  1.00  0.00    -0.200 F 
ATOM     87  C   UNL     1     -12.264 -15.260  18.038  1.00  0.00     0.200 A 
ATOM     88  F   UNL     1     -10.329 -16.202  19.010  1.00  0.00    -0.200 F 
ATOM     89  F   UNL     1     -13.033 -15.852  18.962  1.00  0.00    -0.200 F 
ENDBRANCH  56  79
ENDBRANCH  30  31
ENDBRANCH  22  25
ENDBRANCH  20  21
ENDBRANCH  19  20
ENDBRANCH   1  19
TORSDOF 13
