REMARK SMILES CC(C)[C@@H](CNC(=O)[C@@H]1CC[C@@H]2CCCC[C@@H]2[NH2+]1)C(=O)NCCCCNC(=O)c1ccc(-c2c3nc(c(-c4c(F)c(F)c(F)c(F)c4F)c4ccc([nH]4)c(-c4c(F)c(F)c(F)c(F)c4F)c4nc(c(-c5c(F)c(F)c(F)c(F)c5F)c5ccc2[nH]5)C=C4)C=C3)cc1
REMARK SMILES IDX 23 1 22 2 21 3 19 4 20 5 4 7 2 8 1 9 3 10 5 11 6 12 7 13
REMARK SMILES IDX 8 15 9 16 10 17 18 18 11 19 17 20 12 23 16 24 13 25 15 26
REMARK SMILES IDX 14 27 24 28 25 29 26 30 27 31 28 33 29 34 30 35 91 36 31 37
REMARK SMILES IDX 90 38 32 39 33 40 34 41 84 42 35 43 89 44 83 45 85 46 36 47
REMARK SMILES IDX 88 48 82 49 81 50 37 52 69 53 49 54 68 55 50 56 53 57 67 58
REMARK SMILES IDX 86 59 51 60 52 61 66 63 87 64 54 65 38 66 39 67 47 68 40 69
REMARK SMILES IDX 41 70 45 71 48 72 42 73 43 74 46 75 44 76 70 77 71 78 79 79
REMARK SMILES IDX 72 80 73 81 77 82 80 83 74 84 75 85 78 86 76 87 55 88 56 89
REMARK SMILES IDX 64 90 57 91 58 92 62 93 65 94 59 95 60 96 63 97 61 98
REMARK H PARENT 21 6 6 14 18 21 18 22 26 32 85 51 53 62
REMARK Flexibility Score: inf
ROOT
ATOM      1  C   UNL     1       1.160   2.725  -4.192  1.00  0.00     0.023 C 
ENDROOT
BRANCH   1   2
ATOM      2  C   UNL     1      -0.055   2.528  -3.298  1.00  0.00     0.116 C 
BRANCH   2   3
ATOM      3  N   UNL     1      -0.877   1.393  -3.662  1.00  0.00    -0.356 N 
ATOM      4  C   UNL     1      -1.404   0.393  -2.905  1.00  0.00     0.225 C 
ATOM      5  O   UNL     1      -2.267  -0.313  -3.438  1.00  0.00    -0.275 OA
ATOM      6  H   UNL     1      -1.091   1.335  -4.621  1.00  0.00     0.163 HD
BRANCH   4   7
ATOM      7  C   UNL     1      -0.994   0.115  -1.454  1.00  0.00     0.100 C 
BRANCH   7   8
ATOM      8  C   UNL     1       0.534  -0.048  -1.230  1.00  0.00    -0.003 C 
ATOM      9  C   UNL     1       0.881  -0.378   0.225  1.00  0.00     0.008 C 
ATOM     10  C   UNL     1       1.102  -1.147  -2.142  1.00  0.00     0.008 C 
ENDBRANCH   7   8
BRANCH   7  11
ATOM     11  C   UNL     1      -1.769   1.019  -0.472  1.00  0.00     0.129 C 
BRANCH  11  12
ATOM     12  N   UNL     1      -1.337   2.402  -0.465  1.00  0.00    -0.350 N 
ATOM     13  C   UNL     1      -2.030   3.512  -0.874  1.00  0.00     0.278 C 
ATOM     14  H   UNL     1      -0.428   2.566  -0.123  1.00  0.00     0.163 HD
ATOM     15  O   UNL     1      -1.372   4.483  -1.249  1.00  0.00    -0.268 OA
BRANCH  13  16
ATOM     16  C   UNL     1      -3.572   3.501  -0.810  1.00  0.00     0.272 C 
ATOM     17  C   UNL     1      -4.223   4.715  -1.479  1.00  0.00     0.076 C 
ATOM     18  N   UNL     1      -4.024   3.360   0.588  1.00  0.00    -0.333 N 
ATOM     19  C   UNL     1      -4.009   6.008  -0.703  1.00  0.00     0.016 C 
ATOM     20  C   UNL     1      -3.862   4.557   1.425  1.00  0.00     0.186 C 
ATOM     21  H   UNL     1      -3.491   2.602   1.016  1.00  0.00     0.347 HD
ATOM     22  H   UNL     1      -5.027   3.180   0.543  1.00  0.00     0.347 HD
ATOM     23  C   UNL     1      -4.386   5.853   0.775  1.00  0.00     0.048 C 
ATOM     24  C   UNL     1      -2.483   4.686   2.112  1.00  0.00     0.065 C 
ATOM     25  C   UNL     1      -3.946   7.065   1.603  1.00  0.00     0.010 C 
ATOM     26  C   UNL     1      -1.656   5.906   1.717  1.00  0.00     0.006 C 
ATOM     27  C   UNL     1      -2.429   7.222   1.688  1.00  0.00     0.001 C 
ENDBRANCH  13  16
ENDBRANCH  11  12
ENDBRANCH   7  11
ENDBRANCH   4   7
ENDBRANCH   2   3
ENDBRANCH   1   2
BRANCH   1  28
ATOM     28  C   UNL     1       0.850   3.361  -5.543  1.00  0.00     0.023 C 
BRANCH  28  29
ATOM     29  C   UNL     1       0.052   4.662  -5.497  1.00  0.00     0.116 C 
BRANCH  29  30
ATOM     30  N   UNL     1       0.645   5.697  -4.658  1.00  0.00    -0.352 N 
ATOM     31  C   UNL     1       0.818   7.032  -4.944  1.00  0.00     0.251 C 
ATOM     32  H   UNL     1       0.963   5.403  -3.774  1.00  0.00     0.163 HD
ATOM     33  O   UNL     1       1.418   7.778  -4.179  1.00  0.00    -0.269 OA
BRANCH  31  34
ATOM     34  C   UNL     1       0.300   7.549  -6.226  1.00  0.00     0.039 A 
ATOM     35  C   UNL     1       1.178   8.190  -7.102  1.00  0.00     0.014 A 
ATOM     36  C   UNL     1      -1.025   7.302  -6.594  1.00  0.00     0.014 A 
ATOM     37  C   UNL     1       0.751   8.494  -8.395  1.00  0.00     0.010 A 
ATOM     38  C   UNL     1      -1.423   7.537  -7.904  1.00  0.00     0.010 A 
ATOM     39  C   UNL     1      -0.534   8.119  -8.822  1.00  0.00    -0.014 A 
BRANCH  39  40
ATOM     40  C   UNL     1      -0.963   8.296 -10.231  1.00  0.00     0.031 A 
ATOM     41  C   UNL     1      -2.109   9.207 -10.558  1.00  0.00     0.074 A 
ATOM     42  C   UNL     1      -0.379   7.567 -11.203  1.00  0.00     0.049 A 
ATOM     43  N   UNL     1      -2.698   9.418 -11.708  1.00  0.00    -0.248 NA
ATOM     44  C   UNL     1      -2.693   9.959  -9.436  1.00  0.00     0.031 C 
ATOM     45  C   UNL     1       0.709   6.607 -11.005  1.00  0.00     0.029 A 
ATOM     46  N   UNL     1      -0.628   7.511 -12.551  1.00  0.00    -0.354 N 
ATOM     47  C   UNL     1      -3.729  10.309 -11.444  1.00  0.00     0.074 A 
ATOM     48  C   UNL     1      -3.719  10.559 -10.019  1.00  0.00     0.031 C 
ATOM     49  C   UNL     1       1.049   6.077 -12.191  1.00  0.00     0.029 A 
ATOM     50  C   UNL     1       0.181   6.629 -13.226  1.00  0.00     0.049 A 
ATOM     51  H   UNL     1      -1.322   8.051 -12.994  1.00  0.00     0.167 HD
ATOM     52  C   UNL     1      -4.590  10.886 -12.316  1.00  0.00     0.037 A 
ATOM     53  C   UNL     1       0.213   6.300 -14.531  1.00  0.00     0.037 A 
ATOM     54  C   UNL     1      -4.578  10.659 -13.736  1.00  0.00     0.049 A 
ATOM     55  C   UNL     1      -0.754   6.956 -15.478  1.00  0.00     0.074 A 
ATOM     56  C   UNL     1      -5.368  11.243 -14.710  1.00  0.00     0.029 A 
ATOM     57  N   UNL     1      -3.728   9.776 -14.386  1.00  0.00    -0.354 N 
ATOM     58  N   UNL     1      -1.683   7.845 -15.228  1.00  0.00    -0.248 NA
ATOM     59  C   UNL     1      -0.666   6.562 -16.892  1.00  0.00     0.031 C 
ATOM     60  C   UNL     1      -5.020  10.688 -15.946  1.00  0.00     0.029 A 
ATOM     61  C   UNL     1      -3.986   9.787 -15.747  1.00  0.00     0.049 A 
ATOM     62  H   UNL     1      -3.043   9.223 -13.944  1.00  0.00     0.167 HD
ATOM     63  C   UNL     1      -2.271   8.138 -16.450  1.00  0.00     0.074 A 
ATOM     64  C   UNL     1      -1.586   7.339 -17.445  1.00  0.00     0.031 C 
ATOM     65  C   UNL     1      -3.287   8.993 -16.724  1.00  0.00     0.037 A 
BRANCH  52  66
ATOM     66  C   UNL     1      -5.611  11.828 -11.751  1.00  0.00     0.064 A 
ATOM     67  C   UNL     1      -5.248  13.086 -11.248  1.00  0.00     0.173 A 
ATOM     68  C   UNL     1      -6.970  11.479 -11.730  1.00  0.00     0.173 A 
ATOM     69  F   UNL     1      -3.960  13.461 -11.232  1.00  0.00    -0.203 F 
ATOM     70  C   UNL     1      -6.204  13.948 -10.715  1.00  0.00     0.198 A 
ATOM     71  C   UNL     1      -7.926  12.355 -11.224  1.00  0.00     0.198 A 
ATOM     72  F   UNL     1      -7.370  10.289 -12.204  1.00  0.00    -0.203 F 
ATOM     73  F   UNL     1      -5.826  15.123 -10.193  1.00  0.00    -0.200 F 
ATOM     74  C   UNL     1      -7.542  13.584 -10.709  1.00  0.00     0.200 A 
ATOM     75  F   UNL     1      -9.220  12.007 -11.228  1.00  0.00    -0.200 F 
ATOM     76  F   UNL     1      -8.460  14.415 -10.199  1.00  0.00    -0.200 F 
ENDBRANCH  52  66
BRANCH  53  77
ATOM     77  C   UNL     1       1.219   5.326 -15.027  1.00  0.00     0.064 A 
ATOM     78  C   UNL     1       2.295   5.751 -15.818  1.00  0.00     0.173 A 
ATOM     79  C   UNL     1       1.127   3.960 -14.727  1.00  0.00     0.173 A 
ATOM     80  F   UNL     1       2.412   7.045 -16.148  1.00  0.00    -0.203 F 
ATOM     81  C   UNL     1       3.233   4.843 -16.305  1.00  0.00     0.198 A 
ATOM     82  C   UNL     1       2.080   3.056 -15.194  1.00  0.00     0.198 A 
ATOM     83  F   UNL     1       0.118   3.504 -13.971  1.00  0.00    -0.203 F 
ATOM     84  F   UNL     1       4.230   5.271 -17.092  1.00  0.00    -0.200 F 
ATOM     85  C   UNL     1       3.128   3.498 -15.988  1.00  0.00     0.200 A 
ATOM     86  F   UNL     1       1.982   1.758 -14.877  1.00  0.00    -0.200 F 
ATOM     87  F   UNL     1       4.032   2.625 -16.454  1.00  0.00    -0.200 F 
ENDBRANCH  53  77
BRANCH  65  88
ATOM     88  C   UNL     1      -3.697   9.135 -18.159  1.00  0.00     0.064 A 
ATOM     89  C   UNL     1      -4.423   8.133 -18.817  1.00  0.00     0.173 A 
ATOM     90  C   UNL     1      -3.397  10.307 -18.869  1.00  0.00     0.173 A 
ATOM     91  F   UNL     1      -4.719   6.987 -18.184  1.00  0.00    -0.203 F 
ATOM     92  C   UNL     1      -4.819   8.291 -20.142  1.00  0.00     0.198 A 
ATOM     93  C   UNL     1      -3.817  10.473 -20.186  1.00  0.00     0.198 A 
ATOM     94  F   UNL     1      -2.708  11.296 -18.281  1.00  0.00    -0.203 F 
ATOM     95  F   UNL     1      -5.479   7.305 -20.765  1.00  0.00    -0.200 F 
ATOM     96  C   UNL     1      -4.523   9.463 -20.822  1.00  0.00     0.200 A 
ATOM     97  F   UNL     1      -3.539  11.610 -20.838  1.00  0.00    -0.200 F 
ATOM     98  F   UNL     1      -4.912   9.617 -22.096  1.00  0.00    -0.200 F 
ENDBRANCH  65  88
ENDBRANCH  39  40
ENDBRANCH  31  34
ENDBRANCH  29  30
ENDBRANCH  28  29
ENDBRANCH   1  28
TORSDOF 15
