REMARK SMILES CS(=O)(=O)c1ccc(/C=C(/C(=O)NCCCCNC(=O)c2ccc(-c3c4nc(c(-c5c(F)c(F)c(F)c(F)c5F)c5ccc([nH]5)c(-c5c(F)c(F)c(F)c(F)c5F)c5nc(c(-c6c(F)c(F)c(F)c(F)c6F)c6ccc3[nH]6)C=C5)C=C4)cc2)c2cccc(Br)c2)cc1
REMARK SMILES IDX 15 1 14 2 13 3 11 4 12 5 10 7 9 8 8 9 5 10 6 11 92 12 7 13
REMARK SMILES IDX 91 14 2 15 1 16 3 17 4 18 84 19 85 20 90 21 86 22 88 23
REMARK SMILES IDX 87 24 89 25 16 26 17 27 18 28 19 29 20 31 21 32 22 33 83 34
REMARK SMILES IDX 23 35 82 36 24 37 25 38 26 39 76 40 27 41 81 42 75 43 77 44
REMARK SMILES IDX 28 45 80 46 74 47 73 48 29 50 61 51 41 52 60 53 42 54 45 55
REMARK SMILES IDX 59 56 78 57 43 58 44 59 58 61 79 62 46 63 30 64 31 65 39 66
REMARK SMILES IDX 32 67 33 68 37 69 40 70 34 71 35 72 38 73 36 74 62 75 63 76
REMARK SMILES IDX 71 77 64 78 65 79 69 80 72 81 66 82 67 83 70 84 68 85 47 86
REMARK SMILES IDX 48 87 56 88 49 89 50 90 54 91 57 92 51 93 52 94 55 95 53 96
REMARK H PARENT 13 6 18 30 77 49 45 60
REMARK Flexibility Score: inf
ROOT
ATOM      1  C   UNL     1       1.741   8.326  -4.250  1.00  0.00     0.023 C 
ENDROOT
BRANCH   1   2
ATOM      2  C   UNL     1       1.376   7.455  -5.457  1.00  0.00     0.116 C 
BRANCH   2   3
ATOM      3  N   UNL     1       2.559   7.187  -6.249  1.00  0.00    -0.352 N 
ATOM      4  C   UNL     1       3.417   6.136  -6.336  1.00  0.00     0.251 C 
ATOM      5  O   UNL     1       4.377   6.292  -7.096  1.00  0.00    -0.269 OA
ATOM      6  H   UNL     1       2.793   7.926  -6.855  1.00  0.00     0.163 HD
BRANCH   4   7
ATOM      7  C   UNL     1       3.199   4.809  -5.638  1.00  0.00     0.047 C 
ATOM      8  C   UNL     1       2.575   4.718  -4.440  1.00  0.00     0.022 C 
BRANCH   8   9
ATOM      9  C   UNL     1       2.119   3.528  -3.686  1.00  0.00    -0.025 A 
ATOM     10  C   UNL     1       1.009   1.301  -2.388  1.00  0.00     0.067 A 
ATOM     11  C   UNL     1       2.292   1.222  -2.931  1.00  0.00     0.021 A 
ATOM     12  C   UNL     1       0.281   2.487  -2.458  1.00  0.00     0.021 A 
ATOM     13  C   UNL     1       2.855   2.347  -3.539  1.00  0.00     0.009 A 
ATOM     14  C   UNL     1       0.839   3.593  -3.105  1.00  0.00     0.009 A 
BRANCH  10  15
ATOM     15  S   UNL     1       0.292  -0.137  -1.633  1.00  0.00     0.175 S 
ATOM     16  C   UNL     1       0.941  -0.078   0.016  1.00  0.00     0.163 C 
ATOM     17  O   UNL     1       0.840  -1.300  -2.299  1.00  0.00    -0.224 OA
ATOM     18  O   UNL     1      -1.143   0.075  -1.559  1.00  0.00    -0.224 OA
ENDBRANCH  10  15
ENDBRANCH   8   9
BRANCH   7  19
ATOM     19  C   UNL     1       3.867   3.624  -6.235  1.00  0.00    -0.012 A 
ATOM     20  C   UNL     1       5.274   3.585  -6.227  1.00  0.00     0.009 A 
ATOM     21  C   UNL     1       3.160   2.505  -6.692  1.00  0.00     0.024 A 
ATOM     22  C   UNL     1       5.964   2.442  -6.624  1.00  0.00     0.002 A 
ATOM     23  C   UNL     1       3.859   1.351  -7.056  1.00  0.00     0.018 A 
ATOM     24  C   UNL     1       5.254   1.313  -7.021  1.00  0.00     0.016 A 
ATOM     25  Br  UNL     1       2.902  -0.211  -7.529  1.00  0.00    -0.051 Br
ENDBRANCH   7  19
ENDBRANCH   4   7
ENDBRANCH   2   3
ENDBRANCH   1   2
BRANCH   1  26
ATOM     26  C   UNL     1       2.054   9.782  -4.609  1.00  0.00     0.023 C 
BRANCH  26  27
ATOM     27  C   UNL     1       0.908  10.534  -5.272  1.00  0.00     0.116 C 
BRANCH  27  28
ATOM     28  N   UNL     1      -0.296  10.579  -4.453  1.00  0.00    -0.352 N 
ATOM     29  C   UNL     1      -1.193  11.614  -4.330  1.00  0.00     0.251 C 
ATOM     30  H   UNL     1      -0.491   9.771  -3.924  1.00  0.00     0.163 HD
ATOM     31  O   UNL     1      -2.104  11.570  -3.513  1.00  0.00    -0.269 OA
BRANCH  29  32
ATOM     32  C   UNL     1      -1.007  12.800  -5.185  1.00  0.00     0.039 A 
ATOM     33  C   UNL     1      -0.890  14.059  -4.593  1.00  0.00     0.014 A 
ATOM     34  C   UNL     1      -0.852  12.638  -6.564  1.00  0.00     0.014 A 
ATOM     35  C   UNL     1      -0.542  15.156  -5.382  1.00  0.00     0.010 A 
ATOM     36  C   UNL     1      -0.429  13.713  -7.330  1.00  0.00     0.010 A 
ATOM     37  C   UNL     1      -0.269  14.982  -6.748  1.00  0.00    -0.014 A 
BRANCH  37  38
ATOM     38  C   UNL     1       0.163  16.105  -7.617  1.00  0.00     0.031 A 
ATOM     39  C   UNL     1      -0.702  16.503  -8.779  1.00  0.00     0.074 A 
ATOM     40  C   UNL     1       1.366  16.682  -7.434  1.00  0.00     0.049 A 
ATOM     41  N   UNL     1      -0.438  17.311  -9.773  1.00  0.00    -0.248 NA
ATOM     42  C   UNL     1      -2.031  15.875  -8.850  1.00  0.00     0.031 C 
ATOM     43  C   UNL     1       2.304  16.367  -6.356  1.00  0.00     0.029 A 
ATOM     44  N   UNL     1       2.019  17.640  -8.172  1.00  0.00    -0.354 N 
ATOM     45  C   UNL     1      -1.553  17.264 -10.598  1.00  0.00     0.074 A 
ATOM     46  C   UNL     1      -2.474  16.311 -10.019  1.00  0.00     0.031 C 
ATOM     47  C   UNL     1       3.407  17.120  -6.498  1.00  0.00     0.029 A 
ATOM     48  C   UNL     1       3.278  17.931  -7.706  1.00  0.00     0.049 A 
ATOM     49  H   UNL     1       1.621  18.076  -8.960  1.00  0.00     0.167 HD
ATOM     50  C   UNL     1      -1.794  17.970 -11.728  1.00  0.00     0.037 A 
ATOM     51  C   UNL     1       4.229  18.740  -8.213  1.00  0.00     0.037 A 
ATOM     52  C   UNL     1      -0.883  18.935 -12.281  1.00  0.00     0.049 A 
ATOM     53  C   UNL     1       3.950  19.491  -9.490  1.00  0.00     0.074 A 
ATOM     54  C   UNL     1      -1.052  19.740 -13.393  1.00  0.00     0.029 A 
ATOM     55  N   UNL     1       0.371  19.222 -11.763  1.00  0.00    -0.354 N 
ATOM     56  N   UNL     1       2.873  19.478 -10.238  1.00  0.00    -0.248 NA
ATOM     57  C   UNL     1       5.016  20.368  -9.994  1.00  0.00     0.031 C 
ATOM     58  C   UNL     1       0.122  20.473 -13.582  1.00  0.00     0.029 A 
ATOM     59  C   UNL     1       0.995  20.178 -12.547  1.00  0.00     0.049 A 
ATOM     60  H   UNL     1       0.759  18.809 -10.958  1.00  0.00     0.167 HD
ATOM     61  C   UNL     1       3.113  20.376 -11.270  1.00  0.00     0.074 A 
ATOM     62  C   UNL     1       4.440  20.914 -11.056  1.00  0.00     0.031 C 
ATOM     63  C   UNL     1       2.303  20.728 -12.297  1.00  0.00     0.037 A 
BRANCH  50  64
ATOM     64  C   UNL     1      -3.090  17.719 -12.443  1.00  0.00     0.064 A 
ATOM     65  C   UNL     1      -4.325  18.090 -11.889  1.00  0.00     0.173 A 
ATOM     66  C   UNL     1      -3.096  17.129 -13.716  1.00  0.00     0.173 A 
ATOM     67  F   UNL     1      -4.377  18.647 -10.669  1.00  0.00    -0.203 F 
ATOM     68  C   UNL     1      -5.517  17.849 -12.566  1.00  0.00     0.198 A 
ATOM     69  C   UNL     1      -4.287  16.923 -14.407  1.00  0.00     0.198 A 
ATOM     70  F   UNL     1      -1.944  16.759 -14.297  1.00  0.00    -0.203 F 
ATOM     71  F   UNL     1      -6.686  18.160 -11.991  1.00  0.00    -0.200 F 
ATOM     72  C   UNL     1      -5.496  17.274 -13.828  1.00  0.00     0.200 A 
ATOM     73  F   UNL     1      -4.264  16.382 -15.633  1.00  0.00    -0.200 F 
ATOM     74  F   UNL     1      -6.644  17.051 -14.482  1.00  0.00    -0.200 F 
ENDBRANCH  50  64
BRANCH  51  75
ATOM     75  C   UNL     1       5.533  18.891  -7.512  1.00  0.00     0.064 A 
ATOM     76  C   UNL     1       5.890  20.108  -6.912  1.00  0.00     0.173 A 
ATOM     77  C   UNL     1       6.453  17.835  -7.437  1.00  0.00     0.173 A 
ATOM     78  F   UNL     1       5.053  21.154  -6.973  1.00  0.00    -0.203 F 
ATOM     79  C   UNL     1       7.126  20.270  -6.289  1.00  0.00     0.198 A 
ATOM     80  C   UNL     1       7.675  17.988  -6.784  1.00  0.00     0.198 A 
ATOM     81  F   UNL     1       6.161  16.648  -7.987  1.00  0.00    -0.203 F 
ATOM     82  F   UNL     1       7.461  21.459  -5.771  1.00  0.00    -0.200 F 
ATOM     83  C   UNL     1       8.015  19.209  -6.220  1.00  0.00     0.200 A 
ATOM     84  F   UNL     1       8.525  16.955  -6.706  1.00  0.00    -0.200 F 
ATOM     85  F   UNL     1       9.202  19.364  -5.619  1.00  0.00    -0.200 F 
ENDBRANCH  51  75
BRANCH  63  86
ATOM     86  C   UNL     1       2.781  21.798 -13.236  1.00  0.00     0.064 A 
ATOM     87  C   UNL     1       3.785  21.561 -14.184  1.00  0.00     0.173 A 
ATOM     88  C   UNL     1       2.146  23.051 -13.246  1.00  0.00     0.173 A 
ATOM     89  F   UNL     1       4.430  20.386 -14.205  1.00  0.00    -0.203 F 
ATOM     90  C   UNL     1       4.140  22.542 -15.107  1.00  0.00     0.198 A 
ATOM     91  C   UNL     1       2.482  24.017 -14.190  1.00  0.00     0.198 A 
ATOM     92  F   UNL     1       1.175  23.324 -12.363  1.00  0.00    -0.203 F 
ATOM     93  F   UNL     1       5.121  22.305 -15.989  1.00  0.00    -0.200 F 
ATOM     94  C   UNL     1       3.479  23.762 -15.118  1.00  0.00     0.200 A 
ATOM     95  F   UNL     1       1.829  25.187 -14.210  1.00  0.00    -0.200 F 
ATOM     96  F   UNL     1       3.804  24.694 -16.025  1.00  0.00    -0.200 F 
ENDBRANCH  63  86
ENDBRANCH  37  38
ENDBRANCH  29  32
ENDBRANCH  27  28
ENDBRANCH  26  27
ENDBRANCH   1  26
TORSDOF 14
