REMARK SMILES CCc1cccc(OCC(=O)N/N=C/c2ccc(C(=O)NCCCCNC(=O)c3ccc(-c4c5nc(c(-c6c(F)c(F)c(F)c(F)c6F)c6ccc([nH]6)c(-c6c(F)c(F)c(F)c(F)c6F)c6nc(c(-c7c(F)c(F)c(F)c(F)c7F)c7ccc4[nH]7)C=C6)C=C5)cc3)cc2)c1
REMARK SMILES IDX 19 1 20 2 21 3 18 5 15 6 16 7 93 8 17 9 92 10 14 11 13 12
REMARK SMILES IDX 12 13 10 14 11 15 9 17 8 18 7 19 3 20 4 21 94 22 5 23 6 24
REMARK SMILES IDX 2 25 1 26 22 27 23 28 24 29 25 30 26 31 27 32 28 34 29 35
REMARK SMILES IDX 30 36 91 37 31 38 90 39 32 40 33 41 34 42 84 43 35 44 89 45
REMARK SMILES IDX 83 46 85 47 36 48 88 49 82 50 81 51 37 53 69 54 49 55 68 56
REMARK SMILES IDX 50 57 53 58 67 59 86 60 51 61 52 62 66 64 87 65 54 66 38 67
REMARK SMILES IDX 39 68 47 69 40 70 41 71 45 72 48 73 42 74 43 75 46 76 44 77
REMARK SMILES IDX 70 78 71 79 79 80 72 81 73 82 77 83 80 84 74 85 75 86 78 87
REMARK SMILES IDX 76 88 55 89 56 90 64 91 57 92 58 93 62 94 65 95 59 96 60 97
REMARK SMILES IDX 63 98 61 99
REMARK H PARENT 21 4 12 16 26 33 85 52 53 63
REMARK Flexibility Score: inf
ROOT
ATOM      1  C   UNL     1       4.655  -5.731 -10.767  1.00  0.00     0.251 C 
ATOM      2  O   UNL     1       5.078  -6.740 -10.202  1.00  0.00    -0.269 OA
ATOM      3  N   UNL     1       4.528  -5.767 -12.132  1.00  0.00    -0.352 N 
ATOM      4  H   UNL     1       4.822  -6.610 -12.546  1.00  0.00     0.163 HD
ENDROOT
BRANCH   1   5
ATOM      5  C   UNL     1       4.274  -4.547  -9.946  1.00  0.00     0.039 A 
ATOM      6  C   UNL     1       3.600  -2.429  -8.264  1.00  0.00    -0.005 A 
ATOM      7  C   UNL     1       3.570  -3.729  -7.766  1.00  0.00     0.010 A 
ATOM      8  C   UNL     1       3.970  -2.162  -9.575  1.00  0.00     0.010 A 
ATOM      9  C   UNL     1       3.890  -4.788  -8.616  1.00  0.00     0.014 A 
ATOM     10  C   UNL     1       4.341  -3.222 -10.396  1.00  0.00     0.014 A 
BRANCH   6  11
ATOM     11  C   UNL     1       3.433  -1.297  -7.358  1.00  0.00     0.141 C 
ATOM     12  N   UNL     1       2.484  -0.446  -7.525  1.00  0.00    -0.181 NA
BRANCH  12  13
ATOM     13  N   UNL     1       2.317   0.631  -6.709  1.00  0.00    -0.244 N 
ATOM     14  C   UNL     1       2.861   1.040  -5.520  1.00  0.00     0.277 C 
ATOM     15  O   UNL     1       2.521   2.148  -5.083  1.00  0.00    -0.269 OA
ATOM     16  H   UNL     1       1.648   1.265  -7.054  1.00  0.00     0.193 HD
BRANCH  14  17
ATOM     17  C   UNL     1       3.883   0.212  -4.739  1.00  0.00     0.331 C 
BRANCH  17  18
ATOM     18  O   UNL     1       3.559  -1.139  -4.445  1.00  0.00    -0.484 OA
BRANCH  18  19
ATOM     19  C   UNL     1       2.454  -1.366  -3.675  1.00  0.00     0.120 A 
ATOM     20  C   UNL     1       0.732  -0.767  -2.072  1.00  0.00    -0.045 A 
ATOM     21  C   UNL     1       0.217  -2.065  -2.148  1.00  0.00     0.004 A 
ATOM     22  C   UNL     1       1.856  -0.427  -2.838  1.00  0.00     0.050 A 
ATOM     23  C   UNL     1       0.817  -3.010  -2.979  1.00  0.00     0.004 A 
ATOM     24  C   UNL     1       1.937  -2.661  -3.734  1.00  0.00     0.046 A 
BRANCH  20  25
ATOM     25  C   UNL     1       0.137   0.254  -1.138  1.00  0.00     0.032 C 
ATOM     26  C   UNL     1       0.791   0.185   0.234  1.00  0.00     0.009 C 
ENDBRANCH  20  25
ENDBRANCH  18  19
ENDBRANCH  17  18
ENDBRANCH  14  17
ENDBRANCH  12  13
ENDBRANCH   6  11
ENDBRANCH   1   5
BRANCH   3  27
ATOM     27  C   UNL     1       4.035  -4.779 -13.069  1.00  0.00     0.116 C 
BRANCH  27  28
ATOM     28  C   UNL     1       5.196  -3.971 -13.657  1.00  0.00     0.023 C 
BRANCH  28  29
ATOM     29  C   UNL     1       5.936  -4.670 -14.795  1.00  0.00     0.023 C 
BRANCH  29  30
ATOM     30  C   UNL     1       5.084  -4.940 -16.024  1.00  0.00     0.116 C 
BRANCH  30  31
ATOM     31  N   UNL     1       4.492  -3.738 -16.591  1.00  0.00    -0.352 N 
ATOM     32  C   UNL     1       4.135  -3.509 -17.898  1.00  0.00     0.251 C 
ATOM     33  H   UNL     1       4.328  -2.999 -15.961  1.00  0.00     0.163 HD
ATOM     34  O   UNL     1       3.740  -2.409 -18.259  1.00  0.00    -0.269 OA
BRANCH  32  35
ATOM     35  C   UNL     1       4.286  -4.607 -18.871  1.00  0.00     0.039 A 
ATOM     36  C   UNL     1       5.010  -4.371 -20.041  1.00  0.00     0.014 A 
ATOM     37  C   UNL     1       3.769  -5.875 -18.595  1.00  0.00     0.014 A 
ATOM     38  C   UNL     1       5.271  -5.430 -20.909  1.00  0.00     0.010 A 
ATOM     39  C   UNL     1       4.093  -6.943 -19.422  1.00  0.00     0.010 A 
ATOM     40  C   UNL     1       4.844  -6.729 -20.588  1.00  0.00    -0.014 A 
BRANCH  40  41
ATOM     41  C   UNL     1       5.168  -7.879 -21.464  1.00  0.00     0.031 A 
ATOM     42  C   UNL     1       4.065  -8.619 -22.166  1.00  0.00     0.074 A 
ATOM     43  C   UNL     1       6.444  -8.293 -21.574  1.00  0.00     0.049 A 
ATOM     44  N   UNL     1       4.135  -9.682 -22.925  1.00  0.00    -0.248 NA
ATOM     45  C   UNL     1       2.698  -8.114 -21.962  1.00  0.00     0.031 C 
ATOM     46  C   UNL     1       7.591  -7.688 -20.895  1.00  0.00     0.029 A 
ATOM     47  N   UNL     1       6.989  -9.328 -22.290  1.00  0.00    -0.354 N 
ATOM     48  C   UNL     1       2.825  -9.980 -23.275  1.00  0.00     0.074 A 
ATOM     49  C   UNL     1       1.976  -9.021 -22.602  1.00  0.00     0.031 C 
ATOM     50  C   UNL     1       8.707  -8.348 -21.245  1.00  0.00     0.029 A 
ATOM     51  C   UNL     1       8.350  -9.440 -22.146  1.00  0.00     0.049 A 
ATOM     52  H   UNL     1       6.455  -9.934 -22.854  1.00  0.00     0.167 HD
ATOM     53  C   UNL     1       2.374 -10.950 -24.105  1.00  0.00     0.037 A 
ATOM     54  C   UNL     1       9.210 -10.326 -22.682  1.00  0.00     0.037 A 
ATOM     55  C   UNL     1       3.226 -11.882 -24.795  1.00  0.00     0.049 A 
ATOM     56  C   UNL     1       8.685 -11.386 -23.611  1.00  0.00     0.074 A 
ATOM     57  C   UNL     1       2.874 -12.862 -25.706  1.00  0.00     0.029 A 
ATOM     58  N   UNL     1       4.604 -11.946 -24.648  1.00  0.00    -0.354 N 
ATOM     59  N   UNL     1       7.452 -11.614 -23.994  1.00  0.00    -0.248 NA
ATOM     60  C   UNL     1       9.672 -12.308 -24.189  1.00  0.00     0.031 C 
ATOM     61  C   UNL     1       4.035 -13.546 -26.081  1.00  0.00     0.029 A 
ATOM     62  C   UNL     1       5.116 -12.962 -25.439  1.00  0.00     0.049 A 
ATOM     63  H   UNL     1       5.139 -11.358 -24.068  1.00  0.00     0.167 HD
ATOM     64  C   UNL     1       7.517 -12.682 -24.877  1.00  0.00     0.074 A 
ATOM     65  C   UNL     1       8.914 -13.049 -24.985  1.00  0.00     0.031 C 
ATOM     66  C   UNL     1       6.511 -13.305 -25.540  1.00  0.00     0.037 A 
BRANCH  53  67
ATOM     67  C   UNL     1       0.891 -11.044 -24.317  1.00  0.00     0.064 A 
ATOM     68  C   UNL     1       0.189 -10.066 -25.038  1.00  0.00     0.173 A 
ATOM     69  C   UNL     1       0.168 -12.138 -23.819  1.00  0.00     0.173 A 
ATOM     70  F   UNL     1       0.832  -8.993 -25.523  1.00  0.00    -0.203 F 
ATOM     71  C   UNL     1      -1.187 -10.165 -25.226  1.00  0.00     0.198 A 
ATOM     72  C   UNL     1      -1.203 -12.248 -24.035  1.00  0.00     0.198 A 
ATOM     73  F   UNL     1       0.792 -13.103 -23.126  1.00  0.00    -0.203 F 
ATOM     74  F   UNL     1      -1.844  -9.192 -25.873  1.00  0.00    -0.200 F 
ATOM     75  C   UNL     1      -1.881 -11.258 -24.731  1.00  0.00     0.200 A 
ATOM     76  F   UNL     1      -1.870 -13.312 -23.565  1.00  0.00    -0.200 F 
ATOM     77  F   UNL     1      -3.204 -11.354 -24.917  1.00  0.00    -0.200 F 
ENDBRANCH  53  67
BRANCH  54  78
ATOM     78  C   UNL     1      10.662 -10.227 -22.381  1.00  0.00     0.064 A 
ATOM     79  C   UNL     1      11.573  -9.819 -23.366  1.00  0.00     0.173 A 
ATOM     80  C   UNL     1      11.169 -10.538 -21.111  1.00  0.00     0.173 A 
ATOM     81  F   UNL     1      11.137  -9.530 -24.601  1.00  0.00    -0.203 F 
ATOM     82  C   UNL     1      12.938  -9.747 -23.098  1.00  0.00     0.198 A 
ATOM     83  C   UNL     1      12.531 -10.439 -20.837  1.00  0.00     0.198 A 
ATOM     84  F   UNL     1      10.338 -10.926 -20.133  1.00  0.00    -0.203 F 
ATOM     85  F   UNL     1      13.791  -9.397 -24.070  1.00  0.00    -0.200 F 
ATOM     86  C   UNL     1      13.415 -10.052 -21.833  1.00  0.00     0.200 A 
ATOM     87  F   UNL     1      12.987 -10.721 -19.609  1.00  0.00    -0.200 F 
ATOM     88  F   UNL     1      14.728  -9.979 -21.575  1.00  0.00    -0.200 F 
ENDBRANCH  54  78
BRANCH  66  89
ATOM     89  C   UNL     1       6.889 -14.422 -26.467  1.00  0.00     0.064 A 
ATOM     90  C   UNL     1       7.313 -15.668 -25.982  1.00  0.00     0.173 A 
ATOM     91  C   UNL     1       6.788 -14.255 -27.856  1.00  0.00     0.173 A 
ATOM     92  F   UNL     1       7.441 -15.871 -24.662  1.00  0.00    -0.203 F 
ATOM     93  C   UNL     1       7.646 -16.698 -26.857  1.00  0.00     0.198 A 
ATOM     94  C   UNL     1       7.093 -15.297 -28.726  1.00  0.00     0.198 A 
ATOM     95  F   UNL     1       6.380 -13.084 -28.369  1.00  0.00    -0.203 F 
ATOM     96  F   UNL     1       8.094 -17.866 -26.374  1.00  0.00    -0.200 F 
ATOM     97  C   UNL     1       7.529 -16.515 -28.227  1.00  0.00     0.200 A 
ATOM     98  F   UNL     1       6.967 -15.122 -30.049  1.00  0.00    -0.200 F 
ATOM     99  F   UNL     1       7.844 -17.511 -29.067  1.00  0.00    -0.200 F 
ENDBRANCH  66  89
ENDBRANCH  40  41
ENDBRANCH  32  35
ENDBRANCH  30  31
ENDBRANCH  29  30
ENDBRANCH  28  29
ENDBRANCH  27  28
ENDBRANCH   3  27
TORSDOF 17
