REMARK SMILES C=CCN1C[C@]2(C(=O)NCCCCNC(=O)c3ccc(-c4c5nc(c(-c6c(F)c(F)c(F)c(F)c6F)c6ccc([nH]6)c(-c6c(F)c(F)c(F)c(F)c6F)c6nc(c(-c7c(F)c(F)c(F)c(F)c7F)c7ccc4[nH]7)C=C6)C=C5)cc3)CN(C(=O)c3cccc(C#N)c3)C[C@H]2C1=O
REMARK SMILES IDX 11 1 10 2 9 3 7 4 8 5 6 7 4 8 5 9 94 10 93 11 95 12 80 13
REMARK SMILES IDX 92 14 81 15 3 16 2 17 1 18 82 19 83 20 84 21 85 22 91 23
REMARK SMILES IDX 86 24 88 25 87 26 89 27 90 28 12 29 13 30 14 31 15 32 16 34
REMARK SMILES IDX 17 35 18 36 79 37 19 38 78 39 20 40 21 41 22 42 72 43 23 44
REMARK SMILES IDX 77 45 71 46 73 47 24 48 76 49 70 50 69 51 25 53 57 54 37 55
REMARK SMILES IDX 56 56 38 57 41 58 55 59 74 60 39 61 40 62 54 64 75 65 42 66
REMARK SMILES IDX 26 67 27 68 35 69 28 70 29 71 33 72 36 73 30 74 31 75 34 76
REMARK SMILES IDX 32 77 58 78 59 79 67 80 60 81 61 82 65 83 68 84 62 85 63 86
REMARK SMILES IDX 66 87 64 88 43 89 44 90 52 91 45 92 46 93 50 94 53 95 47 96
REMARK SMILES IDX 48 97 51 98 49 99
REMARK H PARENT 9 6 14 33 73 52 41 63
REMARK Flexibility Score: inf
ROOT
ATOM      1  C   UNL     1      -0.471  -7.038   3.005  1.00  0.00     0.023 C 
ENDROOT
BRANCH   1   2
ATOM      2  C   UNL     1      -0.248  -5.561   2.738  1.00  0.00     0.116 C 
BRANCH   2   3
ATOM      3  N   UNL     1       0.375  -5.434   1.440  1.00  0.00    -0.355 N 
ATOM      4  C   UNL     1      -0.332  -5.362   0.261  1.00  0.00     0.230 C 
ATOM      5  O   UNL     1       0.207  -5.652  -0.804  1.00  0.00    -0.274 OA
ATOM      6  H   UNL     1       1.358  -5.398   1.397  1.00  0.00     0.163 HD
BRANCH   4   7
ATOM      7  C   UNL     1      -1.756  -4.823   0.425  1.00  0.00     0.097 C 
ATOM      8  N   UNL     1      -1.910  -2.429   0.437  1.00  0.00    -0.337 N 
ATOM      9  C   UNL     1      -1.149  -3.474  -0.220  1.00  0.00     0.139 C 
ATOM     10  C   UNL     1      -3.205  -2.871   0.587  1.00  0.00     0.229 C 
ATOM     11  C   UNL     1      -3.176  -4.279   0.068  1.00  0.00     0.117 C 
ATOM     12  O   UNL     1      -4.169  -2.243   0.976  1.00  0.00    -0.274 OA
ATOM     13  C   UNL     1      -2.279  -6.300   0.027  1.00  0.00     0.139 C 
ATOM     14  C   UNL     1      -4.203  -5.151   0.744  1.00  0.00     0.134 C 
ATOM     15  N   UNL     1      -3.554  -6.435   0.755  1.00  0.00    -0.337 N 
BRANCH   8  16
ATOM     16  C   UNL     1      -1.512  -1.046   0.654  1.00  0.00     0.146 C 
BRANCH  16  17
ATOM     17  C   UNL     1      -0.032  -0.893   0.820  1.00  0.00    -0.014 C 
ATOM     18  C   UNL     1       0.730  -0.075   0.079  1.00  0.00     0.006 C 
ENDBRANCH  16  17
ENDBRANCH   8  16
BRANCH  15  19
ATOM     19  C   UNL     1      -4.105  -7.443   1.540  1.00  0.00     0.253 C 
ATOM     20  O   UNL     1      -5.158  -7.292   2.159  1.00  0.00    -0.269 OA
BRANCH  19  21
ATOM     21  C   UNL     1      -3.431  -8.745   1.730  1.00  0.00     0.041 A 
ATOM     22  C   UNL     1      -3.454  -9.706   0.720  1.00  0.00     0.014 A 
ATOM     23  C   UNL     1      -2.914  -9.075   2.996  1.00  0.00     0.033 A 
ATOM     24  C   UNL     1      -2.892 -10.966   0.948  1.00  0.00     0.002 A 
ATOM     25  C   UNL     1      -2.267 -10.301   3.188  1.00  0.00     0.053 A 
ATOM     26  C   UNL     1      -2.271 -11.249   2.164  1.00  0.00     0.019 A 
BRANCH  25  27
ATOM     27  C   UNL     1      -1.529 -10.609   4.379  1.00  0.00     0.099 C 
ATOM     28  N   UNL     1      -0.840 -10.928   5.254  1.00  0.00    -0.192 NA
ENDBRANCH  25  27
ENDBRANCH  19  21
ENDBRANCH  15  19
ENDBRANCH   4   7
ENDBRANCH   2   3
ENDBRANCH   1   2
BRANCH   1  29
ATOM     29  C   UNL     1       0.777  -7.767   3.454  1.00  0.00     0.023 C 
BRANCH  29  30
ATOM     30  C   UNL     1       1.161  -7.402   4.870  1.00  0.00     0.116 C 
BRANCH  30  31
ATOM     31  N   UNL     1       0.097  -7.636   5.846  1.00  0.00    -0.352 N 
ATOM     32  C   UNL     1       0.103  -8.429   6.973  1.00  0.00     0.251 C 
ATOM     33  H   UNL     1      -0.746  -7.158   5.672  1.00  0.00     0.163 HD
ATOM     34  O   UNL     1      -0.917  -8.590   7.631  1.00  0.00    -0.269 OA
BRANCH  32  35
ATOM     35  C   UNL     1       1.373  -9.066   7.361  1.00  0.00     0.039 A 
ATOM     36  C   UNL     1       1.425 -10.425   7.673  1.00  0.00     0.014 A 
ATOM     37  C   UNL     1       2.537  -8.305   7.291  1.00  0.00     0.014 A 
ATOM     38  C   UNL     1       2.670 -11.037   7.827  1.00  0.00     0.010 A 
ATOM     39  C   UNL     1       3.758  -8.945   7.261  1.00  0.00     0.010 A 
ATOM     40  C   UNL     1       3.843 -10.307   7.581  1.00  0.00    -0.014 A 
BRANCH  40  41
ATOM     41  C   UNL     1       5.197 -10.883   7.746  1.00  0.00     0.031 A 
ATOM     42  C   UNL     1       6.137 -10.228   8.722  1.00  0.00     0.074 A 
ATOM     43  C   UNL     1       5.615 -11.894   6.965  1.00  0.00     0.049 A 
ATOM     44  N   UNL     1       7.412 -10.438   8.919  1.00  0.00    -0.248 NA
ATOM     45  C   UNL     1       5.576  -9.141   9.546  1.00  0.00     0.031 C 
ATOM     46  C   UNL     1       4.814 -12.568   5.942  1.00  0.00     0.029 A 
ATOM     47  N   UNL     1       6.836 -12.516   6.898  1.00  0.00    -0.354 N 
ATOM     48  C   UNL     1       7.800  -9.494   9.861  1.00  0.00     0.074 A 
ATOM     49  C   UNL     1       6.662  -8.643  10.109  1.00  0.00     0.031 C 
ATOM     50  C   UNL     1       5.559 -13.524   5.365  1.00  0.00     0.029 A 
ATOM     51  C   UNL     1       6.901 -13.497   5.942  1.00  0.00     0.049 A 
ATOM     52  H   UNL     1       7.593 -12.280   7.482  1.00  0.00     0.167 HD
ATOM     53  C   UNL     1       8.986  -9.376  10.500  1.00  0.00     0.037 A 
ATOM     54  C   UNL     1       7.935 -14.274   5.567  1.00  0.00     0.037 A 
ATOM     55  C   UNL     1      10.104 -10.244  10.260  1.00  0.00     0.049 A 
ATOM     56  C   UNL     1       9.255 -14.121   6.274  1.00  0.00     0.074 A 
ATOM     57  C   UNL     1      11.336 -10.257  10.884  1.00  0.00     0.029 A 
ATOM     58  N   UNL     1      10.123 -11.255   9.308  1.00  0.00    -0.354 N 
ATOM     59  N   UNL     1       9.597 -13.277   7.219  1.00  0.00    -0.248 NA
ATOM     60  C   UNL     1      10.331 -15.035   5.871  1.00  0.00     0.031 C 
ATOM     61  C   UNL     1      12.127 -11.227  10.260  1.00  0.00     0.029 A 
ATOM     62  C   UNL     1      11.360 -11.876   9.303  1.00  0.00     0.049 A 
ATOM     63  H   UNL     1       9.368 -11.494   8.723  1.00  0.00     0.167 HD
ATOM     64  C   UNL     1      10.915 -13.574   7.543  1.00  0.00     0.074 A 
ATOM     65  C   UNL     1      11.304 -14.688   6.702  1.00  0.00     0.031 C 
ATOM     66  C   UNL     1      11.728 -12.983   8.454  1.00  0.00     0.037 A 
BRANCH  53  67
ATOM     67  C   UNL     1       9.114  -8.264  11.505  1.00  0.00     0.064 A 
ATOM     68  C   UNL     1       8.329  -8.222  12.671  1.00  0.00     0.173 A 
ATOM     69  C   UNL     1      10.010  -7.208  11.286  1.00  0.00     0.173 A 
ATOM     70  F   UNL     1       7.444  -9.198  12.927  1.00  0.00    -0.203 F 
ATOM     71  C   UNL     1       8.391  -7.136  13.540  1.00  0.00     0.198 A 
ATOM     72  C   UNL     1      10.104  -6.147  12.183  1.00  0.00     0.198 A 
ATOM     73  F   UNL     1      10.787  -7.195  10.193  1.00  0.00    -0.203 F 
ATOM     74  F   UNL     1       7.562  -7.075  14.592  1.00  0.00    -0.200 F 
ATOM     75  C   UNL     1       9.282  -6.103  13.299  1.00  0.00     0.200 A 
ATOM     76  F   UNL     1      10.978  -5.157  11.957  1.00  0.00    -0.200 F 
ATOM     77  F   UNL     1       9.338  -5.056  14.133  1.00  0.00    -0.200 F 
ENDBRANCH  53  67
BRANCH  54  78
ATOM     78  C   UNL     1       7.747 -15.273   4.482  1.00  0.00     0.064 A 
ATOM     79  C   UNL     1       7.752 -16.648   4.754  1.00  0.00     0.173 A 
ATOM     80  C   UNL     1       7.530 -14.873   3.155  1.00  0.00     0.173 A 
ATOM     81  F   UNL     1       7.974 -17.083   6.004  1.00  0.00    -0.203 F 
ATOM     82  C   UNL     1       7.561 -17.584   3.740  1.00  0.00     0.198 A 
ATOM     83  C   UNL     1       7.307 -15.809   2.147  1.00  0.00     0.198 A 
ATOM     84  F   UNL     1       7.509 -13.569   2.841  1.00  0.00    -0.203 F 
ATOM     85  F   UNL     1       7.611 -18.894   4.021  1.00  0.00    -0.200 F 
ATOM     86  C   UNL     1       7.330 -17.164   2.439  1.00  0.00     0.200 A 
ATOM     87  F   UNL     1       7.065 -15.397   0.895  1.00  0.00    -0.200 F 
ATOM     88  F   UNL     1       7.132 -18.064   1.466  1.00  0.00    -0.200 F 
ENDBRANCH  54  78
BRANCH  66  89
ATOM     89  C   UNL     1      13.111 -13.549   8.619  1.00  0.00     0.064 A 
ATOM     90  C   UNL     1      14.089 -13.421   7.622  1.00  0.00     0.173 A 
ATOM     91  C   UNL     1      13.475 -14.183   9.817  1.00  0.00     0.173 A 
ATOM     92  F   UNL     1      13.791 -12.832   6.454  1.00  0.00    -0.203 F 
ATOM     93  C   UNL     1      15.370 -13.936   7.806  1.00  0.00     0.198 A 
ATOM     94  C   UNL     1      14.768 -14.660  10.013  1.00  0.00     0.198 A 
ATOM     95  F   UNL     1      12.582 -14.322  10.809  1.00  0.00    -0.203 F 
ATOM     96  F   UNL     1      16.271 -13.853   6.817  1.00  0.00    -0.200 F 
ATOM     97  C   UNL     1      15.710 -14.546   9.004  1.00  0.00     0.200 A 
ATOM     98  F   UNL     1      15.101 -15.227  11.181  1.00  0.00    -0.200 F 
ATOM     99  F   UNL     1      16.947 -15.029   9.184  1.00  0.00    -0.200 F 
ENDBRANCH  66  89
ENDBRANCH  40  41
ENDBRANCH  32  35
ENDBRANCH  30  31
ENDBRANCH  29  30
ENDBRANCH   1  29
TORSDOF 16
