REMARK SMILES CCOc1ccccc1[C@@H](O)[C@@H](C)[C@@H](C)C(=O)NCCCCNC(=O)c1ccc(-c2c3nc(c(-c4c(F)c(F)c(F)c(F)c4F)c4ccc([nH]4)c(-c4c(F)c(F)c(F)c(F)c4F)c4nc(c(-c5c(F)c(F)c(F)c(F)c5F)c5ccc2[nH]5)C=C4)C=C3)cc1
REMARK SMILES IDX 19 1 18 2 16 3 17 4 14 6 15 7 12 8 13 9 10 10 9 11 4 12 5 13
REMARK SMILES IDX 6 14 8 15 7 16 3 17 2 18 1 19 11 20 20 22 21 23 22 24 23 25
REMARK SMILES IDX 24 26 25 28 26 29 27 30 88 31 28 32 87 33 29 34 30 35 31 36
REMARK SMILES IDX 81 37 32 38 86 39 80 40 82 41 33 42 85 43 79 44 78 45 34 47
REMARK SMILES IDX 66 48 46 49 65 50 47 51 50 52 64 53 83 54 48 55 49 56 63 58
REMARK SMILES IDX 84 59 51 60 35 61 36 62 44 63 37 64 38 65 42 66 45 67 39 68
REMARK SMILES IDX 40 69 43 70 41 71 67 72 68 73 76 74 69 75 70 76 74 77 77 78
REMARK SMILES IDX 71 79 72 80 75 81 73 82 52 83 53 84 61 85 54 86 55 87 59 88
REMARK SMILES IDX 62 89 56 90 57 91 60 92 58 93
REMARK H PARENT 18 5 11 21 23 27 82 46 50 57
REMARK Flexibility Score: inf
ROOT
ATOM      1  C   UNL     1       5.991  -2.750   0.134  1.00  0.00     0.116 C 
ENDROOT
BRANCH   1   2
ATOM      2  N   UNL     1       5.076  -3.335   1.093  1.00  0.00    -0.356 N 
ATOM      3  C   UNL     1       3.748  -3.113   1.289  1.00  0.00     0.223 C 
ATOM      4  O   UNL     1       3.204  -3.688   2.235  1.00  0.00    -0.275 OA
ATOM      5  H   UNL     1       5.479  -3.998   1.699  1.00  0.00     0.163 HD
BRANCH   3   6
ATOM      6  C   UNL     1       2.940  -2.206   0.363  1.00  0.00     0.081 C 
ATOM      7  C   UNL     1       2.754  -2.906  -0.984  1.00  0.00     0.018 C 
BRANCH   6   8
ATOM      8  C   UNL     1       3.464  -0.740   0.359  1.00  0.00     0.031 C 
ATOM      9  C   UNL     1       3.243  -0.135   1.762  1.00  0.00     0.011 C 
BRANCH   8  10
ATOM     10  C   UNL     1       2.941   0.114  -0.821  1.00  0.00     0.152 C 
BRANCH  10  11
ATOM     11  C   UNL     1       3.279   1.581  -0.680  1.00  0.00     0.023 A 
ATOM     12  C   UNL     1       2.287   2.533  -0.408  1.00  0.00     0.125 A 
ATOM     13  C   UNL     1       2.625   3.871  -0.199  1.00  0.00     0.047 A 
ATOM     14  C   UNL     1       3.962   4.272  -0.262  1.00  0.00     0.004 A 
ATOM     15  C   UNL     1       4.619   2.008  -0.762  1.00  0.00     0.010 A 
ATOM     16  C   UNL     1       4.958   3.344  -0.558  1.00  0.00     0.001 A 
BRANCH  12  17
ATOM     17  O   UNL     1       0.966   2.191  -0.509  1.00  0.00    -0.493 OA
BRANCH  17  18
ATOM     18  C   UNL     1       0.361   1.838   0.739  1.00  0.00     0.226 C 
ATOM     19  C   UNL     1      -0.308   0.478   0.581  1.00  0.00     0.049 C 
ENDBRANCH  17  18
ENDBRANCH  12  17
ENDBRANCH  10  11
BRANCH  10  20
ATOM     20  O   UNL     1       3.557  -0.351  -2.031  1.00  0.00    -0.388 OA
ATOM     21  H   UNL     1       4.519  -0.238  -1.969  1.00  0.00     0.211 HD
ENDBRANCH  10  20
ENDBRANCH   8  10
ENDBRANCH   6   8
ENDBRANCH   3   6
ENDBRANCH   1   2
BRANCH   1  22
ATOM     22  C   UNL     1       6.878  -1.687   0.789  1.00  0.00     0.023 C 
BRANCH  22  23
ATOM     23  C   UNL     1       7.921  -2.245   1.751  1.00  0.00     0.023 C 
BRANCH  23  24
ATOM     24  C   UNL     1       8.791  -3.345   1.164  1.00  0.00     0.116 C 
BRANCH  24  25
ATOM     25  N   UNL     1       9.426  -2.953  -0.086  1.00  0.00    -0.352 N 
ATOM     26  C   UNL     1      10.697  -3.217  -0.523  1.00  0.00     0.251 C 
ATOM     27  H   UNL     1       8.865  -2.426  -0.701  1.00  0.00     0.163 HD
ATOM     28  O   UNL     1      11.125  -2.686  -1.544  1.00  0.00    -0.269 OA
BRANCH  26  29
ATOM     29  C   UNL     1      11.560  -4.114   0.266  1.00  0.00     0.039 A 
ATOM     30  C   UNL     1      12.877  -3.726   0.511  1.00  0.00     0.014 A 
ATOM     31  C   UNL     1      11.065  -5.313   0.788  1.00  0.00     0.014 A 
ATOM     32  C   UNL     1      13.682  -4.516   1.329  1.00  0.00     0.010 A 
ATOM     33  C   UNL     1      11.838  -6.051   1.677  1.00  0.00     0.010 A 
ATOM     34  C   UNL     1      13.157  -5.664   1.950  1.00  0.00    -0.014 A 
BRANCH  34  35
ATOM     35  C   UNL     1      13.986  -6.450   2.895  1.00  0.00     0.031 A 
ATOM     36  C   UNL     1      14.357  -7.872   2.584  1.00  0.00     0.074 A 
ATOM     37  C   UNL     1      14.384  -5.879   4.048  1.00  0.00     0.049 A 
ATOM     38  N   UNL     1      15.111  -8.697   3.267  1.00  0.00    -0.248 NA
ATOM     39  C   UNL     1      13.790  -8.458   1.359  1.00  0.00     0.031 C 
ATOM     40  C   UNL     1      14.030  -4.528   4.488  1.00  0.00     0.029 A 
ATOM     41  N   UNL     1      15.181  -6.357   5.057  1.00  0.00    -0.354 N 
ATOM     42  C   UNL     1      15.102  -9.892   2.561  1.00  0.00     0.074 A 
ATOM     43  C   UNL     1      14.221  -9.709   1.429  1.00  0.00     0.031 C 
ATOM     44  C   UNL     1      14.648  -4.267   5.650  1.00  0.00     0.029 A 
ATOM     45  C   UNL     1      15.409  -5.444   6.057  1.00  0.00     0.049 A 
ATOM     46  H   UNL     1      15.555  -7.268   5.063  1.00  0.00     0.167 HD
ATOM     47  C   UNL     1      15.789 -11.030   2.820  1.00  0.00     0.037 A 
ATOM     48  C   UNL     1      16.156  -5.544   7.172  1.00  0.00     0.037 A 
ATOM     49  C   UNL     1      16.681 -11.197   3.938  1.00  0.00     0.049 A 
ATOM     50  C   UNL     1      16.906  -6.822   7.433  1.00  0.00     0.074 A 
ATOM     51  C   UNL     1      17.480 -12.282   4.249  1.00  0.00     0.029 A 
ATOM     52  N   UNL     1      16.882 -10.253   4.936  1.00  0.00    -0.354 N 
ATOM     53  N   UNL     1      16.971  -7.910   6.705  1.00  0.00    -0.248 NA
ATOM     54  C   UNL     1      17.697  -6.880   8.670  1.00  0.00     0.031 C 
ATOM     55  C   UNL     1      18.116 -12.022   5.468  1.00  0.00     0.029 A 
ATOM     56  C   UNL     1      17.766 -10.747   5.883  1.00  0.00     0.049 A 
ATOM     57  H   UNL     1      16.459  -9.364   4.967  1.00  0.00     0.167 HD
ATOM     58  C   UNL     1      17.829  -8.770   7.378  1.00  0.00     0.074 A 
ATOM     59  C   UNL     1      18.281  -8.063   8.559  1.00  0.00     0.031 C 
ATOM     60  C   UNL     1      18.205 -10.031   7.053  1.00  0.00     0.037 A 
BRANCH  47  61
ATOM     61  C   UNL     1      15.606 -12.187   1.880  1.00  0.00     0.064 A 
ATOM     62  C   UNL     1      16.088 -12.154   0.562  1.00  0.00     0.173 A 
ATOM     63  C   UNL     1      14.982 -13.365   2.318  1.00  0.00     0.173 A 
ATOM     64  F   UNL     1      16.682 -11.049   0.087  1.00  0.00    -0.203 F 
ATOM     65  C   UNL     1      15.931 -13.246  -0.288  1.00  0.00     0.198 A 
ATOM     66  C   UNL     1      14.856 -14.467   1.476  1.00  0.00     0.198 A 
ATOM     67  F   UNL     1      14.505 -13.454   3.569  1.00  0.00    -0.203 F 
ATOM     68  F   UNL     1      16.358 -13.173  -1.556  1.00  0.00    -0.200 F 
ATOM     69  C   UNL     1      15.324 -14.405   0.172  1.00  0.00     0.200 A 
ATOM     70  F   UNL     1      14.283 -15.591   1.928  1.00  0.00    -0.200 F 
ATOM     71  F   UNL     1      15.185 -15.460  -0.642  1.00  0.00    -0.200 F 
ENDBRANCH  47  61
BRANCH  48  72
ATOM     72  C   UNL     1      16.262  -4.394   8.110  1.00  0.00     0.064 A 
ATOM     73  C   UNL     1      17.478  -3.720   8.290  1.00  0.00     0.173 A 
ATOM     74  C   UNL     1      15.161  -3.962   8.864  1.00  0.00     0.173 A 
ATOM     75  F   UNL     1      18.565  -4.106   7.606  1.00  0.00    -0.203 F 
ATOM     76  C   UNL     1      17.597  -2.680   9.209  1.00  0.00     0.198 A 
ATOM     77  C   UNL     1      15.273  -2.899   9.758  1.00  0.00     0.198 A 
ATOM     78  F   UNL     1      13.972  -4.567   8.726  1.00  0.00    -0.203 F 
ATOM     79  F   UNL     1      18.787  -2.094   9.403  1.00  0.00    -0.200 F 
ATOM     80  C   UNL     1      16.493  -2.267   9.939  1.00  0.00     0.200 A 
ATOM     81  F   UNL     1      14.199  -2.492  10.449  1.00  0.00    -0.200 F 
ATOM     82  F   UNL     1      16.608  -1.268  10.824  1.00  0.00    -0.200 F 
ENDBRANCH  48  72
BRANCH  60  83
ATOM     83  C   UNL     1      19.178 -10.712   7.975  1.00  0.00     0.064 A 
ATOM     84  C   UNL     1      18.817 -11.100   9.275  1.00  0.00     0.173 A 
ATOM     85  C   UNL     1      20.487 -10.987   7.549  1.00  0.00     0.173 A 
ATOM     86  F   UNL     1      17.583 -10.848   9.736  1.00  0.00    -0.203 F 
ATOM     87  C   UNL     1      19.743 -11.694  10.128  1.00  0.00     0.198 A 
ATOM     88  C   UNL     1      21.398 -11.618   8.391  1.00  0.00     0.198 A 
ATOM     89  F   UNL     1      20.882 -10.647   6.313  1.00  0.00    -0.203 F 
ATOM     90  F   UNL     1      19.395 -11.990  11.388  1.00  0.00    -0.200 F 
ATOM     91  C   UNL     1      21.030 -11.958   9.684  1.00  0.00     0.200 A 
ATOM     92  F   UNL     1      22.635 -11.888   7.955  1.00  0.00    -0.200 F 
ATOM     93  F   UNL     1      21.919 -12.531  10.506  1.00  0.00    -0.200 F 
ENDBRANCH  60  83
ENDBRANCH  34  35
ENDBRANCH  26  29
ENDBRANCH  24  25
ENDBRANCH  23  24
ENDBRANCH  22  23
ENDBRANCH   1  22
TORSDOF 17
