REMARK SMILES CCOc1cc(N2CCOCC2)ccc1[C@H]([NH3+])C(=O)NCCCCNC(=O)c1ccc(-c2c3nc(c(-c4c(F)c(F)c(F)c(F)c4F)c4ccc([nH]4)c(-c4c(F)c(F)c(F)c(F)c4F)c4nc(c(-c5c(F)c(F)c(F)c(F)c5F)c5ccc2[nH]5)C=C4)C=C3)cc1
REMARK SMILES IDX 22 1 21 2 20 3 18 4 19 5 16 7 15 8 4 9 5 10 6 11 14 12 13 13
REMARK SMILES IDX 3 14 2 15 1 16 7 17 8 18 12 19 9 20 11 21 10 22 17 23 23 27
REMARK SMILES IDX 24 28 25 29 26 30 27 32 28 33 29 34 90 35 30 36 89 37 31 38
REMARK SMILES IDX 32 39 33 40 83 41 34 42 88 43 82 44 84 45 35 46 87 47 81 48
REMARK SMILES IDX 80 49 36 51 68 52 48 53 67 54 49 55 52 56 66 57 85 58 50 59
REMARK SMILES IDX 51 60 65 62 86 63 53 64 37 65 38 66 46 67 39 68 40 69 44 70
REMARK SMILES IDX 47 71 41 72 42 73 45 74 43 75 69 76 70 77 78 78 71 79 72 80
REMARK SMILES IDX 76 81 79 82 73 83 74 84 77 85 75 86 54 87 55 88 63 89 56 90
REMARK SMILES IDX 57 91 61 92 64 93 58 94 59 95 62 96 60 97
REMARK H PARENT 20 6 17 24 17 25 17 26 25 31 84 50 52 61
REMARK Flexibility Score: inf
ROOT
ATOM      1  C   UNL     1       6.297  -0.019  -0.271  1.00  0.00     0.023 C 
ENDROOT
BRANCH   1   2
ATOM      2  C   UNL     1       5.229   1.060  -0.063  1.00  0.00     0.116 C 
BRANCH   2   3
ATOM      3  N   UNL     1       4.170   0.944  -1.040  1.00  0.00    -0.351 N 
ATOM      4  C   UNL     1       2.845   0.669  -0.954  1.00  0.00     0.283 C 
ATOM      5  O   UNL     1       2.276   0.580  -2.055  1.00  0.00    -0.268 OA
ATOM      6  H   UNL     1       4.475   1.098  -1.964  1.00  0.00     0.163 HD
BRANCH   4   7
ATOM      7  C   UNL     1       2.026   0.362   0.331  1.00  0.00     0.306 C 
BRANCH   7   8
ATOM      8  C   UNL     1       2.409   1.022   1.648  1.00  0.00     0.061 A 
ATOM      9  C   UNL     1       3.034   0.364   2.723  1.00  0.00     0.131 A 
ATOM     10  C   UNL     1       3.251   1.023   3.943  1.00  0.00     0.072 A 
ATOM     11  C   UNL     1       2.864   2.358   4.130  1.00  0.00     0.040 A 
ATOM     12  C   UNL     1       2.058   2.373   1.833  1.00  0.00     0.016 A 
ATOM     13  C   UNL     1       2.278   3.026   3.053  1.00  0.00     0.027 A 
BRANCH   9  14
ATOM     14  O   UNL     1       3.301  -0.976   2.622  1.00  0.00    -0.493 OA
BRANCH  14  15
ATOM     15  C   UNL     1       4.681  -1.327   2.732  1.00  0.00     0.226 C 
ATOM     16  C   UNL     1       4.939  -2.396   1.680  1.00  0.00     0.049 C 
ENDBRANCH  14  15
ENDBRANCH   9  14
BRANCH  11  17
ATOM     17  N   UNL     1       2.995   2.936   5.379  1.00  0.00    -0.367 N 
ATOM     18  C   UNL     1       1.893   2.737   6.336  1.00  0.00     0.145 C 
ATOM     19  C   UNL     1       3.773   4.166   5.573  1.00  0.00     0.145 C 
ATOM     20  C   UNL     1       1.061   4.024   6.478  1.00  0.00     0.181 C 
ATOM     21  C   UNL     1       2.864   5.385   5.797  1.00  0.00     0.181 C 
ATOM     22  O   UNL     1       1.888   5.148   6.825  1.00  0.00    -0.378 OA
ENDBRANCH  11  17
ENDBRANCH   7   8
BRANCH   7  23
ATOM     23  N   UNL     1       1.736  -1.085   0.413  1.00  0.00    -0.343 N 
ATOM     24  H   UNL     1       2.605  -1.599   0.554  1.00  0.00     0.345 HD
ATOM     25  H   UNL     1       1.295  -1.393  -0.454  1.00  0.00     0.345 HD
ATOM     26  H   UNL     1       1.106  -1.261   1.196  1.00  0.00     0.345 HD
ENDBRANCH   7  23
ENDBRANCH   4   7
ENDBRANCH   2   3
ENDBRANCH   1   2
BRANCH   1  27
ATOM     27  C   UNL     1       7.467   0.390  -1.158  1.00  0.00     0.023 C 
BRANCH  27  28
ATOM     28  C   UNL     1       8.371   1.462  -0.563  1.00  0.00     0.116 C 
BRANCH  28  29
ATOM     29  N   UNL     1       9.059   1.058   0.660  1.00  0.00    -0.352 N 
ATOM     30  C   UNL     1      10.377   1.255   1.013  1.00  0.00     0.251 C 
ATOM     31  H   UNL     1       8.507   0.582   1.322  1.00  0.00     0.163 HD
ATOM     32  O   UNL     1      10.823   0.803   2.063  1.00  0.00    -0.269 OA
BRANCH  30  33
ATOM     33  C   UNL     1      11.264   1.972   0.075  1.00  0.00     0.039 A 
ATOM     34  C   UNL     1      12.458   1.370  -0.329  1.00  0.00     0.014 A 
ATOM     35  C   UNL     1      10.846   3.173  -0.497  1.00  0.00     0.014 A 
ATOM     36  C   UNL     1      13.170   1.910  -1.403  1.00  0.00     0.010 A 
ATOM     37  C   UNL     1      11.497   3.647  -1.628  1.00  0.00     0.010 A 
ATOM     38  C   UNL     1      12.655   3.011  -2.105  1.00  0.00    -0.014 A 
BRANCH  38  39
ATOM     39  C   UNL     1      13.280   3.521  -3.354  1.00  0.00     0.031 A 
ATOM     40  C   UNL     1      13.717   4.956  -3.428  1.00  0.00     0.074 A 
ATOM     41  C   UNL     1      13.326   2.745  -4.455  1.00  0.00     0.049 A 
ATOM     42  N   UNL     1      14.074   5.665  -4.468  1.00  0.00    -0.248 NA
ATOM     43  C   UNL     1      13.695   5.711  -2.165  1.00  0.00     0.031 C 
ATOM     44  C   UNL     1      12.875   1.355  -4.536  1.00  0.00     0.029 A 
ATOM     45  N   UNL     1      13.748   3.030  -5.731  1.00  0.00    -0.354 N 
ATOM     46  C   UNL     1      14.273   6.954  -3.993  1.00  0.00     0.074 A 
ATOM     47  C   UNL     1      13.944   6.942  -2.584  1.00  0.00     0.031 C 
ATOM     48  C   UNL     1      13.056   0.904  -5.788  1.00  0.00     0.029 A 
ATOM     49  C   UNL     1      13.591   1.985  -6.610  1.00  0.00     0.049 A 
ATOM     50  H   UNL     1      14.127   3.900  -5.991  1.00  0.00     0.167 HD
ATOM     51  C   UNL     1      14.712   8.044  -4.664  1.00  0.00     0.037 A 
ATOM     52  C   UNL     1      13.835   1.912  -7.933  1.00  0.00     0.037 A 
ATOM     53  C   UNL     1      15.094   8.037  -6.050  1.00  0.00     0.049 A 
ATOM     54  C   UNL     1      14.372   3.121  -8.650  1.00  0.00     0.074 A 
ATOM     55  C   UNL     1      15.624   9.067  -6.805  1.00  0.00     0.029 A 
ATOM     56  N   UNL     1      14.994   6.934  -6.887  1.00  0.00    -0.354 N 
ATOM     57  N   UNL     1      14.607   4.322  -8.179  1.00  0.00    -0.248 NA
ATOM     58  C   UNL     1      14.681   2.966 -10.079  1.00  0.00     0.031 C 
ATOM     59  C   UNL     1      15.822   8.595  -8.108  1.00  0.00     0.029 A 
ATOM     60  C   UNL     1      15.449   7.261  -8.153  1.00  0.00     0.049 A 
ATOM     61  H   UNL     1      14.651   6.051  -6.620  1.00  0.00     0.167 HD
ATOM     62  C   UNL     1      15.113   5.056  -9.242  1.00  0.00     0.074 A 
ATOM     63  C   UNL     1      15.158   4.165 -10.383  1.00  0.00     0.031 C 
ATOM     64  C   UNL     1      15.504   6.353  -9.270  1.00  0.00     0.037 A 
BRANCH  51  65
ATOM     65  C   UNL     1      14.812   9.329  -3.896  1.00  0.00     0.064 A 
ATOM     66  C   UNL     1      15.766   9.508  -2.882  1.00  0.00     0.173 A 
ATOM     67  C   UNL     1      13.942  10.394  -4.174  1.00  0.00     0.173 A 
ATOM     68  F   UNL     1      16.611   8.515  -2.568  1.00  0.00    -0.203 F 
ATOM     69  C   UNL     1      15.815  10.688  -2.145  1.00  0.00     0.198 A 
ATOM     70  C   UNL     1      14.017  11.586  -3.457  1.00  0.00     0.198 A 
ATOM     71  F   UNL     1      13.015  10.279  -5.137  1.00  0.00    -0.203 F 
ATOM     72  F   UNL     1      16.689  10.808  -1.136  1.00  0.00    -0.200 F 
ATOM     73  C   UNL     1      14.944  11.727  -2.435  1.00  0.00     0.200 A 
ATOM     74  F   UNL     1      13.182  12.594  -3.746  1.00  0.00    -0.200 F 
ATOM     75  F   UNL     1      14.990  12.860  -1.722  1.00  0.00    -0.200 F 
ENDBRANCH  51  65
BRANCH  52  76
ATOM     76  C   UNL     1      13.593   0.638  -8.658  1.00  0.00     0.064 A 
ATOM     77  C   UNL     1      14.665  -0.153  -9.095  1.00  0.00     0.173 A 
ATOM     78  C   UNL     1      12.294   0.176  -8.913  1.00  0.00     0.173 A 
ATOM     79  F   UNL     1      15.925   0.257  -8.890  1.00  0.00    -0.203 F 
ATOM     80  C   UNL     1      14.446  -1.352  -9.770  1.00  0.00     0.198 A 
ATOM     81  C   UNL     1      12.076  -1.035  -9.568  1.00  0.00     0.198 A 
ATOM     82  F   UNL     1      11.235   0.893  -8.510  1.00  0.00    -0.203 F 
ATOM     83  F   UNL     1      15.489  -2.072 -10.206  1.00  0.00    -0.200 F 
ATOM     84  C   UNL     1      13.153  -1.795 -10.000  1.00  0.00     0.200 A 
ATOM     85  F   UNL     1      10.825  -1.467  -9.776  1.00  0.00    -0.200 F 
ATOM     86  F   UNL     1      12.943  -2.953 -10.642  1.00  0.00    -0.200 F 
ENDBRANCH  52  76
BRANCH  64  87
ATOM     87  C   UNL     1      16.054   6.884 -10.559  1.00  0.00     0.064 A 
ATOM     88  C   UNL     1      15.218   7.202 -11.638  1.00  0.00     0.173 A 
ATOM     89  C   UNL     1      17.426   7.151 -10.685  1.00  0.00     0.173 A 
ATOM     90  F   UNL     1      13.902   6.951 -11.569  1.00  0.00    -0.203 F 
ATOM     91  C   UNL     1      15.737   7.764 -12.801  1.00  0.00     0.198 A 
ATOM     92  C   UNL     1      17.938   7.734 -11.840  1.00  0.00     0.198 A 
ATOM     93  F   UNL     1      18.264   6.868  -9.677  1.00  0.00    -0.203 F 
ATOM     94  F   UNL     1      14.924   8.038 -13.831  1.00  0.00    -0.200 F 
ATOM     95  C   UNL     1      17.094   8.038 -12.898  1.00  0.00     0.200 A 
ATOM     96  F   UNL     1      19.246   8.009 -11.927  1.00  0.00    -0.200 F 
ATOM     97  F   UNL     1      17.588   8.595 -14.012  1.00  0.00    -0.200 F 
ENDBRANCH  64  87
ENDBRANCH  38  39
ENDBRANCH  30  33
ENDBRANCH  28  29
ENDBRANCH  27  28
ENDBRANCH   1  27
TORSDOF 16
