REMARK SMILES O=C(COc1ccccc1C[NH+]1CCC2(CC[NH2+]CC2)CC1)NCCCCNC(=O)c1ccc(-c2c3nc(c(-c4c(F)c(F)c(F)c(F)c4F)c4ccc([nH]4)c(-c4c(F)c(F)c(F)c(F)c4F)c4nc(c(-c5c(F)c(F)c(F)c(F)c5F)c5ccc2[nH]5)C=C4)C=C3)cc1
REMARK SMILES IDX 24 1 23 2 1 3 2 4 3 6 4 7 5 8 6 9 10 10 7 11 9 12 8 13 11 14
REMARK SMILES IDX 12 15 13 16 22 17 14 19 21 20 15 21 16 22 20 23 17 24 19 25
REMARK SMILES IDX 18 26 25 29 26 30 27 31 28 32 29 33 30 35 31 36 32 37 93 38
REMARK SMILES IDX 33 39 92 40 34 41 35 42 36 43 86 44 37 45 91 46 85 47 87 48
REMARK SMILES IDX 38 49 90 50 84 51 83 52 39 54 71 55 51 56 70 57 52 58 55 59
REMARK SMILES IDX 69 60 88 61 53 62 54 63 68 65 89 66 56 67 40 68 41 69 49 70
REMARK SMILES IDX 42 71 43 72 47 73 50 74 44 75 45 76 48 77 46 78 72 79 73 80
REMARK SMILES IDX 81 81 74 82 75 83 79 84 82 85 76 86 77 87 80 88 78 89 57 90
REMARK SMILES IDX 58 91 66 92 59 93 60 94 64 95 67 96 61 97 62 98 65 99 63 100
REMARK H PARENT 23 5 12 18 18 27 18 28 28 34 87 53 55 64
REMARK Flexibility Score: inf
ROOT
ATOM      1  C   UNL     1       2.133  -1.552   1.814  1.00  0.00     0.116 C 
ENDROOT
BRANCH   1   2
ATOM      2  N   UNL     1       2.885  -1.151   0.633  1.00  0.00    -0.353 N 
ATOM      3  O   UNL     1       1.141  -1.307  -0.862  1.00  0.00    -0.271 OA
ATOM      4  C   UNL     1       2.239  -0.847  -0.556  1.00  0.00     0.257 C 
ATOM      5  H   UNL     1       3.867  -1.095   0.680  1.00  0.00     0.163 HD
BRANCH   4   6
ATOM      6  C   UNL     1       2.971   0.163  -1.456  1.00  0.00     0.329 C 
BRANCH   6   7
ATOM      7  O   UNL     1       3.547   1.237  -0.704  1.00  0.00    -0.483 OA
BRANCH   7   8
ATOM      8  C   UNL     1       2.933   2.451  -0.910  1.00  0.00     0.128 A 
ATOM      9  C   UNL     1       3.624   3.380  -1.698  1.00  0.00     0.047 A 
ATOM     10  C   UNL     1       1.803   2.862  -0.177  1.00  0.00     0.048 A 
ATOM     11  C   UNL     1       3.167   4.697  -1.809  1.00  0.00     0.004 A 
ATOM     12  C   UNL     1       1.306   4.164  -0.380  1.00  0.00     0.013 A 
ATOM     13  C   UNL     1       1.994   5.082  -1.170  1.00  0.00     0.001 A 
BRANCH  10  14
ATOM     14  C   UNL     1       1.163   2.034   0.911  1.00  0.00     0.302 C 
BRANCH  14  15
ATOM     15  N   UNL     1       1.722   2.144   2.265  1.00  0.00    -0.331 N 
ATOM     16  C   UNL     1       3.141   1.871   2.424  1.00  0.00     0.263 C 
ATOM     17  C   UNL     1       1.286   3.279   3.066  1.00  0.00     0.263 C 
ATOM     18  H   UNL     1       1.259   1.335   2.677  1.00  0.00     0.348 HD
ATOM     19  C   UNL     1       4.069   3.060   2.222  1.00  0.00     0.069 C 
ATOM     20  C   UNL     1       2.156   4.534   2.946  1.00  0.00     0.069 C 
ATOM     21  C   UNL     1       3.678   4.282   3.074  1.00  0.00    -0.008 C 
ATOM     22  C   UNL     1       4.079   4.073   4.553  1.00  0.00     0.069 C 
ATOM     23  C   UNL     1       4.436   5.525   2.547  1.00  0.00     0.069 C 
ATOM     24  C   UNL     1       5.598   4.054   4.754  1.00  0.00     0.261 C 
ATOM     25  C   UNL     1       5.943   5.427   2.786  1.00  0.00     0.261 C 
ATOM     26  N   UNL     1       6.250   5.245   4.206  1.00  0.00    -0.346 N 
ATOM     27  H   UNL     1       7.260   5.148   4.315  1.00  0.00     0.346 HD
ATOM     28  H   UNL     1       5.902   6.058   4.713  1.00  0.00     0.346 HD
ENDBRANCH  14  15
ENDBRANCH  10  14
ENDBRANCH   7   8
ENDBRANCH   6   7
ENDBRANCH   4   6
ENDBRANCH   1   2
BRANCH   1  29
ATOM     29  C   UNL     1       2.703  -2.727   2.603  1.00  0.00     0.023 C 
BRANCH  29  30
ATOM     30  C   UNL     1       4.160  -2.616   3.057  1.00  0.00     0.023 C 
BRANCH  30  31
ATOM     31  C   UNL     1       4.510  -1.455   3.985  1.00  0.00     0.116 C 
BRANCH  31  32
ATOM     32  N   UNL     1       3.906  -1.542   5.305  1.00  0.00    -0.352 N 
ATOM     33  C   UNL     1       4.493  -1.605   6.551  1.00  0.00     0.251 C 
ATOM     34  H   UNL     1       2.922  -1.560   5.310  1.00  0.00     0.163 HD
ATOM     35  O   UNL     1       3.800  -1.778   7.546  1.00  0.00    -0.269 OA
BRANCH  33  36
ATOM     36  C   UNL     1       5.964  -1.498   6.703  1.00  0.00     0.039 A 
ATOM     37  C   UNL     1       6.621  -2.421   7.525  1.00  0.00     0.014 A 
ATOM     38  C   UNL     1       6.697  -0.496   6.065  1.00  0.00     0.014 A 
ATOM     39  C   UNL     1       8.015  -2.392   7.634  1.00  0.00     0.010 A 
ATOM     40  C   UNL     1       8.093  -0.510   6.119  1.00  0.00     0.010 A 
ATOM     41  C   UNL     1       8.770  -1.466   6.894  1.00  0.00    -0.014 A 
BRANCH  41  42
ATOM     42  C   UNL     1      10.259  -1.510   6.898  1.00  0.00     0.031 A 
ATOM     43  C   UNL     1      11.062  -0.356   7.434  1.00  0.00     0.074 A 
ATOM     44  C   UNL     1      10.896  -2.570   6.361  1.00  0.00     0.049 A 
ATOM     45  N   UNL     1      12.362  -0.194   7.465  1.00  0.00    -0.248 NA
ATOM     46  C   UNL     1      10.303   0.774   7.990  1.00  0.00     0.031 C 
ATOM     47  C   UNL     1      10.241  -3.737   5.769  1.00  0.00     0.029 A 
ATOM     48  N   UNL     1      12.237  -2.834   6.215  1.00  0.00    -0.354 N 
ATOM     49  C   UNL     1      12.575   1.055   8.035  1.00  0.00     0.074 A 
ATOM     50  C   UNL     1      11.270   1.631   8.283  1.00  0.00     0.031 C 
ATOM     51  C   UNL     1      11.178  -4.599   5.341  1.00  0.00     0.029 A 
ATOM     52  C   UNL     1      12.499  -4.029   5.587  1.00  0.00     0.049 A 
ATOM     53  H   UNL     1      12.944  -2.225   6.530  1.00  0.00     0.167 HD
ATOM     54  C   UNL     1      13.749   1.657   8.346  1.00  0.00     0.037 A 
ATOM     55  C   UNL     1      13.669  -4.597   5.235  1.00  0.00     0.037 A 
ATOM     56  C   UNL     1      15.049   1.082   8.103  1.00  0.00     0.049 A 
ATOM     57  C   UNL     1      14.960  -3.893   5.561  1.00  0.00     0.074 A 
ATOM     58  C   UNL     1      16.293   1.596   8.424  1.00  0.00     0.029 A 
ATOM     59  N   UNL     1      15.272  -0.132   7.470  1.00  0.00    -0.354 N 
ATOM     60  N   UNL     1      15.148  -2.745   6.164  1.00  0.00    -0.248 NA
ATOM     61  C   UNL     1      16.203  -4.570   5.164  1.00  0.00     0.031 C 
ATOM     62  C   UNL     1      17.270   0.723   7.934  1.00  0.00     0.029 A 
ATOM     63  C   UNL     1      16.635  -0.369   7.366  1.00  0.00     0.049 A 
ATOM     64  H   UNL     1      14.567  -0.737   7.142  1.00  0.00     0.167 HD
ATOM     65  C   UNL     1      16.524  -2.576   6.246  1.00  0.00     0.074 A 
ATOM     66  C   UNL     1      17.124  -3.748   5.646  1.00  0.00     0.031 C 
ATOM     67  C   UNL     1      17.225  -1.542   6.772  1.00  0.00     0.037 A 
BRANCH  54  68
ATOM     68  C   UNL     1      13.685   3.017   8.983  1.00  0.00     0.064 A 
ATOM     69  C   UNL     1      13.195   3.197  10.286  1.00  0.00     0.173 A 
ATOM     70  C   UNL     1      14.157   4.149   8.301  1.00  0.00     0.173 A 
ATOM     71  F   UNL     1      12.726   2.150  10.982  1.00  0.00    -0.203 F 
ATOM     72  C   UNL     1      13.147   4.462  10.867  1.00  0.00     0.198 A 
ATOM     73  C   UNL     1      14.140   5.407   8.898  1.00  0.00     0.198 A 
ATOM     74  F   UNL     1      14.648   4.034   7.057  1.00  0.00    -0.203 F 
ATOM     75  F   UNL     1      12.625   4.615  12.092  1.00  0.00    -0.200 F 
ATOM     76  C   UNL     1      13.626   5.564  10.176  1.00  0.00     0.200 A 
ATOM     77  F   UNL     1      14.621   6.468   8.236  1.00  0.00    -0.200 F 
ATOM     78  F   UNL     1      13.588   6.779  10.740  1.00  0.00    -0.200 F 
ENDBRANCH  54  68
BRANCH  55  79
ATOM     79  C   UNL     1      13.677  -5.912   4.539  1.00  0.00     0.064 A 
ATOM     80  C   UNL     1      14.179  -7.060   5.167  1.00  0.00     0.173 A 
ATOM     81  C   UNL     1      13.195  -6.046   3.228  1.00  0.00     0.173 A 
ATOM     82  F   UNL     1      14.673  -6.980   6.412  1.00  0.00    -0.203 F 
ATOM     83  C   UNL     1      14.221  -8.285   4.504  1.00  0.00     0.198 A 
ATOM     84  C   UNL     1      13.206  -7.278   2.578  1.00  0.00     0.198 A 
ATOM     85  F   UNL     1      12.700  -4.980   2.582  1.00  0.00    -0.203 F 
ATOM     86  F   UNL     1      14.755  -9.354   5.110  1.00  0.00    -0.200 F 
ATOM     87  C   UNL     1      13.728  -8.395   3.213  1.00  0.00     0.200 A 
ATOM     88  F   UNL     1      12.714  -7.382   1.336  1.00  0.00    -0.200 F 
ATOM     89  F   UNL     1      13.765  -9.573   2.577  1.00  0.00    -0.200 F 
ENDBRANCH  55  79
BRANCH  67  90
ATOM     90  C   UNL     1      18.725  -1.645   6.761  1.00  0.00     0.064 A 
ATOM     91  C   UNL     1      19.465  -1.562   5.572  1.00  0.00     0.173 A 
ATOM     92  C   UNL     1      19.434  -1.792   7.964  1.00  0.00     0.173 A 
ATOM     93  F   UNL     1      18.838  -1.437   4.393  1.00  0.00    -0.203 F 
ATOM     94  C   UNL     1      20.855  -1.652   5.586  1.00  0.00     0.198 A 
ATOM     95  C   UNL     1      20.825  -1.846   7.977  1.00  0.00     0.198 A 
ATOM     96  F   UNL     1      18.777  -1.870   9.131  1.00  0.00    -0.203 F 
ATOM     97  F   UNL     1      21.538  -1.624   4.433  1.00  0.00    -0.200 F 
ATOM     98  C   UNL     1      21.534  -1.785   6.788  1.00  0.00     0.200 A 
ATOM     99  F   UNL     1      21.479  -1.958   9.142  1.00  0.00    -0.200 F 
ATOM    100  F   UNL     1      22.872  -1.862   6.799  1.00  0.00    -0.200 F 
ENDBRANCH  67  90
ENDBRANCH  41  42
ENDBRANCH  33  36
ENDBRANCH  31  32
ENDBRANCH  30  31
ENDBRANCH  29  30
ENDBRANCH   1  29
TORSDOF 15
