REMARK SMILES Cc1csc2nc(C(=O)NCCCCNC(=O)c3ccc(-c4c5nc(c(-c6c(F)c(F)c(F)c(F)c6F)c6ccc([nH]6)c(-c6c(F)c(F)c(F)c(F)c6F)c6nc(c(-c7c(F)c(F)c(F)c(F)c7F)c7ccc4[nH]7)C=C6)C=C5)cc3)cn12
REMARK SMILES IDX 13 1 12 2 11 3 10 4 8 5 9 6 7 8 1 9 2 10 3 11 82 12 4 13
REMARK SMILES IDX 5 14 81 15 6 16 14 17 15 18 16 19 17 21 18 22 19 23 80 24
REMARK SMILES IDX 20 25 79 26 21 27 22 28 23 29 73 30 24 31 78 32 72 33 74 34
REMARK SMILES IDX 25 35 77 36 71 37 70 38 26 40 58 41 38 42 57 43 39 44 42 45
REMARK SMILES IDX 56 46 75 47 40 48 41 49 55 51 76 52 43 53 27 54 28 55 36 56
REMARK SMILES IDX 29 57 30 58 34 59 37 60 31 61 32 62 35 63 33 64 59 65 60 66
REMARK SMILES IDX 68 67 61 68 62 69 66 70 69 71 63 72 64 73 67 74 65 75 44 76
REMARK SMILES IDX 45 77 53 78 46 79 47 80 51 81 54 82 48 83 49 84 52 85 50 86
REMARK H PARENT 10 7 15 20 74 39 42 50
REMARK Flexibility Score: inf
ROOT
ATOM      1  C   UNL     1      -4.823   6.864  -4.063  1.00  0.00     0.023 C 
ENDROOT
BRANCH   1   2
ATOM      2  C   UNL     1      -3.624   6.397  -3.221  1.00  0.00     0.023 C 
BRANCH   2   3
ATOM      3  C   UNL     1      -3.976   5.660  -1.927  1.00  0.00     0.116 C 
BRANCH   3   4
ATOM      4  N   UNL     1      -4.470   4.314  -2.166  1.00  0.00    -0.351 N 
ATOM      5  C   UNL     1      -3.884   3.086  -1.947  1.00  0.00     0.271 C 
ATOM      6  O   UNL     1      -4.564   2.085  -2.187  1.00  0.00    -0.267 OA
ATOM      7  H   UNL     1      -5.376   4.272  -2.550  1.00  0.00     0.163 HD
BRANCH   5   8
ATOM      8  C   UNL     1      -2.510   2.971  -1.439  1.00  0.00     0.148 A 
ATOM      9  C   UNL     1       0.647   0.012  -0.144  1.00  0.00     0.066 C 
ATOM     10  C   UNL     1       0.516   1.490  -0.232  1.00  0.00     0.032 A 
ATOM     11  C   UNL     1       1.468   2.394   0.079  1.00  0.00     0.090 A 
ATOM     12  N   UNL     1      -0.631   2.118  -0.688  1.00  0.00    -0.294 N 
ATOM     13  S   UNL     1       0.961   4.069  -0.184  1.00  0.00    -0.105 S 
ATOM     14  C   UNL     1      -0.570   3.476  -0.738  1.00  0.00     0.194 A 
ATOM     15  C   UNL     1      -1.871   1.766  -1.132  1.00  0.00     0.128 A 
ATOM     16  N   UNL     1      -1.649   4.039  -1.196  1.00  0.00    -0.214 NA
ENDBRANCH   5   8
ENDBRANCH   3   4
ENDBRANCH   2   3
ENDBRANCH   1   2
BRANCH   1  17
ATOM     17  C   UNL     1      -5.772   7.833  -3.362  1.00  0.00     0.116 C 
BRANCH  17  18
ATOM     18  N   UNL     1      -5.136   9.091  -2.981  1.00  0.00    -0.352 N 
ATOM     19  C   UNL     1      -5.673  10.120  -2.238  1.00  0.00     0.251 C 
ATOM     20  H   UNL     1      -4.212   9.221  -3.294  1.00  0.00     0.163 HD
ATOM     21  O   UNL     1      -5.223  11.263  -2.328  1.00  0.00    -0.269 OA
BRANCH  19  22
ATOM     22  C   UNL     1      -6.803   9.848  -1.333  1.00  0.00     0.039 A 
ATOM     23  C   UNL     1      -7.878  10.736  -1.250  1.00  0.00     0.014 A 
ATOM     24  C   UNL     1      -6.788   8.680  -0.571  1.00  0.00     0.014 A 
ATOM     25  C   UNL     1      -8.981  10.388  -0.476  1.00  0.00     0.010 A 
ATOM     26  C   UNL     1      -7.922   8.283   0.106  1.00  0.00     0.010 A 
ATOM     27  C   UNL     1      -9.018   9.139   0.172  1.00  0.00    -0.014 A 
BRANCH  27  28
ATOM     28  C   UNL     1     -10.282   8.660   0.738  1.00  0.00     0.031 A 
ATOM     29  C   UNL     1     -11.409   8.703  -0.234  1.00  0.00     0.074 A 
ATOM     30  C   UNL     1     -10.409   8.038   1.932  1.00  0.00     0.049 A 
ATOM     31  N   UNL     1     -12.458   9.454  -0.183  1.00  0.00    -0.248 NA
ATOM     32  C   UNL     1     -11.296   7.932  -1.485  1.00  0.00     0.031 C 
ATOM     33  C   UNL     1      -9.325   7.624   2.829  1.00  0.00     0.029 A 
ATOM     34  N   UNL     1     -11.522   7.539   2.558  1.00  0.00    -0.354 N 
ATOM     35  C   UNL     1     -13.253   9.070  -1.262  1.00  0.00     0.074 A 
ATOM     36  C   UNL     1     -12.408   8.297  -2.130  1.00  0.00     0.031 C 
ATOM     37  C   UNL     1      -9.796   6.740   3.735  1.00  0.00     0.029 A 
ATOM     38  C   UNL     1     -11.240   6.660   3.602  1.00  0.00     0.049 A 
ATOM     39  H   UNL     1     -12.439   7.780   2.293  1.00  0.00     0.167 HD
ATOM     40  C   UNL     1     -14.609   9.144  -1.155  1.00  0.00     0.037 A 
ATOM     41  C   UNL     1     -12.118   5.910   4.313  1.00  0.00     0.037 A 
ATOM     42  C   UNL     1     -14.975   9.961  -0.026  1.00  0.00     0.049 A 
ATOM     43  C   UNL     1     -13.453   6.531   4.183  1.00  0.00     0.074 A 
ATOM     44  C   UNL     1     -15.042  11.300   0.283  1.00  0.00     0.029 A 
ATOM     45  N   UNL     1     -14.975   9.271   1.154  1.00  0.00    -0.354 N 
ATOM     46  N   UNL     1     -13.763   7.683   4.709  1.00  0.00    -0.248 NA
ATOM     47  C   UNL     1     -14.391   6.019   3.189  1.00  0.00     0.031 C 
ATOM     48  C   UNL     1     -14.994  11.389   1.708  1.00  0.00     0.029 A 
ATOM     49  C   UNL     1     -14.941  10.102   2.236  1.00  0.00     0.049 A 
ATOM     50  H   UNL     1     -14.998   8.289   1.216  1.00  0.00     0.167 HD
ATOM     51  C   UNL     1     -14.655   8.226   3.811  1.00  0.00     0.074 A 
ATOM     52  C   UNL     1     -15.149   7.106   3.022  1.00  0.00     0.031 C 
ATOM     53  C   UNL     1     -14.632   9.561   3.538  1.00  0.00     0.037 A 
BRANCH  40  54
ATOM     54  C   UNL     1     -15.584   8.089  -1.662  1.00  0.00     0.064 A 
ATOM     55  C   UNL     1     -16.967   8.293  -1.445  1.00  0.00     0.173 A 
ATOM     56  C   UNL     1     -15.225   6.772  -2.022  1.00  0.00     0.173 A 
ATOM     57  F   UNL     1     -17.433   9.501  -1.091  1.00  0.00    -0.203 F 
ATOM     58  C   UNL     1     -17.892   7.244  -1.489  1.00  0.00     0.198 A 
ATOM     59  C   UNL     1     -16.159   5.738  -2.110  1.00  0.00     0.198 A 
ATOM     60  F   UNL     1     -13.955   6.394  -2.194  1.00  0.00    -0.203 F 
ATOM     61  F   UNL     1     -19.168   7.465  -1.147  1.00  0.00    -0.200 F 
ATOM     62  C   UNL     1     -17.485   5.965  -1.812  1.00  0.00     0.200 A 
ATOM     63  F   UNL     1     -15.739   4.498  -2.404  1.00  0.00    -0.200 F 
ATOM     64  F   UNL     1     -18.353   4.945  -1.792  1.00  0.00    -0.200 F 
ENDBRANCH  40  54
BRANCH  41  65
ATOM     65  C   UNL     1     -11.939   4.597   4.978  1.00  0.00     0.064 A 
ATOM     66  C   UNL     1     -12.859   4.140   5.939  1.00  0.00     0.173 A 
ATOM     67  C   UNL     1     -11.040   3.640   4.471  1.00  0.00     0.173 A 
ATOM     68  F   UNL     1     -13.769   4.979   6.457  1.00  0.00    -0.203 F 
ATOM     69  C   UNL     1     -12.914   2.798   6.327  1.00  0.00     0.198 A 
ATOM     70  C   UNL     1     -11.091   2.301   4.864  1.00  0.00     0.198 A 
ATOM     71  F   UNL     1     -10.163   3.966   3.510  1.00  0.00    -0.203 F 
ATOM     72  F   UNL     1     -13.858   2.388   7.185  1.00  0.00    -0.200 F 
ATOM     73  C   UNL     1     -12.041   1.876   5.775  1.00  0.00     0.200 A 
ATOM     74  F   UNL     1     -10.261   1.411   4.301  1.00  0.00    -0.200 F 
ATOM     75  F   UNL     1     -12.142   0.577   6.087  1.00  0.00    -0.200 F 
ENDBRANCH  41  65
BRANCH  53  76
ATOM     76  C   UNL     1     -14.115  10.477   4.597  1.00  0.00     0.064 A 
ATOM     77  C   UNL     1     -12.791  10.503   5.061  1.00  0.00     0.173 A 
ATOM     78  C   UNL     1     -15.011  11.415   5.129  1.00  0.00     0.173 A 
ATOM     79  F   UNL     1     -11.862   9.685   4.548  1.00  0.00    -0.203 F 
ATOM     80  C   UNL     1     -12.397  11.408   6.046  1.00  0.00     0.198 A 
ATOM     81  C   UNL     1     -14.605  12.341   6.082  1.00  0.00     0.198 A 
ATOM     82  F   UNL     1     -16.282  11.451   4.697  1.00  0.00    -0.203 F 
ATOM     83  F   UNL     1     -11.133  11.403   6.497  1.00  0.00    -0.200 F 
ATOM     84  C   UNL     1     -13.302  12.329   6.550  1.00  0.00     0.200 A 
ATOM     85  F   UNL     1     -15.476  13.253   6.535  1.00  0.00    -0.200 F 
ATOM     86  F   UNL     1     -12.915  13.220   7.474  1.00  0.00    -0.200 F 
ENDBRANCH  53  76
ENDBRANCH  27  28
ENDBRANCH  19  22
ENDBRANCH  17  18
ENDBRANCH   1  17
TORSDOF 11
