REMARK SMILES Cc1c(CC(=O)N[C@@H](Cc2ccc(Cl)cc2)C(=O)NCCCCNC(=O)c2ccc(-c3c4nc(c(-c5c(F)c(F)c(F)c(F)c5F)c5ccc([nH]5)c(-c5c(F)c(F)c(F)c(F)c5F)c5nc(c(-c6c(F)c(F)c(F)c(F)c6F)c6ccc3[nH]6)C=C5)C=C4)cc2)c(=O)oc2cc(O)c(Cl)cc12
REMARK SMILES IDX 20 1 19 2 17 3 18 4 8 6 7 7 5 8 6 9 4 11 3 12 1 13 2 14
REMARK SMILES IDX 100 15 90 16 93 17 99 18 91 19 92 20 94 21 97 22 95 23 98 24
REMARK SMILES IDX 96 25 9 27 10 28 11 29 16 30 12 31 15 32 13 33 14 34 21 35
REMARK SMILES IDX 22 36 23 37 24 38 25 39 26 41 27 42 28 43 89 44 29 45 88 46
REMARK SMILES IDX 30 47 31 48 32 49 82 50 33 51 87 52 81 53 83 54 34 55 86 56
REMARK SMILES IDX 80 57 79 58 35 60 67 61 47 62 66 63 48 64 51 65 65 66 84 67
REMARK SMILES IDX 49 68 50 69 64 71 85 72 52 73 36 74 37 75 45 76 38 77 39 78
REMARK SMILES IDX 43 79 46 80 40 81 41 82 44 83 42 84 68 85 69 86 77 87 70 88
REMARK SMILES IDX 71 89 75 90 78 91 72 92 73 93 76 94 74 95 53 96 54 97 62 98
REMARK SMILES IDX 55 99 56 100 60 101 63 102 57 103 58 104 61 105 59 106
REMARK H PARENT 19 5 7 10 96 26 24 40 83 59 51 70
REMARK Flexibility Score: inf
ROOT
ATOM      1  C   UNL     1       6.260  -3.170  -1.772  1.00  0.00     0.116 C 
ENDROOT
BRANCH   1   2
ATOM      2  N   UNL     1       5.358  -4.128  -2.380  1.00  0.00    -0.354 N 
ATOM      3  C   UNL     1       4.127  -3.962  -2.939  1.00  0.00     0.242 C 
ATOM      4  O   UNL     1       3.786  -4.814  -3.769  1.00  0.00    -0.273 OA
ATOM      5  H   UNL     1       5.691  -5.054  -2.389  1.00  0.00     0.163 HD
BRANCH   3   6
ATOM      6  C   UNL     1       3.230  -2.728  -2.691  1.00  0.00     0.175 C 
BRANCH   6   7
ATOM      7  N   UNL     1       3.228  -2.258  -1.303  1.00  0.00    -0.344 N 
ATOM      8  C   UNL     1       2.269  -2.391  -0.347  1.00  0.00     0.225 C 
ATOM      9  O   UNL     1       2.604  -2.199   0.823  1.00  0.00    -0.275 OA
ATOM     10  H   UNL     1       4.038  -1.775  -1.021  1.00  0.00     0.164 HD
BRANCH   8  11
ATOM     11  C   UNL     1       0.824  -2.695  -0.722  1.00  0.00     0.143 C 
BRANCH  11  12
ATOM     12  C   UNL     1       0.228  -1.554  -1.524  1.00  0.00     0.051 A 
ATOM     13  C   UNL     1       0.601   0.193   0.255  1.00  0.00     0.046 C 
ATOM     14  C   UNL     1       0.189  -0.262  -1.124  1.00  0.00    -0.029 A 
ATOM     15  C   UNL     1      -0.247   0.774  -2.079  1.00  0.00     0.023 A 
ATOM     16  C   UNL     1      -0.309  -1.966  -2.850  1.00  0.00     0.340 A 
ATOM     17  C   UNL     1      -0.691   0.382  -3.340  1.00  0.00     0.142 A 
ATOM     18  C   UNL     1      -0.202   2.150  -1.813  1.00  0.00     0.036 A 
ATOM     19  O   UNL     1      -0.350  -3.141  -3.194  1.00  0.00    -0.246 OA
ATOM     20  O   UNL     1      -0.745  -0.970  -3.704  1.00  0.00    -0.422 OA
ATOM     21  C   UNL     1      -1.094   1.295  -4.318  1.00  0.00     0.095 A 
ATOM     22  C   UNL     1      -0.601   3.083  -2.779  1.00  0.00     0.083 A 
ATOM     23  C   UNL     1      -1.048   2.653  -4.030  1.00  0.00     0.137 A 
ATOM     24  Cl  UNL     1      -0.515   4.761  -2.384  1.00  0.00    -0.080 Cl
BRANCH  23  25
ATOM     25  O   UNL     1      -1.432   3.565  -4.973  1.00  0.00    -0.506 OA
ATOM     26  H   UNL     1      -1.732   3.273  -5.811  1.00  0.00     0.293 HD
ENDBRANCH  23  25
ENDBRANCH  11  12
ENDBRANCH   8  11
ENDBRANCH   6   7
BRANCH   6  27
ATOM     27  C   UNL     1       3.432  -1.605  -3.730  1.00  0.00     0.070 C 
BRANCH  27  28
ATOM     28  C   UNL     1       4.804  -0.977  -3.806  1.00  0.00    -0.045 A 
ATOM     29  C   UNL     1       5.138   0.124  -3.005  1.00  0.00     0.005 A 
ATOM     30  C   UNL     1       5.769  -1.501  -4.681  1.00  0.00     0.005 A 
ATOM     31  C   UNL     1       6.424   0.669  -3.054  1.00  0.00     0.021 A 
ATOM     32  C   UNL     1       7.056  -0.957  -4.727  1.00  0.00     0.021 A 
ATOM     33  C   UNL     1       7.379   0.121  -3.908  1.00  0.00     0.041 A 
ATOM     34  Cl  UNL     1       8.971   0.770  -3.943  1.00  0.00    -0.084 Cl
ENDBRANCH  27  28
ENDBRANCH   6  27
ENDBRANCH   3   6
ENDBRANCH   1   2
BRANCH   1  35
ATOM     35  C   UNL     1       6.965  -3.708  -0.536  1.00  0.00     0.023 C 
BRANCH  35  36
ATOM     36  C   UNL     1       8.015  -4.782  -0.819  1.00  0.00     0.023 C 
BRANCH  36  37
ATOM     37  C   UNL     1       9.010  -4.463  -1.933  1.00  0.00     0.116 C 
BRANCH  37  38
ATOM     38  N   UNL     1       9.697  -3.188  -1.777  1.00  0.00    -0.352 N 
ATOM     39  C   UNL     1      11.005  -2.883  -2.087  1.00  0.00     0.251 C 
ATOM     40  H   UNL     1       9.160  -2.452  -1.404  1.00  0.00     0.163 HD
ATOM     41  O   UNL     1      11.472  -1.777  -1.855  1.00  0.00    -0.269 OA
BRANCH  39  42
ATOM     42  C   UNL     1      11.855  -3.952  -2.646  1.00  0.00     0.039 A 
ATOM     43  C   UNL     1      11.440  -4.659  -3.776  1.00  0.00     0.014 A 
ATOM     44  C   UNL     1      12.999  -4.332  -1.941  1.00  0.00     0.014 A 
ATOM     45  C   UNL     1      12.065  -5.860  -4.090  1.00  0.00     0.010 A 
ATOM     46  C   UNL     1      13.665  -5.505  -2.300  1.00  0.00     0.010 A 
ATOM     47  C   UNL     1      13.159  -6.311  -3.332  1.00  0.00    -0.014 A 
BRANCH  47  48
ATOM     48  C   UNL     1      13.711  -7.666  -3.582  1.00  0.00     0.031 A 
ATOM     49  C   UNL     1      13.524  -8.759  -2.562  1.00  0.00     0.074 A 
ATOM     50  C   UNL     1      14.309  -7.932  -4.756  1.00  0.00     0.049 A 
ATOM     51  N   UNL     1      13.930 -10.004  -2.602  1.00  0.00    -0.248 NA
ATOM     52  C   UNL     1      12.783  -8.413  -1.338  1.00  0.00     0.031 C 
ATOM     53  C   UNL     1      14.514  -6.965  -5.834  1.00  0.00     0.029 A 
ATOM     54  N   UNL     1      14.827  -9.101  -5.251  1.00  0.00    -0.354 N 
ATOM     55  C   UNL     1      13.513 -10.579  -1.409  1.00  0.00     0.074 A 
ATOM     56  C   UNL     1      12.837  -9.548  -0.653  1.00  0.00     0.031 C 
ATOM     57  C   UNL     1      15.068  -7.590  -6.883  1.00  0.00     0.029 A 
ATOM     58  C   UNL     1      15.305  -8.988  -6.532  1.00  0.00     0.049 A 
ATOM     59  H   UNL     1      14.854  -9.940  -4.737  1.00  0.00     0.167 HD
ATOM     60  C   UNL     1      13.671 -11.856  -0.988  1.00  0.00     0.037 A 
ATOM     61  C   UNL     1      15.877  -9.907  -7.332  1.00  0.00     0.037 A 
ATOM     62  C   UNL     1      14.318 -12.891  -1.750  1.00  0.00     0.049 A 
ATOM     63  C   UNL     1      16.069 -11.307  -6.824  1.00  0.00     0.074 A 
ATOM     64  C   UNL     1      14.535 -14.213  -1.401  1.00  0.00     0.029 A 
ATOM     65  N   UNL     1      14.837 -12.722  -3.024  1.00  0.00    -0.354 N 
ATOM     66  N   UNL     1      15.704 -11.828  -5.679  1.00  0.00    -0.248 NA
ATOM     67  C   UNL     1      16.767 -12.244  -7.716  1.00  0.00     0.031 C 
ATOM     68  C   UNL     1      15.206 -14.839  -2.456  1.00  0.00     0.029 A 
ATOM     69  C   UNL     1      15.379 -13.915  -3.474  1.00  0.00     0.049 A 
ATOM     70  H   UNL     1      14.823 -11.880  -3.534  1.00  0.00     0.167 HD
ATOM     71  C   UNL     1      16.117 -13.151  -5.714  1.00  0.00     0.074 A 
ATOM     72  C   UNL     1      16.745 -13.361  -7.002  1.00  0.00     0.031 C 
ATOM     73  C   UNL     1      15.995 -14.105  -4.760  1.00  0.00     0.037 A 
BRANCH  60  74
ATOM     74  C   UNL     1      13.140 -12.220   0.366  1.00  0.00     0.064 A 
ATOM     75  C   UNL     1      11.771 -12.433   0.579  1.00  0.00     0.173 A 
ATOM     76  C   UNL     1      14.017 -12.439   1.439  1.00  0.00     0.173 A 
ATOM     77  F   UNL     1      10.893 -12.222  -0.413  1.00  0.00    -0.203 F 
ATOM     78  C   UNL     1      11.297 -12.850   1.821  1.00  0.00     0.198 A 
ATOM     79  C   UNL     1      13.542 -12.874   2.673  1.00  0.00     0.198 A 
ATOM     80  F   UNL     1      15.336 -12.253   1.282  1.00  0.00    -0.203 F 
ATOM     81  F   UNL     1       9.983 -13.030   2.009  1.00  0.00    -0.200 F 
ATOM     82  C   UNL     1      12.184 -13.079   2.863  1.00  0.00     0.200 A 
ATOM     83  F   UNL     1      14.400 -13.105   3.676  1.00  0.00    -0.200 F 
ATOM     84  F   UNL     1      11.728 -13.497   4.052  1.00  0.00    -0.200 F 
ENDBRANCH  60  74
BRANCH  61  85
ATOM     85  C   UNL     1      16.300  -9.525  -8.701  1.00  0.00     0.064 A 
ATOM     86  C   UNL     1      15.601  -9.990  -9.822  1.00  0.00     0.173 A 
ATOM     87  C   UNL     1      17.393  -8.674  -8.915  1.00  0.00     0.173 A 
ATOM     88  F   UNL     1      14.562 -10.823  -9.665  1.00  0.00    -0.203 F 
ATOM     89  C   UNL     1      15.983  -9.620 -11.110  1.00  0.00     0.198 A 
ATOM     90  C   UNL     1      17.760  -8.286 -10.201  1.00  0.00     0.198 A 
ATOM     91  F   UNL     1      18.092  -8.203  -7.871  1.00  0.00    -0.203 F 
ATOM     92  F   UNL     1      15.316 -10.100 -12.168  1.00  0.00    -0.200 F 
ATOM     93  C   UNL     1      17.057  -8.763 -11.297  1.00  0.00     0.200 A 
ATOM     94  F   UNL     1      18.790  -7.448 -10.377  1.00  0.00    -0.200 F 
ATOM     95  F   UNL     1      17.418  -8.399 -12.536  1.00  0.00    -0.200 F 
ENDBRANCH  61  85
BRANCH  73  96
ATOM     96  C   UNL     1      16.538 -15.464  -5.074  1.00  0.00     0.064 A 
ATOM     97  C   UNL     1      17.914 -15.725  -5.026  1.00  0.00     0.173 A 
ATOM     98  C   UNL     1      15.671 -16.526  -5.369  1.00  0.00     0.173 A 
ATOM     99  F   UNL     1      18.780 -14.736  -4.760  1.00  0.00    -0.203 F 
ATOM    100  C   UNL     1      18.406 -17.003  -5.276  1.00  0.00     0.198 A 
ATOM    101  C   UNL     1      16.165 -17.806  -5.599  1.00  0.00     0.198 A 
ATOM    102  F   UNL     1      14.346 -16.323  -5.420  1.00  0.00    -0.203 F 
ATOM    103  F   UNL     1      19.727 -17.227  -5.252  1.00  0.00    -0.200 F 
ATOM    104  C   UNL     1      17.531 -18.043  -5.556  1.00  0.00     0.200 A 
ATOM    105  F   UNL     1      15.319 -18.812  -5.862  1.00  0.00    -0.200 F 
ATOM    106  F   UNL     1      18.006 -19.274  -5.788  1.00  0.00    -0.200 F 
ENDBRANCH  73  96
ENDBRANCH  47  48
ENDBRANCH  39  42
ENDBRANCH  37  38
ENDBRANCH  36  37
ENDBRANCH  35  36
ENDBRANCH   1  35
TORSDOF 17
