REMARK SMILES C[C@@H](C(=O)NCCCCNC(=O)c1ccc(-c2c3nc(c(-c4c(F)c(F)c(F)c(F)c4F)c4ccc([nH]4)c(-c4c(F)c(F)c(F)c(F)c4F)c4nc(c(-c5c(F)c(F)c(F)c(F)c5F)c5ccc2[nH]5)C=C4)C=C3)cc1)c1ccc(C[C@H]2CCCC2=O)c(-c2ccc(OC(F)(F)F)cc2)c1
REMARK SMILES IDX 6 1 5 2 3 3 4 4 2 6 1 7 76 8 77 9 99 10 78 11 87 12 79 13
REMARK SMILES IDX 88 14 89 15 98 16 90 17 97 18 91 19 92 20 93 21 94 22 95 23
REMARK SMILES IDX 96 24 80 25 81 26 82 27 85 28 83 29 84 30 86 31 7 32 8 33
REMARK SMILES IDX 9 34 10 35 11 36 12 38 13 39 14 40 75 41 15 42 74 43 16 44
REMARK SMILES IDX 17 45 18 46 68 47 19 48 73 49 67 50 69 51 20 52 72 53 66 54
REMARK SMILES IDX 65 55 21 57 53 58 33 59 52 60 34 61 37 62 51 63 70 64 35 65
REMARK SMILES IDX 36 66 50 68 71 69 38 70 22 71 23 72 31 73 24 74 25 75 29 76
REMARK SMILES IDX 32 77 26 78 27 79 30 80 28 81 54 82 55 83 63 84 56 85 57 86
REMARK SMILES IDX 61 87 64 88 58 89 59 90 62 91 60 92 39 93 40 94 48 95 41 96
REMARK SMILES IDX 42 97 46 98 49 99 43 100 44 101 47 102 45 103
REMARK H PARENT 5 5 10 37 69 56 37 67
REMARK Flexibility Score: inf
ROOT
ATOM      1  C   UNL     1       3.538   0.874  -1.657  1.00  0.00     0.116 C 
ENDROOT
BRANCH   1   2
ATOM      2  N   UNL     1       2.496   0.454  -2.571  1.00  0.00    -0.356 N 
ATOM      3  C   UNL     1       1.160   0.270  -2.356  1.00  0.00     0.227 C 
ATOM      4  O   UNL     1       0.514  -0.221  -3.283  1.00  0.00    -0.274 OA
ATOM      5  H   UNL     1       2.798   0.272  -3.490  1.00  0.00     0.163 HD
BRANCH   3   6
ATOM      6  C   UNL     1       0.531   0.700  -1.022  1.00  0.00     0.105 C 
ATOM      7  C   UNL     1       0.968  -0.197   0.145  1.00  0.00     0.023 C 
BRANCH   6   8
ATOM      8  C   UNL     1      -0.991   0.758  -1.095  1.00  0.00    -0.035 A 
ATOM      9  C   UNL     1      -1.651   1.977  -1.246  1.00  0.00     0.005 A 
ATOM     10  C   UNL     1      -1.766  -0.408  -1.003  1.00  0.00     0.013 A 
ATOM     11  C   UNL     1      -3.045   2.025  -1.236  1.00  0.00     0.004 A 
ATOM     12  C   UNL     1      -3.175  -0.386  -0.950  1.00  0.00    -0.015 A 
ATOM     13  C   UNL     1      -3.825   0.865  -1.040  1.00  0.00    -0.039 A 
BRANCH  12  14
ATOM     14  C   UNL     1      -3.863  -1.678  -0.765  1.00  0.00    -0.018 A 
ATOM     15  C   UNL     1      -4.756  -2.187  -1.716  1.00  0.00     0.012 A 
ATOM     16  C   UNL     1      -3.586  -2.471   0.361  1.00  0.00     0.012 A 
ATOM     17  C   UNL     1      -5.378  -3.425  -1.524  1.00  0.00     0.047 A 
ATOM     18  C   UNL     1      -4.191  -3.719   0.545  1.00  0.00     0.047 A 
ATOM     19  C   UNL     1      -5.099  -4.200  -0.394  1.00  0.00     0.129 A 
BRANCH  19  20
ATOM     20  O   UNL     1      -5.774  -5.385  -0.335  1.00  0.00    -0.406 OA
BRANCH  20  21
ATOM     21  C   UNL     1      -5.468  -6.264   0.733  1.00  0.00     0.573 C 
ATOM     22  F   UNL     1      -4.170  -6.634   0.703  1.00  0.00    -0.132 F 
ATOM     23  F   UNL     1      -5.748  -5.700   1.928  1.00  0.00    -0.132 F 
ATOM     24  F   UNL     1      -6.225  -7.377   0.611  1.00  0.00    -0.132 F 
ENDBRANCH  20  21
ENDBRANCH  19  20
ENDBRANCH  12  14
BRANCH  13  25
ATOM     25  C   UNL     1      -5.325   1.042  -0.899  1.00  0.00     0.047 C 
BRANCH  25  26
ATOM     26  C   UNL     1      -5.836   1.585   0.443  1.00  0.00     0.060 C 
ATOM     27  C   UNL     1      -5.372   0.858   1.708  1.00  0.00     0.012 C 
ATOM     28  C   UNL     1      -5.382   3.002   0.712  1.00  0.00     0.136 C 
ATOM     29  C   UNL     1      -4.194   1.660   2.249  1.00  0.00     0.009 C 
ATOM     30  C   UNL     1      -4.530   3.113   1.948  1.00  0.00     0.076 C 
ATOM     31  O   UNL     1      -5.691   3.963   0.016  1.00  0.00    -0.299 OA
ENDBRANCH  25  26
ENDBRANCH  13  25
ENDBRANCH   6   8
ENDBRANCH   3   6
ENDBRANCH   1   2
BRANCH   1  32
ATOM     32  C   UNL     1       4.338  -0.326  -1.147  1.00  0.00     0.023 C 
BRANCH  32  33
ATOM     33  C   UNL     1       5.131  -1.070  -2.226  1.00  0.00     0.023 C 
BRANCH  33  34
ATOM     34  C   UNL     1       6.123  -0.216  -3.007  1.00  0.00     0.116 C 
BRANCH  34  35
ATOM     35  N   UNL     1       7.123   0.412  -2.159  1.00  0.00    -0.352 N 
ATOM     36  C   UNL     1       8.476   0.537  -2.370  1.00  0.00     0.251 C 
ATOM     37  H   UNL     1       6.786   0.799  -1.319  1.00  0.00     0.163 HD
ATOM     38  O   UNL     1       9.204   0.993  -1.494  1.00  0.00    -0.269 OA
BRANCH  36  39
ATOM     39  C   UNL     1       9.053   0.081  -3.650  1.00  0.00     0.039 A 
ATOM     40  C   UNL     1      10.147  -0.787  -3.624  1.00  0.00     0.014 A 
ATOM     41  C   UNL     1       8.488   0.473  -4.866  1.00  0.00     0.014 A 
ATOM     42  C   UNL     1      10.623  -1.333  -4.818  1.00  0.00     0.010 A 
ATOM     43  C   UNL     1       8.924  -0.116  -6.048  1.00  0.00     0.010 A 
ATOM     44  C   UNL     1       9.984  -1.037  -6.033  1.00  0.00    -0.014 A 
BRANCH  44  45
ATOM     45  C   UNL     1      10.373  -1.710  -7.297  1.00  0.00     0.031 A 
ATOM     46  C   UNL     1      10.945  -0.910  -8.431  1.00  0.00     0.074 A 
ATOM     47  C   UNL     1      10.106  -3.021  -7.458  1.00  0.00     0.049 A 
ATOM     48  N   UNL     1      11.215  -1.288  -9.655  1.00  0.00    -0.248 NA
ATOM     49  C   UNL     1      11.224   0.509  -8.164  1.00  0.00     0.031 C 
ATOM     50  C   UNL     1       9.505  -3.892  -6.446  1.00  0.00     0.029 A 
ATOM     51  N   UNL     1      10.277  -3.844  -8.543  1.00  0.00    -0.354 N 
ATOM     52  C   UNL     1      11.670  -0.151 -10.308  1.00  0.00     0.074 A 
ATOM     53  C   UNL     1      11.612   0.938  -9.357  1.00  0.00     0.031 C 
ATOM     54  C   UNL     1       9.356  -5.124  -6.958  1.00  0.00     0.029 A 
ATOM     55  C   UNL     1       9.811  -5.121  -8.345  1.00  0.00     0.049 A 
ATOM     56  H   UNL     1      10.694  -3.547  -9.384  1.00  0.00     0.167 HD
ATOM     57  C   UNL     1      12.108  -0.034 -11.584  1.00  0.00     0.037 A 
ATOM     58  C   UNL     1       9.734  -6.165  -9.193  1.00  0.00     0.037 A 
ATOM     59  C   UNL     1      12.205  -1.129 -12.512  1.00  0.00     0.049 A 
ATOM     60  C   UNL     1      10.228  -6.003 -10.604  1.00  0.00     0.074 A 
ATOM     61  C   UNL     1      12.742  -1.131 -13.787  1.00  0.00     0.029 A 
ATOM     62  N   UNL     1      11.748  -2.414 -12.267  1.00  0.00    -0.354 N 
ATOM     63  N   UNL     1      10.743  -4.946 -11.183  1.00  0.00    -0.248 NA
ATOM     64  C   UNL     1      10.129  -7.178 -11.482  1.00  0.00     0.031 C 
ATOM     65  C   UNL     1      12.564  -2.406 -14.333  1.00  0.00     0.029 A 
ATOM     66  C   UNL     1      11.956  -3.209 -13.382  1.00  0.00     0.049 A 
ATOM     67  H   UNL     1      11.336  -2.717 -11.425  1.00  0.00     0.167 HD
ATOM     68  C   UNL     1      11.045  -5.332 -12.482  1.00  0.00     0.074 A 
ATOM     69  C   UNL     1      10.673  -6.725 -12.603  1.00  0.00     0.031 C 
ATOM     70  C   UNL     1      11.582  -4.596 -13.485  1.00  0.00     0.037 A 
BRANCH  57  71
ATOM     71  C   UNL     1      12.523   1.326 -12.061  1.00  0.00     0.064 A 
ATOM     72  C   UNL     1      13.713   1.928 -11.627  1.00  0.00     0.173 A 
ATOM     73  C   UNL     1      11.752   2.005 -13.017  1.00  0.00     0.173 A 
ATOM     74  F   UNL     1      14.479   1.322 -10.708  1.00  0.00    -0.203 F 
ATOM     75  C   UNL     1      14.107   3.169 -12.120  1.00  0.00     0.198 A 
ATOM     76  C   UNL     1      12.162   3.234 -13.526  1.00  0.00     0.198 A 
ATOM     77  F   UNL     1      10.608   1.470 -13.468  1.00  0.00    -0.203 F 
ATOM     78  F   UNL     1      15.232   3.741 -11.667  1.00  0.00    -0.200 F 
ATOM     79  C   UNL     1      13.337   3.817 -13.074  1.00  0.00     0.200 A 
ATOM     80  F   UNL     1      11.423   3.853 -14.457  1.00  0.00    -0.200 F 
ATOM     81  F   UNL     1      13.726   5.005 -13.557  1.00  0.00    -0.200 F 
ENDBRANCH  57  71
BRANCH  58  82
ATOM     82  C   UNL     1       9.156  -7.455  -8.735  1.00  0.00     0.064 A 
ATOM     83  C   UNL     1       9.963  -8.589  -8.574  1.00  0.00     0.173 A 
ATOM     84  C   UNL     1       7.785  -7.585  -8.466  1.00  0.00     0.173 A 
ATOM     85  F   UNL     1      11.275  -8.520  -8.841  1.00  0.00    -0.203 F 
ATOM     86  C   UNL     1       9.418  -9.810  -8.182  1.00  0.00     0.198 A 
ATOM     87  C   UNL     1       7.246  -8.799  -8.047  1.00  0.00     0.198 A 
ATOM     88  F   UNL     1       6.971  -6.528  -8.601  1.00  0.00    -0.203 F 
ATOM     89  F   UNL     1      10.204 -10.891  -8.083  1.00  0.00    -0.200 F 
ATOM     90  C   UNL     1       8.061  -9.913  -7.915  1.00  0.00     0.200 A 
ATOM     91  F   UNL     1       5.937  -8.892  -7.777  1.00  0.00    -0.200 F 
ATOM     92  F   UNL     1       7.538 -11.088  -7.538  1.00  0.00    -0.200 F 
ENDBRANCH  58  82
BRANCH  70  93
ATOM     93  C   UNL     1      11.814  -5.284 -14.797  1.00  0.00     0.064 A 
ATOM     94  C   UNL     1      10.751  -5.596 -15.656  1.00  0.00     0.173 A 
ATOM     95  C   UNL     1      13.117  -5.582 -15.223  1.00  0.00     0.173 A 
ATOM     96  F   UNL     1       9.487  -5.345 -15.284  1.00  0.00    -0.203 F 
ATOM     97  C   UNL     1      10.984  -6.195 -16.891  1.00  0.00     0.198 A 
ATOM     98  C   UNL     1      13.347  -6.156 -16.470  1.00  0.00     0.198 A 
ATOM     99  F   UNL     1      14.167  -5.298 -14.438  1.00  0.00    -0.203 F 
ATOM    100  F   UNL     1       9.951  -6.517 -17.682  1.00  0.00    -0.200 F 
ATOM    101  C   UNL     1      12.281  -6.466 -17.300  1.00  0.00     0.200 A 
ATOM    102  F   UNL     1      14.602  -6.407 -16.869  1.00  0.00    -0.200 F 
ATOM    103  F   UNL     1      12.503  -7.031 -18.495  1.00  0.00    -0.200 F 
ENDBRANCH  70  93
ENDBRANCH  44  45
ENDBRANCH  36  39
ENDBRANCH  34  35
ENDBRANCH  33  34
ENDBRANCH  32  33
ENDBRANCH   1  32
TORSDOF 17
