REMARK SMILES CN(C(=O)C[C@@H]1SC(=O)N(c2ccccc2)C1=O)c1ccccc1C(=O)NCCCCNC(=O)c1ccc(-c2c3nc(c(-c4c(F)c(F)c(F)c(F)c4F)c4ccc([nH]4)c(-c4c(F)c(F)c(F)c(F)c4F)c4nc(c(-c5c(F)c(F)c(F)c(F)c5F)c5ccc2[nH]5)C=C4)C=C3)cc1
REMARK SMILES IDX 28 1 27 2 25 3 26 4 24 6 19 7 20 8 21 9 23 10 22 11 2 12
REMARK SMILES IDX 1 13 3 14 4 15 5 16 6 17 7 18 17 19 8 20 10 21 18 22 9 23
REMARK SMILES IDX 11 24 12 25 16 26 13 27 15 28 14 29 29 30 30 31 31 32 32 33
REMARK SMILES IDX 33 34 34 36 35 37 36 38 97 39 37 40 96 41 38 42 39 43 40 44
REMARK SMILES IDX 90 45 41 46 95 47 89 48 91 49 42 50 94 51 88 52 87 53 43 55
REMARK SMILES IDX 75 56 55 57 74 58 56 59 59 60 73 61 92 62 57 63 58 64 72 66
REMARK SMILES IDX 93 67 60 68 44 69 45 70 53 71 46 72 47 73 51 74 54 75 48 76
REMARK SMILES IDX 49 77 52 78 50 79 76 80 77 81 85 82 78 83 79 84 83 85 86 86
REMARK SMILES IDX 80 87 81 88 84 89 82 90 61 91 62 92 70 93 63 94 64 95 68 96
REMARK SMILES IDX 71 97 65 98 66 99 69 100 67 101
REMARK H PARENT 27 5 32 35 91 54 59 65
REMARK Flexibility Score: inf
ROOT
ATOM      1  C   UNL     1       2.515  -0.968  -0.193  1.00  0.00     0.116 C 
ENDROOT
BRANCH   1   2
ATOM      2  N   UNL     1       3.402  -0.022  -0.749  1.00  0.00    -0.352 N 
ATOM      3  C   UNL     1       3.147   0.822  -1.780  1.00  0.00     0.253 C 
ATOM      4  O   UNL     1       4.043   1.654  -1.969  1.00  0.00    -0.269 OA
ATOM      5  H   UNL     1       4.299   0.030  -0.347  1.00  0.00     0.163 HD
BRANCH   3   6
ATOM      6  C   UNL     1       1.920   0.794  -2.678  1.00  0.00     0.063 A 
ATOM      7  C   UNL     1       0.629   0.166  -2.612  1.00  0.00     0.056 A 
ATOM      8  C   UNL     1      -0.301   0.497  -3.633  1.00  0.00     0.027 A 
ATOM      9  C   UNL     1       0.001   1.357  -4.697  1.00  0.00     0.002 A 
ATOM     10  C   UNL     1       2.195   1.618  -3.814  1.00  0.00     0.016 A 
ATOM     11  C   UNL     1       1.262   1.904  -4.802  1.00  0.00     0.001 A 
BRANCH   7  12
ATOM     12  N   UNL     1       0.035  -0.662  -1.544  1.00  0.00    -0.315 N 
ATOM     13  C   UNL     1      -0.653   0.144  -0.522  1.00  0.00     0.153 C 
BRANCH  12  14
ATOM     14  C   UNL     1      -0.127  -2.065  -1.731  1.00  0.00     0.228 C 
ATOM     15  O   UNL     1       0.323  -2.610  -2.750  1.00  0.00    -0.274 OA
BRANCH  14  16
ATOM     16  C   UNL     1      -0.838  -3.033  -0.681  1.00  0.00     0.125 C 
BRANCH  16  17
ATOM     17  C   UNL     1       0.159  -4.053   0.044  1.00  0.00     0.156 C 
ATOM     18  S   UNL     1      -0.348  -5.649   0.727  1.00  0.00    -0.050 SA
ATOM     19  C   UNL     1       0.688  -3.420   1.306  1.00  0.00     0.248 C 
ATOM     20  C   UNL     1       0.912  -5.563   2.004  1.00  0.00     0.293 C 
ATOM     21  N   UNL     1       1.274  -4.270   2.257  1.00  0.00    -0.240 N 
ATOM     22  O   UNL     1       0.613  -2.205   1.238  1.00  0.00    -0.273 OA
ATOM     23  O   UNL     1       1.300  -6.587   2.572  1.00  0.00    -0.261 OA
BRANCH  21  24
ATOM     24  C   UNL     1       2.179  -3.927   3.430  1.00  0.00     0.053 A 
ATOM     25  C   UNL     1       2.017  -2.870   4.341  1.00  0.00     0.027 A 
ATOM     26  C   UNL     1       3.309  -4.657   3.785  1.00  0.00     0.027 A 
ATOM     27  C   UNL     1       2.864  -2.409   5.381  1.00  0.00     0.002 A 
ATOM     28  C   UNL     1       4.198  -4.247   4.848  1.00  0.00     0.002 A 
ATOM     29  C   UNL     1       3.994  -3.112   5.630  1.00  0.00     0.000 A 
ENDBRANCH  21  24
ENDBRANCH  16  17
ENDBRANCH  14  16
ENDBRANCH  12  14
ENDBRANCH   7  12
ENDBRANCH   3   6
ENDBRANCH   1   2
BRANCH   1  30
ATOM     30  C   UNL     1       3.026  -1.624   1.060  1.00  0.00     0.023 C 
BRANCH  30  31
ATOM     31  C   UNL     1       2.471  -0.960   2.389  1.00  0.00     0.023 C 
BRANCH  31  32
ATOM     32  C   UNL     1       0.858  -0.678   3.005  1.00  0.00     0.116 C 
BRANCH  32  33
ATOM     33  N   UNL     1      -0.459  -1.714   3.234  1.00  0.00    -0.352 N 
ATOM     34  C   UNL     1      -1.082  -2.828   3.892  1.00  0.00     0.251 C 
ATOM     35  H   UNL     1      -1.138  -1.392   2.599  1.00  0.00     0.163 HD
ATOM     36  O   UNL     1      -2.098  -3.267   3.338  1.00  0.00    -0.269 OA
BRANCH  34  37
ATOM     37  C   UNL     1      -0.619  -3.629   5.119  1.00  0.00     0.039 A 
ATOM     38  C   UNL     1      -0.402  -5.032   5.128  1.00  0.00     0.014 A 
ATOM     39  C   UNL     1      -0.234  -2.965   6.263  1.00  0.00     0.014 A 
ATOM     40  C   UNL     1       0.421  -5.680   6.127  1.00  0.00     0.010 A 
ATOM     41  C   UNL     1       0.672  -3.591   7.162  1.00  0.00     0.010 A 
ATOM     42  C   UNL     1       1.089  -4.948   7.125  1.00  0.00    -0.014 A 
BRANCH  42  43
ATOM     43  C   UNL     1       2.216  -5.480   8.084  1.00  0.00     0.031 A 
ATOM     44  C   UNL     1       2.453  -4.821   9.464  1.00  0.00     0.074 A 
ATOM     45  C   UNL     1       3.174  -6.404   7.768  1.00  0.00     0.049 A 
ATOM     46  N   UNL     1       3.488  -4.885  10.282  1.00  0.00    -0.248 NA
ATOM     47  C   UNL     1       1.440  -3.867   9.928  1.00  0.00     0.031 C 
ATOM     48  C   UNL     1       3.328  -7.122   6.504  1.00  0.00     0.029 A 
ATOM     49  N   UNL     1       4.255  -6.882   8.515  1.00  0.00    -0.354 N 
ATOM     50  C   UNL     1       3.284  -3.883  11.232  1.00  0.00     0.074 A 
ATOM     51  C   UNL     1       2.148  -3.125  10.764  1.00  0.00     0.031 C 
ATOM     52  C   UNL     1       4.383  -7.958   6.574  1.00  0.00     0.029 A 
ATOM     53  C   UNL     1       5.012  -7.854   7.889  1.00  0.00     0.049 A 
ATOM     54  H   UNL     1       4.461  -6.551   9.419  1.00  0.00     0.167 HD
ATOM     55  C   UNL     1       3.867  -3.651  12.441  1.00  0.00     0.037 A 
ATOM     56  C   UNL     1       6.066  -8.601   8.306  1.00  0.00     0.037 A 
ATOM     57  C   UNL     1       4.867  -4.490  13.047  1.00  0.00     0.049 A 
ATOM     58  C   UNL     1       6.657  -8.437   9.693  1.00  0.00     0.074 A 
ATOM     59  C   UNL     1       5.375  -4.440  14.336  1.00  0.00     0.029 A 
ATOM     60  N   UNL     1       5.491  -5.551  12.418  1.00  0.00    -0.354 N 
ATOM     61  N   UNL     1       6.348  -7.579  10.632  1.00  0.00    -0.248 NA
ATOM     62  C   UNL     1       7.734  -9.370  10.083  1.00  0.00     0.031 C 
ATOM     63  C   UNL     1       6.340  -5.444  14.472  1.00  0.00     0.029 A 
ATOM     64  C   UNL     1       6.390  -6.154  13.286  1.00  0.00     0.049 A 
ATOM     65  H   UNL     1       5.323  -5.837  11.491  1.00  0.00     0.167 HD
ATOM     66  C   UNL     1       7.144  -7.902  11.730  1.00  0.00     0.074 A 
ATOM     67  C   UNL     1       7.950  -9.037  11.348  1.00  0.00     0.031 C 
ATOM     68  C   UNL     1       7.188  -7.303  12.946  1.00  0.00     0.037 A 
BRANCH  55  69
ATOM     69  C   UNL     1       3.365  -2.469  13.246  1.00  0.00     0.064 A 
ATOM     70  C   UNL     1       2.028  -2.374  13.674  1.00  0.00     0.173 A 
ATOM     71  C   UNL     1       4.225  -1.416  13.598  1.00  0.00     0.173 A 
ATOM     72  F   UNL     1       1.157  -3.358  13.398  1.00  0.00    -0.203 F 
ATOM     73  C   UNL     1       1.549  -1.233  14.311  1.00  0.00     0.198 A 
ATOM     74  C   UNL     1       3.757  -0.304  14.297  1.00  0.00     0.198 A 
ATOM     75  F   UNL     1       5.524  -1.460  13.266  1.00  0.00    -0.203 F 
ATOM     76  F   UNL     1       0.241  -1.121  14.582  1.00  0.00    -0.200 F 
ATOM     77  C   UNL     1       2.414  -0.200  14.626  1.00  0.00     0.200 A 
ATOM     78  F   UNL     1       4.604   0.678  14.639  1.00  0.00    -0.200 F 
ATOM     79  F   UNL     1       1.952   0.900  15.236  1.00  0.00    -0.200 F 
ENDBRANCH  55  69
BRANCH  56  80
ATOM     80  C   UNL     1       6.578  -9.718   7.448  1.00  0.00     0.064 A 
ATOM     81  C   UNL     1       6.301 -11.051   7.800  1.00  0.00     0.173 A 
ATOM     82  C   UNL     1       7.364  -9.504   6.308  1.00  0.00     0.173 A 
ATOM     83  F   UNL     1       5.600 -11.315   8.912  1.00  0.00    -0.203 F 
ATOM     84  C   UNL     1       6.792 -12.121   7.051  1.00  0.00     0.198 A 
ATOM     85  C   UNL     1       7.832 -10.577   5.543  1.00  0.00     0.198 A 
ATOM     86  F   UNL     1       7.681  -8.256   5.934  1.00  0.00    -0.203 F 
ATOM     87  F   UNL     1       6.549 -13.379   7.444  1.00  0.00    -0.200 F 
ATOM     88  C   UNL     1       7.548 -11.883   5.916  1.00  0.00     0.200 A 
ATOM     89  F   UNL     1       8.566 -10.346   4.444  1.00  0.00    -0.200 F 
ATOM     90  F   UNL     1       8.012 -12.910   5.190  1.00  0.00    -0.200 F 
ENDBRANCH  56  80
BRANCH  68  91
ATOM     91  C   UNL     1       8.089  -7.884  14.004  1.00  0.00     0.064 A 
ATOM     92  C   UNL     1       9.487  -7.821  13.911  1.00  0.00     0.173 A 
ATOM     93  C   UNL     1       7.541  -8.473  15.156  1.00  0.00     0.173 A 
ATOM     94  F   UNL     1      10.068  -7.273  12.833  1.00  0.00    -0.203 F 
ATOM     95  C   UNL     1      10.300  -8.353  14.911  1.00  0.00     0.198 A 
ATOM     96  C   UNL     1       8.356  -8.973  16.170  1.00  0.00     0.198 A 
ATOM     97  F   UNL     1       6.211  -8.551  15.309  1.00  0.00    -0.203 F 
ATOM     98  F   UNL     1      11.634  -8.325  14.774  1.00  0.00    -0.200 F 
ATOM     99  C   UNL     1       9.735  -8.922  16.042  1.00  0.00     0.200 A 
ATOM    100  F   UNL     1       7.806  -9.505  17.270  1.00  0.00    -0.200 F 
ATOM    101  F   UNL     1      10.518  -9.426  17.006  1.00  0.00    -0.200 F 
ENDBRANCH  68  91
ENDBRANCH  42  43
ENDBRANCH  34  37
ENDBRANCH  32  33
ENDBRANCH  31  32
ENDBRANCH  30  31
ENDBRANCH   1  30
TORSDOF 16
