REMARK SMILES O=C(CSc1nnc(-c2ccncc2)s1)Nc1cccc(C(=O)NCCCCNC(=O)c2ccc(-c3c4nc(c(-c5c(F)c(F)c(F)c(F)c5F)c5ccc([nH]5)c(-c5c(F)c(F)c(F)c(F)c5F)c5nc(c(-c6c(F)c(F)c(F)c(F)c6F)c6ccc3[nH]6)C=C5)C=C4)cc2)c1
REMARK SMILES IDX 25 1 24 2 22 3 23 4 21 6 17 7 18 8 95 9 19 10 20 11 16 12
REMARK SMILES IDX 1 13 2 14 3 16 4 17 5 18 6 19 15 20 7 21 8 22 9 23 10 24
REMARK SMILES IDX 14 25 11 26 13 27 12 28 26 29 27 30 28 31 29 32 30 33 31 35
REMARK SMILES IDX 32 36 33 37 94 38 34 39 93 40 35 41 36 42 37 43 87 44 38 45
REMARK SMILES IDX 92 46 86 47 88 48 39 49 91 50 85 51 84 52 40 54 72 55 52 56
REMARK SMILES IDX 71 57 53 58 56 59 70 60 89 61 54 62 55 63 69 65 90 66 57 67
REMARK SMILES IDX 41 68 42 69 50 70 43 71 44 72 48 73 51 74 45 75 46 76 49 77
REMARK SMILES IDX 47 78 73 79 74 80 82 81 75 82 76 83 80 84 83 85 77 86 78 87
REMARK SMILES IDX 81 88 79 89 58 90 59 91 67 92 60 93 61 94 65 95 68 96 62 97
REMARK SMILES IDX 63 98 66 99 64 100
REMARK H PARENT 24 5 16 15 29 34 88 53 56 64
REMARK Flexibility Score: inf
ROOT
ATOM      1  C   UNL     1       0.247  -0.822  -3.251  1.00  0.00     0.116 C 
ENDROOT
BRANCH   1   2
ATOM      2  N   UNL     1      -0.538  -2.041  -3.402  1.00  0.00    -0.352 N 
ATOM      3  C   UNL     1      -0.438  -3.246  -2.734  1.00  0.00     0.251 C 
ATOM      4  O   UNL     1      -1.187  -4.170  -3.040  1.00  0.00    -0.269 OA
ATOM      5  H   UNL     1      -1.247  -1.999  -4.083  1.00  0.00     0.163 HD
BRANCH   3   6
ATOM      6  C   UNL     1       0.610  -3.461  -1.704  1.00  0.00     0.041 A 
ATOM      7  C   UNL     1       2.139  -2.522  -0.081  1.00  0.00     0.041 A 
ATOM      8  C   UNL     1       2.850  -3.727  -0.073  1.00  0.00     0.026 A 
ATOM      9  C   UNL     1       0.954  -2.449  -0.807  1.00  0.00     0.040 A 
ATOM     10  C   UNL     1       2.417  -4.810  -0.847  1.00  0.00     0.003 A 
ATOM     11  C   UNL     1       1.314  -4.667  -1.690  1.00  0.00     0.014 A 
BRANCH   7  12
ATOM     12  N   UNL     1       2.731  -1.393   0.527  1.00  0.00    -0.325 N 
ATOM     13  O   UNL     1       1.132   0.258   0.139  1.00  0.00    -0.274 OA
ATOM     14  C   UNL     1       2.256  -0.091   0.499  1.00  0.00     0.234 C 
ATOM     15  H   UNL     1       3.568  -1.546   1.022  1.00  0.00     0.169 HD
BRANCH  14  16
ATOM     16  C   UNL     1       3.291   0.981   0.801  1.00  0.00     0.177 C 
BRANCH  16  17
ATOM     17  S   UNL     1       4.412   0.591   2.157  1.00  0.00    -0.084 SA
BRANCH  17  18
ATOM     18  C   UNL     1       3.279   0.167   3.412  1.00  0.00     0.175 A 
ATOM     19  N   UNL     1       3.237  -1.063   3.868  1.00  0.00    -0.131 NA
ATOM     20  S   UNL     1       2.182   1.246   4.159  1.00  0.00    -0.086 S 
ATOM     21  N   UNL     1       2.333  -1.196   4.900  1.00  0.00    -0.137 NA
ATOM     22  C   UNL     1       1.706  -0.067   5.166  1.00  0.00     0.148 A 
BRANCH  22  23
ATOM     23  C   UNL     1       0.775   0.120   6.275  1.00  0.00     0.015 A 
ATOM     24  C   UNL     1      -0.475   0.720   6.110  1.00  0.00     0.031 A 
ATOM     25  C   UNL     1       1.138  -0.341   7.544  1.00  0.00     0.031 A 
ATOM     26  C   UNL     1      -1.296   0.840   7.219  1.00  0.00     0.111 A 
ATOM     27  C   UNL     1       0.253  -0.166   8.591  1.00  0.00     0.111 A 
ATOM     28  N   UNL     1      -0.956   0.418   8.456  1.00  0.00    -0.265 NA
ENDBRANCH  22  23
ENDBRANCH  17  18
ENDBRANCH  16  17
ENDBRANCH  14  16
ENDBRANCH   7  12
ENDBRANCH   3   6
ENDBRANCH   1   2
BRANCH   1  29
ATOM     29  C   UNL     1       0.652  -0.164  -4.563  1.00  0.00     0.023 C 
BRANCH  29  30
ATOM     30  C   UNL     1      -0.484   0.340  -5.443  1.00  0.00     0.023 C 
BRANCH  30  31
ATOM     31  C   UNL     1      -1.513   1.233  -4.760  1.00  0.00     0.116 C 
BRANCH  31  32
ATOM     32  N   UNL     1      -0.947   2.432  -4.158  1.00  0.00    -0.352 N 
ATOM     33  C   UNL     1      -1.290   3.754  -4.332  1.00  0.00     0.251 C 
ATOM     34  H   UNL     1      -0.206   2.273  -3.530  1.00  0.00     0.163 HD
ATOM     35  O   UNL     1      -0.635   4.638  -3.795  1.00  0.00    -0.269 OA
BRANCH  33  36
ATOM     36  C   UNL     1      -2.427   4.113  -5.209  1.00  0.00     0.039 A 
ATOM     37  C   UNL     1      -2.256   5.132  -6.152  1.00  0.00     0.014 A 
ATOM     38  C   UNL     1      -3.644   3.433  -5.128  1.00  0.00     0.014 A 
ATOM     39  C   UNL     1      -3.268   5.397  -7.077  1.00  0.00     0.010 A 
ATOM     40  C   UNL     1      -4.617   3.640  -6.101  1.00  0.00     0.010 A 
ATOM     41  C   UNL     1      -4.435   4.617  -7.093  1.00  0.00    -0.014 A 
BRANCH  41  42
ATOM     42  C   UNL     1      -5.470   4.789  -8.145  1.00  0.00     0.031 A 
ATOM     43  C   UNL     1      -6.862   5.215  -7.774  1.00  0.00     0.074 A 
ATOM     44  C   UNL     1      -5.180   4.477  -9.423  1.00  0.00     0.049 A 
ATOM     45  N   UNL     1      -7.925   5.328  -8.532  1.00  0.00    -0.248 NA
ATOM     46  C   UNL     1      -7.100   5.526  -6.356  1.00  0.00     0.031 C 
ATOM     47  C   UNL     1      -3.883   3.999  -9.905  1.00  0.00     0.029 A 
ATOM     48  N   UNL     1      -5.963   4.501 -10.551  1.00  0.00    -0.354 N 
ATOM     49  C   UNL     1      -8.956   5.701  -7.681  1.00  0.00     0.074 A 
ATOM     50  C   UNL     1      -8.406   5.745  -6.343  1.00  0.00     0.031 C 
ATOM     51  C   UNL     1      -3.952   3.798 -11.231  1.00  0.00     0.029 A 
ATOM     52  C   UNL     1      -5.306   4.095 -11.687  1.00  0.00     0.049 A 
ATOM     53  H   UNL     1      -6.906   4.783 -10.546  1.00  0.00     0.167 HD
ATOM     54  C   UNL     1     -10.240   6.003  -7.990  1.00  0.00     0.037 A 
ATOM     55  C   UNL     1      -5.748   3.971 -12.953  1.00  0.00     0.037 A 
ATOM     56  C   UNL     1     -10.778   5.988  -9.325  1.00  0.00     0.049 A 
ATOM     57  C   UNL     1      -7.177   4.316 -13.272  1.00  0.00     0.074 A 
ATOM     58  C   UNL     1     -12.046   6.342  -9.749  1.00  0.00     0.029 A 
ATOM     59  N   UNL     1     -10.074   5.595 -10.454  1.00  0.00    -0.354 N 
ATOM     60  N   UNL     1      -8.125   4.735 -12.470  1.00  0.00    -0.248 NA
ATOM     61  C   UNL     1      -7.595   4.176 -14.674  1.00  0.00     0.031 C 
ATOM     62  C   UNL     1     -12.123   6.127 -11.129  1.00  0.00     0.029 A 
ATOM     63  C   UNL     1     -10.888   5.681 -11.572  1.00  0.00     0.049 A 
ATOM     64  H   UNL     1      -9.135   5.299 -10.460  1.00  0.00     0.167 HD
ATOM     65  C   UNL     1      -9.241   4.934 -13.271  1.00  0.00     0.074 A 
ATOM     66  C   UNL     1      -8.849   4.602 -14.624  1.00  0.00     0.031 C 
ATOM     67  C   UNL     1     -10.480   5.354 -12.915  1.00  0.00     0.037 A 
BRANCH  54  68
ATOM     68  C   UNL     1     -11.151   6.381  -6.858  1.00  0.00     0.064 A 
ATOM     69  C   UNL     1     -11.000   7.595  -6.169  1.00  0.00     0.173 A 
ATOM     70  C   UNL     1     -12.198   5.533  -6.471  1.00  0.00     0.173 A 
ATOM     71  F   UNL     1     -10.006   8.436  -6.493  1.00  0.00    -0.203 F 
ATOM     72  C   UNL     1     -11.841   7.927  -5.111  1.00  0.00     0.198 A 
ATOM     73  C   UNL     1     -13.057   5.883  -5.432  1.00  0.00     0.198 A 
ATOM     74  F   UNL     1     -12.391   4.364  -7.100  1.00  0.00    -0.203 F 
ATOM     75  F   UNL     1     -11.643   9.066  -4.432  1.00  0.00    -0.200 F 
ATOM     76  C   UNL     1     -12.873   7.075  -4.747  1.00  0.00     0.200 A 
ATOM     77  F   UNL     1     -14.061   5.064  -5.090  1.00  0.00    -0.200 F 
ATOM     78  F   UNL     1     -13.684   7.398  -3.731  1.00  0.00    -0.200 F 
ENDBRANCH  54  68
BRANCH  55  79
ATOM     79  C   UNL     1      -4.816   3.529 -14.023  1.00  0.00     0.064 A 
ATOM     80  C   UNL     1      -4.371   4.430 -15.000  1.00  0.00     0.173 A 
ATOM     81  C   UNL     1      -4.349   2.209 -14.090  1.00  0.00     0.173 A 
ATOM     82  F   UNL     1      -4.807   5.699 -14.989  1.00  0.00    -0.203 F 
ATOM     83  C   UNL     1      -3.506   4.024 -16.014  1.00  0.00     0.198 A 
ATOM     84  C   UNL     1      -3.464   1.810 -15.089  1.00  0.00     0.198 A 
ATOM     85  F   UNL     1      -4.742   1.310 -13.176  1.00  0.00    -0.203 F 
ATOM     86  F   UNL     1      -3.127   4.896 -16.958  1.00  0.00    -0.200 F 
ATOM     87  C   UNL     1      -3.049   2.716 -16.054  1.00  0.00     0.200 A 
ATOM     88  F   UNL     1      -3.014   0.548 -15.118  1.00  0.00    -0.200 F 
ATOM     89  F   UNL     1      -2.213   2.326 -17.026  1.00  0.00    -0.200 F 
ENDBRANCH  55  79
BRANCH  67  90
ATOM     90  C   UNL     1     -11.493   5.513 -14.010  1.00  0.00     0.064 A 
ATOM     91  C   UNL     1     -12.082   4.404 -14.633  1.00  0.00     0.173 A 
ATOM     92  C   UNL     1     -11.909   6.792 -14.411  1.00  0.00     0.173 A 
ATOM     93  F   UNL     1     -11.706   3.161 -14.296  1.00  0.00    -0.203 F 
ATOM     94  C   UNL     1     -13.036   4.569 -15.634  1.00  0.00     0.198 A 
ATOM     95  C   UNL     1     -12.883   6.953 -15.392  1.00  0.00     0.198 A 
ATOM     96  F   UNL     1     -11.379   7.885 -13.842  1.00  0.00    -0.203 F 
ATOM     97  F   UNL     1     -13.555   3.496 -16.246  1.00  0.00    -0.200 F 
ATOM     98  C   UNL     1     -13.441   5.843 -16.007  1.00  0.00     0.200 A 
ATOM     99  F   UNL     1     -13.281   8.184 -15.743  1.00  0.00    -0.200 F 
ATOM    100  F   UNL     1     -14.365   5.999 -16.965  1.00  0.00    -0.200 F 
ENDBRANCH  67  90
ENDBRANCH  41  42
ENDBRANCH  33  36
ENDBRANCH  31  32
ENDBRANCH  30  31
ENDBRANCH  29  30
ENDBRANCH   1  29
TORSDOF 16
