REMARK SMILES O=C(NCCCCNC(=O)c1ccc(-c2c3nc(c(-c4c(F)c(F)c(F)c(F)c4F)c4ccc([nH]4)c(-c4c(F)c(F)c(F)c(F)c4F)c4nc(c(-c5c(F)c(F)c(F)c(F)c5F)c5ccc2[nH]5)C=C4)C=C3)cc1)c1ccc(NS(=O)(=O)C2=Cc3ccccc3CC2)cc1
REMARK SMILES IDX 5 1 4 2 3 3 1 4 2 5 74 7 75 8 93 9 76 10 92 11 77 12 78 13
REMARK SMILES IDX 79 15 80 16 81 17 82 18 83 19 91 20 84 21 90 22 85 23 89 24
REMARK SMILES IDX 86 25 88 26 87 27 6 28 7 29 8 30 9 31 10 33 11 34 12 35
REMARK SMILES IDX 73 36 13 37 72 38 14 39 15 40 16 41 66 42 17 43 71 44 65 45
REMARK SMILES IDX 67 46 18 47 70 48 64 49 63 50 19 52 51 53 31 54 50 55 32 56
REMARK SMILES IDX 35 57 49 58 68 59 33 60 34 61 48 63 69 64 36 65 20 66 21 67
REMARK SMILES IDX 29 68 22 69 23 70 27 71 30 72 24 73 25 74 28 75 26 76 52 77
REMARK SMILES IDX 53 78 61 79 54 80 55 81 59 82 62 83 56 84 57 85 60 86 58 87
REMARK SMILES IDX 37 88 38 89 46 90 39 91 40 92 44 93 47 94 41 95 42 96 45 97
REMARK SMILES IDX 43 98
REMARK H PARENT 3 6 78 14 8 32 67 51 35 62
REMARK Flexibility Score: inf
ROOT
ATOM      1  C   UNL     1       4.986  -2.630  -0.242  1.00  0.00     0.023 C 
ENDROOT
BRANCH   1   2
ATOM      2  C   UNL     1       4.547  -1.209  -0.583  1.00  0.00     0.116 C 
BRANCH   2   3
ATOM      3  N   UNL     1       3.101  -1.070  -0.600  1.00  0.00    -0.352 N 
ATOM      4  O   UNL     1       1.094  -0.348   0.142  1.00  0.00    -0.269 OA
ATOM      5  C   UNL     1       2.313  -0.219   0.134  1.00  0.00     0.251 C 
ATOM      6  H   UNL     1       2.622  -1.665  -1.221  1.00  0.00     0.163 HD
BRANCH   5   7
ATOM      7  C   UNL     1       2.944   0.866   0.914  1.00  0.00     0.039 A 
ATOM      8  C   UNL     1       3.822   1.756   0.290  1.00  0.00     0.016 A 
ATOM      9  C   UNL     1       2.610   1.035   2.260  1.00  0.00     0.016 A 
ATOM     10  C   UNL     1       4.400   2.787   1.026  1.00  0.00     0.027 A 
ATOM     11  C   UNL     1       3.203   2.066   2.999  1.00  0.00     0.027 A 
ATOM     12  C   UNL     1       4.107   2.937   2.383  1.00  0.00     0.049 A 
BRANCH  12  13
ATOM     13  N   UNL     1       4.622   4.065   3.091  1.00  0.00    -0.280 N 
ATOM     14  H   UNL     1       4.018   4.793   3.362  1.00  0.00     0.180 HD
BRANCH  13  15
ATOM     15  S   UNL     1       6.282   4.152   3.466  1.00  0.00     0.258 S 
ATOM     16  O   UNL     1       6.492   5.539   3.822  1.00  0.00    -0.202 OA
ATOM     17  O   UNL     1       6.491   3.127   4.474  1.00  0.00    -0.202 OA
BRANCH  15  18
ATOM     18  C   UNL     1       7.212   3.738   2.017  1.00  0.00     0.066 C 
ATOM     19  C   UNL     1       7.813   4.769   1.382  1.00  0.00     0.026 C 
ATOM     20  C   UNL     1       8.026   2.471   2.135  1.00  0.00     0.055 C 
ATOM     21  C   UNL     1       9.199   5.057   1.853  1.00  0.00    -0.021 A 
ATOM     22  C   UNL     1       9.325   2.743   2.908  1.00  0.00     0.041 C 
ATOM     23  C   UNL     1       9.778   6.295   1.559  1.00  0.00     0.008 A 
ATOM     24  C   UNL     1       9.921   4.101   2.598  1.00  0.00    -0.040 A 
ATOM     25  C   UNL     1      11.049   6.605   2.045  1.00  0.00     0.001 A 
ATOM     26  C   UNL     1      11.185   4.434   3.100  1.00  0.00     0.004 A 
ATOM     27  C   UNL     1      11.743   5.683   2.827  1.00  0.00     0.000 A 
ENDBRANCH  15  18
ENDBRANCH  13  15
ENDBRANCH  12  13
ENDBRANCH   5   7
ENDBRANCH   2   3
ENDBRANCH   1   2
BRANCH   1  28
ATOM     28  C   UNL     1       4.547  -3.701  -1.238  1.00  0.00     0.023 C 
BRANCH  28  29
ATOM     29  C   UNL     1       4.933  -3.437  -2.688  1.00  0.00     0.116 C 
BRANCH  29  30
ATOM     30  N   UNL     1       6.373  -3.368  -2.895  1.00  0.00    -0.352 N 
ATOM     31  C   UNL     1       7.142  -4.038  -3.818  1.00  0.00     0.251 C 
ATOM     32  H   UNL     1       6.861  -2.760  -2.294  1.00  0.00     0.163 HD
ATOM     33  O   UNL     1       8.365  -3.957  -3.792  1.00  0.00    -0.269 OA
BRANCH  31  34
ATOM     34  C   UNL     1       6.476  -4.891  -4.823  1.00  0.00     0.039 A 
ATOM     35  C   UNL     1       6.882  -6.220  -4.965  1.00  0.00     0.014 A 
ATOM     36  C   UNL     1       5.410  -4.391  -5.575  1.00  0.00     0.014 A 
ATOM     37  C   UNL     1       6.159  -7.076  -5.798  1.00  0.00     0.010 A 
ATOM     38  C   UNL     1       4.650  -5.261  -6.347  1.00  0.00     0.010 A 
ATOM     39  C   UNL     1       5.010  -6.614  -6.460  1.00  0.00    -0.014 A 
BRANCH  39  40
ATOM     40  C   UNL     1       4.157  -7.513  -7.278  1.00  0.00     0.031 A 
ATOM     41  C   UNL     1       3.993  -7.242  -8.747  1.00  0.00     0.074 A 
ATOM     42  C   UNL     1       3.446  -8.494  -6.686  1.00  0.00     0.049 A 
ATOM     43  N   UNL     1       3.159  -7.777  -9.601  1.00  0.00    -0.248 NA
ATOM     44  C   UNL     1       4.860  -6.202  -9.325  1.00  0.00     0.031 C 
ATOM     45  C   UNL     1       3.486  -8.832  -5.263  1.00  0.00     0.029 A 
ATOM     46  N   UNL     1       2.524  -9.369  -7.208  1.00  0.00    -0.354 N 
ATOM     47  C   UNL     1       3.372  -7.112 -10.802  1.00  0.00     0.074 A 
ATOM     48  C   UNL     1       4.393  -6.116 -10.562  1.00  0.00     0.031 C 
ATOM     49  C   UNL     1       2.631  -9.841  -5.025  1.00  0.00     0.029 A 
ATOM     50  C   UNL     1       1.951 -10.192  -6.268  1.00  0.00     0.049 A 
ATOM     51  H   UNL     1       2.295  -9.403  -8.165  1.00  0.00     0.167 HD
ATOM     52  C   UNL     1       2.777  -7.326 -11.998  1.00  0.00     0.037 A 
ATOM     53  C   UNL     1       0.972 -11.110  -6.393  1.00  0.00     0.037 A 
ATOM     54  C   UNL     1       1.809  -8.358 -12.248  1.00  0.00     0.049 A 
ATOM     55  C   UNL     1       0.350 -11.342  -7.745  1.00  0.00     0.074 A 
ATOM     56  C   UNL     1       1.213  -8.708 -13.448  1.00  0.00     0.029 A 
ATOM     57  N   UNL     1       1.301  -9.213 -11.283  1.00  0.00    -0.354 N 
ATOM     58  N   UNL     1       0.605 -10.751  -8.886  1.00  0.00    -0.248 NA
ATOM     59  C   UNL     1      -0.697 -12.373  -7.827  1.00  0.00     0.031 C 
ATOM     60  C   UNL     1       0.319  -9.753 -13.202  1.00  0.00     0.029 A 
ATOM     61  C   UNL     1       0.389 -10.081 -11.858  1.00  0.00     0.049 A 
ATOM     62  H   UNL     1       1.551  -9.204 -10.331  1.00  0.00     0.167 HD
ATOM     63  C   UNL     1      -0.216 -11.362  -9.824  1.00  0.00     0.074 A 
ATOM     64  C   UNL     1      -0.977 -12.373  -9.122  1.00  0.00     0.031 C 
ATOM     65  C   UNL     1      -0.330 -11.107 -11.150  1.00  0.00     0.037 A 
BRANCH  52  66
ATOM     66  C   UNL     1       3.160  -6.434 -13.141  1.00  0.00     0.064 A 
ATOM     67  C   UNL     1       4.404  -6.547 -13.777  1.00  0.00     0.173 A 
ATOM     68  C   UNL     1       2.241  -5.503 -13.650  1.00  0.00     0.173 A 
ATOM     69  F   UNL     1       5.320  -7.413 -13.320  1.00  0.00    -0.203 F 
ATOM     70  C   UNL     1       4.720  -5.750 -14.874  1.00  0.00     0.198 A 
ATOM     71  C   UNL     1       2.551  -4.727 -14.762  1.00  0.00     0.198 A 
ATOM     72  F   UNL     1       1.035  -5.361 -13.078  1.00  0.00    -0.203 F 
ATOM     73  F   UNL     1       5.927  -5.851 -15.447  1.00  0.00    -0.200 F 
ATOM     74  C   UNL     1       3.791  -4.848 -15.371  1.00  0.00     0.200 A 
ATOM     75  F   UNL     1       1.647  -3.865 -15.249  1.00  0.00    -0.200 F 
ATOM     76  F   UNL     1       4.091  -4.093 -16.437  1.00  0.00    -0.200 F 
ENDBRANCH  52  66
BRANCH  53  77
ATOM     77  C   UNL     1       0.514 -11.887  -5.212  1.00  0.00     0.064 A 
ATOM     78  C   UNL     1       0.771 -13.262  -5.114  1.00  0.00     0.173 A 
ATOM     79  C   UNL     1      -0.220 -11.286  -4.179  1.00  0.00     0.173 A 
ATOM     80  F   UNL     1       1.450 -13.887  -6.088  1.00  0.00    -0.203 F 
ATOM     81  C   UNL     1       0.284 -14.012  -4.045  1.00  0.00     0.198 A 
ATOM     82  C   UNL     1      -0.682 -12.032  -3.097  1.00  0.00     0.198 A 
ATOM     83  F   UNL     1      -0.489  -9.973  -4.223  1.00  0.00    -0.203 F 
ATOM     84  F   UNL     1       0.494 -15.335  -4.008  1.00  0.00    -0.200 F 
ATOM     85  C   UNL     1      -0.440 -13.396  -3.036  1.00  0.00     0.200 A 
ATOM     86  F   UNL     1      -1.372 -11.431  -2.118  1.00  0.00    -0.200 F 
ATOM     87  F   UNL     1      -0.915 -14.119  -2.013  1.00  0.00    -0.200 F 
ENDBRANCH  53  77
BRANCH  65  88
ATOM     88  C   UNL     1      -1.260 -11.972 -11.946  1.00  0.00     0.064 A 
ATOM     89  C   UNL     1      -2.651 -11.824 -11.868  1.00  0.00     0.173 A 
ATOM     90  C   UNL     1      -0.745 -12.914 -12.849  1.00  0.00     0.173 A 
ATOM     91  F   UNL     1      -3.190 -10.947 -11.008  1.00  0.00    -0.203 F 
ATOM     92  C   UNL     1      -3.496 -12.599 -12.658  1.00  0.00     0.198 A 
ATOM     93  C   UNL     1      -1.591 -13.669 -13.656  1.00  0.00     0.198 A 
ATOM     94  F   UNL     1       0.581 -13.086 -12.964  1.00  0.00    -0.203 F 
ATOM     95  F   UNL     1      -4.824 -12.466 -12.546  1.00  0.00    -0.200 F 
ATOM     96  C   UNL     1      -2.965 -13.513 -13.557  1.00  0.00     0.200 A 
ATOM     97  F   UNL     1      -1.076 -14.541 -14.533  1.00  0.00    -0.200 F 
ATOM     98  F   UNL     1      -3.780 -14.248 -14.327  1.00  0.00    -0.200 F 
ENDBRANCH  65  88
ENDBRANCH  39  40
ENDBRANCH  31  34
ENDBRANCH  29  30
ENDBRANCH  28  29
ENDBRANCH   1  28
TORSDOF 14
