REMARK SMILES Cc1oc2c(c1C(=O)NCCCCNC(=O)c1ccc(-c3c4nc(c(-c5c(F)c(F)c(F)c(F)c5F)c5ccc([nH]5)c(-c5c(F)c(F)c(F)c(F)c5F)c5nc(c(-c6c(F)c(F)c(F)c(F)c6F)c6ccc3[nH]6)C=C5)C=C4)cc1)C(=O)C[C@H](c1ccco1)C2
REMARK SMILES IDX 12 1 11 2 10 3 9 4 7 5 8 6 6 8 1 9 2 10 3 11 4 12 5 13 89 14
REMARK SMILES IDX 80 15 83 16 81 17 82 18 84 19 85 20 88 21 86 22 87 23 13 24
REMARK SMILES IDX 14 25 15 26 16 28 17 29 18 30 79 31 19 32 78 33 20 34 21 35
REMARK SMILES IDX 22 36 72 37 23 38 77 39 71 40 73 41 24 42 76 43 70 44 69 45
REMARK SMILES IDX 25 47 57 48 37 49 56 50 38 51 41 52 55 53 74 54 39 55 40 56
REMARK SMILES IDX 54 58 75 59 42 60 26 61 27 62 35 63 28 64 29 65 33 66 36 67
REMARK SMILES IDX 30 68 31 69 34 70 32 71 58 72 59 73 67 74 60 75 61 76 65 77
REMARK SMILES IDX 68 78 62 79 63 80 66 81 64 82 43 83 44 84 52 85 45 86 46 87
REMARK SMILES IDX 50 88 53 89 47 90 48 91 51 92 49 93
REMARK H PARENT 9 7 14 27 73 46 41 57
REMARK Flexibility Score: inf
ROOT
ATOM      1  C   UNL     1       0.356   3.651  -2.934  1.00  0.00     0.023 C 
ENDROOT
BRANCH   1   2
ATOM      2  C   UNL     1       0.472   2.462  -1.968  1.00  0.00     0.023 C 
BRANCH   2   3
ATOM      3  C   UNL     1       1.554   2.607  -0.893  1.00  0.00     0.116 C 
BRANCH   3   4
ATOM      4  N   UNL     1       1.081   3.332   0.259  1.00  0.00    -0.352 N 
ATOM      5  C   UNL     1       0.605   3.021   1.503  1.00  0.00     0.255 C 
ATOM      6  O   UNL     1       0.405   4.031   2.181  1.00  0.00    -0.269 OA
ATOM      7  H   UNL     1       1.108   4.306   0.112  1.00  0.00     0.163 HD
BRANCH   5   8
ATOM      8  C   UNL     1       0.341   1.680   2.048  1.00  0.00     0.092 A 
ATOM      9  C   UNL     1       0.659  -0.252   0.186  1.00  0.00     0.088 C 
ATOM     10  C   UNL     1       0.378   0.395   1.484  1.00  0.00     0.114 A 
ATOM     11  O   UNL     1       0.043  -0.552   2.407  1.00  0.00    -0.465 OA
ATOM     12  C   UNL     1      -0.235   0.078   3.549  1.00  0.00     0.116 A 
ATOM     13  C   UNL     1      -0.077   1.435   3.430  1.00  0.00     0.072 A 
ATOM     14  C   UNL     1      -0.658  -0.728   4.711  1.00  0.00     0.088 C 
ATOM     15  C   UNL     1      -0.358   2.253   4.613  1.00  0.00     0.167 C 
ATOM     16  C   UNL     1      -1.388   0.195   5.710  1.00  0.00     0.071 C 
ATOM     17  O   UNL     1      -0.388   3.480   4.620  1.00  0.00    -0.294 OA
ATOM     18  C   UNL     1      -0.579   1.489   5.927  1.00  0.00     0.093 C 
BRANCH  16  19
ATOM     19  C   UNL     1      -1.686  -0.510   6.998  1.00  0.00     0.107 A 
ATOM     20  C   UNL     1      -2.292  -0.123   8.177  1.00  0.00     0.046 A 
ATOM     21  O   UNL     1      -1.361  -1.835   7.068  1.00  0.00    -0.469 OA
ATOM     22  C   UNL     1      -2.336  -1.272   9.004  1.00  0.00     0.042 A 
ATOM     23  C   UNL     1      -1.758  -2.288   8.282  1.00  0.00     0.195 A 
ENDBRANCH  16  19
ENDBRANCH   5   8
ENDBRANCH   3   4
ENDBRANCH   2   3
ENDBRANCH   1   2
BRANCH   1  24
ATOM     24  C   UNL     1       1.550   3.832  -3.869  1.00  0.00     0.116 C 
BRANCH  24  25
ATOM     25  N   UNL     1       1.751   2.700  -4.771  1.00  0.00    -0.352 N 
ATOM     26  C   UNL     1       2.871   2.415  -5.534  1.00  0.00     0.251 C 
ATOM     27  H   UNL     1       1.003   2.065  -4.845  1.00  0.00     0.163 HD
ATOM     28  O   UNL     1       2.812   1.703  -6.518  1.00  0.00    -0.269 OA
BRANCH  26  29
ATOM     29  C   UNL     1       4.157   2.990  -5.105  1.00  0.00     0.039 A 
ATOM     30  C   UNL     1       4.980   3.674  -6.004  1.00  0.00     0.014 A 
ATOM     31  C   UNL     1       4.485   2.886  -3.756  1.00  0.00     0.014 A 
ATOM     32  C   UNL     1       6.098   4.342  -5.513  1.00  0.00     0.010 A 
ATOM     33  C   UNL     1       5.520   3.638  -3.258  1.00  0.00     0.010 A 
ATOM     34  C   UNL     1       6.349   4.344  -4.133  1.00  0.00    -0.014 A 
BRANCH  34  35
ATOM     35  C   UNL     1       7.372   5.222  -3.561  1.00  0.00     0.031 A 
ATOM     36  C   UNL     1       7.183   6.675  -3.861  1.00  0.00     0.074 A 
ATOM     37  C   UNL     1       8.234   4.782  -2.616  1.00  0.00     0.049 A 
ATOM     38  N   UNL     1       8.012   7.490  -4.425  1.00  0.00    -0.248 NA
ATOM     39  C   UNL     1       5.863   7.278  -3.592  1.00  0.00     0.031 C 
ATOM     40  C   UNL     1       8.282   3.437  -2.024  1.00  0.00     0.029 A 
ATOM     41  N   UNL     1       9.152   5.465  -1.872  1.00  0.00    -0.354 N 
ATOM     42  C   UNL     1       7.401   8.746  -4.406  1.00  0.00     0.074 A 
ATOM     43  C   UNL     1       6.029   8.523  -4.043  1.00  0.00     0.031 C 
ATOM     44  C   UNL     1       8.971   3.475  -0.865  1.00  0.00     0.029 A 
ATOM     45  C   UNL     1       9.562   4.792  -0.725  1.00  0.00     0.049 A 
ATOM     46  H   UNL     1       9.493   6.353  -2.124  1.00  0.00     0.167 HD
ATOM     47  C   UNL     1       8.149   9.885  -4.417  1.00  0.00     0.037 A 
ATOM     48  C   UNL     1      10.314   5.281   0.289  1.00  0.00     0.037 A 
ATOM     49  C   UNL     1       9.504   9.592  -4.802  1.00  0.00     0.049 A 
ATOM     50  C   UNL     1      11.033   6.465  -0.228  1.00  0.00     0.074 A 
ATOM     51  C   UNL     1      10.171   9.262  -5.959  1.00  0.00     0.029 A 
ATOM     52  N   UNL     1      10.315   9.262  -3.751  1.00  0.00    -0.354 N 
ATOM     53  N   UNL     1      11.955   6.403  -1.148  1.00  0.00    -0.248 NA
ATOM     54  C   UNL     1      10.489   7.794   0.024  1.00  0.00     0.031 C 
ATOM     55  C   UNL     1      11.311   8.508  -5.550  1.00  0.00     0.029 A 
ATOM     56  C   UNL     1      11.327   8.439  -4.157  1.00  0.00     0.049 A 
ATOM     57  H   UNL     1      10.187   9.575  -2.826  1.00  0.00     0.167 HD
ATOM     58  C   UNL     1      11.790   7.565  -1.874  1.00  0.00     0.074 A 
ATOM     59  C   UNL     1      11.023   8.452  -1.008  1.00  0.00     0.031 C 
ATOM     60  C   UNL     1      12.005   7.571  -3.221  1.00  0.00     0.037 A 
BRANCH  47  61
ATOM     61  C   UNL     1       7.846  11.141  -3.614  1.00  0.00     0.064 A 
ATOM     62  C   UNL     1       8.708  12.255  -3.743  1.00  0.00     0.173 A 
ATOM     63  C   UNL     1       6.991  11.173  -2.492  1.00  0.00     0.173 A 
ATOM     64  F   UNL     1       9.577  12.332  -4.763  1.00  0.00    -0.203 F 
ATOM     65  C   UNL     1       8.771  13.264  -2.776  1.00  0.00     0.198 A 
ATOM     66  C   UNL     1       7.022  12.208  -1.556  1.00  0.00     0.198 A 
ATOM     67  F   UNL     1       6.176  10.158  -2.186  1.00  0.00    -0.203 F 
ATOM     68  F   UNL     1       9.697  14.227  -2.875  1.00  0.00    -0.200 F 
ATOM     69  C   UNL     1       7.933  13.234  -1.677  1.00  0.00     0.200 A 
ATOM     70  F   UNL     1       6.217  12.149  -0.485  1.00  0.00    -0.200 F 
ATOM     71  F   UNL     1       8.036  14.160  -0.715  1.00  0.00    -0.200 F 
ENDBRANCH  47  61
BRANCH  48  72
ATOM     72  C   UNL     1      10.292   4.931   1.728  1.00  0.00     0.064 A 
ATOM     73  C   UNL     1      11.369   5.248   2.572  1.00  0.00     0.173 A 
ATOM     74  C   UNL     1       9.098   4.529   2.359  1.00  0.00     0.173 A 
ATOM     75  F   UNL     1      12.530   5.672   2.052  1.00  0.00    -0.203 F 
ATOM     76  C   UNL     1      11.247   5.205   3.965  1.00  0.00     0.198 A 
ATOM     77  C   UNL     1       8.980   4.480   3.749  1.00  0.00     0.198 A 
ATOM     78  F   UNL     1       7.996   4.269   1.641  1.00  0.00    -0.203 F 
ATOM     79  F   UNL     1      12.276   5.580   4.738  1.00  0.00    -0.200 F 
ATOM     80  C   UNL     1      10.049   4.834   4.552  1.00  0.00     0.200 A 
ATOM     81  F   UNL     1       7.805   4.151   4.305  1.00  0.00    -0.200 F 
ATOM     82  F   UNL     1       9.911   4.858   5.885  1.00  0.00    -0.200 F 
ENDBRANCH  48  72
BRANCH  60  83
ATOM     83  C   UNL     1      12.868   6.484  -3.783  1.00  0.00     0.064 A 
ATOM     84  C   UNL     1      12.519   5.124  -3.814  1.00  0.00     0.173 A 
ATOM     85  C   UNL     1      14.068   6.859  -4.401  1.00  0.00     0.173 A 
ATOM     86  F   UNL     1      11.351   4.699  -3.319  1.00  0.00    -0.203 F 
ATOM     87  C   UNL     1      13.358   4.180  -4.402  1.00  0.00     0.198 A 
ATOM     88  C   UNL     1      14.884   5.921  -5.021  1.00  0.00     0.198 A 
ATOM     89  F   UNL     1      14.426   8.152  -4.440  1.00  0.00    -0.203 F 
ATOM     90  F   UNL     1      13.014   2.883  -4.402  1.00  0.00    -0.200 F 
ATOM     91  C   UNL     1      14.535   4.580  -5.011  1.00  0.00     0.200 A 
ATOM     92  F   UNL     1      15.998   6.321  -5.648  1.00  0.00    -0.200 F 
ATOM     93  F   UNL     1      15.325   3.677  -5.609  1.00  0.00    -0.200 F 
ENDBRANCH  60  83
ENDBRANCH  34  35
ENDBRANCH  26  29
ENDBRANCH  24  25
ENDBRANCH   1  24
TORSDOF 12
