REMARK SMILES O=C(NCCCCNC(=O)[C@@H](F)Sc1ccccc1O)c1ccc(-c2c3nc(c(-c4c(F)c(F)c(F)c(F)c4F)c4ccc([nH]4)c(-c4c(F)c(F)c(F)c(F)c4F)c4nc(c(-c5c(F)c(F)c(F)c(F)c5F)c5ccc2[nH]5)C=C4)C=C3)cc1
REMARK SMILES IDX 6 1 5 2 4 3 3 4 1 5 2 6 21 8 22 9 83 10 23 11 82 12 24 13
REMARK SMILES IDX 25 14 26 15 76 16 27 17 81 18 75 19 77 20 28 21 80 22 74 23
REMARK SMILES IDX 73 24 29 26 61 27 41 28 60 29 42 30 45 31 59 32 78 33 43 34
REMARK SMILES IDX 44 35 58 37 79 38 46 39 30 40 31 41 39 42 32 43 33 44 37 45
REMARK SMILES IDX 40 46 34 47 35 48 38 49 36 50 62 51 63 52 71 53 64 54 65 55
REMARK SMILES IDX 69 56 72 57 66 58 67 59 70 60 68 61 47 62 48 63 56 64 49 65
REMARK SMILES IDX 50 66 54 67 57 68 51 69 52 70 55 71 53 72 7 73 8 74 9 75
REMARK SMILES IDX 10 77 11 78 12 79 13 80 14 81 15 82 19 83 16 84 18 85 17 86
REMARK SMILES IDX 20 87
REMARK H PARENT 3 7 77 25 45 36 8 76 20 88
REMARK Flexibility Score: inf
ROOT
ATOM      1  C   UNL     1       4.495  -3.073   2.679  1.00  0.00     0.023 C 
ENDROOT
BRANCH   1   2
ATOM      2  C   UNL     1       5.002  -1.668   2.350  1.00  0.00     0.023 C 
BRANCH   2   3
ATOM      3  C   UNL     1       4.660  -1.128   0.965  1.00  0.00     0.116 C 
BRANCH   3   4
ATOM      4  N   UNL     1       3.235  -1.109   0.675  1.00  0.00    -0.352 N 
ATOM      5  O   UNL     1       1.243  -0.238   0.060  1.00  0.00    -0.269 OA
ATOM      6  C   UNL     1       2.453  -0.083   0.200  1.00  0.00     0.251 C 
ATOM      7  H   UNL     1       2.761  -1.955   0.843  1.00  0.00     0.163 HD
BRANCH   6   8
ATOM      8  C   UNL     1       3.067   1.225  -0.111  1.00  0.00     0.039 A 
ATOM      9  C   UNL     1       4.208   1.305  -0.913  1.00  0.00     0.014 A 
ATOM     10  C   UNL     1       2.502   2.385   0.427  1.00  0.00     0.014 A 
ATOM     11  C   UNL     1       4.868   2.523  -1.052  1.00  0.00     0.010 A 
ATOM     12  C   UNL     1       3.129   3.619   0.229  1.00  0.00     0.010 A 
ATOM     13  C   UNL     1       4.340   3.691  -0.477  1.00  0.00    -0.014 A 
BRANCH  13  14
ATOM     14  C   UNL     1       5.060   4.978  -0.642  1.00  0.00     0.031 A 
ATOM     15  C   UNL     1       5.698   5.664   0.535  1.00  0.00     0.074 A 
ATOM     16  C   UNL     1       5.164   5.515  -1.872  1.00  0.00     0.049 A 
ATOM     17  N   UNL     1       6.382   6.781   0.569  1.00  0.00    -0.248 NA
ATOM     18  C   UNL     1       5.547   5.016   1.846  1.00  0.00     0.031 C 
ATOM     19  C   UNL     1       4.581   4.946  -3.087  1.00  0.00     0.029 A 
ATOM     20  N   UNL     1       5.803   6.648  -2.306  1.00  0.00    -0.354 N 
ATOM     21  C   UNL     1       6.728   6.977   1.899  1.00  0.00     0.074 A 
ATOM     22  C   UNL     1       6.159   5.877   2.648  1.00  0.00     0.031 C 
ATOM     23  C   UNL     1       4.916   5.714  -4.135  1.00  0.00     0.029 A 
ATOM     24  C   UNL     1       5.695   6.853  -3.659  1.00  0.00     0.049 A 
ATOM     25  H   UNL     1       6.292   7.256  -1.705  1.00  0.00     0.167 HD
ATOM     26  C   UNL     1       7.463   7.979   2.443  1.00  0.00     0.037 A 
ATOM     27  C   UNL     1       6.159   7.853  -4.430  1.00  0.00     0.037 A 
ATOM     28  C   UNL     1       8.043   9.063   1.692  1.00  0.00     0.049 A 
ATOM     29  C   UNL     1       6.952   8.961  -3.797  1.00  0.00     0.074 A 
ATOM     30  C   UNL     1       8.837  10.101   2.148  1.00  0.00     0.029 A 
ATOM     31  N   UNL     1       7.889   9.250   0.326  1.00  0.00    -0.354 N 
ATOM     32  N   UNL     1       7.302   9.114  -2.544  1.00  0.00    -0.248 NA
ATOM     33  C   UNL     1       7.413  10.034  -4.687  1.00  0.00     0.031 C 
ATOM     34  C   UNL     1       9.128  10.940   1.067  1.00  0.00     0.029 A 
ATOM     35  C   UNL     1       8.553  10.400  -0.072  1.00  0.00     0.049 A 
ATOM     36  H   UNL     1       7.383   8.654  -0.272  1.00  0.00     0.167 HD
ATOM     37  C   UNL     1       8.035  10.291  -2.495  1.00  0.00     0.074 A 
ATOM     38  C   UNL     1       8.097  10.801  -3.850  1.00  0.00     0.031 C 
ATOM     39  C   UNL     1       8.603  10.896  -1.423  1.00  0.00     0.037 A 
BRANCH  26  40
ATOM     40  C   UNL     1       7.674   7.962   3.929  1.00  0.00     0.064 A 
ATOM     41  C   UNL     1       8.541   7.044   4.539  1.00  0.00     0.173 A 
ATOM     42  C   UNL     1       7.045   8.914   4.746  1.00  0.00     0.173 A 
ATOM     43  F   UNL     1       9.159   6.107   3.804  1.00  0.00    -0.203 F 
ATOM     44  C   UNL     1       8.756   7.067   5.916  1.00  0.00     0.198 A 
ATOM     45  C   UNL     1       7.281   8.950   6.119  1.00  0.00     0.198 A 
ATOM     46  F   UNL     1       6.212   9.819   4.212  1.00  0.00    -0.203 F 
ATOM     47  F   UNL     1       9.560   6.157   6.482  1.00  0.00    -0.200 F 
ATOM     48  C   UNL     1       8.132   8.023   6.703  1.00  0.00     0.200 A 
ATOM     49  F   UNL     1       6.686   9.882   6.876  1.00  0.00    -0.200 F 
ATOM     50  F   UNL     1       8.346   8.049   8.025  1.00  0.00    -0.200 F 
ENDBRANCH  26  40
BRANCH  27  51
ATOM     51  C   UNL     1       5.881   7.843  -5.888  1.00  0.00     0.064 A 
ATOM     52  C   UNL     1       6.904   7.606  -6.815  1.00  0.00     0.173 A 
ATOM     53  C   UNL     1       4.584   8.048  -6.380  1.00  0.00     0.173 A 
ATOM     54  F   UNL     1       8.163   7.424  -6.391  1.00  0.00    -0.203 F 
ATOM     55  C   UNL     1       6.641   7.584  -8.183  1.00  0.00     0.198 A 
ATOM     56  C   UNL     1       4.318   7.998  -7.746  1.00  0.00     0.198 A 
ATOM     57  F   UNL     1       3.571   8.274  -5.531  1.00  0.00    -0.203 F 
ATOM     58  F   UNL     1       7.643   7.389  -9.052  1.00  0.00    -0.200 F 
ATOM     59  C   UNL     1       5.348   7.772  -8.647  1.00  0.00     0.200 A 
ATOM     60  F   UNL     1       3.064   8.165  -8.188  1.00  0.00    -0.200 F 
ATOM     61  F   UNL     1       5.094   7.740  -9.962  1.00  0.00    -0.200 F 
ENDBRANCH  27  51
BRANCH  39  62
ATOM     62  C   UNL     1       9.356  12.168  -1.678  1.00  0.00     0.064 A 
ATOM     63  C   UNL     1       8.690  13.368  -1.965  1.00  0.00     0.173 A 
ATOM     64  C   UNL     1      10.757  12.191  -1.610  1.00  0.00     0.173 A 
ATOM     65  F   UNL     1       7.351  13.392  -2.058  1.00  0.00    -0.203 F 
ATOM     66  C   UNL     1       9.401  14.542  -2.198  1.00  0.00     0.198 A 
ATOM     67  C   UNL     1      11.463  13.372  -1.818  1.00  0.00     0.198 A 
ATOM     68  F   UNL     1      11.439  11.069  -1.335  1.00  0.00    -0.203 F 
ATOM     69  F   UNL     1       8.747  15.668  -2.515  1.00  0.00    -0.200 F 
ATOM     70  C   UNL     1      10.786  14.544  -2.119  1.00  0.00     0.200 A 
ATOM     71  F   UNL     1      12.801  13.375  -1.732  1.00  0.00    -0.200 F 
ATOM     72  F   UNL     1      11.469  15.675  -2.341  1.00  0.00    -0.200 F 
ENDBRANCH  39  62
ENDBRANCH  13  14
ENDBRANCH   6   8
ENDBRANCH   3   4
ENDBRANCH   2   3
ENDBRANCH   1   2
BRANCH   1  73
ATOM     73  C   UNL     1       4.750  -4.140   1.620  1.00  0.00     0.116 C 
BRANCH  73  74
ATOM     74  N   UNL     1       6.155  -4.363   1.346  1.00  0.00    -0.353 N 
ATOM     75  C   UNL     1       6.758  -5.473   0.817  1.00  0.00     0.265 C 
ATOM     76  H   UNL     1       6.756  -3.616   1.569  1.00  0.00     0.163 HD
ATOM     77  O   UNL     1       7.947  -5.349   0.495  1.00  0.00    -0.271 OA
BRANCH  75  78
ATOM     78  C   UNL     1       6.011  -6.801   0.614  1.00  0.00     0.317 C 
ATOM     79  F   UNL     1       4.917  -6.965   1.408  1.00  0.00    -0.224 F 
BRANCH  78  80
ATOM     80  S   UNL     1       5.601  -7.067  -1.142  1.00  0.00    -0.075 SA
BRANCH  80  81
ATOM     81  C   UNL     1       4.248  -5.922  -1.345  1.00  0.00     0.052 A 
ATOM     82  C   UNL     1       4.505  -4.691  -1.964  1.00  0.00     0.019 A 
ATOM     83  C   UNL     1       2.937  -6.212  -0.938  1.00  0.00     0.129 A 
ATOM     84  C   UNL     1       3.484  -3.751  -2.124  1.00  0.00     0.001 A 
ATOM     85  C   UNL     1       1.916  -5.273  -1.094  1.00  0.00     0.047 A 
ATOM     86  C   UNL     1       2.194  -4.037  -1.679  1.00  0.00     0.004 A 
BRANCH  83  87
ATOM     87  O   UNL     1       2.652  -7.429  -0.381  1.00  0.00    -0.507 OA
ATOM     88  H   UNL     1       3.332  -8.065  -0.273  1.00  0.00     0.293 HD
ENDBRANCH  83  87
ENDBRANCH  80  81
ENDBRANCH  78  80
ENDBRANCH  75  78
ENDBRANCH  73  74
ENDBRANCH   1  73
TORSDOF 14
