REMARK SMILES CCCc1cc2c(cc1Cl)C=C(C(=O)NCCCCNC(=O)c1ccc(-c3c4nc(c(-c5c(F)c(F)c(F)c(F)c5F)c5ccc([nH]5)c(-c5c(F)c(F)c(F)c(F)c5F)c5nc(c(-c6c(F)c(F)c(F)c(F)c6F)c6ccc3[nH]6)C=C5)C=C4)cc1)[C@@H](C(F)(F)F)O2
REMARK SMILES IDX 17 1 16 2 15 3 13 4 14 5 12 7 4 8 5 9 9 10 6 11 8 12 10 13
REMARK SMILES IDX 7 14 91 15 11 16 86 17 3 18 2 19 1 20 87 21 88 22 89 23
REMARK SMILES IDX 90 24 18 25 19 26 20 27 21 28 22 30 23 31 24 32 85 33 25 34
REMARK SMILES IDX 84 35 26 36 27 37 28 38 78 39 29 40 83 41 77 42 79 43 30 44
REMARK SMILES IDX 82 45 76 46 75 47 31 49 63 50 43 51 62 52 44 53 47 54 61 55
REMARK SMILES IDX 80 56 45 57 46 58 60 60 81 61 48 62 32 63 33 64 41 65 34 66
REMARK SMILES IDX 35 67 39 68 42 69 36 70 37 71 40 72 38 73 64 74 65 75 73 76
REMARK SMILES IDX 66 77 67 78 71 79 74 80 68 81 69 82 72 83 70 84 49 85 50 86
REMARK SMILES IDX 58 87 51 88 52 89 56 90 59 91 53 92 54 93 57 94 55 95
REMARK H PARENT 15 6 20 29 79 48 47 59
REMARK Flexibility Score: inf
ROOT
ATOM      1  C   UNL     1      -0.937  -5.063   9.626  1.00  0.00     0.023 C 
ENDROOT
BRANCH   1   2
ATOM      2  C   UNL     1      -2.041  -4.366   8.839  1.00  0.00     0.116 C 
BRANCH   2   3
ATOM      3  N   UNL     1      -1.923  -2.919   8.871  1.00  0.00    -0.352 N 
ATOM      4  C   UNL     1      -1.604  -1.944   7.987  1.00  0.00     0.251 C 
ATOM      5  O   UNL     1      -1.647  -0.792   8.430  1.00  0.00    -0.270 OA
ATOM      6  H   UNL     1      -2.125  -2.555   9.763  1.00  0.00     0.163 HD
BRANCH   4   7
ATOM      7  C   UNL     1      -1.204  -2.172   6.565  1.00  0.00     0.067 C 
ATOM      8  C   UNL     1       0.960  -1.619   2.014  1.00  0.00    -0.026 A 
ATOM      9  C   UNL     1       0.167  -2.608   2.622  1.00  0.00     0.052 A 
ATOM     10  C   UNL     1       1.242  -0.458   2.749  1.00  0.00     0.045 A 
ATOM     11  C   UNL     1      -0.307  -2.454   3.926  1.00  0.00     0.128 A 
ATOM     12  C   UNL     1       0.739  -0.293   4.047  1.00  0.00     0.032 A 
ATOM     13  Cl  UNL     1       2.254   0.800   2.134  1.00  0.00    -0.084 Cl
ATOM     14  C   UNL     1      -0.028  -1.298   4.644  1.00  0.00     0.019 A 
ATOM     15  O   UNL     1      -1.008  -3.504   4.431  1.00  0.00    -0.475 OA
ATOM     16  C   UNL     1      -0.493  -1.171   6.016  1.00  0.00     0.025 C 
ATOM     17  C   UNL     1      -1.574  -3.393   5.766  1.00  0.00     0.314 C 
BRANCH   8  18
ATOM     18  C   UNL     1       1.478  -1.881   0.617  1.00  0.00     0.037 C 
BRANCH  18  19
ATOM     19  C   UNL     1       0.523  -1.456  -0.503  1.00  0.00     0.001 C 
ATOM     20  C   UNL     1       0.542   0.038  -0.787  1.00  0.00     0.004 C 
ENDBRANCH  18  19
ENDBRANCH   8  18
BRANCH  17  21
ATOM     21  C   UNL     1      -3.093  -3.604   5.630  1.00  0.00     0.429 C 
ATOM     22  F   UNL     1      -3.356  -4.887   5.268  1.00  0.00    -0.167 F 
ATOM     23  F   UNL     1      -3.768  -3.394   6.783  1.00  0.00    -0.167 F 
ATOM     24  F   UNL     1      -3.643  -2.798   4.695  1.00  0.00    -0.167 F 
ENDBRANCH  17  21
ENDBRANCH   4   7
ENDBRANCH   2   3
ENDBRANCH   1   2
BRANCH   1  25
ATOM     25  C   UNL     1      -1.145  -5.080  11.140  1.00  0.00     0.023 C 
BRANCH  25  26
ATOM     26  C   UNL     1      -2.493  -5.612  11.617  1.00  0.00     0.116 C 
BRANCH  26  27
ATOM     27  N   UNL     1      -2.855  -6.916  11.074  1.00  0.00    -0.352 N 
ATOM     28  C   UNL     1      -3.634  -7.892  11.657  1.00  0.00     0.251 C 
ATOM     29  H   UNL     1      -2.499  -7.125  10.180  1.00  0.00     0.163 HD
ATOM     30  O   UNL     1      -3.811  -8.971  11.103  1.00  0.00    -0.269 OA
BRANCH  28  31
ATOM     31  C   UNL     1      -4.202  -7.637  12.996  1.00  0.00     0.039 A 
ATOM     32  C   UNL     1      -4.892  -6.452  13.248  1.00  0.00     0.014 A 
ATOM     33  C   UNL     1      -3.942  -8.543  14.027  1.00  0.00     0.014 A 
ATOM     34  C   UNL     1      -5.148  -6.083  14.562  1.00  0.00     0.010 A 
ATOM     35  C   UNL     1      -4.279  -8.207  15.340  1.00  0.00     0.010 A 
ATOM     36  C   UNL     1      -4.824  -6.945  15.624  1.00  0.00    -0.014 A 
BRANCH  36  37
ATOM     37  C   UNL     1      -5.033  -6.477  17.018  1.00  0.00     0.031 A 
ATOM     38  C   UNL     1      -3.862  -6.233  17.931  1.00  0.00     0.074 A 
ATOM     39  C   UNL     1      -6.281  -6.181  17.427  1.00  0.00     0.049 A 
ATOM     40  N   UNL     1      -3.854  -5.752  19.150  1.00  0.00    -0.248 NA
ATOM     41  C   UNL     1      -2.525  -6.571  17.417  1.00  0.00     0.031 C 
ATOM     42  C   UNL     1      -7.491  -6.364  16.623  1.00  0.00     0.029 A 
ATOM     43  N   UNL     1      -6.737  -5.625  18.594  1.00  0.00    -0.354 N 
ATOM     44  C   UNL     1      -2.524  -5.749  19.551  1.00  0.00     0.074 A 
ATOM     45  C   UNL     1      -1.752  -6.298  18.459  1.00  0.00     0.031 C 
ATOM     46  C   UNL     1      -8.540  -5.862  17.291  1.00  0.00     0.029 A 
ATOM     47  C   UNL     1      -8.087  -5.376  18.591  1.00  0.00     0.049 A 
ATOM     48  H   UNL     1      -6.152  -5.424  19.361  1.00  0.00     0.167 HD
ATOM     49  C   UNL     1      -1.996  -5.312  20.719  1.00  0.00     0.037 A 
ATOM     50  C   UNL     1      -8.875  -4.819  19.529  1.00  0.00     0.037 A 
ATOM     51  C   UNL     1      -2.761  -4.730  21.790  1.00  0.00     0.049 A 
ATOM     52  C   UNL     1      -8.266  -4.370  20.826  1.00  0.00     0.074 A 
ATOM     53  C   UNL     1      -2.309  -4.229  22.999  1.00  0.00     0.029 A 
ATOM     54  N   UNL     1      -4.138  -4.565  21.777  1.00  0.00    -0.354 N 
ATOM     55  N   UNL     1      -7.007  -4.370  21.188  1.00  0.00    -0.248 NA
ATOM     56  C   UNL     1      -9.188  -3.861  21.850  1.00  0.00     0.031 C 
ATOM     57  C   UNL     1      -3.417  -3.795  23.733  1.00  0.00     0.029 A 
ATOM     58  C   UNL     1      -4.554  -3.990  22.966  1.00  0.00     0.049 A 
ATOM     59  H   UNL     1      -4.731  -4.819  21.033  1.00  0.00     0.167 HD
ATOM     60  C   UNL     1      -6.983  -3.861  22.478  1.00  0.00     0.074 A 
ATOM     61  C   UNL     1      -8.351  -3.541  22.828  1.00  0.00     0.031 C 
ATOM     62  C   UNL     1      -5.921  -3.683  23.299  1.00  0.00     0.037 A 
BRANCH  49  63
ATOM     63  C   UNL     1      -0.514  -5.441  20.913  1.00  0.00     0.064 A 
ATOM     64  C   UNL     1       0.389  -4.587  20.264  1.00  0.00     0.173 A 
ATOM     65  C   UNL     1       0.004  -6.379  21.820  1.00  0.00     0.173 A 
ATOM     66  F   UNL     1      -0.056  -3.682  19.380  1.00  0.00    -0.203 F 
ATOM     67  C   UNL     1       1.757  -4.673  20.508  1.00  0.00     0.198 A 
ATOM     68  C   UNL     1       1.371  -6.447  22.078  1.00  0.00     0.198 A 
ATOM     69  F   UNL     1      -0.818  -7.214  22.472  1.00  0.00    -0.203 F 
ATOM     70  F   UNL     1       2.604  -3.864  19.856  1.00  0.00    -0.200 F 
ATOM     71  C   UNL     1       2.246  -5.596  21.421  1.00  0.00     0.200 A 
ATOM     72  F   UNL     1       1.840  -7.331  22.969  1.00  0.00    -0.200 F 
ATOM     73  F   UNL     1       3.562  -5.667  21.665  1.00  0.00    -0.200 F 
ENDBRANCH  49  63
BRANCH  50  74
ATOM     74  C   UNL     1     -10.323  -4.647  19.256  1.00  0.00     0.064 A 
ATOM     75  C   UNL     1     -10.866  -3.374  19.037  1.00  0.00     0.173 A 
ATOM     76  C   UNL     1     -11.183  -5.751  19.162  1.00  0.00     0.173 A 
ATOM     77  F   UNL     1     -10.085  -2.288  19.134  1.00  0.00    -0.203 F 
ATOM     78  C   UNL     1     -12.215  -3.212  18.732  1.00  0.00     0.198 A 
ATOM     79  C   UNL     1     -12.526  -5.590  18.832  1.00  0.00     0.198 A 
ATOM     80  F   UNL     1     -10.709  -6.989  19.360  1.00  0.00    -0.203 F 
ATOM     81  F   UNL     1     -12.715  -1.982  18.547  1.00  0.00    -0.200 F 
ATOM     82  C   UNL     1     -13.042  -4.320  18.620  1.00  0.00     0.200 A 
ATOM     83  F   UNL     1     -13.317  -6.664  18.709  1.00  0.00    -0.200 F 
ATOM     84  F   UNL     1     -14.336  -4.165  18.308  1.00  0.00    -0.200 F 
ENDBRANCH  50  74
BRANCH  62  85
ATOM     85  C   UNL     1      -6.188  -3.121  24.662  1.00  0.00     0.064 A 
ATOM     86  C   UNL     1      -6.731  -3.917  25.680  1.00  0.00     0.173 A 
ATOM     87  C   UNL     1      -5.821  -1.804  24.976  1.00  0.00     0.173 A 
ATOM     88  F   UNL     1      -7.109  -5.178  25.421  1.00  0.00    -0.203 F 
ATOM     89  C   UNL     1      -6.903  -3.412  26.965  1.00  0.00     0.198 A 
ATOM     90  C   UNL     1      -5.974  -1.310  26.268  1.00  0.00     0.198 A 
ATOM     91  F   UNL     1      -5.291  -1.008  24.036  1.00  0.00    -0.203 F 
ATOM     92  F   UNL     1      -7.444  -4.183  27.919  1.00  0.00    -0.200 F 
ATOM     93  C   UNL     1      -6.516  -2.113  27.260  1.00  0.00     0.200 A 
ATOM     94  F   UNL     1      -5.589  -0.059  26.555  1.00  0.00    -0.200 F 
ATOM     95  F   UNL     1      -6.665  -1.635  28.503  1.00  0.00    -0.200 F 
ENDBRANCH  62  85
ENDBRANCH  36  37
ENDBRANCH  28  31
ENDBRANCH  26  27
ENDBRANCH  25  26
ENDBRANCH   1  25
TORSDOF 14
