REMARK SMILES COc1ccccc1N1CC[NH+]([C@@H](C(=O)NCCCCNC(=O)c2ccc(-c3c4nc(c(-c5c(F)c(F)c(F)c(F)c5F)c5ccc([nH]5)c(-c5c(F)c(F)c(F)c(F)c5F)c5nc(c(-c6c(F)c(F)c(F)c(F)c6F)c6ccc3[nH]6)C=C5)C=C4)cc2)c2c[nH]c3ccc(OCC#N)cc23)CC1
REMARK SMILES IDX 17 1 16 2 14 3 15 4 13 6 12 7 9 8 10 9 101 10 11 11 100 12
REMARK SMILES IDX 8 14 3 15 4 16 5 17 7 18 6 19 2 20 1 21 87 22 88 23 99 24
REMARK SMILES IDX 89 25 90 26 98 27 91 29 93 30 92 31 94 32 95 33 96 34 97 35
REMARK SMILES IDX 18 36 19 37 20 38 21 39 22 40 23 42 24 43 25 44 86 45 26 46
REMARK SMILES IDX 85 47 27 48 28 49 29 50 79 51 30 52 84 53 78 54 80 55 31 56
REMARK SMILES IDX 83 57 77 58 76 59 32 61 64 62 44 63 63 64 45 65 48 66 62 67
REMARK SMILES IDX 81 68 46 69 47 70 61 72 82 73 49 74 33 75 34 76 42 77 35 78
REMARK SMILES IDX 36 79 40 80 43 81 37 82 38 83 41 84 39 85 65 86 66 87 74 88
REMARK SMILES IDX 67 89 68 90 72 91 75 92 69 93 70 94 73 95 71 96 50 97 51 98
REMARK SMILES IDX 59 99 52 100 53 101 57 102 60 103 54 104 55 105 58 106
REMARK SMILES IDX 56 107
REMARK H PARENT 16 5 12 13 89 28 21 41 80 60 48 71
REMARK Flexibility Score: inf
ROOT
ATOM      1  C   UNL     1       5.586  -2.151   1.074  1.00  0.00     0.116 C 
ENDROOT
BRANCH   1   2
ATOM      2  N   UNL     1       5.838  -1.783  -0.351  1.00  0.00    -0.351 N 
ATOM      3  C   UNL     1       5.907  -0.699  -1.220  1.00  0.00     0.283 C 
ATOM      4  O   UNL     1       6.358  -1.022  -2.332  1.00  0.00    -0.268 OA
ATOM      5  H   UNL     1       6.024  -2.605  -0.860  1.00  0.00     0.163 HD
BRANCH   3   6
ATOM      6  C   UNL     1       5.565   0.823  -0.930  1.00  0.00     0.307 C 
BRANCH   6   7
ATOM      7  N   UNL     1       4.205   1.210  -0.387  1.00  0.00    -0.318 N 
ATOM      8  N   UNL     1       2.091  -0.291  -1.748  1.00  0.00    -0.357 N 
ATOM      9  C   UNL     1       2.740   0.843  -2.402  1.00  0.00     0.178 C 
ATOM     10  C   UNL     1       2.851  -0.920  -0.666  1.00  0.00     0.178 C 
ATOM     11  C   UNL     1       3.185   1.782  -1.281  1.00  0.00     0.284 C 
ATOM     12  C   UNL     1       3.491   0.127   0.291  1.00  0.00     0.284 C 
ATOM     13  H   UNL     1       4.550   1.948   0.226  1.00  0.00     0.349 HD
BRANCH   8  14
ATOM     14  C   UNL     1       1.341  -1.191  -2.494  1.00  0.00     0.080 A 
ATOM     15  C   UNL     1       0.113  -1.700  -2.022  1.00  0.00     0.142 A 
ATOM     16  C   UNL     1      -0.555  -2.687  -2.757  1.00  0.00     0.048 A 
ATOM     17  C   UNL     1      -0.028  -3.176  -3.951  1.00  0.00     0.004 A 
ATOM     18  C   UNL     1       1.861  -1.708  -3.697  1.00  0.00     0.030 A 
ATOM     19  C   UNL     1       1.187  -2.692  -4.418  1.00  0.00     0.002 A 
BRANCH  15  20
ATOM     20  O   UNL     1      -0.524  -1.383  -0.847  1.00  0.00    -0.495 OA
ATOM     21  C   UNL     1      -0.321  -0.085  -0.303  1.00  0.00     0.278 C 
ENDBRANCH  15  20
ENDBRANCH   8  14
ENDBRANCH   6   7
BRANCH   6  22
ATOM     22  C   UNL     1       6.190   1.929  -2.006  1.00  0.00     0.044 A 
ATOM     23  C   UNL     1       6.648   3.117  -1.411  1.00  0.00     0.094 A 
ATOM     24  C   UNL     1       5.662   2.537  -3.270  1.00  0.00     0.013 A 
ATOM     25  N   UNL     1       5.552   3.955  -1.565  1.00  0.00    -0.361 N 
ATOM     26  C   UNL     1       5.060   3.724  -2.839  1.00  0.00     0.046 A 
ATOM     27  C   UNL     1       5.781   2.447  -4.715  1.00  0.00     0.057 A 
ATOM     28  H   UNL     1       5.196   4.588  -0.901  1.00  0.00     0.166 HD
ATOM     29  C   UNL     1       4.142   4.443  -3.611  1.00  0.00     0.030 A 
ATOM     30  C   UNL     1       5.084   3.385  -5.566  1.00  0.00     0.121 A 
ATOM     31  C   UNL     1       4.139   4.222  -4.988  1.00  0.00     0.048 A 
BRANCH  30  32
ATOM     32  O   UNL     1       5.344   3.473  -6.940  1.00  0.00    -0.479 OA
BRANCH  32  33
ATOM     33  C   UNL     1       5.297   4.851  -7.606  1.00  0.00     0.349 C 
BRANCH  33  34
ATOM     34  C   UNL     1       6.165   5.793  -6.787  1.00  0.00     0.104 C 
ATOM     35  N   UNL     1       6.885   6.575  -6.108  1.00  0.00    -0.195 NA
ENDBRANCH  33  34
ENDBRANCH  32  33
ENDBRANCH  30  32
ENDBRANCH   6  22
ENDBRANCH   3   6
ENDBRANCH   1   2
BRANCH   1  36
ATOM     36  C   UNL     1       4.228  -2.842   1.454  1.00  0.00     0.023 C 
BRANCH  36  37
ATOM     37  C   UNL     1       3.610  -3.825   0.448  1.00  0.00     0.023 C 
BRANCH  37  38
ATOM     38  C   UNL     1       3.757  -5.293   0.812  1.00  0.00     0.116 C 
BRANCH  38  39
ATOM     39  N   UNL     1       2.883  -5.700   1.907  1.00  0.00    -0.352 N 
ATOM     40  C   UNL     1       2.114  -6.842   2.030  1.00  0.00     0.251 C 
ATOM     41  H   UNL     1       2.833  -5.074   2.664  1.00  0.00     0.163 HD
ATOM     42  O   UNL     1       1.329  -6.963   2.954  1.00  0.00    -0.269 OA
BRANCH  40  43
ATOM     43  C   UNL     1       2.232  -7.915   1.012  1.00  0.00     0.039 A 
ATOM     44  C   UNL     1       1.075  -8.550   0.549  1.00  0.00     0.014 A 
ATOM     45  C   UNL     1       3.479  -8.279   0.505  1.00  0.00     0.014 A 
ATOM     46  C   UNL     1       1.167  -9.496  -0.476  1.00  0.00     0.010 A 
ATOM     47  C   UNL     1       3.560  -9.140  -0.581  1.00  0.00     0.010 A 
ATOM     48  C   UNL     1       2.408  -9.766  -1.075  1.00  0.00    -0.014 A 
BRANCH  48  49
ATOM     49  C   UNL     1       2.542 -10.714  -2.208  1.00  0.00     0.031 A 
ATOM     50  C   UNL     1       3.385 -11.948  -2.047  1.00  0.00     0.074 A 
ATOM     51  C   UNL     1       1.983 -10.418  -3.396  1.00  0.00     0.049 A 
ATOM     52  N   UNL     1       3.720 -12.848  -2.936  1.00  0.00    -0.248 NA
ATOM     53  C   UNL     1       3.960 -12.181  -0.712  1.00  0.00     0.031 C 
ATOM     54  C   UNL     1       1.182  -9.227  -3.680  1.00  0.00     0.029 A 
ATOM     55  N   UNL     1       2.014 -11.091  -4.591  1.00  0.00    -0.354 N 
ATOM     56  C   UNL     1       4.552 -13.739  -2.271  1.00  0.00     0.074 A 
ATOM     57  C   UNL     1       4.734 -13.232  -0.930  1.00  0.00     0.031 C 
ATOM     58  C   UNL     1       0.768  -9.270  -4.956  1.00  0.00     0.029 A 
ATOM     59  C   UNL     1       1.314 -10.464  -5.593  1.00  0.00     0.049 A 
ATOM     60  H   UNL     1       2.491 -11.943  -4.718  1.00  0.00     0.167 HD
ATOM     61  C   UNL     1       5.091 -14.894  -2.730  1.00  0.00     0.037 A 
ATOM     62  C   UNL     1       1.142 -10.815  -6.881  1.00  0.00     0.037 A 
ATOM     63  C   UNL     1       4.892 -15.393  -4.065  1.00  0.00     0.049 A 
ATOM     64  C   UNL     1       1.789 -12.077  -7.383  1.00  0.00     0.074 A 
ATOM     65  C   UNL     1       5.341 -16.576  -4.622  1.00  0.00     0.029 A 
ATOM     66  N   UNL     1       4.185 -14.725  -5.056  1.00  0.00    -0.354 N 
ATOM     67  N   UNL     1       2.512 -12.954  -6.729  1.00  0.00    -0.248 NA
ATOM     68  C   UNL     1       1.598 -12.397  -8.804  1.00  0.00     0.031 C 
ATOM     69  C   UNL     1       4.958 -16.596  -5.968  1.00  0.00     0.029 A 
ATOM     70  C   UNL     1       4.219 -15.453  -6.234  1.00  0.00     0.049 A 
ATOM     71  H   UNL     1       3.728 -13.861  -4.939  1.00  0.00     0.167 HD
ATOM     72  C   UNL     1       2.845 -13.938  -7.649  1.00  0.00     0.074 A 
ATOM     73  C   UNL     1       2.227 -13.560  -8.903  1.00  0.00     0.031 C 
ATOM     74  C   UNL     1       3.597 -15.053  -7.473  1.00  0.00     0.037 A 
BRANCH  61  75
ATOM     75  C   UNL     1       5.947 -15.682  -1.777  1.00  0.00     0.064 A 
ATOM     76  C   UNL     1       5.409 -16.284  -0.628  1.00  0.00     0.173 A 
ATOM     77  C   UNL     1       7.323 -15.831  -2.008  1.00  0.00     0.173 A 
ATOM     78  F   UNL     1       4.102 -16.165  -0.351  1.00  0.00    -0.203 F 
ATOM     79  C   UNL     1       6.223 -16.958   0.279  1.00  0.00     0.198 A 
ATOM     80  C   UNL     1       8.127 -16.539  -1.119  1.00  0.00     0.198 A 
ATOM     81  F   UNL     1       7.891 -15.284  -3.093  1.00  0.00    -0.203 F 
ATOM     82  F   UNL     1       5.698 -17.457   1.407  1.00  0.00    -0.200 F 
ATOM     83  C   UNL     1       7.581 -17.090   0.031  1.00  0.00     0.200 A 
ATOM     84  F   UNL     1       9.437 -16.678  -1.367  1.00  0.00    -0.200 F 
ATOM     85  F   UNL     1       8.364 -17.735   0.905  1.00  0.00    -0.200 F 
ENDBRANCH  61  75
BRANCH  62  86
ATOM     86  C   UNL     1       0.296  -9.976  -7.772  1.00  0.00     0.064 A 
ATOM     87  C   UNL     1      -0.939 -10.450  -8.236  1.00  0.00     0.173 A 
ATOM     88  C   UNL     1       0.689  -8.688  -8.163  1.00  0.00     0.173 A 
ATOM     89  F   UNL     1      -1.350 -11.683  -7.905  1.00  0.00    -0.203 F 
ATOM     90  C   UNL     1      -1.743  -9.672  -9.067  1.00  0.00     0.198 A 
ATOM     91  C   UNL     1      -0.130  -7.900  -8.971  1.00  0.00     0.198 A 
ATOM     92  F   UNL     1       1.859  -8.184  -7.744  1.00  0.00    -0.203 F 
ATOM     93  F   UNL     1      -2.901 -10.165  -9.526  1.00  0.00    -0.200 F 
ATOM     94  C   UNL     1      -1.342  -8.395  -9.428  1.00  0.00     0.200 A 
ATOM     95  F   UNL     1       0.254  -6.660  -9.303  1.00  0.00    -0.200 F 
ATOM     96  F   UNL     1      -2.120  -7.644 -10.219  1.00  0.00    -0.200 F 
ENDBRANCH  62  86
BRANCH  74  97
ATOM     97  C   UNL     1       3.781 -15.952  -8.662  1.00  0.00     0.064 A 
ATOM     98  C   UNL     1       4.591 -15.579  -9.744  1.00  0.00     0.173 A 
ATOM     99  C   UNL     1       3.187 -17.223  -8.692  1.00  0.00     0.173 A 
ATOM    100  F   UNL     1       5.168 -14.368  -9.771  1.00  0.00    -0.203 F 
ATOM    101  C   UNL     1       4.783 -16.438 -10.823  1.00  0.00     0.198 A 
ATOM    102  C   UNL     1       3.408 -18.092  -9.756  1.00  0.00     0.198 A 
ATOM    103  F   UNL     1       2.408 -17.630  -7.678  1.00  0.00    -0.203 F 
ATOM    104  F   UNL     1       5.525 -16.044 -11.867  1.00  0.00    -0.200 F 
ATOM    105  C   UNL     1       4.200 -17.697 -10.823  1.00  0.00     0.200 A 
ATOM    106  F   UNL     1       2.858 -19.314  -9.746  1.00  0.00    -0.200 F 
ATOM    107  F   UNL     1       4.399 -18.528 -11.855  1.00  0.00    -0.200 F 
ENDBRANCH  74  97
ENDBRANCH  48  49
ENDBRANCH  40  43
ENDBRANCH  38  39
ENDBRANCH  37  38
ENDBRANCH  36  37
ENDBRANCH   1  36
TORSDOF 18
