REMARK SMILES C[NH2+][C@@]1(C(=O)NCCCCNC(=O)c2ccc(-c3c4nc(c(-c5c(F)c(F)c(F)c(F)c5F)c5ccc([nH]5)c(-c5c(F)c(F)c(F)c(F)c5F)c5nc(c(-c6c(F)c(F)c(F)c(F)c6F)c6ccc3[nH]6)C=C5)C=C4)cc2)CCC[C@H]([N@H+](C)C2CC[NH+](C)CC2)C1
REMARK SMILES IDX 8 1 7 2 6 3 4 4 5 5 3 7 77 8 90 9 78 10 80 11 79 12 2 13
REMARK SMILES IDX 1 14 81 17 82 18 83 20 84 21 89 22 85 23 88 24 86 25 87 26
REMARK SMILES IDX 9 28 10 29 11 30 12 31 13 33 14 34 15 35 76 36 16 37 75 38
REMARK SMILES IDX 17 39 18 40 19 41 69 42 20 43 74 44 68 45 70 46 21 47 73 48
REMARK SMILES IDX 67 49 66 50 22 52 54 53 34 54 53 55 35 56 38 57 52 58 71 59
REMARK SMILES IDX 36 60 37 61 51 63 72 64 39 65 23 66 24 67 32 68 25 69 26 70
REMARK SMILES IDX 30 71 33 72 27 73 28 74 31 75 29 76 55 77 56 78 64 79 57 80
REMARK SMILES IDX 58 81 62 82 65 83 59 84 60 85 63 86 61 87 40 88 41 89 49 90
REMARK SMILES IDX 42 91 43 92 47 93 50 94 44 95 45 96 48 97 46 98
REMARK H PARENT 6 6 2 15 2 16 81 19 86 27 11 32 70 51 38 62
REMARK Flexibility Score: inf
ROOT
ATOM      1  C   UNL     1      -4.473   4.318  -2.276  1.00  0.00     0.023 C 
ENDROOT
BRANCH   1   2
ATOM      2  C   UNL     1      -3.252   3.231  -2.454  1.00  0.00     0.116 C 
BRANCH   2   3
ATOM      3  N   UNL     1      -2.093   3.042  -1.508  1.00  0.00    -0.351 N 
ATOM      4  C   UNL     1      -1.502   1.758  -1.267  1.00  0.00     0.281 C 
ATOM      5  O   UNL     1      -1.422   0.931  -2.181  1.00  0.00    -0.268 OA
ATOM      6  H   UNL     1      -1.729   3.828  -1.040  1.00  0.00     0.163 HD
BRANCH   4   7
ATOM      7  C   UNL     1      -0.834   1.420   0.195  1.00  0.00     0.181 C 
ATOM      8  C   UNL     1      -0.887  -0.088   0.685  1.00  0.00     0.079 C 
ATOM      9  C   UNL     1      -1.525   2.259   1.276  1.00  0.00     0.144 C 
ATOM     10  C   UNL     1      -1.990  -0.628   1.605  1.00  0.00     0.013 C 
ATOM     11  C   UNL     1      -2.951   1.701   1.592  1.00  0.00     0.190 C 
ATOM     12  C   UNL     1      -2.803   0.398   2.339  1.00  0.00     0.065 C 
BRANCH   7  13
ATOM     13  N   UNL     1       0.631   1.799   0.097  1.00  0.00    -0.336 N 
ATOM     14  C   UNL     1       1.498   0.724  -0.430  1.00  0.00     0.331 C 
ATOM     15  H   UNL     1       0.713   2.608  -0.520  1.00  0.00     0.346 HD
ATOM     16  H   UNL     1       0.949   1.995   1.046  1.00  0.00     0.346 HD
ENDBRANCH   7  13
BRANCH  11  17
ATOM     17  N   UNL     1      -3.842   1.862   0.413  1.00  0.00    -0.332 N 
ATOM     18  C   UNL     1      -4.336   3.260   0.566  1.00  0.00     0.333 C 
ATOM     19  H   UNL     1      -3.244   1.582  -0.364  1.00  0.00     0.348 HD
BRANCH  17  20
ATOM     20  C   UNL     1      -4.859   0.886  -0.158  1.00  0.00     0.195 C 
ATOM     21  C   UNL     1      -4.836  -0.626   0.091  1.00  0.00     0.126 C 
ATOM     22  C   UNL     1      -5.213   0.840  -1.727  1.00  0.00     0.126 C 
ATOM     23  C   UNL     1      -3.937  -1.415  -0.884  1.00  0.00     0.268 C 
ATOM     24  C   UNL     1      -4.423  -0.015  -2.713  1.00  0.00     0.268 C 
ATOM     25  N   UNL     1      -4.419  -1.397  -2.270  1.00  0.00    -0.337 N 
ATOM     26  C   UNL     1      -3.504  -2.150  -3.139  1.00  0.00     0.332 C 
ATOM     27  H   UNL     1      -5.348  -1.815  -2.317  1.00  0.00     0.347 HD
ENDBRANCH  17  20
ENDBRANCH  11  17
ENDBRANCH   4   7
ENDBRANCH   2   3
ENDBRANCH   1   2
BRANCH   1  28
ATOM     28  C   UNL     1      -6.113   4.272  -1.864  1.00  0.00     0.023 C 
BRANCH  28  29
ATOM     29  C   UNL     1      -7.103   3.060  -1.766  1.00  0.00     0.116 C 
BRANCH  29  30
ATOM     30  N   UNL     1      -8.335   3.114  -0.966  1.00  0.00    -0.352 N 
ATOM     31  C   UNL     1      -9.339   2.132  -0.995  1.00  0.00     0.251 C 
ATOM     32  H   UNL     1      -8.465   3.888  -0.372  1.00  0.00     0.163 HD
ATOM     33  O   UNL     1      -9.897   1.754   0.013  1.00  0.00    -0.269 OA
BRANCH  31  34
ATOM     34  C   UNL     1      -9.839   1.684  -2.314  1.00  0.00     0.039 A 
ATOM     35  C   UNL     1     -11.017   2.285  -2.761  1.00  0.00     0.014 A 
ATOM     36  C   UNL     1      -9.150   0.783  -3.125  1.00  0.00     0.014 A 
ATOM     37  C   UNL     1     -11.415   2.115  -4.084  1.00  0.00     0.010 A 
ATOM     38  C   UNL     1      -9.517   0.663  -4.471  1.00  0.00     0.010 A 
ATOM     39  C   UNL     1     -10.622   1.371  -4.974  1.00  0.00    -0.014 A 
BRANCH  39  40
ATOM     40  C   UNL     1     -10.935   1.422  -6.428  1.00  0.00     0.031 A 
ATOM     41  C   UNL     1     -11.409   0.206  -7.164  1.00  0.00     0.074 A 
ATOM     42  C   UNL     1     -10.815   2.597  -7.084  1.00  0.00     0.049 A 
ATOM     43  N   UNL     1     -11.829   0.102  -8.401  1.00  0.00    -0.248 NA
ATOM     44  C   UNL     1     -11.401  -1.062  -6.423  1.00  0.00     0.031 C 
ATOM     45  C   UNL     1     -10.321   3.845  -6.496  1.00  0.00     0.029 A 
ATOM     46  N   UNL     1     -11.120   2.943  -8.379  1.00  0.00    -0.354 N 
ATOM     47  C   UNL     1     -12.147  -1.236  -8.580  1.00  0.00     0.074 A 
ATOM     48  C   UNL     1     -11.809  -1.918  -7.349  1.00  0.00     0.031 C 
ATOM     49  C   UNL     1     -10.408   4.827  -7.407  1.00  0.00     0.029 A 
ATOM     50  C   UNL     1     -10.928   4.277  -8.655  1.00  0.00     0.049 A 
ATOM     51  H   UNL     1     -11.446   2.297  -9.046  1.00  0.00     0.167 HD
ATOM     52  C   UNL     1     -12.700  -1.837  -9.662  1.00  0.00     0.037 A 
ATOM     53  C   UNL     1     -11.155   4.980  -9.782  1.00  0.00     0.037 A 
ATOM     54  C   UNL     1     -13.036  -1.159 -10.887  1.00  0.00     0.049 A 
ATOM     55  C   UNL     1     -11.736   4.279 -10.981  1.00  0.00     0.074 A 
ATOM     56  C   UNL     1     -13.631  -1.677 -12.024  1.00  0.00     0.029 A 
ATOM     57  N   UNL     1     -12.795   0.184 -11.141  1.00  0.00    -0.354 N 
ATOM     58  N   UNL     1     -12.109   3.029 -11.110  1.00  0.00    -0.248 NA
ATOM     59  C   UNL     1     -11.936   5.090 -12.191  1.00  0.00     0.031 C 
ATOM     60  C   UNL     1     -13.698  -0.663 -12.986  1.00  0.00     0.029 A 
ATOM     61  C   UNL     1     -13.205   0.504 -12.426  1.00  0.00     0.049 A 
ATOM     62  H   UNL     1     -12.393   0.816 -10.502  1.00  0.00     0.167 HD
ATOM     63  C   UNL     1     -12.614   2.911 -12.398  1.00  0.00     0.074 A 
ATOM     64  C   UNL     1     -12.517   4.221 -13.006  1.00  0.00     0.031 C 
ATOM     65  C   UNL     1     -13.112   1.814 -13.020  1.00  0.00     0.037 A 
BRANCH  52  66
ATOM     66  C   UNL     1     -12.979  -3.309  -9.565  1.00  0.00     0.064 A 
ATOM     67  C   UNL     1     -13.980  -3.812  -8.718  1.00  0.00     0.173 A 
ATOM     68  C   UNL     1     -12.266  -4.225 -10.352  1.00  0.00     0.173 A 
ATOM     69  F   UNL     1     -14.686  -2.980  -7.938  1.00  0.00    -0.203 F 
ATOM     70  C   UNL     1     -14.231  -5.179  -8.638  1.00  0.00     0.198 A 
ATOM     71  C   UNL     1     -12.543  -5.588 -10.294  1.00  0.00     0.198 A 
ATOM     72  F   UNL     1     -11.305  -3.798 -11.185  1.00  0.00    -0.203 F 
ATOM     73  F   UNL     1     -15.154  -5.640  -7.783  1.00  0.00    -0.200 F 
ATOM     74  C   UNL     1     -13.518  -6.065  -9.431  1.00  0.00     0.200 A 
ATOM     75  F   UNL     1     -11.864  -6.442 -11.074  1.00  0.00    -0.200 F 
ATOM     76  F   UNL     1     -13.767  -7.380  -9.359  1.00  0.00    -0.200 F 
ENDBRANCH  52  66
BRANCH  53  77
ATOM     77  C   UNL     1     -10.857   6.438  -9.829  1.00  0.00     0.064 A 
ATOM     78  C   UNL     1     -11.884   7.385  -9.960  1.00  0.00     0.173 A 
ATOM     79  C   UNL     1      -9.539   6.915  -9.771  1.00  0.00     0.173 A 
ATOM     80  F   UNL     1     -13.160   6.980 -10.044  1.00  0.00    -0.203 F 
ATOM     81  C   UNL     1     -11.603   8.746 -10.057  1.00  0.00     0.198 A 
ATOM     82  C   UNL     1      -9.261   8.279  -9.835  1.00  0.00     0.198 A 
ATOM     83  F   UNL     1      -8.518   6.055  -9.644  1.00  0.00    -0.203 F 
ATOM     84  F   UNL     1     -12.600   9.623 -10.238  1.00  0.00    -0.200 F 
ATOM     85  C   UNL     1     -10.292   9.193  -9.989  1.00  0.00     0.200 A 
ATOM     86  F   UNL     1      -7.994   8.707  -9.754  1.00  0.00    -0.200 F 
ATOM     87  F   UNL     1     -10.022  10.502 -10.081  1.00  0.00    -0.200 F 
ENDBRANCH  53  77
BRANCH  65  88
ATOM     88  C   UNL     1     -13.629   1.987 -14.421  1.00  0.00     0.064 A 
ATOM     89  C   UNL     1     -12.769   2.227 -15.503  1.00  0.00     0.173 A 
ATOM     90  C   UNL     1     -15.002   1.865 -14.690  1.00  0.00     0.173 A 
ATOM     91  F   UNL     1     -11.451   2.366 -15.300  1.00  0.00    -0.203 F 
ATOM     92  C   UNL     1     -13.267   2.367 -16.797  1.00  0.00     0.198 A 
ATOM     93  C   UNL     1     -15.492   1.971 -15.989  1.00  0.00     0.198 A 
ATOM     94  F   UNL     1     -15.868   1.628 -13.694  1.00  0.00    -0.203 F 
ATOM     95  F   UNL     1     -12.432   2.648 -17.807  1.00  0.00    -0.200 F 
ATOM     96  C   UNL     1     -14.625   2.230 -17.040  1.00  0.00     0.200 A 
ATOM     97  F   UNL     1     -16.803   1.821 -16.223  1.00  0.00    -0.200 F 
ATOM     98  F   UNL     1     -15.101   2.355 -18.286  1.00  0.00    -0.200 F 
ENDBRANCH  65  88
ENDBRANCH  39  40
ENDBRANCH  31  34
ENDBRANCH  29  30
ENDBRANCH  28  29
ENDBRANCH   1  28
TORSDOF 14
