REMARK SMILES O=C(NCCCCNC(=O)c1cc(NC(=O)c2cccc(Cl)c2)ccc1N1CC[NH+](CC(=O)N2CCOCC2)CC1)c1ccc(-c2c3nc(c(-c4c(F)c(F)c(F)c(F)c4F)c4ccc([nH]4)c(-c4c(F)c(F)c(F)c(F)c4F)c4nc(c(-c5c(F)c(F)c(F)c(F)c5F)c5ccc2[nH]5)C=C4)C=C3)cc1
REMARK SMILES IDX 6 1 5 2 4 3 3 4 1 5 2 6 42 8 43 9 104 10 44 11 103 12 45 13
REMARK SMILES IDX 46 14 47 15 97 16 48 17 102 18 96 19 98 20 49 21 101 22
REMARK SMILES IDX 95 23 94 24 50 26 82 27 62 28 81 29 63 30 66 31 80 32 99 33
REMARK SMILES IDX 64 34 65 35 79 37 100 38 67 39 51 40 52 41 60 42 53 43 54 44
REMARK SMILES IDX 58 45 61 46 55 47 56 48 59 49 57 50 83 51 84 52 92 53 85 54
REMARK SMILES IDX 86 55 90 56 93 57 87 58 88 59 91 60 89 61 68 62 69 63 77 64
REMARK SMILES IDX 70 65 71 66 75 67 78 68 72 69 73 70 76 71 74 72 7 73 8 74
REMARK SMILES IDX 9 75 10 77 11 78 12 79 26 80 13 81 25 82 24 83 27 84 28 85
REMARK SMILES IDX 41 86 29 87 40 88 30 89 31 91 32 92 33 93 34 94 35 95 39 96
REMARK SMILES IDX 36 97 38 98 37 99 14 100 15 101 16 103 17 104 18 105 23 106
REMARK SMILES IDX 19 107 21 108 20 109 22 110
REMARK H PARENT 3 7 98 25 66 36 8 76 30 90 14 102
REMARK Flexibility Score: inf
ROOT
ATOM      1  C   UNL     1       4.696  -3.468   2.461  1.00  0.00     0.023 C 
ENDROOT
BRANCH   1   2
ATOM      2  C   UNL     1       5.151  -2.013   2.325  1.00  0.00     0.023 C 
BRANCH   2   3
ATOM      3  C   UNL     1       4.769  -1.268   1.051  1.00  0.00     0.116 C 
BRANCH   3   4
ATOM      4  N   UNL     1       3.344  -1.231   0.773  1.00  0.00    -0.352 N 
ATOM      5  O   UNL     1       1.345  -0.291   0.278  1.00  0.00    -0.269 OA
ATOM      6  C   UNL     1       2.548  -0.154   0.444  1.00  0.00     0.251 C 
ATOM      7  H   UNL     1       2.880  -2.098   0.827  1.00  0.00     0.163 HD
BRANCH   6   8
ATOM      8  C   UNL     1       3.156   1.193   0.352  1.00  0.00     0.039 A 
ATOM      9  C   UNL     1       4.277   1.421  -0.448  1.00  0.00     0.014 A 
ATOM     10  C   UNL     1       2.617   2.225   1.125  1.00  0.00     0.014 A 
ATOM     11  C   UNL     1       4.955   2.635  -0.350  1.00  0.00     0.010 A 
ATOM     12  C   UNL     1       3.263   3.464   1.172  1.00  0.00     0.010 A 
ATOM     13  C   UNL     1       4.467   3.661   0.477  1.00  0.00    -0.014 A 
BRANCH  13  14
ATOM     14  C   UNL     1       5.225   4.932   0.611  1.00  0.00     0.031 A 
ATOM     15  C   UNL     1       5.874   5.309   1.915  1.00  0.00     0.074 A 
ATOM     16  C   UNL     1       5.344   5.743  -0.456  1.00  0.00     0.049 A 
ATOM     17  N   UNL     1       6.572   6.378   2.215  1.00  0.00    -0.248 NA
ATOM     18  C   UNL     1       5.716   4.368   3.033  1.00  0.00     0.031 C 
ATOM     19  C   UNL     1       4.758   5.491  -1.772  1.00  0.00     0.029 A 
ATOM     20  N   UNL     1       6.002   6.938  -0.605  1.00  0.00    -0.354 N 
ATOM     21  C   UNL     1       6.917   6.247   3.554  1.00  0.00     0.074 A 
ATOM     22  C   UNL     1       6.333   5.007   4.018  1.00  0.00     0.031 C 
ATOM     23  C   UNL     1       5.105   6.485  -2.603  1.00  0.00     0.029 A 
ATOM     24  C   UNL     1       5.896   7.467  -1.867  1.00  0.00     0.049 A 
ATOM     25  H   UNL     1       6.501   7.374   0.123  1.00  0.00     0.167 HD
ATOM     26  C   UNL     1       7.660   7.081   4.322  1.00  0.00     0.037 A 
ATOM     27  C   UNL     1       6.369   8.620  -2.372  1.00  0.00     0.037 A 
ATOM     28  C   UNL     1       8.258   8.306   3.853  1.00  0.00     0.049 A 
ATOM     29  C   UNL     1       7.168   9.539  -1.493  1.00  0.00     0.074 A 
ATOM     30  C   UNL     1       9.069   9.191   4.543  1.00  0.00     0.029 A 
ATOM     31  N   UNL     1       8.102   8.823   2.575  1.00  0.00    -0.354 N 
ATOM     32  N   UNL     1       7.519   9.386  -0.240  1.00  0.00    -0.248 NA
ATOM     33  C   UNL     1       7.634  10.793  -2.099  1.00  0.00     0.031 C 
ATOM     34  C   UNL     1       9.367  10.265   3.697  1.00  0.00     0.029 A 
ATOM     35  C   UNL     1       8.780  10.027   2.465  1.00  0.00     0.049 A 
ATOM     36  H   UNL     1       7.587   8.397   1.853  1.00  0.00     0.167 HD
ATOM     37  C   UNL     1       8.257  10.513   0.090  1.00  0.00     0.074 A 
ATOM     38  C   UNL     1       8.320  11.334  -1.102  1.00  0.00     0.031 C 
ATOM     39  C   UNL     1       8.829  10.838   1.275  1.00  0.00     0.037 A 
BRANCH  26  40
ATOM     40  C   UNL     1       7.861   6.707   5.763  1.00  0.00     0.064 A 
ATOM     41  C   UNL     1       8.698   5.647   6.141  1.00  0.00     0.173 A 
ATOM     42  C   UNL     1       7.245   7.451   6.782  1.00  0.00     0.173 A 
ATOM     43  F   UNL     1       9.303   4.899   5.207  1.00  0.00    -0.203 F 
ATOM     44  C   UNL     1       8.889   5.328   7.484  1.00  0.00     0.198 A 
ATOM     45  C   UNL     1       7.460   7.147   8.123  1.00  0.00     0.198 A 
ATOM     46  F   UNL     1       6.442   8.481   6.475  1.00  0.00    -0.203 F 
ATOM     47  F   UNL     1       9.660   4.284   7.820  1.00  0.00    -0.200 F 
ATOM     48  C   UNL     1       8.275   6.082   8.474  1.00  0.00     0.200 A 
ATOM     49  F   UNL     1       6.876   7.884   9.079  1.00  0.00    -0.200 F 
ATOM     50  F   UNL     1       8.466   5.778   9.765  1.00  0.00    -0.200 F 
ENDBRANCH  26  40
BRANCH  27  51
ATOM     51  C   UNL     1       6.099   8.959  -3.792  1.00  0.00     0.064 A 
ATOM     52  C   UNL     1       7.123   8.922  -4.747  1.00  0.00     0.173 A 
ATOM     53  C   UNL     1       4.808   9.291  -4.227  1.00  0.00     0.173 A 
ATOM     54  F   UNL     1       8.377   8.629  -4.373  1.00  0.00    -0.203 F 
ATOM     55  C   UNL     1       6.866   9.210  -6.085  1.00  0.00     0.198 A 
ATOM     56  C   UNL     1       4.547   9.552  -5.569  1.00  0.00     0.198 A 
ATOM     57  F   UNL     1       3.794   9.334  -3.349  1.00  0.00    -0.203 F 
ATOM     58  F   UNL     1       7.867   9.195  -6.975  1.00  0.00    -0.200 F 
ATOM     59  C   UNL     1       5.577   9.516  -6.497  1.00  0.00     0.200 A 
ATOM     60  F   UNL     1       3.298   9.831  -5.965  1.00  0.00    -0.200 F 
ATOM     61  F   UNL     1       5.328   9.777  -7.787  1.00  0.00    -0.200 F 
ENDBRANCH  27  51
BRANCH  39  62
ATOM     62  C   UNL     1       9.589  12.130   1.334  1.00  0.00     0.064 A 
ATOM     63  C   UNL     1       8.930  13.368   1.344  1.00  0.00     0.173 A 
ATOM     64  C   UNL     1      10.990  12.129   1.405  1.00  0.00     0.173 A 
ATOM     65  F   UNL     1       7.593  13.421   1.260  1.00  0.00    -0.203 F 
ATOM     66  C   UNL     1       9.648  14.560   1.398  1.00  0.00     0.198 A 
ATOM     67  C   UNL     1      11.704  13.322   1.485  1.00  0.00     0.198 A 
ATOM     68  F   UNL     1      11.667  10.971   1.402  1.00  0.00    -0.203 F 
ATOM     69  F   UNL     1       9.001  15.733   1.359  1.00  0.00    -0.200 F 
ATOM     70  C   UNL     1      11.033  14.536   1.474  1.00  0.00     0.200 A 
ATOM     71  F   UNL     1      13.041  13.297   1.568  1.00  0.00    -0.200 F 
ATOM     72  F   UNL     1      11.723  15.684   1.528  1.00  0.00    -0.200 F 
ENDBRANCH  39  62
ENDBRANCH  13  14
ENDBRANCH   6   8
ENDBRANCH   3   4
ENDBRANCH   2   3
ENDBRANCH   1   2
BRANCH   1  73
ATOM     73  C   UNL     1       4.971  -4.392   1.277  1.00  0.00     0.116 C 
BRANCH  73  74
ATOM     74  N   UNL     1       6.360  -4.420   0.863  1.00  0.00    -0.352 N 
ATOM     75  C   UNL     1       7.007  -5.372   0.112  1.00  0.00     0.253 C 
ATOM     76  H   UNL     1       6.911  -3.660   1.159  1.00  0.00     0.163 HD
ATOM     77  O   UNL     1       8.192  -5.200  -0.174  1.00  0.00    -0.269 OA
BRANCH  75  78
ATOM     78  C   UNL     1       6.324  -6.628  -0.316  1.00  0.00     0.065 A 
ATOM     79  C   UNL     1       7.034  -7.792  -0.007  1.00  0.00     0.042 A 
ATOM     80  C   UNL     1       5.101  -6.695  -1.017  1.00  0.00     0.050 A 
ATOM     81  C   UNL     1       6.464  -9.049  -0.134  1.00  0.00     0.042 A 
ATOM     82  C   UNL     1       4.545  -7.974  -1.185  1.00  0.00     0.029 A 
ATOM     83  C   UNL     1       5.210  -9.133  -0.739  1.00  0.00     0.028 A 
BRANCH  80  84
ATOM     84  N   UNL     1       4.544  -5.569  -1.612  1.00  0.00    -0.360 N 
ATOM     85  C   UNL     1       3.157  -5.471  -2.109  1.00  0.00     0.178 C 
ATOM     86  C   UNL     1       5.482  -4.845  -2.476  1.00  0.00     0.178 C 
ATOM     87  C   UNL     1       2.775  -3.982  -2.424  1.00  0.00     0.284 C 
ATOM     88  C   UNL     1       5.124  -3.361  -2.472  1.00  0.00     0.284 C 
ATOM     89  N   UNL     1       3.797  -3.083  -3.013  1.00  0.00    -0.324 N 
ATOM     90  H   UNL     1       3.521  -2.150  -2.705  1.00  0.00     0.348 HD
BRANCH  89  91
ATOM     91  C   UNL     1       3.772  -2.918  -4.476  1.00  0.00     0.363 C 
BRANCH  91  92
ATOM     92  C   UNL     1       3.977  -4.186  -5.312  1.00  0.00     0.277 C 
ATOM     93  O   UNL     1       3.034  -4.973  -5.454  1.00  0.00    -0.268 OA
ATOM     94  N   UNL     1       5.207  -4.412  -5.940  1.00  0.00    -0.333 N 
ATOM     95  C   UNL     1       6.512  -3.909  -5.477  1.00  0.00     0.148 C 
ATOM     96  C   UNL     1       5.286  -5.573  -6.832  1.00  0.00     0.148 C 
ATOM     97  C   UNL     1       7.620  -3.936  -6.532  1.00  0.00     0.181 C 
ATOM     98  C   UNL     1       6.402  -5.429  -7.866  1.00  0.00     0.181 C 
ATOM     99  O   UNL     1       7.659  -5.188  -7.224  1.00  0.00    -0.378 OA
ENDBRANCH  91  92
ENDBRANCH  89  91
ENDBRANCH  80  84
BRANCH  81 100
ATOM    100  N   UNL     1       7.084 -10.235   0.312  1.00  0.00    -0.322 N 
ATOM    101  C   UNL     1       8.175 -10.447   1.137  1.00  0.00     0.255 C 
ATOM    102  H   UNL     1       6.665 -11.060  -0.024  1.00  0.00     0.170 HD
ATOM    103  O   UNL     1       8.655 -11.572   1.255  1.00  0.00    -0.269 OA
BRANCH 101 104
ATOM    104  C   UNL     1       8.774  -9.342   1.917  1.00  0.00     0.041 A 
ATOM    105  C   UNL     1      10.117  -9.014   1.688  1.00  0.00     0.014 A 
ATOM    106  C   UNL     1       7.984  -8.562   2.771  1.00  0.00     0.034 A 
ATOM    107  C   UNL     1      10.644  -7.847   2.243  1.00  0.00     0.002 A 
ATOM    108  C   UNL     1       8.515  -7.385   3.295  1.00  0.00     0.041 A 
ATOM    109  C   UNL     1       9.835  -7.020   3.026  1.00  0.00     0.020 A 
ATOM    110  Cl  UNL     1       7.504  -6.328   4.202  1.00  0.00    -0.084 Cl
ENDBRANCH 101 104
ENDBRANCH  81 100
ENDBRANCH  75  78
ENDBRANCH  73  74
ENDBRANCH   1  73
TORSDOF 16
