REMARK SMILES O=C(NCCCCNC(=O)c1ccc2c(c1)[C@@H]1C=CC[C@@H]1[C@H](c1ccncc1)N2)c1ccc(-c2c3nc(c(-c4c(F)c(F)c(F)c(F)c4F)c4ccc([nH]4)c(-c4c(F)c(F)c(F)c(F)c4F)c4nc(c(-c5c(F)c(F)c(F)c(F)c5F)c5ccc2[nH]5)C=C4)C=C3)cc1
REMARK SMILES IDX 5 1 4 2 3 3 1 4 2 5 30 7 31 8 92 9 32 10 91 11 33 12 34 13
REMARK SMILES IDX 35 14 85 15 36 16 90 17 84 18 86 19 37 20 89 21 83 22 82 23
REMARK SMILES IDX 38 25 70 26 50 27 69 28 51 29 54 30 68 31 87 32 52 33 53 34
REMARK SMILES IDX 67 36 88 37 55 38 39 39 40 40 48 41 41 42 42 43 46 44 49 45
REMARK SMILES IDX 43 46 44 47 47 48 45 49 71 50 72 51 80 52 73 53 74 54 78 55
REMARK SMILES IDX 81 56 75 57 76 58 79 59 77 60 56 61 57 62 65 63 58 64 59 65
REMARK SMILES IDX 63 66 66 67 60 68 61 69 64 70 62 71 6 72 7 73 8 74 9 75
REMARK SMILES IDX 10 77 11 78 12 79 16 80 13 81 15 82 14 83 17 84 29 85 18 86
REMARK SMILES IDX 21 87 22 88 19 90 20 91 23 92 24 93 28 94 25 95 27 96 26 97
REMARK H PARENT 3 6 86 24 54 35 8 76 29 89
REMARK Flexibility Score: inf
ROOT
ATOM      1  C   UNL     1       4.897   1.582  -2.178  1.00  0.00     0.023 C 
ENDROOT
BRANCH   1   2
ATOM      2  C   UNL     1       4.566   1.071  -0.783  1.00  0.00     0.116 C 
BRANCH   2   3
ATOM      3  N   UNL     1       3.136   0.976  -0.531  1.00  0.00    -0.352 N 
ATOM      4  O   UNL     1       1.177  -0.039  -0.048  1.00  0.00    -0.269 OA
ATOM      5  C   UNL     1       2.402  -0.100  -0.091  1.00  0.00     0.251 C 
ATOM      6  H   UNL     1       2.621   1.798  -0.699  1.00  0.00     0.163 HD
BRANCH   5   7
ATOM      7  C   UNL     1       3.093  -1.347   0.302  1.00  0.00     0.039 A 
ATOM      8  C   UNL     1       4.227  -1.304   1.114  1.00  0.00     0.014 A 
ATOM      9  C   UNL     1       2.603  -2.573  -0.158  1.00  0.00     0.014 A 
ATOM     10  C   UNL     1       4.958  -2.464   1.338  1.00  0.00     0.010 A 
ATOM     11  C   UNL     1       3.290  -3.753   0.146  1.00  0.00     0.010 A 
ATOM     12  C   UNL     1       4.490  -3.704   0.870  1.00  0.00    -0.014 A 
BRANCH  12  13
ATOM     13  C   UNL     1       5.244  -4.934   1.220  1.00  0.00     0.031 A 
ATOM     14  C   UNL     1       5.920  -5.766   0.167  1.00  0.00     0.074 A 
ATOM     15  C   UNL     1       5.348  -5.269   2.520  1.00  0.00     0.049 A 
ATOM     16  N   UNL     1       6.651  -6.844   0.315  1.00  0.00    -0.248 NA
ATOM     17  C   UNL     1       5.754  -5.343  -1.231  1.00  0.00     0.031 C 
ATOM     18  C   UNL     1       4.718  -4.544   3.626  1.00  0.00     0.029 A 
ATOM     19  N   UNL     1       6.035  -6.282   3.137  1.00  0.00    -0.354 N 
ATOM     20  C   UNL     1       7.018  -7.235  -0.966  1.00  0.00     0.074 A 
ATOM     21  C   UNL     1       6.411  -6.294  -1.883  1.00  0.00     0.031 C 
ATOM     22  C   UNL     1       5.089  -5.102   4.787  1.00  0.00     0.029 A 
ATOM     23  C   UNL     1       5.931  -6.259   4.506  1.00  0.00     0.049 A 
ATOM     24  H   UNL     1       6.552  -6.961   2.646  1.00  0.00     0.167 HD
ATOM     25  C   UNL     1       7.798  -8.280  -1.337  1.00  0.00     0.037 A 
ATOM     26  C   UNL     1       6.446  -7.085   5.434  1.00  0.00     0.037 A 
ATOM     27  C   UNL     1       8.413  -9.203  -0.416  1.00  0.00     0.049 A 
ATOM     28  C   UNL     1       7.296  -8.239   4.990  1.00  0.00     0.074 A 
ATOM     29  C   UNL     1       9.246 -10.274  -0.694  1.00  0.00     0.029 A 
ATOM     30  N   UNL     1       8.261  -9.165   0.962  1.00  0.00    -0.354 N 
ATOM     31  N   UNL     1       7.659  -8.578   3.777  1.00  0.00    -0.248 NA
ATOM     32  C   UNL     1       7.804  -9.127   6.043  1.00  0.00     0.031 C 
ATOM     33  C   UNL     1       9.564 -10.908   0.512  1.00  0.00     0.029 A 
ATOM     34  C   UNL     1       8.967 -10.206   1.546  1.00  0.00     0.049 A 
ATOM     35  H   UNL     1       7.730  -8.498   1.454  1.00  0.00     0.167 HD
ATOM     36  C   UNL     1       8.444  -9.712   3.920  1.00  0.00     0.074 A 
ATOM     37  C   UNL     1       8.529  -9.986   5.340  1.00  0.00     0.031 C 
ATOM     38  C   UNL     1       9.034 -10.466   2.961  1.00  0.00     0.037 A 
BRANCH  25  39
ATOM     39  C   UNL     1       8.031  -8.495  -2.804  1.00  0.00     0.064 A 
ATOM     40  C   UNL     1       8.880  -7.660  -3.544  1.00  0.00     0.173 A 
ATOM     41  C   UNL     1       7.456  -9.594  -3.461  1.00  0.00     0.173 A 
ATOM     42  F   UNL     1       9.447  -6.590  -2.965  1.00  0.00    -0.203 F 
ATOM     43  C   UNL     1       9.133  -7.908  -4.891  1.00  0.00     0.198 A 
ATOM     44  C   UNL     1       7.730  -9.853  -4.802  1.00  0.00     0.198 A 
ATOM     45  F   UNL     1       6.642 -10.429  -2.797  1.00  0.00    -0.203 F 
ATOM     46  F   UNL     1       9.925  -7.079  -5.587  1.00  0.00    -0.200 F 
ATOM     47  C   UNL     1       8.566  -9.008  -5.516  1.00  0.00     0.200 A 
ATOM     48  F   UNL     1       7.191 -10.924  -5.401  1.00  0.00    -0.200 F 
ATOM     49  F   UNL     1       8.822  -9.253  -6.809  1.00  0.00    -0.200 F 
ENDBRANCH  25  39
BRANCH  26  50
ATOM     50  C   UNL     1       6.160  -6.848   6.872  1.00  0.00     0.064 A 
ATOM     51  C   UNL     1       7.170  -6.438   7.751  1.00  0.00     0.173 A 
ATOM     52  C   UNL     1       4.868  -7.016   7.391  1.00  0.00     0.173 A 
ATOM     53  F   UNL     1       8.425  -6.282   7.304  1.00  0.00    -0.203 F 
ATOM     54  C   UNL     1       6.903  -6.222   9.101  1.00  0.00     0.198 A 
ATOM     55  C   UNL     1       4.595  -6.769   8.734  1.00  0.00     0.198 A 
ATOM     56  F   UNL     1       3.865  -7.401   6.588  1.00  0.00    -0.203 F 
ATOM     57  F   UNL     1       7.895  -5.871   9.930  1.00  0.00    -0.200 F 
ATOM     58  C   UNL     1       5.614  -6.380   9.590  1.00  0.00     0.200 A 
ATOM     59  F   UNL     1       3.345  -6.907   9.198  1.00  0.00    -0.200 F 
ATOM     60  F   UNL     1       5.356  -6.164  10.887  1.00  0.00    -0.200 F 
ENDBRANCH  26  50
BRANCH  38  61
ATOM     61  C   UNL     1       9.831 -11.648   3.425  1.00  0.00     0.064 A 
ATOM     62  C   UNL     1       9.206 -12.798   3.930  1.00  0.00     0.173 A 
ATOM     63  C   UNL     1      11.232 -11.635   3.355  1.00  0.00     0.173 A 
ATOM     64  F   UNL     1       7.870 -12.849   4.033  1.00  0.00    -0.203 F 
ATOM     65  C   UNL     1       9.957 -13.881   4.377  1.00  0.00     0.198 A 
ATOM     66  C   UNL     1      11.978 -12.731   3.777  1.00  0.00     0.198 A 
ATOM     67  F   UNL     1      11.876 -10.560   2.876  1.00  0.00    -0.203 F 
ATOM     68  F   UNL     1       9.342 -14.948   4.905  1.00  0.00    -0.200 F 
ATOM     69  C   UNL     1      11.342 -13.849   4.295  1.00  0.00     0.200 A 
ATOM     70  F   UNL     1      13.315 -12.703   3.690  1.00  0.00    -0.200 F 
ATOM     71  F   UNL     1      12.063 -14.892   4.727  1.00  0.00    -0.200 F 
ENDBRANCH  38  61
ENDBRANCH  12  13
ENDBRANCH   5   7
ENDBRANCH   2   3
ENDBRANCH   1   2
BRANCH   1  72
ATOM     72  C   UNL     1       4.413   2.995  -2.484  1.00  0.00     0.023 C 
BRANCH  72  73
ATOM     73  C   UNL     1       4.803   4.053  -1.457  1.00  0.00     0.116 C 
BRANCH  73  74
ATOM     74  N   UNL     1       6.243   4.170  -1.283  1.00  0.00    -0.352 N 
ATOM     75  C   UNL     1       7.053   5.265  -1.472  1.00  0.00     0.251 C 
ATOM     76  H   UNL     1       6.702   3.351  -0.989  1.00  0.00     0.163 HD
ATOM     77  O   UNL     1       8.273   5.155  -1.413  1.00  0.00    -0.269 OA
BRANCH  75  78
ATOM     78  C   UNL     1       6.441   6.575  -1.770  1.00  0.00     0.040 A 
ATOM     79  C   UNL     1       6.858   7.280  -2.896  1.00  0.00     0.016 A 
ATOM     80  C   UNL     1       5.418   7.076  -0.965  1.00  0.00     0.020 A 
ATOM     81  C   UNL     1       6.212   8.470  -3.235  1.00  0.00     0.027 A 
ATOM     82  C   UNL     1       4.711   8.223  -1.354  1.00  0.00    -0.017 A 
ATOM     83  C   UNL     1       5.149   8.964  -2.463  1.00  0.00     0.038 A 
ATOM     84  C   UNL     1       3.467   8.620  -0.591  1.00  0.00     0.049 C 
ATOM     85  N   UNL     1       4.495  10.121  -2.869  1.00  0.00    -0.378 N 
ATOM     86  C   UNL     1       2.427   7.523  -0.572  1.00  0.00    -0.023 C 
ATOM     87  C   UNL     1       2.666   9.752  -1.257  1.00  0.00     0.031 C 
ATOM     88  C   UNL     1       3.576  10.773  -1.944  1.00  0.00     0.114 C 
ATOM     89  H   UNL     1       4.649  10.495  -3.766  1.00  0.00     0.161 HD
ATOM     90  C   UNL     1       1.431   7.758  -1.435  1.00  0.00    -0.030 C 
ATOM     91  C   UNL     1       1.634   9.051  -2.158  1.00  0.00     0.034 C 
BRANCH  88  92
ATOM     92  C   UNL     1       2.786  11.893  -2.604  1.00  0.00    -0.022 A 
ATOM     93  C   UNL     1       2.060  12.783  -1.798  1.00  0.00     0.026 A 
ATOM     94  C   UNL     1       2.732  12.086  -3.990  1.00  0.00     0.026 A 
ATOM     95  C   UNL     1       1.336  13.803  -2.396  1.00  0.00     0.111 A 
ATOM     96  C   UNL     1       1.993  13.147  -4.493  1.00  0.00     0.111 A 
ATOM     97  N   UNL     1       1.293  14.009  -3.727  1.00  0.00    -0.265 NA
ENDBRANCH  88  92
ENDBRANCH  75  78
ENDBRANCH  73  74
ENDBRANCH  72  73
ENDBRANCH   1  72
TORSDOF 12
