REMARK SMILES O=C(NCCCCNC(=O)c1ccc(S(=O)(=O)[O-])cc1N1C(=O)/C(=C\C=C\c2ccccc2)[NH+]=C1c1ccccc1)c1ccc(-c2c3nc(c(-c4c(F)c(F)c(F)c(F)c4F)c4ccc([nH]4)c(-c4c(F)c(F)c(F)c(F)c4F)c4nc(c(-c5c(F)c(F)c(F)c(F)c5F)c5ccc2[nH]5)C=C4)C=C3)cc1
REMARK SMILES IDX 6 1 5 2 4 3 3 4 1 5 2 6 42 8 43 9 104 10 44 11 103 12 45 13
REMARK SMILES IDX 46 14 47 15 97 16 48 17 102 18 96 19 98 20 49 21 101 22
REMARK SMILES IDX 95 23 94 24 50 26 82 27 62 28 81 29 63 30 66 31 80 32 99 33
REMARK SMILES IDX 64 34 65 35 79 37 100 38 67 39 51 40 52 41 60 42 53 43 54 44
REMARK SMILES IDX 58 45 61 46 55 47 56 48 59 49 57 50 83 51 84 52 92 53 85 54
REMARK SMILES IDX 86 55 90 56 93 57 87 58 88 59 91 60 89 61 68 62 69 63 77 64
REMARK SMILES IDX 70 65 71 66 75 67 78 68 72 69 73 70 76 71 74 72 7 73 8 74
REMARK SMILES IDX 9 75 10 77 11 78 12 79 20 80 13 81 19 82 14 83 21 84 22 85
REMARK SMILES IDX 35 86 23 87 24 88 34 89 25 90 36 92 37 93 41 94 38 95 40 96
REMARK SMILES IDX 39 97 26 98 27 99 28 100 29 101 33 102 30 103 32 104 31 105
REMARK SMILES IDX 15 106 16 107 17 108 18 109
REMARK H PARENT 3 7 98 25 66 36 8 76 34 91
REMARK Flexibility Score: inf
ROOT
ATOM      1  C   UNL     1       4.907   0.074  -3.565  1.00  0.00     0.023 C 
ENDROOT
BRANCH   1   2
ATOM      2  C   UNL     1       5.183  -0.637  -2.258  1.00  0.00     0.023 C 
BRANCH   2   3
ATOM      3  C   UNL     1       4.675   0.082  -1.018  1.00  0.00     0.116 C 
BRANCH   3   4
ATOM      4  N   UNL     1       3.223   0.232  -0.945  1.00  0.00    -0.352 N 
ATOM      5  O   UNL     1       1.172  -0.001   0.015  1.00  0.00    -0.269 OA
ATOM      6  C   UNL     1       2.389  -0.105   0.103  1.00  0.00     0.251 C 
ATOM      7  H   UNL     1       2.788   0.620  -1.738  1.00  0.00     0.163 HD
BRANCH   6   8
ATOM      8  C   UNL     1       3.006  -0.645   1.332  1.00  0.00     0.039 A 
ATOM      9  C   UNL     1       4.111   0.009   1.873  1.00  0.00     0.014 A 
ATOM     10  C   UNL     1       2.585  -1.874   1.845  1.00  0.00     0.014 A 
ATOM     11  C   UNL     1       4.937  -0.680   2.743  1.00  0.00     0.010 A 
ATOM     12  C   UNL     1       3.338  -2.494   2.848  1.00  0.00     0.010 A 
ATOM     13  C   UNL     1       4.550  -1.925   3.270  1.00  0.00    -0.014 A 
BRANCH  13  14
ATOM     14  C   UNL     1       5.412  -2.543   4.312  1.00  0.00     0.031 A 
ATOM     15  C   UNL     1       6.047  -3.894   4.133  1.00  0.00     0.074 A 
ATOM     16  C   UNL     1       5.674  -1.813   5.415  1.00  0.00     0.049 A 
ATOM     17  N   UNL     1       6.862  -4.532   4.939  1.00  0.00    -0.248 NA
ATOM     18  C   UNL     1       5.727  -4.635   2.904  1.00  0.00     0.031 C 
ATOM     19  C   UNL     1       5.098  -0.495   5.705  1.00  0.00     0.029 A 
ATOM     20  N   UNL     1       6.510  -2.045   6.476  1.00  0.00    -0.354 N 
ATOM     21  C   UNL     1       7.143  -5.745   4.324  1.00  0.00     0.074 A 
ATOM     22  C   UNL     1       6.382  -5.774   3.092  1.00  0.00     0.031 C 
ATOM     23  C   UNL     1       5.652  -0.005   6.819  1.00  0.00     0.029 A 
ATOM     24  C   UNL     1       6.541  -1.012   7.380  1.00  0.00     0.049 A 
ATOM     25  H   UNL     1       7.037  -2.870   6.579  1.00  0.00     0.167 HD
ATOM     26  C   UNL     1       7.970  -6.735   4.745  1.00  0.00     0.037 A 
ATOM     27  C   UNL     1       7.184  -0.895   8.554  1.00  0.00     0.037 A 
ATOM     28  C   UNL     1       8.722  -6.694   5.976  1.00  0.00     0.049 A 
ATOM     29  C   UNL     1       8.060  -2.024   9.009  1.00  0.00     0.074 A 
ATOM     30  C   UNL     1       9.589  -7.644   6.491  1.00  0.00     0.029 A 
ATOM     31  N   UNL     1       8.697  -5.647   6.888  1.00  0.00    -0.354 N 
ATOM     32  N   UNL     1       8.329  -3.156   8.406  1.00  0.00    -0.248 NA
ATOM     33  C   UNL     1       8.721  -1.859  10.308  1.00  0.00     0.031 C 
ATOM     34  C   UNL     1      10.045  -7.197   7.736  1.00  0.00     0.029 A 
ATOM     35  C   UNL     1       9.517  -5.938   7.969  1.00  0.00     0.049 A 
ATOM     36  H   UNL     1       8.174  -4.820   6.782  1.00  0.00     0.167 HD
ATOM     37  C   UNL     1       9.203  -3.833   9.243  1.00  0.00     0.074 A 
ATOM     38  C   UNL     1       9.446  -2.965  10.378  1.00  0.00     0.031 C 
ATOM     39  C   UNL     1       9.746  -5.065   9.093  1.00  0.00     0.037 A 
BRANCH  26  40
ATOM     40  C   UNL     1       8.105  -7.957   3.878  1.00  0.00     0.064 A 
ATOM     41  C   UNL     1       8.765  -7.912   2.640  1.00  0.00     0.173 A 
ATOM     42  C   UNL     1       7.631  -9.203   4.318  1.00  0.00     0.173 A 
ATOM     43  F   UNL     1       9.233  -6.748   2.166  1.00  0.00    -0.203 F 
ATOM     44  C   UNL     1       8.926  -9.062   1.869  1.00  0.00     0.198 A 
ATOM     45  C   UNL     1       7.821 -10.356   3.559  1.00  0.00     0.198 A 
ATOM     46  F   UNL     1       7.000  -9.308   5.498  1.00  0.00    -0.203 F 
ATOM     47  F   UNL     1       9.524  -8.986   0.672  1.00  0.00    -0.200 F 
ATOM     48  C   UNL     1       8.462 -10.284   2.333  1.00  0.00     0.200 A 
ATOM     49  F   UNL     1       7.388 -11.538   4.018  1.00  0.00    -0.200 F 
ATOM     50  F   UNL     1       8.631 -11.390   1.596  1.00  0.00    -0.200 F 
ENDBRANCH  26  40
BRANCH  27  51
ATOM     51  C   UNL     1       6.985   0.318   9.390  1.00  0.00     0.064 A 
ATOM     52  C   UNL     1       8.040   1.198   9.662  1.00  0.00     0.173 A 
ATOM     53  C   UNL     1       5.728   0.617   9.940  1.00  0.00     0.173 A 
ATOM     54  F   UNL     1       9.263   0.951   9.169  1.00  0.00    -0.203 F 
ATOM     55  C   UNL     1       7.854   2.311  10.480  1.00  0.00     0.198 A 
ATOM     56  C   UNL     1       5.534   1.752  10.721  1.00  0.00     0.198 A 
ATOM     57  F   UNL     1       4.680  -0.185   9.700  1.00  0.00    -0.203 F 
ATOM     58  F   UNL     1       8.895   3.101  10.777  1.00  0.00    -0.200 F 
ATOM     59  C   UNL     1       6.601   2.590  11.003  1.00  0.00     0.200 A 
ATOM     60  F   UNL     1       4.314   2.031  11.200  1.00  0.00    -0.200 F 
ATOM     61  F   UNL     1       6.423   3.662  11.786  1.00  0.00    -0.200 F 
ENDBRANCH  27  51
BRANCH  39  62
ATOM     62  C   UNL     1      10.685  -5.525  10.172  1.00  0.00     0.064 A 
ATOM     63  C   UNL     1      10.234  -5.819  11.468  1.00  0.00     0.173 A 
ATOM     64  C   UNL     1      12.056  -5.665   9.907  1.00  0.00     0.173 A 
ATOM     65  F   UNL     1       8.936  -5.684  11.779  1.00  0.00    -0.203 F 
ATOM     66  C   UNL     1      11.127  -6.191  12.470  1.00  0.00     0.198 A 
ATOM     67  C   UNL     1      12.940  -6.076  10.901  1.00  0.00     0.198 A 
ATOM     68  F   UNL     1      12.540  -5.403   8.684  1.00  0.00    -0.203 F 
ATOM     69  F   UNL     1      10.683  -6.393  13.718  1.00  0.00    -0.200 F 
ATOM     70  C   UNL     1      12.477  -6.325  12.184  1.00  0.00     0.200 A 
ATOM     71  F   UNL     1      14.242  -6.219  10.619  1.00  0.00    -0.200 F 
ATOM     72  F   UNL     1      13.335  -6.681  13.150  1.00  0.00    -0.200 F 
ENDBRANCH  39  62
ENDBRANCH  13  14
ENDBRANCH   6   8
ENDBRANCH   3   4
ENDBRANCH   2   3
ENDBRANCH   1   2
BRANCH   1  73
ATOM     73  C   UNL     1       5.357   1.522  -3.599  1.00  0.00     0.116 C 
BRANCH  73  74
ATOM     74  N   UNL     1       6.746   1.769  -3.872  1.00  0.00    -0.352 N 
ATOM     75  C   UNL     1       7.308   2.525  -4.881  1.00  0.00     0.255 C 
ATOM     76  H   UNL     1       7.383   1.342  -3.256  1.00  0.00     0.163 HD
ATOM     77  O   UNL     1       8.534   2.580  -4.953  1.00  0.00    -0.269 OA
BRANCH  75  78
ATOM     78  C   UNL     1       6.493   3.172  -5.963  1.00  0.00     0.087 A 
ATOM     79  C   UNL     1       6.942   2.882  -7.267  1.00  0.00     0.019 A 
ATOM     80  C   UNL     1       5.332   3.969  -5.805  1.00  0.00     0.150 A 
ATOM     81  C   UNL     1       6.254   3.347  -8.390  1.00  0.00     0.020 A 
ATOM     82  C   UNL     1       4.655   4.443  -6.939  1.00  0.00     0.072 A 
ATOM     83  C   UNL     1       5.112   4.126  -8.216  1.00  0.00     0.059 A 
BRANCH  80  84
ATOM     84  N   UNL     1       4.805   4.327  -4.549  1.00  0.00    -0.153 N 
ATOM     85  C   UNL     1       5.571   4.913  -3.575  1.00  0.00     0.385 C 
ATOM     86  C   UNL     1       3.512   4.226  -4.085  1.00  0.00     0.295 C 
ATOM     87  O   UNL     1       6.735   5.268  -3.628  1.00  0.00    -0.236 OA
ATOM     88  C   UNL     1       4.599   5.085  -2.451  1.00  0.00     0.215 C 
ATOM     89  N   UNL     1       3.345   4.665  -2.865  1.00  0.00    -0.233 N 
ATOM     90  C   UNL     1       4.886   5.537  -1.219  1.00  0.00     0.060 C 
ATOM     91  H   UNL     1       2.506   4.692  -2.350  1.00  0.00     0.312 HD
BRANCH  86  92
ATOM     92  C   UNL     1       2.392   3.573  -4.841  1.00  0.00     0.065 A 
ATOM     93  C   UNL     1       1.108   4.113  -4.721  1.00  0.00     0.017 A 
ATOM     94  C   UNL     1       2.544   2.389  -5.585  1.00  0.00     0.017 A 
ATOM     95  C   UNL     1       0.013   3.480  -5.325  1.00  0.00     0.001 A 
ATOM     96  C   UNL     1       1.447   1.736  -6.150  1.00  0.00     0.001 A 
ATOM     97  C   UNL     1       0.180   2.284  -6.022  1.00  0.00     0.000 A 
ENDBRANCH  86  92
BRANCH  90  98
ATOM     98  C   UNL     1       6.188   5.989  -0.763  1.00  0.00     0.005 C 
ATOM     99  C   UNL     1       6.451   6.507   0.448  1.00  0.00     0.008 C 
BRANCH  99 100
ATOM    100  C   UNL     1       7.781   7.049   0.788  1.00  0.00    -0.026 A 
ATOM    101  C   UNL     1       8.319   6.851   2.065  1.00  0.00     0.008 A 
ATOM    102  C   UNL     1       8.507   7.824  -0.131  1.00  0.00     0.008 A 
ATOM    103  C   UNL     1       9.565   7.392   2.404  1.00  0.00     0.001 A 
ATOM    104  C   UNL     1       9.750   8.365   0.207  1.00  0.00     0.001 A 
ATOM    105  C   UNL     1      10.280   8.147   1.475  1.00  0.00     0.000 A 
ENDBRANCH  99 100
ENDBRANCH  90  98
ENDBRANCH  80  84
BRANCH  83 106
ATOM    106  S   UNL     1       4.235   4.707  -9.637  1.00  0.00     0.124 S 
ATOM    107  O   UNL     1       5.090   5.639 -10.335  1.00  0.00    -0.237 OA
ATOM    108  O   UNL     1       3.659   3.554 -10.291  1.00  0.00    -0.237 OA
ATOM    109  O   UNL     1       2.996   5.567  -9.059  1.00  0.00    -0.744 OA
ENDBRANCH  83 106
ENDBRANCH  75  78
ENDBRANCH  73  74
ENDBRANCH   1  73
TORSDOF 16
