REMARK SMILES O=C(NCCCCNC(=O)c1ccc(Br)c(NC(=S)NC(=O)c2ccc(F)cc2)c1)c1ccc(-c2c3nc(c(-c4c(F)c(F)c(F)c(F)c4F)c4ccc([nH]4)c(-c4c(F)c(F)c(F)c(F)c4F)c4nc(c(-c5c(F)c(F)c(F)c(F)c5F)c5ccc2[nH]5)C=C4)C=C3)cc1
REMARK SMILES IDX 6 1 5 2 4 3 3 4 1 5 2 6 31 8 32 9 93 10 33 11 92 12 34 13
REMARK SMILES IDX 35 14 36 15 86 16 37 17 91 18 85 19 87 20 38 21 90 22 84 23
REMARK SMILES IDX 83 24 39 26 71 27 51 28 70 29 52 30 55 31 69 32 88 33 53 34
REMARK SMILES IDX 54 35 68 37 89 38 56 39 40 40 41 41 49 42 42 43 43 44 47 45
REMARK SMILES IDX 50 46 44 47 45 48 48 49 46 50 72 51 73 52 81 53 74 54 75 55
REMARK SMILES IDX 79 56 82 57 76 58 77 59 80 60 78 61 57 62 58 63 66 64 59 65
REMARK SMILES IDX 60 66 64 67 67 68 61 69 62 70 65 71 63 72 7 73 8 74 9 75
REMARK SMILES IDX 10 77 11 78 12 79 30 80 13 81 16 82 14 83 15 84 17 85 18 87
REMARK SMILES IDX 19 88 20 89 21 90 22 92 23 93 24 94 29 95 25 96 28 97 26 98
REMARK SMILES IDX 27 99
REMARK H PARENT 3 7 87 25 55 36 8 76 17 86 20 91
REMARK Flexibility Score: inf
ROOT
ATOM      1  C   UNL     1       4.171  -3.553   0.755  1.00  0.00     0.023 C 
ENDROOT
BRANCH   1   2
ATOM      2  C   UNL     1       4.854  -2.264   1.192  1.00  0.00     0.023 C 
BRANCH   2   3
ATOM      3  C   UNL     1       4.517  -1.066   0.318  1.00  0.00     0.116 C 
BRANCH   3   4
ATOM      4  N   UNL     1       3.090  -0.958   0.020  1.00  0.00    -0.352 N 
ATOM      5  O   UNL     1       1.088   0.085  -0.146  1.00  0.00    -0.269 OA
ATOM      6  C   UNL     1       2.299   0.160   0.015  1.00  0.00     0.251 C 
ATOM      7  H   UNL     1       2.636  -1.802  -0.207  1.00  0.00     0.163 HD
BRANCH   6   8
ATOM      8  C   UNL     1       2.953   1.453   0.247  1.00  0.00     0.039 A 
ATOM      9  C   UNL     1       4.096   1.778  -0.486  1.00  0.00     0.014 A 
ATOM     10  C   UNL     1       2.487   2.275   1.272  1.00  0.00     0.014 A 
ATOM     11  C   UNL     1       4.871   2.848  -0.082  1.00  0.00     0.010 A 
ATOM     12  C   UNL     1       3.210   3.418   1.600  1.00  0.00     0.010 A 
ATOM     13  C   UNL     1       4.421   3.693   0.946  1.00  0.00    -0.014 A 
BRANCH  13  14
ATOM     14  C   UNL     1       5.201   4.908   1.263  1.00  0.00     0.031 A 
ATOM     15  C   UNL     1       5.833   5.100   2.607  1.00  0.00     0.074 A 
ATOM     16  C   UNL     1       5.342   5.831   0.294  1.00  0.00     0.049 A 
ATOM     17  N   UNL     1       6.531   6.116   3.047  1.00  0.00    -0.248 NA
ATOM     18  C   UNL     1       5.654   4.022   3.592  1.00  0.00     0.031 C 
ATOM     19  C   UNL     1       4.765   5.729  -1.049  1.00  0.00     0.029 A 
ATOM     20  N   UNL     1       6.024   7.017   0.274  1.00  0.00    -0.354 N 
ATOM     21  C   UNL     1       6.859   5.810   4.360  1.00  0.00     0.074 A 
ATOM     22  C   UNL     1       6.257   4.528   4.659  1.00  0.00     0.031 C 
ATOM     23  C   UNL     1       5.167   6.776  -1.780  1.00  0.00     0.029 A 
ATOM     24  C   UNL     1       5.955   7.662  -0.934  1.00  0.00     0.049 A 
ATOM     25  H   UNL     1       6.516   7.371   1.050  1.00  0.00     0.167 HD
ATOM     26  C   UNL     1       7.604   6.537   5.227  1.00  0.00     0.037 A 
ATOM     27  C   UNL     1       6.451   8.852  -1.316  1.00  0.00     0.037 A 
ATOM     28  C   UNL     1       8.199   7.810   4.903  1.00  0.00     0.049 A 
ATOM     29  C   UNL     1       7.230   9.658  -0.322  1.00  0.00     0.074 A 
ATOM     30  C   UNL     1       8.988   8.620   5.700  1.00  0.00     0.029 A 
ATOM     31  N   UNL     1       8.066   8.460   3.682  1.00  0.00    -0.354 N 
ATOM     32  N   UNL     1       7.542   9.359   0.916  1.00  0.00    -0.248 NA
ATOM     33  C   UNL     1       7.719  10.966  -0.771  1.00  0.00     0.031 C 
ATOM     34  C   UNL     1       9.281   9.784   4.985  1.00  0.00     0.029 A 
ATOM     35  C   UNL     1       8.736   9.673   3.716  1.00  0.00     0.049 A 
ATOM     36  H   UNL     1       7.569   8.110   2.907  1.00  0.00     0.167 HD
ATOM     37  C   UNL     1       8.279  10.432   1.392  1.00  0.00     0.074 A 
ATOM     38  C   UNL     1       8.378  11.383   0.302  1.00  0.00     0.031 C 
ATOM     39  C   UNL     1       8.823  10.609   2.620  1.00  0.00     0.037 A 
BRANCH  26  40
ATOM     40  C   UNL     1       7.804   5.991   6.612  1.00  0.00     0.064 A 
ATOM     41  C   UNL     1       7.242   6.643   7.721  1.00  0.00     0.173 A 
ATOM     42  C   UNL     1       8.592   4.856   6.854  1.00  0.00     0.173 A 
ATOM     43  F   UNL     1       6.484   7.737   7.551  1.00  0.00    -0.203 F 
ATOM     44  C   UNL     1       7.471   6.186   9.017  1.00  0.00     0.198 A 
ATOM     45  C   UNL     1       8.792   4.382   8.149  1.00  0.00     0.198 A 
ATOM     46  F   UNL     1       9.144   4.186   5.830  1.00  0.00    -0.203 F 
ATOM     47  F   UNL     1       6.949   6.846  10.061  1.00  0.00    -0.200 F 
ATOM     48  C   UNL     1       8.239   5.053   9.229  1.00  0.00     0.200 A 
ATOM     49  F   UNL     1       9.512   3.270   8.350  1.00  0.00    -0.200 F 
ATOM     50  F   UNL     1       8.443   4.603  10.475  1.00  0.00    -0.200 F 
ENDBRANCH  26  40
BRANCH  27  51
ATOM     51  C   UNL     1       6.222   9.312  -2.707  1.00  0.00     0.064 A 
ATOM     52  C   UNL     1       4.935   9.638  -3.164  1.00  0.00     0.173 A 
ATOM     53  C   UNL     1       7.271   9.338  -3.634  1.00  0.00     0.173 A 
ATOM     54  F   UNL     1       3.895   9.610  -2.317  1.00  0.00    -0.203 F 
ATOM     55  C   UNL     1       4.702   9.937  -4.503  1.00  0.00     0.198 A 
ATOM     56  C   UNL     1       7.042   9.668  -4.967  1.00  0.00     0.198 A 
ATOM     57  F   UNL     1       8.519   9.043  -3.240  1.00  0.00    -0.203 F 
ATOM     58  F   UNL     1       3.455  10.185  -4.925  1.00  0.00    -0.200 F 
ATOM     59  C   UNL     1       5.756   9.954  -5.404  1.00  0.00     0.200 A 
ATOM     60  F   UNL     1       8.065   9.698  -5.832  1.00  0.00    -0.200 F 
ATOM     61  F   UNL     1       5.532  10.239  -6.694  1.00  0.00    -0.200 F 
ENDBRANCH  27  51
BRANCH  39  62
ATOM     62  C   UNL     1       9.602  11.870   2.854  1.00  0.00     0.064 A 
ATOM     63  C   UNL     1      10.994  11.819   3.033  1.00  0.00     0.173 A 
ATOM     64  C   UNL     1       8.969  13.115   2.977  1.00  0.00     0.173 A 
ATOM     65  F   UNL     1      11.646  10.651   2.930  1.00  0.00    -0.203 F 
ATOM     66  C   UNL     1      11.718  12.964   3.347  1.00  0.00     0.198 A 
ATOM     67  C   UNL     1       9.701  14.264   3.259  1.00  0.00     0.198 A 
ATOM     68  F   UNL     1       7.643  13.218   2.799  1.00  0.00    -0.203 F 
ATOM     69  F   UNL     1      13.040  12.883   3.554  1.00  0.00    -0.200 F 
ATOM     70  C   UNL     1      11.072  14.186   3.456  1.00  0.00     0.200 A 
ATOM     71  F   UNL     1       9.081  15.449   3.338  1.00  0.00    -0.200 F 
ATOM     72  F   UNL     1      11.772  15.290   3.750  1.00  0.00    -0.200 F 
ENDBRANCH  39  62
ENDBRANCH  13  14
ENDBRANCH   6   8
ENDBRANCH   3   4
ENDBRANCH   2   3
ENDBRANCH   1   2
BRANCH   1  73
ATOM     73  C   UNL     1       4.351  -3.860  -0.734  1.00  0.00     0.116 C 
BRANCH  73  74
ATOM     74  N   UNL     1       5.678  -4.466  -0.966  1.00  0.00    -0.352 N 
ATOM     75  C   UNL     1       6.373  -5.791  -1.116  1.00  0.00     0.251 C 
ATOM     76  H   UNL     1       6.344  -3.747  -1.053  1.00  0.00     0.163 HD
ATOM     77  O   UNL     1       7.500  -5.221  -0.875  1.00  0.00    -0.269 OA
BRANCH  75  78
ATOM     78  C   UNL     1       5.795  -7.800  -1.573  1.00  0.00     0.041 A 
ATOM     79  C   UNL     1       5.178  -8.445  -2.810  1.00  0.00     0.015 A 
ATOM     80  C   UNL     1       5.963  -9.015  -0.743  1.00  0.00     0.041 A 
ATOM     81  C   UNL     1       4.996  -9.828  -3.103  1.00  0.00     0.018 A 
ATOM     82  C   UNL     1       6.152 -10.330  -1.127  1.00  0.00     0.055 A 
ATOM     83  C   UNL     1       5.540 -10.779  -2.269  1.00  0.00     0.041 A 
ATOM     84  Br  UNL     1       5.431 -12.607  -2.711  1.00  0.00    -0.049 Br
BRANCH  82  85
ATOM     85  N   UNL     1       6.971 -11.102  -0.299  1.00  0.00    -0.331 N 
ATOM     86  H   UNL     1       6.822 -12.073  -0.366  1.00  0.00     0.169 HD
BRANCH  85  87
ATOM     87  C   UNL     1       7.938 -10.740   0.583  1.00  0.00     0.177 C 
ATOM     88  S   UNL     1       8.605 -11.970   1.512  1.00  0.00    -0.040 S 
BRANCH  87  89
ATOM     89  N   UNL     1       8.503  -9.469   0.743  1.00  0.00    -0.299 N 
ATOM     90  C   UNL     1       8.589  -8.074   0.410  1.00  0.00     0.257 C 
ATOM     91  H   UNL     1       9.191  -9.595   1.436  1.00  0.00     0.172 HD
ATOM     92  O   UNL     1       9.586  -7.449   0.767  1.00  0.00    -0.269 OA
BRANCH  90  93
ATOM     93  C   UNL     1       7.540  -7.347  -0.327  1.00  0.00     0.040 A 
ATOM     94  C   UNL     1       5.936  -6.973   0.477  1.00  0.00     0.017 A 
ATOM     95  C   UNL     1       7.749  -7.051  -2.109  1.00  0.00     0.017 A 
ATOM     96  C   UNL     1       4.506  -6.511  -0.542  1.00  0.00     0.040 A 
ATOM     97  C   UNL     1       6.397  -6.333  -3.082  1.00  0.00     0.040 A 
ATOM     98  C   UNL     1       4.750  -6.115  -2.319  1.00  0.00     0.123 A 
ATOM     99  F   UNL     1       3.717  -5.708  -3.071  1.00  0.00    -0.207 F 
ENDBRANCH  90  93
ENDBRANCH  87  89
ENDBRANCH  85  87
ENDBRANCH  82  85
ENDBRANCH  75  78
ENDBRANCH  73  74
ENDBRANCH   1  73
TORSDOF 15
