REMARK SMILES O=C(Cc1cncnc1N1CCC2(CC1)OCCC[C@@H]2O)NCCCCNC(=O)c1ccc(-c2c3nc(c(-c4c(F)c(F)c(F)c(F)c4F)c4ccc([nH]4)c(-c4c(F)c(F)c(F)c(F)c4F)c4nc(c(-c5c(F)c(F)c(F)c(F)c5F)c5ccc2[nH]5)C=C4)C=C3)cc1
REMARK SMILES IDX 24 1 23 2 22 3 1 4 2 5 3 7 4 8 5 9 9 10 6 11 8 12 7 13 10 14
REMARK SMILES IDX 11 15 15 16 12 17 14 18 13 19 16 20 20 21 17 22 19 23 18 24
REMARK SMILES IDX 21 25 25 27 26 28 27 29 28 30 29 32 30 33 31 34 92 35 32 36
REMARK SMILES IDX 91 37 33 38 34 39 35 40 85 41 36 42 90 43 84 44 86 45 37 46
REMARK SMILES IDX 89 47 83 48 82 49 38 51 70 52 50 53 69 54 51 55 54 56 68 57
REMARK SMILES IDX 87 58 52 59 53 60 67 62 88 63 55 64 39 65 40 66 48 67 41 68
REMARK SMILES IDX 42 69 46 70 49 71 43 72 44 73 47 74 45 75 71 76 72 77 80 78
REMARK SMILES IDX 73 79 74 80 78 81 81 82 75 83 76 84 79 85 77 86 56 87 57 88
REMARK SMILES IDX 65 89 58 90 59 91 63 92 66 93 60 94 61 95 64 96 62 97
REMARK H PARENT 22 6 21 26 27 31 86 50 54 61
REMARK Flexibility Score: inf
ROOT
ATOM      1  C   UNL     1       3.944   2.093   3.718  1.00  0.00     0.023 C 
ENDROOT
BRANCH   1   2
ATOM      2  C   UNL     1       3.085   1.292   2.746  1.00  0.00     0.116 C 
BRANCH   2   3
ATOM      3  N   UNL     1       3.741   0.341   1.852  1.00  0.00    -0.356 N 
ATOM      4  O   UNL     1       1.762  -0.680   1.317  1.00  0.00    -0.275 OA
ATOM      5  C   UNL     1       2.956  -0.509   1.071  1.00  0.00     0.224 C 
ATOM      6  H   UNL     1       4.724   0.301   1.801  1.00  0.00     0.163 HD
BRANCH   5   7
ATOM      7  C   UNL     1       3.637  -1.288  -0.037  1.00  0.00     0.141 C 
BRANCH   7   8
ATOM      8  C   UNL     1       4.048  -0.753  -1.411  1.00  0.00     0.022 A 
ATOM      9  C   UNL     1       5.016  -1.571  -2.016  1.00  0.00     0.121 A 
ATOM     10  C   UNL     1       3.542   0.247  -2.264  1.00  0.00     0.135 A 
ATOM     11  N   UNL     1       5.505  -1.446  -3.259  1.00  0.00    -0.244 NA
ATOM     12  N   UNL     1       4.020   0.381  -3.527  1.00  0.00    -0.219 NA
ATOM     13  C   UNL     1       4.967  -0.457  -3.962  1.00  0.00     0.224 A 
BRANCH  10  14
ATOM     14  N   UNL     1       2.548   1.149  -1.955  1.00  0.00    -0.356 N 
ATOM     15  C   UNL     1       1.855   1.953  -2.980  1.00  0.00     0.121 C 
ATOM     16  C   UNL     1       2.633   1.877  -0.722  1.00  0.00     0.121 C 
ATOM     17  C   UNL     1       0.453   2.413  -2.470  1.00  0.00     0.060 C 
ATOM     18  C   UNL     1       1.222   1.834  -0.172  1.00  0.00     0.060 C 
ATOM     19  C   UNL     1       0.369   2.816  -0.965  1.00  0.00     0.097 C 
ATOM     20  O   UNL     1       0.973   4.099  -0.683  1.00  0.00    -0.372 OA
ATOM     21  C   UNL     1      -1.084   2.774  -0.398  1.00  0.00     0.146 C 
ATOM     22  C   UNL     1       0.245   5.247  -1.096  1.00  0.00     0.161 C 
ATOM     23  C   UNL     1      -1.895   4.002  -0.795  1.00  0.00     0.037 C 
ATOM     24  C   UNL     1      -1.133   5.280  -0.461  1.00  0.00     0.031 C 
BRANCH  21  25
ATOM     25  O   UNL     1      -1.085   2.741   1.041  1.00  0.00    -0.390 OA
ATOM     26  H   UNL     1      -0.684   3.556   1.383  1.00  0.00     0.211 HD
ENDBRANCH  21  25
ENDBRANCH  10  14
ENDBRANCH   7   8
ENDBRANCH   5   7
ENDBRANCH   2   3
ENDBRANCH   1   2
BRANCH   1  27
ATOM     27  C   UNL     1       5.095   2.908   3.119  1.00  0.00     0.023 C 
BRANCH  27  28
ATOM     28  C   UNL     1       4.795   3.750   1.878  1.00  0.00     0.116 C 
BRANCH  28  29
ATOM     29  N   UNL     1       4.075   4.990   2.122  1.00  0.00    -0.352 N 
ATOM     30  C   UNL     1       4.524   6.295   2.175  1.00  0.00     0.251 C 
ATOM     31  H   UNL     1       3.109   4.881   2.275  1.00  0.00     0.163 HD
ATOM     32  O   UNL     1       3.748   7.206   2.416  1.00  0.00    -0.269 OA
BRANCH  30  33
ATOM     33  C   UNL     1       5.965   6.594   2.002  1.00  0.00     0.039 A 
ATOM     34  C   UNL     1       6.609   7.364   2.975  1.00  0.00     0.014 A 
ATOM     35  C   UNL     1       6.688   6.106   0.913  1.00  0.00     0.014 A 
ATOM     36  C   UNL     1       7.996   7.531   2.924  1.00  0.00     0.010 A 
ATOM     37  C   UNL     1       8.079   6.199   0.907  1.00  0.00     0.010 A 
ATOM     38  C   UNL     1       8.751   6.890   1.927  1.00  0.00    -0.014 A 
BRANCH  38  39
ATOM     39  C   UNL     1      10.238   6.884   1.971  1.00  0.00     0.031 A 
ATOM     40  C   UNL     1      11.043   7.496   0.859  1.00  0.00     0.074 A 
ATOM     41  C   UNL     1      10.868   6.243   2.977  1.00  0.00     0.049 A 
ATOM     42  N   UNL     1      12.342   7.512   0.688  1.00  0.00    -0.248 NA
ATOM     43  C   UNL     1      10.289   8.153  -0.219  1.00  0.00     0.031 C 
ATOM     44  C   UNL     1      10.207   5.556   4.088  1.00  0.00     0.029 A 
ATOM     45  N   UNL     1      12.207   6.055   3.224  1.00  0.00    -0.354 N 
ATOM     46  C   UNL     1      12.558   8.159  -0.521  1.00  0.00     0.074 A 
ATOM     47  C   UNL     1      11.255   8.480  -1.065  1.00  0.00     0.031 C 
ATOM     48  C   UNL     1      11.139   5.046   4.910  1.00  0.00     0.029 A 
ATOM     49  C   UNL     1      12.462   5.335   4.366  1.00  0.00     0.049 A 
ATOM     50  H   UNL     1      12.916   6.404   2.637  1.00  0.00     0.167 HD
ATOM     51  C   UNL     1      13.734   8.476  -1.113  1.00  0.00     0.037 A 
ATOM     52  C   UNL     1      13.630   4.945   4.912  1.00  0.00     0.037 A 
ATOM     53  C   UNL     1      15.030   8.188  -0.557  1.00  0.00     0.049 A 
ATOM     54  C   UNL     1      14.922   5.318   4.237  1.00  0.00     0.074 A 
ATOM     55  C   UNL     1      16.277   8.538  -1.047  1.00  0.00     0.029 A 
ATOM     56  N   UNL     1      15.247   7.478   0.615  1.00  0.00    -0.354 N 
ATOM     57  N   UNL     1      15.112   5.999   3.134  1.00  0.00    -0.248 NA
ATOM     58  C   UNL     1      16.162   4.872   4.888  1.00  0.00     0.031 C 
ATOM     59  C   UNL     1      17.249   8.004  -0.195  1.00  0.00     0.029 A 
ATOM     60  C   UNL     1      16.608   7.362   0.852  1.00  0.00     0.049 A 
ATOM     61  H   UNL     1      14.540   7.112   1.193  1.00  0.00     0.167 HD
ATOM     62  C   UNL     1      16.488   6.090   2.975  1.00  0.00     0.074 A 
ATOM     63  C   UNL     1      17.086   5.404   4.101  1.00  0.00     0.031 C 
ATOM     64  C   UNL     1      17.192   6.688   1.983  1.00  0.00     0.037 A 
BRANCH  51  65
ATOM     65  C   UNL     1      13.677   9.182  -2.437  1.00  0.00     0.064 A 
ATOM     66  C   UNL     1      13.254  10.515  -2.541  1.00  0.00     0.173 A 
ATOM     67  C   UNL     1      14.091   8.531  -3.610  1.00  0.00     0.173 A 
ATOM     68  F   UNL     1      12.839  11.179  -1.451  1.00  0.00    -0.203 F 
ATOM     69  C   UNL     1      13.219  11.162  -3.773  1.00  0.00     0.198 A 
ATOM     70  C   UNL     1      14.083   9.191  -4.836  1.00  0.00     0.198 A 
ATOM     71  F   UNL     1      14.512   7.259  -3.565  1.00  0.00    -0.203 F 
ATOM     72  F   UNL     1      12.766  12.421  -3.855  1.00  0.00    -0.200 F 
ATOM     73  C   UNL     1      13.640  10.502  -4.918  1.00  0.00     0.200 A 
ATOM     74  F   UNL     1      14.502   8.556  -5.939  1.00  0.00    -0.200 F 
ATOM     75  F   UNL     1      13.613  11.129  -6.103  1.00  0.00    -0.200 F 
ENDBRANCH  51  65
BRANCH  52  76
ATOM     76  C   UNL     1      13.637   4.180   6.187  1.00  0.00     0.064 A 
ATOM     77  C   UNL     1      14.101   4.768   7.372  1.00  0.00     0.173 A 
ATOM     78  C   UNL     1      13.197   2.850   6.247  1.00  0.00     0.173 A 
ATOM     79  F   UNL     1      14.553   6.031   7.360  1.00  0.00    -0.203 F 
ATOM     80  C   UNL     1      14.145   4.048   8.564  1.00  0.00     0.198 A 
ATOM     81  C   UNL     1      13.216   2.140   7.445  1.00  0.00     0.198 A 
ATOM     82  F   UNL     1      12.740   2.243   5.142  1.00  0.00    -0.203 F 
ATOM     83  F   UNL     1      14.637   4.620   9.671  1.00  0.00    -0.200 F 
ATOM     84  C   UNL     1      13.697   2.737   8.601  1.00  0.00     0.200 A 
ATOM     85  F   UNL     1      12.770   0.877   7.480  1.00  0.00    -0.200 F 
ATOM     86  F   UNL     1      13.738   2.045   9.748  1.00  0.00    -0.200 F 
ENDBRANCH  52  76
BRANCH  64  87
ATOM     87  C   UNL     1      18.688   6.663   2.089  1.00  0.00     0.064 A 
ATOM     88  C   UNL     1      19.423   5.489   1.868  1.00  0.00     0.173 A 
ATOM     89  C   UNL     1      19.398   7.839   2.376  1.00  0.00     0.173 A 
ATOM     90  F   UNL     1      18.790   4.336   1.607  1.00  0.00    -0.203 F 
ATOM     91  C   UNL     1      20.813   5.489   1.953  1.00  0.00     0.198 A 
ATOM     92  C   UNL     1      20.789   7.841   2.432  1.00  0.00     0.198 A 
ATOM     93  F   UNL     1      18.742   8.989   2.591  1.00  0.00    -0.203 F 
ATOM     94  F   UNL     1      21.492   4.347   1.782  1.00  0.00    -0.200 F 
ATOM     95  C   UNL     1      21.494   6.666   2.227  1.00  0.00     0.200 A 
ATOM     96  F   UNL     1      21.446   8.981   2.685  1.00  0.00    -0.200 F 
ATOM     97  F   UNL     1      22.833   6.665   2.301  1.00  0.00    -0.200 F 
ENDBRANCH  64  87
ENDBRANCH  38  39
ENDBRANCH  30  33
ENDBRANCH  28  29
ENDBRANCH  27  28
ENDBRANCH   1  27
TORSDOF 14
