REMARK SMILES C=CC[N@@H+](CC(=O)NCCCCNC(=O)c1ccc(-c2c3nc(c(-c4c(F)c(F)c(F)c(F)c4F)c4ccc([nH]4)c(-c4c(F)c(F)c(F)c(F)c4F)c4nc(c(-c5c(F)c(F)c(F)c(F)c5F)c5ccc2[nH]5)C=C4)C=C3)cc1)C[C@H]1C[N@@H+](C(C)C)CCO1
REMARK SMILES IDX 9 1 8 2 6 3 7 4 5 6 4 7 3 9 2 10 1 11 79 12 80 13 81 14
REMARK SMILES IDX 88 15 82 16 87 17 86 18 83 20 84 21 85 22 10 23 11 24 12 25
REMARK SMILES IDX 13 26 14 27 15 29 16 30 17 31 78 32 18 33 77 34 19 35 20 36
REMARK SMILES IDX 21 37 71 38 22 39 76 40 70 41 72 42 23 43 75 44 69 45 68 46
REMARK SMILES IDX 24 48 56 49 36 50 55 51 37 52 40 53 54 54 73 55 38 56 39 57
REMARK SMILES IDX 53 59 74 60 41 61 25 62 26 63 34 64 27 65 28 66 32 67 35 68
REMARK SMILES IDX 29 69 30 70 33 71 31 72 57 73 58 74 66 75 59 76 60 77 64 78
REMARK SMILES IDX 67 79 61 80 62 81 65 82 63 83 42 84 43 85 51 86 44 87 45 88
REMARK SMILES IDX 49 89 52 90 46 91 47 92 50 93 48 94
REMARK H PARENT 8 5 4 8 82 19 13 28 72 47 40 58
REMARK Flexibility Score: inf
ROOT
ATOM      1  C   UNL     1      -1.264   5.926  -1.865  1.00  0.00     0.116 C 
ENDROOT
BRANCH   1   2
ATOM      2  N   UNL     1      -0.889   4.574  -2.224  1.00  0.00    -0.351 N 
ATOM      3  C   UNL     1      -1.649   3.462  -2.449  1.00  0.00     0.275 C 
ATOM      4  O   UNL     1      -1.046   2.444  -2.805  1.00  0.00    -0.269 OA
ATOM      5  H   UNL     1       0.080   4.432  -2.322  1.00  0.00     0.163 HD
BRANCH   3   6
ATOM      6  C   UNL     1      -3.174   3.452  -2.304  1.00  0.00     0.363 C 
BRANCH   6   7
ATOM      7  N   UNL     1      -3.717   3.373  -0.929  1.00  0.00    -0.322 N 
ATOM      8  H   UNL     1      -4.651   2.963  -0.950  1.00  0.00     0.348 HD
BRANCH   7   9
ATOM      9  C   UNL     1      -4.093   4.665  -0.395  1.00  0.00     0.290 C 
BRANCH   9  10
ATOM     10  C   UNL     1      -4.867   4.771   0.879  1.00  0.00     0.025 C 
ATOM     11  C   UNL     1      -4.526   5.621   1.862  1.00  0.00     0.010 C 
ENDBRANCH   9  10
ENDBRANCH   7   9
BRANCH   7  12
ATOM     12  C   UNL     1      -3.254   2.252  -0.090  1.00  0.00     0.301 C 
BRANCH  12  13
ATOM     13  C   UNL     1      -1.812   2.208   0.505  1.00  0.00     0.228 C 
ATOM     14  C   UNL     1      -1.550   3.085   1.740  1.00  0.00     0.300 C 
ATOM     15  O   UNL     1      -1.311   0.862   0.676  1.00  0.00    -0.361 OA
ATOM     16  N   UNL     1      -1.877   2.500   3.048  1.00  0.00    -0.329 N 
ATOM     17  C   UNL     1      -1.519   0.259   1.954  1.00  0.00     0.222 C 
ATOM     18  C   UNL     1      -1.245   1.186   3.147  1.00  0.00     0.291 C 
ATOM     19  H   UNL     1      -1.468   3.052   3.802  1.00  0.00     0.348 HD
BRANCH  16  20
ATOM     20  C   UNL     1      -3.291   2.622   3.416  1.00  0.00     0.177 C 
ATOM     21  C   UNL     1      -4.171   1.372   3.452  1.00  0.00     0.075 C 
ATOM     22  C   UNL     1      -3.354   3.333   4.770  1.00  0.00     0.075 C 
ENDBRANCH  16  20
ENDBRANCH  12  13
ENDBRANCH   7  12
ENDBRANCH   6   7
ENDBRANCH   3   6
ENDBRANCH   1   2
BRANCH   1  23
ATOM     23  C   UNL     1      -1.034   6.202  -0.378  1.00  0.00     0.023 C 
BRANCH  23  24
ATOM     24  C   UNL     1       0.399   6.436   0.062  1.00  0.00     0.023 C 
BRANCH  24  25
ATOM     25  C   UNL     1       1.011   7.705  -0.487  1.00  0.00     0.116 C 
BRANCH  25  26
ATOM     26  N   UNL     1       0.288   8.915  -0.114  1.00  0.00    -0.352 N 
ATOM     27  C   UNL     1       0.807  10.133   0.268  1.00  0.00     0.251 C 
ATOM     28  H   UNL     1      -0.694   8.854  -0.137  1.00  0.00     0.163 HD
ATOM     29  O   UNL     1       0.086  11.038   0.649  1.00  0.00    -0.269 OA
BRANCH  27  30
ATOM     30  C   UNL     1       2.275  10.296   0.245  1.00  0.00     0.039 A 
ATOM     31  C   UNL     1       2.925  10.790   1.377  1.00  0.00     0.014 A 
ATOM     32  C   UNL     1       3.002   9.846  -0.859  1.00  0.00     0.014 A 
ATOM     33  C   UNL     1       4.318  10.758   1.427  1.00  0.00     0.010 A 
ATOM     34  C   UNL     1       4.373   9.696  -0.753  1.00  0.00     0.010 A 
ATOM     35  C   UNL     1       5.048  10.172   0.380  1.00  0.00    -0.014 A 
BRANCH  35  36
ATOM     36  C   UNL     1       6.526  10.086   0.410  1.00  0.00     0.031 A 
ATOM     37  C   UNL     1       7.318  10.772  -0.669  1.00  0.00     0.074 A 
ATOM     38  C   UNL     1       7.140   9.329   1.339  1.00  0.00     0.049 A 
ATOM     39  N   UNL     1       8.604  10.735  -0.907  1.00  0.00    -0.248 NA
ATOM     40  C   UNL     1       6.553  11.565  -1.648  1.00  0.00     0.031 C 
ATOM     41  C   UNL     1       6.468   8.558   2.387  1.00  0.00     0.029 A 
ATOM     42  N   UNL     1       8.472   9.075   1.544  1.00  0.00    -0.354 N 
ATOM     43  C   UNL     1       8.789  11.464  -2.073  1.00  0.00     0.074 A 
ATOM     44  C   UNL     1       7.483  11.871  -2.537  1.00  0.00     0.031 C 
ATOM     45  C   UNL     1       7.392   7.943   3.143  1.00  0.00     0.029 A 
ATOM     46  C   UNL     1       8.717   8.248   2.613  1.00  0.00     0.049 A 
ATOM     47  H   UNL     1       9.185   9.449   0.978  1.00  0.00     0.167 HD
ATOM     48  C   UNL     1       9.950  11.798  -2.683  1.00  0.00     0.037 A 
ATOM     49  C   UNL     1       9.885   7.792   3.104  1.00  0.00     0.037 A 
ATOM     50  C   UNL     1      11.245  11.443  -2.175  1.00  0.00     0.049 A 
ATOM     51  C   UNL     1      11.166   8.221   2.440  1.00  0.00     0.074 A 
ATOM     52  C   UNL     1      12.490  11.799  -2.658  1.00  0.00     0.029 A 
ATOM     53  N   UNL     1      11.457  10.652  -1.054  1.00  0.00    -0.354 N 
ATOM     54  N   UNL     1      11.336   8.978   1.383  1.00  0.00    -0.248 NA
ATOM     55  C   UNL     1      12.417   7.743   3.043  1.00  0.00     0.031 C 
ATOM     56  C   UNL     1      13.458  11.195  -1.849  1.00  0.00     0.029 A 
ATOM     57  C   UNL     1      12.815  10.499  -0.836  1.00  0.00     0.049 A 
ATOM     58  H   UNL     1      10.747  10.260  -0.496  1.00  0.00     0.167 HD
ATOM     59  C   UNL     1      12.708   9.089   1.209  1.00  0.00     0.074 A 
ATOM     60  C   UNL     1      13.325   8.335   2.280  1.00  0.00     0.031 C 
ATOM     61  C   UNL     1      13.399   9.752   0.248  1.00  0.00     0.037 A 
BRANCH  48  62
ATOM     62  C   UNL     1       9.863  12.601  -3.948  1.00  0.00     0.064 A 
ATOM     63  C   UNL     1       9.422  13.934  -3.948  1.00  0.00     0.173 A 
ATOM     64  C   UNL     1      10.238  12.036  -5.176  1.00  0.00     0.173 A 
ATOM     65  F   UNL     1       9.035  14.517  -2.803  1.00  0.00    -0.203 F 
ATOM     66  C   UNL     1       9.326  14.659  -5.133  1.00  0.00     0.198 A 
ATOM     67  C   UNL     1      10.172  12.775  -6.355  1.00  0.00     0.198 A 
ATOM     68  F   UNL     1      10.667  10.766  -5.234  1.00  0.00    -0.203 F 
ATOM     69  F   UNL     1       8.844  15.909  -5.113  1.00  0.00    -0.200 F 
ATOM     70  C   UNL     1       9.707  14.081  -6.334  1.00  0.00     0.200 A 
ATOM     71  F   UNL     1      10.551  12.219  -7.514  1.00  0.00    -0.200 F 
ATOM     72  F   UNL     1       9.618  14.781  -7.473  1.00  0.00    -0.200 F 
ENDBRANCH  48  62
BRANCH  49  73
ATOM     73  C   UNL     1       9.898   6.919   4.307  1.00  0.00     0.064 A 
ATOM     74  C   UNL     1      10.382   7.394   5.535  1.00  0.00     0.173 A 
ATOM     75  C   UNL     1       9.429   5.598   4.260  1.00  0.00     0.173 A 
ATOM     76  F   UNL     1      10.857   8.645   5.627  1.00  0.00    -0.203 F 
ATOM     77  C   UNL     1      10.417   6.577   6.662  1.00  0.00     0.198 A 
ATOM     78  C   UNL     1       9.440   4.789   5.395  1.00  0.00     0.198 A 
ATOM     79  F   UNL     1       8.948   5.097   3.113  1.00  0.00    -0.203 F 
ATOM     80  F   UNL     1      10.926   7.044   7.810  1.00  0.00    -0.200 F 
ATOM     81  C   UNL     1       9.941   5.276   6.593  1.00  0.00     0.200 A 
ATOM     82  F   UNL     1       8.966   3.538   5.328  1.00  0.00    -0.200 F 
ATOM     83  F   UNL     1       9.972   4.491   7.678  1.00  0.00    -0.200 F 
ENDBRANCH  49  73
BRANCH  61  84
ATOM     84  C   UNL     1      14.895   9.718   0.334  1.00  0.00     0.064 A 
ATOM     85  C   UNL     1      15.621   8.561   0.020  1.00  0.00     0.173 A 
ATOM     86  C   UNL     1      15.610  10.873   0.683  1.00  0.00     0.173 A 
ATOM     87  F   UNL     1      14.980   7.428  -0.307  1.00  0.00    -0.203 F 
ATOM     88  C   UNL     1      17.012   8.555   0.075  1.00  0.00     0.198 A 
ATOM     89  C   UNL     1      17.001  10.872   0.708  1.00  0.00     0.198 A 
ATOM     90  F   UNL     1      14.959  12.007   0.983  1.00  0.00    -0.203 F 
ATOM     91  F   UNL     1      17.686   7.427  -0.186  1.00  0.00    -0.200 F 
ATOM     92  C   UNL     1      17.700   9.712   0.410  1.00  0.00     0.200 A 
ATOM     93  F   UNL     1      17.664  11.994   1.017  1.00  0.00    -0.200 F 
ATOM     94  F   UNL     1      19.039   9.707   0.453  1.00  0.00    -0.200 F 
ENDBRANCH  61  84
ENDBRANCH  35  36
ENDBRANCH  27  30
ENDBRANCH  25  26
ENDBRANCH  24  25
ENDBRANCH  23  24
ENDBRANCH   1  23
TORSDOF 17
