REMARK SMILES CC(C)C(=O)Nc1ccc2c([C@H](C(=O)NCCCCNC(=O)c3ccc(-c4c5nc(c(-c6c(F)c(F)c(F)c(F)c6F)c6ccc([nH]6)c(-c6c(F)c(F)c(F)c(F)c6F)c6nc(c(-c7c(F)c(F)c(F)c(F)c7F)c7ccc4[nH]7)C=C6)C=C5)cc3)[NH+]3CC[NH+](CC(=O)N(C)C)CC3)c[nH]c2c1
REMARK SMILES IDX 17 1 16 2 15 3 13 4 14 5 12 7 11 8 7 9 8 10 101 11 9 12
REMARK SMILES IDX 100 13 10 14 99 15 98 16 6 18 4 19 5 20 2 22 1 23 3 24 86 25
REMARK SMILES IDX 87 26 97 27 88 29 96 30 89 31 90 33 91 34 92 35 93 36 94 37
REMARK SMILES IDX 95 38 18 39 19 40 20 41 21 42 22 44 23 45 24 46 85 47 25 48
REMARK SMILES IDX 84 49 26 50 27 51 28 52 78 53 29 54 83 55 77 56 79 57 30 58
REMARK SMILES IDX 82 59 76 60 75 61 31 63 63 64 43 65 62 66 44 67 47 68 61 69
REMARK SMILES IDX 80 70 45 71 46 72 60 74 81 75 48 76 32 77 33 78 41 79 34 80
REMARK SMILES IDX 35 81 39 82 42 83 36 84 37 85 40 86 38 87 64 88 65 89 73 90
REMARK SMILES IDX 66 91 67 92 71 93 74 94 68 95 69 96 72 97 70 98 49 99 50 100
REMARK SMILES IDX 58 101 51 102 52 103 56 104 59 105 53 106 54 107 57 108
REMARK SMILES IDX 55 109
REMARK H PARENT 15 6 99 17 6 21 86 28 89 32 20 43 79 62 47 73
REMARK Flexibility Score: inf
ROOT
ATOM      1  C   UNL     1       1.147  -2.345   4.817  1.00  0.00     0.023 C 
ENDROOT
BRANCH   1   2
ATOM      2  C   UNL     1       0.848  -0.936   4.247  1.00  0.00     0.116 C 
BRANCH   2   3
ATOM      3  N   UNL     1      -0.042  -0.215   5.153  1.00  0.00    -0.351 N 
ATOM      4  C   UNL     1       0.226   0.572   6.255  1.00  0.00     0.283 C 
ATOM      5  O   UNL     1      -0.592   0.441   7.175  1.00  0.00    -0.268 OA
ATOM      6  H   UNL     1      -0.999  -0.306   4.941  1.00  0.00     0.163 HD
BRANCH   4   7
ATOM      7  C   UNL     1       1.391   1.635   6.298  1.00  0.00     0.308 C 
BRANCH   7   8
ATOM      8  C   UNL     1       0.970   2.958   6.975  1.00  0.00     0.044 A 
ATOM      9  C   UNL     1       3.074   6.277   8.555  1.00  0.00     0.043 A 
ATOM     10  C   UNL     1       3.848   5.319   7.915  1.00  0.00     0.027 A 
ATOM     11  C   UNL     1       1.704   6.068   8.745  1.00  0.00     0.052 A 
ATOM     12  C   UNL     1       3.259   4.203   7.321  1.00  0.00     0.013 A 
ATOM     13  C   UNL     1       1.124   4.947   8.130  1.00  0.00     0.048 A 
ATOM     14  C   UNL     1       1.865   4.011   7.409  1.00  0.00     0.009 A 
ATOM     15  N   UNL     1      -0.183   4.529   8.092  1.00  0.00    -0.361 N 
ATOM     16  C   UNL     1      -0.294   3.370   7.370  1.00  0.00     0.094 A 
ATOM     17  H   UNL     1      -0.934   4.996   8.524  1.00  0.00     0.166 HD
BRANCH   9  18
ATOM     18  N   UNL     1       3.646   7.447   9.063  1.00  0.00    -0.326 N 
ATOM     19  C   UNL     1       4.579   8.282   8.517  1.00  0.00     0.226 C 
ATOM     20  O   UNL     1       5.100   9.120   9.263  1.00  0.00    -0.274 OA
ATOM     21  H   UNL     1       3.325   7.711   9.955  1.00  0.00     0.169 HD
BRANCH  19  22
ATOM     22  C   UNL     1       4.910   8.303   7.015  1.00  0.00     0.072 C 
ATOM     23  C   UNL     1       5.987   7.321   6.572  1.00  0.00     0.018 C 
ATOM     24  C   UNL     1       3.684   8.287   6.104  1.00  0.00     0.018 C 
ENDBRANCH  19  22
ENDBRANCH   9  18
ENDBRANCH   7   8
BRANCH   7  25
ATOM     25  N   UNL     1       2.611   1.214   7.015  1.00  0.00    -0.312 N 
ATOM     26  C   UNL     1       2.523   0.769   8.410  1.00  0.00     0.325 C 
ATOM     27  C   UNL     1       3.648   0.528   6.276  1.00  0.00     0.325 C 
ATOM     28  H   UNL     1       2.941   2.174   7.105  1.00  0.00     0.349 HD
ATOM     29  C   UNL     1       2.607  -0.762   8.663  1.00  0.00     0.325 C 
ATOM     30  C   UNL     1       3.415  -0.968   6.392  1.00  0.00     0.325 C 
ATOM     31  N   UNL     1       3.365  -1.581   7.704  1.00  0.00    -0.318 N 
ATOM     32  H   UNL     1       2.809  -2.431   7.614  1.00  0.00     0.348 HD
BRANCH  31  33
ATOM     33  C   UNL     1       4.626  -2.169   8.166  1.00  0.00     0.364 C 
BRANCH  33  34
ATOM     34  C   UNL     1       5.826  -1.235   7.994  1.00  0.00     0.277 C 
ATOM     35  O   UNL     1       6.116  -0.456   8.908  1.00  0.00    -0.268 OA
ATOM     36  N   UNL     1       6.513  -1.226   6.776  1.00  0.00    -0.344 N 
ATOM     37  C   UNL     1       6.388  -2.192   5.688  1.00  0.00     0.146 C 
ATOM     38  C   UNL     1       7.463  -0.153   6.537  1.00  0.00     0.146 C 
ENDBRANCH  33  34
ENDBRANCH  31  33
ENDBRANCH   7  25
ENDBRANCH   4   7
ENDBRANCH   2   3
ENDBRANCH   1   2
BRANCH   1  39
ATOM     39  C   UNL     1       0.265  -3.494   4.391  1.00  0.00     0.023 C 
BRANCH  39  40
ATOM     40  C   UNL     1       0.546  -4.006   2.997  1.00  0.00     0.116 C 
BRANCH  40  41
ATOM     41  N   UNL     1       1.903  -4.505   2.778  1.00  0.00    -0.352 N 
ATOM     42  C   UNL     1       2.318  -5.650   2.130  1.00  0.00     0.251 C 
ATOM     43  H   UNL     1       2.624  -3.944   3.146  1.00  0.00     0.163 HD
ATOM     44  O   UNL     1       3.509  -5.936   2.068  1.00  0.00    -0.269 OA
BRANCH  42  45
ATOM     45  C   UNL     1       1.300  -6.562   1.567  1.00  0.00     0.039 A 
ATOM     46  C   UNL     1       1.391  -7.932   1.813  1.00  0.00     0.014 A 
ATOM     47  C   UNL     1       0.187  -6.039   0.910  1.00  0.00     0.014 A 
ATOM     48  C   UNL     1       0.307  -8.756   1.503  1.00  0.00     0.010 A 
ATOM     49  C   UNL     1      -0.944  -6.824   0.763  1.00  0.00     0.010 A 
ATOM     50  C   UNL     1      -0.894  -8.197   1.035  1.00  0.00    -0.014 A 
BRANCH  50  51
ATOM     51  C   UNL     1      -2.103  -9.026   0.795  1.00  0.00     0.031 A 
ATOM     52  C   UNL     1      -2.752  -9.024  -0.566  1.00  0.00     0.074 A 
ATOM     53  C   UNL     1      -2.665  -9.707   1.813  1.00  0.00     0.049 A 
ATOM     54  N   UNL     1      -3.842  -9.628  -0.966  1.00  0.00    -0.248 NA
ATOM     55  C   UNL     1      -2.128  -8.183  -1.604  1.00  0.00     0.031 C 
ATOM     56  C   UNL     1      -2.205  -9.693   3.205  1.00  0.00     0.029 A 
ATOM     57  N   UNL     1      -3.751 -10.546   1.836  1.00  0.00    -0.354 N 
ATOM     58  C   UNL     1      -4.048  -9.206  -2.272  1.00  0.00     0.074 A 
ATOM     59  C   UNL     1      -3.025  -8.234  -2.575  1.00  0.00     0.031 C 
ATOM     60  C   UNL     1      -2.971 -10.523   3.932  1.00  0.00     0.029 A 
ATOM     61  C   UNL     1      -3.989 -11.109   3.067  1.00  0.00     0.049 A 
ATOM     62  H   UNL     1      -4.308 -10.727   1.045  1.00  0.00     0.167 HD
ATOM     63  C   UNL     1      -4.979  -9.625  -3.161  1.00  0.00     0.037 A 
ATOM     64  C   UNL     1      -4.914 -12.011   3.444  1.00  0.00     0.037 A 
ATOM     65  C   UNL     1      -5.937 -10.658  -2.882  1.00  0.00     0.049 A 
ATOM     66  C   UNL     1      -5.863 -12.550   2.407  1.00  0.00     0.074 A 
ATOM     67  C   UNL     1      -6.850 -11.244  -3.739  1.00  0.00     0.029 A 
ATOM     68  N   UNL     1      -6.090 -11.271  -1.647  1.00  0.00    -0.354 N 
ATOM     69  N   UNL     1      -5.979 -12.223   1.143  1.00  0.00    -0.248 NA
ATOM     70  C   UNL     1      -6.794 -13.599   2.844  1.00  0.00     0.031 C 
ATOM     71  C   UNL     1      -7.578 -12.194  -3.013  1.00  0.00     0.029 A 
ATOM     72  C   UNL     1      -7.090 -12.225  -1.716  1.00  0.00     0.049 A 
ATOM     73  H   UNL     1      -5.566 -11.058  -0.842  1.00  0.00     0.167 HD
ATOM     74  C   UNL     1      -6.980 -13.035   0.629  1.00  0.00     0.074 A 
ATOM     75  C   UNL     1      -7.417 -13.892   1.712  1.00  0.00     0.031 C 
ATOM     76  C   UNL     1      -7.500 -13.066  -0.623  1.00  0.00     0.037 A 
BRANCH  63  77
ATOM     77  C   UNL     1      -4.976  -8.995  -4.523  1.00  0.00     0.064 A 
ATOM     78  C   UNL     1      -3.936  -9.221  -5.438  1.00  0.00     0.173 A 
ATOM     79  C   UNL     1      -6.035  -8.170  -4.928  1.00  0.00     0.173 A 
ATOM     80  F   UNL     1      -2.889  -9.988  -5.095  1.00  0.00    -0.203 F 
ATOM     81  C   UNL     1      -3.940  -8.620  -6.694  1.00  0.00     0.198 A 
ATOM     82  C   UNL     1      -6.053  -7.596  -6.197  1.00  0.00     0.198 A 
ATOM     83  F   UNL     1      -7.055  -7.919  -4.093  1.00  0.00    -0.203 F 
ATOM     84  F   UNL     1      -2.906  -8.805  -7.527  1.00  0.00    -0.200 F 
ATOM     85  C   UNL     1      -5.002  -7.814  -7.075  1.00  0.00     0.200 A 
ATOM     86  F   UNL     1      -7.084  -6.824  -6.567  1.00  0.00    -0.200 F 
ATOM     87  F   UNL     1      -5.007  -7.240  -8.286  1.00  0.00    -0.200 F 
ENDBRANCH  63  77
BRANCH  64  88
ATOM     88  C   UNL     1      -4.948 -12.510   4.845  1.00  0.00     0.064 A 
ATOM     89  C   UNL     1      -4.564 -13.824   5.149  1.00  0.00     0.173 A 
ATOM     90  C   UNL     1      -5.374 -11.695   5.903  1.00  0.00     0.173 A 
ATOM     91  F   UNL     1      -4.165 -14.649   4.170  1.00  0.00    -0.203 F 
ATOM     92  C   UNL     1      -4.632 -14.313   6.453  1.00  0.00     0.198 A 
ATOM     93  C   UNL     1      -5.416 -12.176   7.211  1.00  0.00     0.198 A 
ATOM     94  F   UNL     1      -5.743 -10.428   5.667  1.00  0.00    -0.203 F 
ATOM     95  F   UNL     1      -4.308 -15.588   6.705  1.00  0.00    -0.200 F 
ATOM     96  C   UNL     1      -5.055 -13.487   7.483  1.00  0.00     0.200 A 
ATOM     97  F   UNL     1      -5.811 -11.371   8.206  1.00  0.00    -0.200 F 
ATOM     98  F   UNL     1      -5.122 -13.957   8.736  1.00  0.00    -0.200 F 
ENDBRANCH  64  88
BRANCH  76  99
ATOM     99  C   UNL     1      -8.582 -14.069  -0.884  1.00  0.00     0.064 A 
ATOM    100  C   UNL     1      -9.871 -13.909  -0.354  1.00  0.00     0.173 A 
ATOM    101  C   UNL     1      -8.335 -15.186  -1.696  1.00  0.00     0.173 A 
ATOM    102  F   UNL     1     -10.150 -12.863   0.438  1.00  0.00    -0.203 F 
ATOM    103  C   UNL     1     -10.865 -14.851  -0.600  1.00  0.00     0.198 A 
ATOM    104  C   UNL     1      -9.340 -16.110  -1.964  1.00  0.00     0.198 A 
ATOM    105  F   UNL     1      -7.121 -15.377  -2.234  1.00  0.00    -0.203 F 
ATOM    106  F   UNL     1     -12.073 -14.708  -0.039  1.00  0.00    -0.200 F 
ATOM    107  C   UNL     1     -10.601 -15.947  -1.408  1.00  0.00     0.200 A 
ATOM    108  F   UNL     1      -9.088 -17.161  -2.756  1.00  0.00    -0.200 F 
ATOM    109  F   UNL     1     -11.560 -16.852  -1.645  1.00  0.00    -0.200 F 
ENDBRANCH  76  99
ENDBRANCH  50  51
ENDBRANCH  42  45
ENDBRANCH  40  41
ENDBRANCH  39  40
ENDBRANCH   1  39
TORSDOF 17
