REMARK SMILES C[NH+]1CCC(C(=O)N2C[C@@H](C(=O)NCCCCNC(=O)c3ccc(-c4c5nc(c(-c6c(F)c(F)c(F)c(F)c6F)c6ccc([nH]6)c(-c6c(F)c(F)c(F)c(F)c6F)c6nc(c(-c7c(F)c(F)c(F)c(F)c7F)c7ccc4[nH]7)C=C6)C=C5)cc3)[C@H](c3ccc4c(c3)OCO4)C2)CC1
REMARK SMILES IDX 15 1 14 2 13 3 11 4 12 5 10 7 8 8 9 9 94 10 84 11 6 12 7 13
REMARK SMILES IDX 5 14 1 15 2 16 3 17 96 18 4 20 95 21 85 22 86 23 90 24 87 25
REMARK SMILES IDX 89 26 88 27 91 28 93 29 92 30 16 31 17 32 18 33 19 34 20 36
REMARK SMILES IDX 21 37 22 38 83 39 23 40 82 41 24 42 25 43 26 44 76 45 27 46
REMARK SMILES IDX 81 47 75 48 77 49 28 50 80 51 74 52 73 53 29 55 61 56 41 57
REMARK SMILES IDX 60 58 42 59 45 60 59 61 78 62 43 63 44 64 58 66 79 67 46 68
REMARK SMILES IDX 30 69 31 70 39 71 32 72 33 73 37 74 40 75 34 76 35 77 38 78
REMARK SMILES IDX 36 79 62 80 63 81 71 82 64 83 65 84 69 85 72 86 66 87 67 88
REMARK SMILES IDX 70 89 68 90 47 91 48 92 56 93 49 94 50 95 54 96 57 97 51 98
REMARK SMILES IDX 52 99 55 100 53 101
REMARK H PARENT 13 6 2 19 18 35 77 54 45 65
REMARK Flexibility Score: inf
ROOT
ATOM      1  C   UNL     1       0.126   0.759   6.812  1.00  0.00     0.023 C 
ENDROOT
BRANCH   1   2
ATOM      2  C   UNL     1       1.563   0.832   6.309  1.00  0.00     0.116 C 
BRANCH   2   3
ATOM      3  N   UNL     1       2.173  -0.474   6.121  1.00  0.00    -0.356 N 
ATOM      4  C   UNL     1       2.935  -0.934   5.085  1.00  0.00     0.225 C 
ATOM      5  O   UNL     1       3.478  -2.033   5.204  1.00  0.00    -0.275 OA
ATOM      6  H   UNL     1       2.015  -1.121   6.846  1.00  0.00     0.163 HD
BRANCH   4   7
ATOM      7  C   UNL     1       3.092  -0.097   3.836  1.00  0.00     0.107 C 
ATOM      8  N   UNL     1       3.613  -0.060   1.591  1.00  0.00    -0.341 N 
ATOM      9  C   UNL     1       3.120  -0.971   2.600  1.00  0.00     0.133 C 
ATOM     10  C   UNL     1       4.632   0.802   2.189  1.00  0.00     0.128 C 
ATOM     11  C   UNL     1       4.445   0.646   3.722  1.00  0.00     0.053 C 
BRANCH   8  12
ATOM     12  C   UNL     1       3.282   0.070   0.266  1.00  0.00     0.226 C 
ATOM     13  O   UNL     1       4.106   0.546  -0.525  1.00  0.00    -0.275 OA
BRANCH  12  14
ATOM     14  C   UNL     1       1.828  -0.073  -0.207  1.00  0.00     0.090 C 
ATOM     15  C   UNL     1      -2.471   0.009  -0.296  1.00  0.00     0.332 C 
ATOM     16  N   UNL     1      -1.067  -0.051   0.108  1.00  0.00    -0.337 N 
ATOM     17  C   UNL     1      -0.369   1.185  -0.265  1.00  0.00     0.262 C 
ATOM     18  C   UNL     1      -0.400  -1.223  -0.482  1.00  0.00     0.262 C 
ATOM     19  H   UNL     1      -1.032  -0.146   1.123  1.00  0.00     0.347 HD
ATOM     20  C   UNL     1       1.060   1.169   0.269  1.00  0.00     0.075 C 
ATOM     21  C   UNL     1       1.024  -1.341   0.073  1.00  0.00     0.075 C 
ENDBRANCH  12  14
ENDBRANCH   8  12
BRANCH  11  22
ATOM     22  C   UNL     1       4.424   1.893   4.585  1.00  0.00    -0.038 A 
ATOM     23  C   UNL     1       3.829   3.104   4.161  1.00  0.00     0.008 A 
ATOM     24  C   UNL     1       4.844   1.772   5.926  1.00  0.00     0.054 A 
ATOM     25  C   UNL     1       3.611   4.156   5.060  1.00  0.00     0.051 A 
ATOM     26  C   UNL     1       4.575   2.807   6.796  1.00  0.00     0.166 A 
ATOM     27  C   UNL     1       3.965   3.962   6.377  1.00  0.00     0.165 A 
ATOM     28  O   UNL     1       4.767   2.780   8.143  1.00  0.00    -0.454 OA
ATOM     29  O   UNL     1       3.712   4.816   7.404  1.00  0.00    -0.454 OA
ATOM     30  C   UNL     1       4.109   4.007   8.530  1.00  0.00     0.468 C 
ENDBRANCH  11  22
ENDBRANCH   4   7
ENDBRANCH   2   3
ENDBRANCH   1   2
BRANCH   1  31
ATOM     31  C   UNL     1      -0.052   0.168   8.212  1.00  0.00     0.023 C 
BRANCH  31  32
ATOM     32  C   UNL     1       0.820   0.762   9.316  1.00  0.00     0.116 C 
BRANCH  32  33
ATOM     33  N   UNL     1       0.681   2.201   9.473  1.00  0.00    -0.352 N 
ATOM     34  C   UNL     1       0.705   2.958  10.623  1.00  0.00     0.251 C 
ATOM     35  H   UNL     1       0.550   2.706   8.638  1.00  0.00     0.163 HD
ATOM     36  O   UNL     1       0.557   4.171  10.562  1.00  0.00    -0.269 OA
BRANCH  34  37
ATOM     37  C   UNL     1       0.869   2.306  11.942  1.00  0.00     0.039 A 
ATOM     38  C   UNL     1      -0.020   2.650  12.966  1.00  0.00     0.014 A 
ATOM     39  C   UNL     1       1.867   1.356  12.172  1.00  0.00     0.014 A 
ATOM     40  C   UNL     1       0.033   1.976  14.188  1.00  0.00     0.010 A 
ATOM     41  C   UNL     1       1.885   0.646  13.372  1.00  0.00     0.010 A 
ATOM     42  C   UNL     1       0.955   0.936  14.383  1.00  0.00    -0.014 A 
BRANCH  42  43
ATOM     43  C   UNL     1       0.915   0.101  15.610  1.00  0.00     0.031 A 
ATOM     44  C   UNL     1       2.043   0.130  16.598  1.00  0.00     0.074 A 
ATOM     45  C   UNL     1      -0.112  -0.753  15.789  1.00  0.00     0.049 A 
ATOM     46  N   UNL     1       2.205  -0.574  17.691  1.00  0.00    -0.248 NA
ATOM     47  C   UNL     1       3.149   1.055  16.309  1.00  0.00     0.031 C 
ATOM     48  C   UNL     1      -1.238  -0.922  14.868  1.00  0.00     0.029 A 
ATOM     49  N   UNL     1      -0.366  -1.654  16.793  1.00  0.00    -0.354 N 
ATOM     50  C   UNL     1       3.433  -0.191  18.210  1.00  0.00     0.074 A 
ATOM     51  C   UNL     1       3.993   0.780  17.294  1.00  0.00     0.031 C 
ATOM     52  C   UNL     1      -2.063  -1.864  15.351  1.00  0.00     0.029 A 
ATOM     53  C   UNL     1      -1.513  -2.384  16.599  1.00  0.00     0.049 A 
ATOM     54  H   UNL     1       0.218  -1.766  17.577  1.00  0.00     0.167 HD
ATOM     55  C   UNL     1       4.031  -0.602  19.354  1.00  0.00     0.037 A 
ATOM     56  C   UNL     1      -2.057  -3.369  17.339  1.00  0.00     0.037 A 
ATOM     57  C   UNL     1       3.461  -1.550  20.276  1.00  0.00     0.049 A 
ATOM     58  C   UNL     1      -1.387  -3.789  18.617  1.00  0.00     0.074 A 
ATOM     59  C   UNL     1       3.951  -1.962  21.503  1.00  0.00     0.029 A 
ATOM     60  N   UNL     1       2.277  -2.241  20.067  1.00  0.00    -0.354 N 
ATOM     61  N   UNL     1      -0.270  -3.353  19.145  1.00  0.00    -0.248 NA
ATOM     62  C   UNL     1      -2.059  -4.830  19.407  1.00  0.00     0.031 C 
ATOM     63  C   UNL     1       3.085  -2.934  22.017  1.00  0.00     0.029 A 
ATOM     64  C   UNL     1       2.033  -3.096  21.131  1.00  0.00     0.049 A 
ATOM     65  H   UNL     1       1.695  -2.140  19.279  1.00  0.00     0.167 HD
ATOM     66  C   UNL     1      -0.113  -4.049  20.335  1.00  0.00     0.074 A 
ATOM     67  C   UNL     1      -1.259  -4.927  20.460  1.00  0.00     0.031 C 
ATOM     68  C   UNL     1       0.890  -3.967  21.242  1.00  0.00     0.037 A 
BRANCH  55  69
ATOM     69  C   UNL     1       5.379  -0.026  19.674  1.00  0.00     0.064 A 
ATOM     70  C   UNL     1       5.533   1.310  20.073  1.00  0.00     0.173 A 
ATOM     71  C   UNL     1       6.528  -0.830  19.613  1.00  0.00     0.173 A 
ATOM     72  F   UNL     1       4.467   2.121  20.138  1.00  0.00    -0.203 F 
ATOM     73  C   UNL     1       6.791   1.829  20.367  1.00  0.00     0.198 A 
ATOM     74  C   UNL     1       7.781  -0.314  19.934  1.00  0.00     0.198 A 
ATOM     75  F   UNL     1       6.435  -2.116  19.244  1.00  0.00    -0.203 F 
ATOM     76  F   UNL     1       6.919   3.121  20.699  1.00  0.00    -0.200 F 
ATOM     77  C   UNL     1       7.912   1.016  20.303  1.00  0.00     0.200 A 
ATOM     78  F   UNL     1       8.862  -1.104  19.883  1.00  0.00    -0.200 F 
ATOM     79  F   UNL     1       9.122   1.517  20.590  1.00  0.00    -0.200 F 
ENDBRANCH  55  69
BRANCH  56  80
ATOM     80  C   UNL     1      -3.320  -4.009  16.891  1.00  0.00     0.064 A 
ATOM     81  C   UNL     1      -4.529  -3.756  17.552  1.00  0.00     0.173 A 
ATOM     82  C   UNL     1      -3.346  -4.870  15.784  1.00  0.00     0.173 A 
ATOM     83  F   UNL     1      -4.549  -2.955  18.628  1.00  0.00    -0.203 F 
ATOM     84  C   UNL     1      -5.716  -4.350  17.130  1.00  0.00     0.198 A 
ATOM     85  C   UNL     1      -4.538  -5.443  15.348  1.00  0.00     0.198 A 
ATOM     86  F   UNL     1      -2.215  -5.137  15.115  1.00  0.00    -0.203 F 
ATOM     87  F   UNL     1      -6.854  -4.118  17.799  1.00  0.00    -0.200 F 
ATOM     88  C   UNL     1      -5.721  -5.187  16.024  1.00  0.00     0.200 A 
ATOM     89  F   UNL     1      -4.540  -6.241  14.271  1.00  0.00    -0.200 F 
ATOM     90  F   UNL     1      -6.865  -5.750  15.613  1.00  0.00    -0.200 F 
ENDBRANCH  56  80
BRANCH  68  91
ATOM     91  C   UNL     1       0.787  -4.836  22.460  1.00  0.00     0.064 A 
ATOM     92  C   UNL     1       1.010  -6.219  22.394  1.00  0.00     0.173 A 
ATOM     93  C   UNL     1       0.501  -4.274  23.713  1.00  0.00     0.173 A 
ATOM     94  F   UNL     1       1.270  -6.806  21.216  1.00  0.00    -0.203 F 
ATOM     95  C   UNL     1       0.930  -7.011  23.537  1.00  0.00     0.198 A 
ATOM     96  C   UNL     1       0.448  -5.064  24.857  1.00  0.00     0.198 A 
ATOM     97  F   UNL     1       0.284  -2.955  23.828  1.00  0.00    -0.203 F 
ATOM     98  F   UNL     1       1.107  -8.336  23.445  1.00  0.00    -0.200 F 
ATOM     99  C   UNL     1       0.657  -6.433  24.768  1.00  0.00     0.200 A 
ATOM    100  F   UNL     1       0.193  -4.503  26.047  1.00  0.00    -0.200 F 
ATOM    101  F   UNL     1       0.587  -7.195  25.867  1.00  0.00    -0.200 F 
ENDBRANCH  68  91
ENDBRANCH  42  43
ENDBRANCH  34  37
ENDBRANCH  32  33
ENDBRANCH  31  32
ENDBRANCH   1  31
TORSDOF 14
