REMARK SMILES O=C(COc1ccc(F)cc1)Nc1sccc1C(=O)NCCCCNC(=O)c1ccc(-c2c3nc(c(-c4c(F)c(F)c(F)c(F)c4F)c4ccc([nH]4)c(-c4c(F)c(F)c(F)c(F)c4F)c4nc(c(-c5c(F)c(F)c(F)c(F)c5F)c5ccc2[nH]5)C=C4)C=C3)cc1
REMARK SMILES IDX 21 1 20 2 18 3 19 4 17 6 13 7 14 8 15 9 16 10 12 11 1 12
REMARK SMILES IDX 2 13 3 15 4 16 5 17 6 18 11 19 7 20 10 21 8 22 9 23 22 24
REMARK SMILES IDX 23 25 24 26 25 27 26 28 27 30 28 31 29 32 90 33 30 34 89 35
REMARK SMILES IDX 31 36 32 37 33 38 83 39 34 40 88 41 82 42 84 43 35 44 87 45
REMARK SMILES IDX 81 46 80 47 36 49 68 50 48 51 67 52 49 53 52 54 66 55 85 56
REMARK SMILES IDX 50 57 51 58 65 60 86 61 53 62 37 63 38 64 46 65 39 66 40 67
REMARK SMILES IDX 44 68 47 69 41 70 42 71 45 72 43 73 69 74 70 75 78 76 71 77
REMARK SMILES IDX 72 78 76 79 79 80 73 81 74 82 77 83 75 84 54 85 55 86 63 87
REMARK SMILES IDX 56 88 57 89 61 90 64 91 58 92 59 93 62 94 60 95
REMARK H PARENT 20 5 12 14 25 29 84 48 52 59
REMARK Flexibility Score: inf
ROOT
ATOM      1  C   UNL     1       2.878   1.095   2.200  1.00  0.00     0.116 C 
ENDROOT
BRANCH   1   2
ATOM      2  N   UNL     1       1.501   1.477   2.410  1.00  0.00    -0.352 N 
ATOM      3  C   UNL     1       0.647   2.181   1.585  1.00  0.00     0.254 C 
ATOM      4  O   UNL     1      -0.492   2.393   2.005  1.00  0.00    -0.269 OA
ATOM      5  H   UNL     1       1.113   1.194   3.270  1.00  0.00     0.163 HD
BRANCH   3   6
ATOM      6  C   UNL     1       1.116   2.800   0.341  1.00  0.00     0.074 A 
ATOM      7  C   UNL     1       1.930   2.295  -0.656  1.00  0.00     0.108 A 
ATOM      8  S   UNL     1       2.408   3.473  -1.797  1.00  0.00    -0.126 S 
ATOM      9  C   UNL     1       1.323   4.619  -1.157  1.00  0.00     0.068 A 
ATOM     10  C   UNL     1       0.703   4.141  -0.026  1.00  0.00     0.028 A 
BRANCH   7  11
ATOM     11  N   UNL     1       2.474   1.071  -0.964  1.00  0.00    -0.314 N 
ATOM     12  O   UNL     1       0.850  -0.306  -0.028  1.00  0.00    -0.271 OA
ATOM     13  C   UNL     1       1.930  -0.140  -0.586  1.00  0.00     0.262 C 
ATOM     14  H   UNL     1       3.306   1.058  -1.490  1.00  0.00     0.170 HD
BRANCH  13  15
ATOM     15  C   UNL     1       2.893  -1.302  -0.836  1.00  0.00     0.329 C 
BRANCH  15  16
ATOM     16  O   UNL     1       3.710  -1.101  -1.990  1.00  0.00    -0.484 OA
BRANCH  16  17
ATOM     17  C   UNL     1       3.125  -1.694  -3.073  1.00  0.00     0.120 A 
ATOM     18  C   UNL     1       2.171  -0.997  -3.814  1.00  0.00     0.049 A 
ATOM     19  C   UNL     1       3.514  -2.986  -3.425  1.00  0.00     0.049 A 
ATOM     20  C   UNL     1       1.562  -1.622  -4.898  1.00  0.00     0.043 A 
ATOM     21  C   UNL     1       2.903  -3.606  -4.512  1.00  0.00     0.043 A 
ATOM     22  C   UNL     1       1.929  -2.921  -5.234  1.00  0.00     0.123 A 
ATOM     23  F   UNL     1       1.336  -3.521  -6.273  1.00  0.00    -0.207 F 
ENDBRANCH  16  17
ENDBRANCH  15  16
ENDBRANCH  13  15
ENDBRANCH   7  11
ENDBRANCH   3   6
ENDBRANCH   1   2
BRANCH   1  24
ATOM     24  C   UNL     1       3.667   0.771   3.462  1.00  0.00     0.023 C 
BRANCH  24  25
ATOM     25  C   UNL     1       3.165  -0.410   4.295  1.00  0.00     0.023 C 
BRANCH  25  26
ATOM     26  C   UNL     1       2.836  -1.712   3.564  1.00  0.00     0.116 C 
BRANCH  26  27
ATOM     27  N   UNL     1       3.952  -2.301   2.839  1.00  0.00    -0.352 N 
ATOM     28  C   UNL     1       4.417  -3.597   2.818  1.00  0.00     0.251 C 
ATOM     29  H   UNL     1       4.455  -1.672   2.273  1.00  0.00     0.163 HD
ATOM     30  O   UNL     1       5.376  -3.880   2.103  1.00  0.00    -0.269 OA
BRANCH  28  31
ATOM     31  C   UNL     1       3.827  -4.640   3.692  1.00  0.00     0.039 A 
ATOM     32  C   UNL     1       4.695  -5.471   4.409  1.00  0.00     0.014 A 
ATOM     33  C   UNL     1       2.447  -4.804   3.828  1.00  0.00     0.014 A 
ATOM     34  C   UNL     1       4.184  -6.393   5.329  1.00  0.00     0.010 A 
ATOM     35  C   UNL     1       1.941  -5.670   4.800  1.00  0.00     0.010 A 
ATOM     36  C   UNL     1       2.803  -6.467   5.569  1.00  0.00    -0.014 A 
BRANCH  36  37
ATOM     37  C   UNL     1       2.257  -7.360   6.628  1.00  0.00     0.031 A 
ATOM     38  C   UNL     1       1.345  -8.502   6.269  1.00  0.00     0.074 A 
ATOM     39  C   UNL     1       2.538  -7.113   7.924  1.00  0.00     0.049 A 
ATOM     40  N   UNL     1       0.741  -9.357   7.056  1.00  0.00    -0.248 NA
ATOM     41  C   UNL     1       1.052  -8.695   4.840  1.00  0.00     0.031 C 
ATOM     42  C   UNL     1       3.356  -6.002   8.415  1.00  0.00     0.029 A 
ATOM     43  N   UNL     1       2.163  -7.776   9.068  1.00  0.00    -0.354 N 
ATOM     44  C   UNL     1      -0.015 -10.171   6.223  1.00  0.00     0.074 A 
ATOM     45  C   UNL     1       0.171  -9.685   4.873  1.00  0.00     0.031 C 
ATOM     46  C   UNL     1       3.442  -6.075   9.753  1.00  0.00     0.029 A 
ATOM     47  C   UNL     1       2.666  -7.220  10.220  1.00  0.00     0.049 A 
ATOM     48  H   UNL     1       1.588  -8.575   9.063  1.00  0.00     0.167 HD
ATOM     49  C   UNL     1      -0.775 -11.243   6.551  1.00  0.00     0.037 A 
ATOM     50  C   UNL     1       2.524  -7.593  11.508  1.00  0.00     0.037 A 
ATOM     51  C   UNL     1      -0.925 -11.757   7.886  1.00  0.00     0.049 A 
ATOM     52  C   UNL     1       1.723  -8.824  11.836  1.00  0.00     0.074 A 
ATOM     53  C   UNL     1      -1.636 -12.869   8.306  1.00  0.00     0.029 A 
ATOM     54  N   UNL     1      -0.345 -11.203   9.016  1.00  0.00    -0.354 N 
ATOM     55  N   UNL     1       1.064  -9.620  11.030  1.00  0.00    -0.248 NA
ATOM     56  C   UNL     1       1.661  -9.222  13.251  1.00  0.00     0.031 C 
ATOM     57  C   UNL     1      -1.508 -12.972   9.694  1.00  0.00     0.029 A 
ATOM     58  C   UNL     1      -0.681 -11.952  10.132  1.00  0.00     0.049 A 
ATOM     59  H   UNL     1       0.222 -10.398   9.024  1.00  0.00     0.167 HD
ATOM     60  C   UNL     1       0.540 -10.626  11.830  1.00  0.00     0.074 A 
ATOM     61  C   UNL     1       0.965 -10.348  13.185  1.00  0.00     0.031 C 
ATOM     62  C   UNL     1      -0.226 -11.684  11.471  1.00  0.00     0.037 A 
BRANCH  49  63
ATOM     63  C   UNL     1      -1.491 -11.961   5.446  1.00  0.00     0.064 A 
ATOM     64  C   UNL     1      -2.889 -11.910   5.350  1.00  0.00     0.173 A 
ATOM     65  C   UNL     1      -0.798 -12.773   4.536  1.00  0.00     0.173 A 
ATOM     66  F   UNL     1      -3.598 -11.153   6.202  1.00  0.00    -0.203 F 
ATOM     67  C   UNL     1      -3.569 -12.660   4.394  1.00  0.00     0.198 A 
ATOM     68  C   UNL     1      -1.479 -13.501   3.565  1.00  0.00     0.198 A 
ATOM     69  F   UNL     1       0.541 -12.847   4.581  1.00  0.00    -0.203 F 
ATOM     70  F   UNL     1      -4.908 -12.623   4.343  1.00  0.00    -0.200 F 
ATOM     71  C   UNL     1      -2.864 -13.453   3.502  1.00  0.00     0.200 A 
ATOM     72  F   UNL     1      -0.795 -14.251   2.690  1.00  0.00    -0.200 F 
ATOM     73  F   UNL     1      -3.519 -14.172   2.580  1.00  0.00    -0.200 F 
ENDBRANCH  49  63
BRANCH  50  74
ATOM     74  C   UNL     1       3.198  -6.818  12.583  1.00  0.00     0.064 A 
ATOM     75  C   UNL     1       2.763  -5.534  12.941  1.00  0.00     0.173 A 
ATOM     76  C   UNL     1       4.293  -7.353  13.276  1.00  0.00     0.173 A 
ATOM     77  F   UNL     1       1.724  -4.975  12.305  1.00  0.00    -0.203 F 
ATOM     78  C   UNL     1       3.403  -4.813  13.947  1.00  0.00     0.198 A 
ATOM     79  C   UNL     1       4.915  -6.641  14.300  1.00  0.00     0.198 A 
ATOM     80  F   UNL     1       4.733  -8.585  12.983  1.00  0.00    -0.203 F 
ATOM     81  F   UNL     1       2.982  -3.578  14.255  1.00  0.00    -0.200 F 
ATOM     82  C   UNL     1       4.473  -5.370  14.632  1.00  0.00     0.200 A 
ATOM     83  F   UNL     1       5.931  -7.195  14.976  1.00  0.00    -0.200 F 
ATOM     84  F   UNL     1       5.073  -4.684  15.614  1.00  0.00    -0.200 F 
ENDBRANCH  50  74
BRANCH  62  85
ATOM     85  C   UNL     1      -0.617 -12.659  12.541  1.00  0.00     0.064 A 
ATOM     86  C   UNL     1      -0.066 -13.950  12.554  1.00  0.00     0.173 A 
ATOM     87  C   UNL     1      -1.585 -12.347  13.506  1.00  0.00     0.173 A 
ATOM     88  F   UNL     1       0.858 -14.300  11.646  1.00  0.00    -0.203 F 
ATOM     89  C   UNL     1      -0.478 -14.895  13.489  1.00  0.00     0.198 A 
ATOM     90  C   UNL     1      -1.975 -13.286  14.456  1.00  0.00     0.198 A 
ATOM     91  F   UNL     1      -2.133 -11.123  13.540  1.00  0.00    -0.203 F 
ATOM     92  F   UNL     1       0.041 -16.131  13.464  1.00  0.00    -0.200 F 
ATOM     93  C   UNL     1      -1.428 -14.561  14.442  1.00  0.00     0.200 A 
ATOM     94  F   UNL     1      -2.878 -12.956  15.390  1.00  0.00    -0.200 F 
ATOM     95  F   UNL     1      -1.816 -15.468  15.349  1.00  0.00    -0.200 F 
ENDBRANCH  62  85
ENDBRANCH  36  37
ENDBRANCH  28  31
ENDBRANCH  26  27
ENDBRANCH  25  26
ENDBRANCH  24  25
ENDBRANCH   1  24
TORSDOF 15
