REMARK SMILES C#CCN(CC(=O)NCCCCNC(=O)c1ccc(-c2c3nc(c(-c4c(F)c(F)c(F)c(F)c4F)c4ccc([nH]4)c(-c4c(F)c(F)c(F)c(F)c4F)c4nc(c(-c5c(F)c(F)c(F)c(F)c5F)c5ccc2[nH]5)C=C4)C=C3)cc1)C(=O)N(C)[C@H](C)c1cccs1
REMARK SMILES IDX 9 1 8 2 6 3 7 4 5 6 4 7 3 8 2 9 1 10 79 11 80 12 81 13 82 14
REMARK SMILES IDX 83 15 84 16 85 17 86 18 89 19 87 20 88 21 10 22 11 23 12 24
REMARK SMILES IDX 13 25 14 26 15 28 16 29 17 30 78 31 18 32 77 33 19 34 20 35
REMARK SMILES IDX 21 36 71 37 22 38 76 39 70 40 72 41 23 42 75 43 69 44 68 45
REMARK SMILES IDX 24 47 56 48 36 49 55 50 37 51 40 52 54 53 73 54 38 55 39 56
REMARK SMILES IDX 53 58 74 59 41 60 25 61 26 62 34 63 27 64 28 65 32 66 35 67
REMARK SMILES IDX 29 68 30 69 33 70 31 71 57 72 58 73 66 74 59 75 60 76 64 77
REMARK SMILES IDX 67 78 61 79 62 80 65 81 63 82 42 83 43 84 51 85 44 86 45 87
REMARK SMILES IDX 49 88 52 89 46 90 47 91 50 92 48 93
REMARK H PARENT 8 5 13 27 72 46 40 57
REMARK Flexibility Score: inf
ROOT
ATOM      1  C   UNL     1      -4.857   4.894  -1.804  1.00  0.00     0.116 C 
ENDROOT
BRANCH   1   2
ATOM      2  N   UNL     1      -4.007   5.363  -2.877  1.00  0.00    -0.355 N 
ATOM      3  C   UNL     1      -4.098   5.114  -4.216  1.00  0.00     0.239 C 
ATOM      4  O   UNL     1      -3.431   5.819  -4.978  1.00  0.00    -0.273 OA
ATOM      5  H   UNL     1      -3.260   5.943  -2.604  1.00  0.00     0.163 HD
BRANCH   3   6
ATOM      6  C   UNL     1      -5.107   4.099  -4.765  1.00  0.00     0.222 C 
BRANCH   6   7
ATOM      7  N   UNL     1      -5.035   2.772  -4.147  1.00  0.00    -0.304 N 
BRANCH   7   8
ATOM      8  C   UNL     1      -6.265   2.300  -3.490  1.00  0.00     0.211 C 
BRANCH   8   9
ATOM      9  C   UNL     1      -6.803   1.073  -4.100  1.00  0.00    -0.085 C 
ATOM     10  C   UNL     1      -7.240   0.038  -4.520  1.00  0.00     0.006 C 
ENDBRANCH   8   9
ENDBRANCH   7   8
BRANCH   7  11
ATOM     11  C   UNL     1      -3.943   1.934  -4.008  1.00  0.00     0.321 C 
ATOM     12  O   UNL     1      -3.963   1.187  -3.024  1.00  0.00    -0.248 OA
BRANCH  11  13
ATOM     13  N   UNL     1      -2.904   1.873  -4.927  1.00  0.00    -0.320 N 
ATOM     14  C   UNL     1      -2.664   2.824  -6.007  1.00  0.00     0.149 C 
BRANCH  13  15
ATOM     15  C   UNL     1      -2.109   0.597  -5.037  1.00  0.00     0.124 C 
ATOM     16  C   UNL     1      -2.285  -0.474  -3.940  1.00  0.00     0.037 C 
BRANCH  15  17
ATOM     17  C   UNL     1      -0.607   0.805  -5.269  1.00  0.00     0.027 A 
ATOM     18  C   UNL     1       0.230   1.883  -5.030  1.00  0.00     0.017 A 
ATOM     19  S   UNL     1       0.298  -0.510  -5.948  1.00  0.00    -0.147 S 
ATOM     20  C   UNL     1       1.596   1.608  -5.351  1.00  0.00     0.012 A 
ATOM     21  C   UNL     1       1.776   0.319  -5.794  1.00  0.00     0.065 A 
ENDBRANCH  15  17
ENDBRANCH  13  15
ENDBRANCH  11  13
ENDBRANCH   7  11
ENDBRANCH   6   7
ENDBRANCH   3   6
ENDBRANCH   1   2
BRANCH   1  22
ATOM     22  C   UNL     1      -4.142   3.927  -0.865  1.00  0.00     0.023 C 
BRANCH  22  23
ATOM     23  C   UNL     1      -3.025   4.559  -0.037  1.00  0.00     0.023 C 
BRANCH  23  24
ATOM     24  C   UNL     1      -3.434   5.801   0.740  1.00  0.00     0.116 C 
BRANCH  24  25
ATOM     25  N   UNL     1      -4.535   5.558   1.660  1.00  0.00    -0.352 N 
ATOM     26  C   UNL     1      -4.663   5.956   2.969  1.00  0.00     0.251 C 
ATOM     27  H   UNL     1      -5.289   5.040   1.297  1.00  0.00     0.163 HD
ATOM     28  O   UNL     1      -5.591   5.549   3.658  1.00  0.00    -0.269 OA
BRANCH  26  29
ATOM     29  C   UNL     1      -3.644   6.853   3.548  1.00  0.00     0.039 A 
ATOM     30  C   UNL     1      -3.087   6.529   4.786  1.00  0.00     0.014 A 
ATOM     31  C   UNL     1      -3.206   7.978   2.845  1.00  0.00     0.014 A 
ATOM     32  C   UNL     1      -2.039   7.300   5.289  1.00  0.00     0.010 A 
ATOM     33  C   UNL     1      -2.101   8.687   3.302  1.00  0.00     0.010 A 
ATOM     34  C   UNL     1      -1.509   8.358   4.530  1.00  0.00    -0.014 A 
BRANCH  34  35
ATOM     35  C   UNL     1      -0.327   9.121   5.004  1.00  0.00     0.031 A 
ATOM     36  C   UNL     1      -0.433  10.595   5.271  1.00  0.00     0.074 A 
ATOM     37  C   UNL     1       0.860   8.497   5.129  1.00  0.00     0.049 A 
ATOM     38  N   UNL     1       0.497  11.439   5.642  1.00  0.00    -0.248 NA
ATOM     39  C   UNL     1      -1.753  11.209   5.064  1.00  0.00     0.031 C 
ATOM     40  C   UNL     1       1.103   7.082   4.843  1.00  0.00     0.029 A 
ATOM     41  N   UNL     1       2.087   8.974   5.516  1.00  0.00    -0.354 N 
ATOM     42  C   UNL     1      -0.121  12.681   5.697  1.00  0.00     0.074 A 
ATOM     43  C   UNL     1      -1.488  12.491   5.261  1.00  0.00     0.031 C 
ATOM     44  C   UNL     1       2.392   6.800   5.088  1.00  0.00     0.029 A 
ATOM     45  C   UNL     1       3.077   8.023   5.498  1.00  0.00     0.049 A 
ATOM     46  H   UNL     1       2.243   9.909   5.782  1.00  0.00     0.167 HD
ATOM     47  C   UNL     1       0.399  13.867   6.093  1.00  0.00     0.037 A 
ATOM     48  C   UNL     1       4.394   8.125   5.762  1.00  0.00     0.037 A 
ATOM     49  C   UNL     1       1.760  14.043   6.530  1.00  0.00     0.049 A 
ATOM     50  C   UNL     1       4.955   9.454   6.186  1.00  0.00     0.074 A 
ATOM     51  C   UNL     1       2.366  15.185   7.023  1.00  0.00     0.029 A 
ATOM     52  N   UNL     1       2.735  13.053   6.506  1.00  0.00    -0.354 N 
ATOM     53  N   UNL     1       4.343  10.605   6.323  1.00  0.00    -0.248 NA
ATOM     54  C   UNL     1       6.390   9.497   6.499  1.00  0.00     0.031 C 
ATOM     55  C   UNL     1       3.724  14.911   7.216  1.00  0.00     0.029 A 
ATOM     56  C   UNL     1       3.949  13.573   6.929  1.00  0.00     0.049 A 
ATOM     57  H   UNL     1       2.585  12.120   6.229  1.00  0.00     0.167 HD
ATOM     58  C   UNL     1       5.308  11.504   6.758  1.00  0.00     0.074 A 
ATOM     59  C   UNL     1       6.544  10.758   6.880  1.00  0.00     0.031 C 
ATOM     60  C   UNL     1       5.178  12.825   7.035  1.00  0.00     0.037 A 
BRANCH  47  61
ATOM     61  C   UNL     1      -0.501  15.071   6.040  1.00  0.00     0.064 A 
ATOM     62  C   UNL     1      -1.636  15.193   6.858  1.00  0.00     0.173 A 
ATOM     63  C   UNL     1      -0.220  16.125   5.156  1.00  0.00     0.173 A 
ATOM     64  F   UNL     1      -1.958  14.214   7.718  1.00  0.00    -0.203 F 
ATOM     65  C   UNL     1      -2.481  16.295   6.755  1.00  0.00     0.198 A 
ATOM     66  C   UNL     1      -1.043  17.246   5.087  1.00  0.00     0.198 A 
ATOM     67  F   UNL     1       0.856  16.070   4.356  1.00  0.00    -0.203 F 
ATOM     68  F   UNL     1      -3.600  16.350   7.492  1.00  0.00    -0.200 F 
ATOM     69  C   UNL     1      -2.181  17.323   5.875  1.00  0.00     0.200 A 
ATOM     70  F   UNL     1      -0.740  18.247   4.249  1.00  0.00    -0.200 F 
ATOM     71  F   UNL     1      -2.995  18.383   5.777  1.00  0.00    -0.200 F 
ENDBRANCH  47  61
BRANCH  48  72
ATOM     72  C   UNL     1       5.260   6.923   5.634  1.00  0.00     0.064 A 
ATOM     73  C   UNL     1       5.825   6.311   6.760  1.00  0.00     0.173 A 
ATOM     74  C   UNL     1       5.512   6.344   4.381  1.00  0.00     0.173 A 
ATOM     75  F   UNL     1       5.630   6.837   7.978  1.00  0.00    -0.203 F 
ATOM     76  C   UNL     1       6.617   5.171   6.638  1.00  0.00     0.198 A 
ATOM     77  C   UNL     1       6.276   5.186   4.263  1.00  0.00     0.198 A 
ATOM     78  F   UNL     1       4.989   6.888   3.272  1.00  0.00    -0.203 F 
ATOM     79  F   UNL     1       7.177   4.626   7.726  1.00  0.00    -0.200 F 
ATOM     80  C   UNL     1       6.834   4.603   5.391  1.00  0.00     0.200 A 
ATOM     81  F   UNL     1       6.465   4.631   3.058  1.00  0.00    -0.200 F 
ATOM     82  F   UNL     1       7.582   3.498   5.275  1.00  0.00    -0.200 F 
ENDBRANCH  48  72
BRANCH  60  83
ATOM     83  C   UNL     1       6.400  13.553   7.526  1.00  0.00     0.064 A 
ATOM     84  C   UNL     1       7.502  13.800   6.693  1.00  0.00     0.173 A 
ATOM     85  C   UNL     1       6.449  14.049   8.839  1.00  0.00     0.173 A 
ATOM     86  F   UNL     1       7.514  13.339   5.433  1.00  0.00    -0.203 F 
ATOM     87  C   UNL     1       8.617  14.489   7.165  1.00  0.00     0.198 A 
ATOM     88  C   UNL     1       7.548  14.770   9.295  1.00  0.00     0.198 A 
ATOM     89  F   UNL     1       5.421  13.848   9.677  1.00  0.00    -0.203 F 
ATOM     90  F   UNL     1       9.680  14.663   6.368  1.00  0.00    -0.200 F 
ATOM     91  C   UNL     1       8.636  14.981   8.461  1.00  0.00     0.200 A 
ATOM     92  F   UNL     1       7.554  15.263  10.541  1.00  0.00    -0.200 F 
ATOM     93  F   UNL     1       9.704  15.654   8.909  1.00  0.00    -0.200 F 
ENDBRANCH  60  83
ENDBRANCH  34  35
ENDBRANCH  26  29
ENDBRANCH  24  25
ENDBRANCH  23  24
ENDBRANCH  22  23
ENDBRANCH   1  22
TORSDOF 18
