REMARK SMILES COc1cc(/C=N/NC(=O)c2cc(Cl)ccc2O)ccc1OCC(=O)NCCCCNC(=O)c1ccc(-c2c3nc(c(-c4c(F)c(F)c(F)c(F)c4F)c4ccc([nH]4)c(-c4c(F)c(F)c(F)c(F)c4F)c4nc(c(-c5c(F)c(F)c(F)c(F)c5F)c5ccc2[nH]5)C=C4)C=C3)cc1
REMARK SMILES IDX 24 1 25 2 26 3 23 5 22 6 21 7 3 8 4 9 5 10 20 11 19 12 2 13
REMARK SMILES IDX 1 14 6 15 7 16 8 17 9 18 10 20 11 21 12 22 17 23 13 24 16 25
REMARK SMILES IDX 14 26 15 27 18 28 27 30 28 31 29 32 30 33 31 34 32 35 33 37
REMARK SMILES IDX 34 38 35 39 96 40 36 41 95 42 37 43 38 44 39 45 89 46 40 47
REMARK SMILES IDX 94 48 88 49 90 50 41 51 93 52 87 53 86 54 42 56 74 57 54 58
REMARK SMILES IDX 73 59 55 60 58 61 72 62 91 63 56 64 57 65 71 67 92 68 59 69
REMARK SMILES IDX 43 70 44 71 52 72 45 73 46 74 50 75 53 76 47 77 48 78 51 79
REMARK SMILES IDX 49 80 75 81 76 82 84 83 77 84 78 85 82 86 85 87 79 88 80 89
REMARK SMILES IDX 83 90 81 91 60 92 61 93 69 94 62 95 63 96 67 97 70 98 64 99
REMARK SMILES IDX 65 100 68 101 66 102
REMARK H PARENT 26 4 8 19 18 29 31 36 90 55 58 66
REMARK Flexibility Score: inf
ROOT
ATOM      1  C   UNL     1       2.290  -1.157   0.567  1.00  0.00     0.257 C 
ATOM      2  O   UNL     1       1.445  -1.566  -0.232  1.00  0.00    -0.271 OA
ATOM      3  N   UNL     1       2.477  -1.879   1.712  1.00  0.00    -0.353 N 
ATOM      4  H   UNL     1       1.783  -2.546   1.917  1.00  0.00     0.163 HD
ENDROOT
BRANCH   1   5
ATOM      5  C   UNL     1       3.167   0.070   0.278  1.00  0.00     0.329 C 
BRANCH   5   6
ATOM      6  O   UNL     1       3.370   1.008   1.323  1.00  0.00    -0.480 OA
BRANCH   6   7
ATOM      7  C   UNL     1       2.300   1.672   1.855  1.00  0.00     0.161 A 
ATOM      8  C   UNL     1       1.069   1.955   1.250  1.00  0.00     0.161 A 
ATOM      9  C   UNL     1       0.099   2.692   1.946  1.00  0.00     0.060 A 
ATOM     10  C   UNL     1       0.348   3.114   3.256  1.00  0.00    -0.002 A 
ATOM     11  C   UNL     1       2.540   2.131   3.159  1.00  0.00     0.051 A 
ATOM     12  C   UNL     1       1.565   2.828   3.871  1.00  0.00     0.014 A 
BRANCH   8  13
ATOM     13  O   UNL     1       0.868   1.642  -0.066  1.00  0.00    -0.493 OA
ATOM     14  C   UNL     1      -0.307   0.862  -0.291  1.00  0.00     0.278 C 
ENDBRANCH   8  13
BRANCH  10  15
ATOM     15  C   UNL     1      -0.610   3.966   3.983  1.00  0.00     0.141 C 
ATOM     16  N   UNL     1      -1.404   4.771   3.345  1.00  0.00    -0.180 NA
BRANCH  16  17
ATOM     17  N   UNL     1      -2.149   5.646   4.082  1.00  0.00    -0.243 N 
ATOM     18  C   UNL     1      -1.760   6.494   5.108  1.00  0.00     0.275 C 
ATOM     19  H   UNL     1      -3.105   5.680   3.851  1.00  0.00     0.194 HD
ATOM     20  O   UNL     1      -2.599   7.170   5.701  1.00  0.00    -0.267 OA
BRANCH  18  21
ATOM     21  C   UNL     1      -0.339   6.603   5.515  1.00  0.00     0.084 A 
ATOM     22  C   UNL     1      -0.080   6.644   6.893  1.00  0.00     0.038 A 
ATOM     23  C   UNL     1       0.729   6.672   4.612  1.00  0.00     0.128 A 
ATOM     24  C   UNL     1       1.235   6.682   7.351  1.00  0.00     0.042 A 
ATOM     25  C   UNL     1       2.043   6.710   5.078  1.00  0.00     0.048 A 
ATOM     26  Cl  UNL     1       1.549   6.685   9.042  1.00  0.00    -0.084 Cl
ATOM     27  C   UNL     1       2.298   6.699   6.450  1.00  0.00     0.024 A 
BRANCH  23  28
ATOM     28  O   UNL     1       0.577   6.690   3.254  1.00  0.00    -0.507 OA
ATOM     29  H   UNL     1      -0.282   6.666   2.879  1.00  0.00     0.293 HD
ENDBRANCH  23  28
ENDBRANCH  18  21
ENDBRANCH  16  17
ENDBRANCH  10  15
ENDBRANCH   6   7
ENDBRANCH   5   6
ENDBRANCH   1   5
BRANCH   3  30
ATOM     30  C   UNL     1       3.566  -1.786   2.661  1.00  0.00     0.116 C 
BRANCH  30  31
ATOM     31  C   UNL     1       3.098  -1.467   4.078  1.00  0.00     0.023 C 
BRANCH  31  32
ATOM     32  C   UNL     1       2.088  -2.445   4.681  1.00  0.00     0.023 C 
BRANCH  32  33
ATOM     33  C   UNL     1       2.438  -3.921   4.551  1.00  0.00     0.116 C 
BRANCH  33  34
ATOM     34  N   UNL     1       3.736  -4.253   5.116  1.00  0.00    -0.352 N 
ATOM     35  C   UNL     1       4.081  -5.267   5.976  1.00  0.00     0.251 C 
ATOM     36  H   UNL     1       4.476  -3.664   4.841  1.00  0.00     0.163 HD
ATOM     37  O   UNL     1       5.213  -5.324   6.437  1.00  0.00    -0.269 OA
BRANCH  35  38
ATOM     38  C   UNL     1       3.070  -6.270   6.375  1.00  0.00     0.039 A 
ATOM     39  C   UNL     1       2.961  -6.611   7.725  1.00  0.00     0.014 A 
ATOM     40  C   UNL     1       2.227  -6.862   5.431  1.00  0.00     0.014 A 
ATOM     41  C   UNL     1       1.963  -7.496   8.137  1.00  0.00     0.010 A 
ATOM     42  C   UNL     1       1.182  -7.679   5.853  1.00  0.00     0.010 A 
ATOM     43  C   UNL     1       1.041  -8.008   7.210  1.00  0.00    -0.014 A 
BRANCH  43  44
ATOM     44  C   UNL     1      -0.066  -8.902   7.637  1.00  0.00     0.031 A 
ATOM     45  C   UNL     1      -0.127 -10.317   7.128  1.00  0.00     0.074 A 
ATOM     46  C   UNL     1      -1.037  -8.431   8.444  1.00  0.00     0.049 A 
ATOM     47  N   UNL     1      -1.048 -11.228   7.319  1.00  0.00    -0.248 NA
ATOM     48  C   UNL     1       0.984 -10.760   6.269  1.00  0.00     0.031 C 
ATOM     49  C   UNL     1      -1.109  -7.071   8.980  1.00  0.00     0.029 A 
ATOM     50  N   UNL     1      -2.158  -9.044   8.948  1.00  0.00    -0.354 N 
ATOM     51  C   UNL     1      -0.627 -12.345   6.609  1.00  0.00     0.074 A 
ATOM     52  C   UNL     1       0.593 -11.978   5.925  1.00  0.00     0.031 C 
ATOM     53  C   UNL     1      -2.199  -6.960   9.757  1.00  0.00     0.029 A 
ATOM     54  C   UNL     1      -2.928  -8.224   9.739  1.00  0.00     0.049 A 
ATOM     55  H   UNL     1      -2.389  -9.983   8.761  1.00  0.00     0.167 HD
ATOM     56  C   UNL     1      -1.187 -13.577   6.559  1.00  0.00     0.037 A 
ATOM     57  C   UNL     1      -4.095  -8.465  10.367  1.00  0.00     0.037 A 
ATOM     58  C   UNL     1      -2.395 -13.946   7.249  1.00  0.00     0.049 A 
ATOM     59  C   UNL     1      -4.721  -9.831  10.250  1.00  0.00     0.074 A 
ATOM     60  C   UNL     1      -3.038 -15.171   7.271  1.00  0.00     0.029 A 
ATOM     61  N   UNL     1      -3.141 -13.089   8.045  1.00  0.00    -0.354 N 
ATOM     62  N   UNL     1      -4.286 -10.893   9.615  1.00  0.00    -0.248 NA
ATOM     63  C   UNL     1      -6.000 -10.034  10.945  1.00  0.00     0.031 C 
ATOM     64  C   UNL     1      -4.194 -15.046   8.046  1.00  0.00     0.029 A 
ATOM     65  C   UNL     1      -4.242 -13.758   8.554  1.00  0.00     0.049 A 
ATOM     66  H   UNL     1      -2.920 -12.146   8.222  1.00  0.00     0.167 HD
ATOM     67  C   UNL     1      -5.210 -11.897   9.874  1.00  0.00     0.074 A 
ATOM     68  C   UNL     1      -6.222 -11.322  10.734  1.00  0.00     0.031 C 
ATOM     69  C   UNL     1      -5.221 -13.180   9.437  1.00  0.00     0.037 A 
BRANCH  56  70
ATOM     70  C   UNL     1      -0.486 -14.628   5.748  1.00  0.00     0.064 A 
ATOM     71  C   UNL     1       0.744 -15.167   6.159  1.00  0.00     0.173 A 
ATOM     72  C   UNL     1      -1.068 -15.142   4.580  1.00  0.00     0.173 A 
ATOM     73  F   UNL     1       1.350 -14.702   7.262  1.00  0.00    -0.203 F 
ATOM     74  C   UNL     1       1.373 -16.165   5.420  1.00  0.00     0.198 A 
ATOM     75  C   UNL     1      -0.452 -16.163   3.861  1.00  0.00     0.198 A 
ATOM     76  F   UNL     1      -2.245 -14.666   4.144  1.00  0.00    -0.203 F 
ATOM     77  F   UNL     1       2.567 -16.632   5.809  1.00  0.00    -0.200 F 
ATOM     78  C   UNL     1       0.770 -16.669   4.277  1.00  0.00     0.200 A 
ATOM     79  F   UNL     1      -1.042 -16.659   2.765  1.00  0.00    -0.200 F 
ATOM     80  F   UNL     1       1.370 -17.639   3.575  1.00  0.00    -0.200 F 
ENDBRANCH  56  70
BRANCH  57  81
ATOM     81  C   UNL     1      -4.755  -7.403  11.175  1.00  0.00     0.064 A 
ATOM     82  C   UNL     1      -4.912  -7.546  12.562  1.00  0.00     0.173 A 
ATOM     83  C   UNL     1      -5.298  -6.257  10.576  1.00  0.00     0.173 A 
ATOM     84  F   UNL     1      -4.428  -8.633  13.181  1.00  0.00    -0.203 F 
ATOM     85  C   UNL     1      -5.624  -6.609  13.309  1.00  0.00     0.198 A 
ATOM     86  C   UNL     1      -5.978  -5.303  11.329  1.00  0.00     0.198 A 
ATOM     87  F   UNL     1      -5.173  -6.066   9.254  1.00  0.00    -0.203 F 
ATOM     88  F   UNL     1      -5.822  -6.812  14.618  1.00  0.00    -0.200 F 
ATOM     89  C   UNL     1      -6.155  -5.487  12.692  1.00  0.00     0.200 A 
ATOM     90  F   UNL     1      -6.476  -4.211  10.732  1.00  0.00    -0.200 F 
ATOM     91  F   UNL     1      -6.850  -4.593  13.408  1.00  0.00    -0.200 F 
ENDBRANCH  57  81
BRANCH  69  92
ATOM     92  C   UNL     1      -6.322 -14.071   9.939  1.00  0.00     0.064 A 
ATOM     93  C   UNL     1      -7.653 -13.910   9.528  1.00  0.00     0.173 A 
ATOM     94  C   UNL     1      -6.029 -15.126  10.817  1.00  0.00     0.173 A 
ATOM     95  F   UNL     1      -7.989 -12.909   8.701  1.00  0.00    -0.203 F 
ATOM     96  C   UNL     1      -8.656 -14.751  10.005  1.00  0.00     0.198 A 
ATOM     97  C   UNL     1      -7.028 -15.987  11.263  1.00  0.00     0.198 A 
ATOM     98  F   UNL     1      -4.770 -15.331  11.234  1.00  0.00    -0.203 F 
ATOM     99  F   UNL     1      -9.929 -14.542   9.644  1.00  0.00    -0.200 F 
ATOM    100  C   UNL     1      -8.341 -15.793  10.865  1.00  0.00     0.200 A 
ATOM    101  F   UNL     1      -6.718 -17.003  12.080  1.00  0.00    -0.200 F 
ATOM    102  F   UNL     1      -9.306 -16.606  11.316  1.00  0.00    -0.200 F 
ENDBRANCH  69  92
ENDBRANCH  43  44
ENDBRANCH  35  38
ENDBRANCH  33  34
ENDBRANCH  32  33
ENDBRANCH  31  32
ENDBRANCH  30  31
ENDBRANCH   3  30
TORSDOF 18
