REMARK SMILES C[N@@H+]1CCC[C@@H](C[NH2+]CC(=O)NCCCCNC(=O)c2ccc(-c3c4nc(c(-c5c(F)c(F)c(F)c(F)c5F)c5ccc([nH]5)c(-c5c(F)c(F)c(F)c(F)c5F)c5nc(c(-c6c(F)c(F)c(F)c(F)c6F)c6ccc3[nH]6)C=C5)C=C4)cc2)C1
REMARK SMILES IDX 14 1 13 2 12 3 10 4 11 5 9 7 8 8 7 11 6 12 1 13 2 14 3 15
REMARK SMILES IDX 83 16 4 18 5 19 15 20 16 21 17 22 18 23 19 25 20 26 21 27
REMARK SMILES IDX 82 28 22 29 81 30 23 31 24 32 25 33 75 34 26 35 80 36 74 37
REMARK SMILES IDX 76 38 27 39 79 40 73 41 72 42 28 44 60 45 40 46 59 47 41 48
REMARK SMILES IDX 44 49 58 50 77 51 42 52 43 53 57 55 78 56 45 57 29 58 30 59
REMARK SMILES IDX 38 60 31 61 32 62 36 63 39 64 33 65 34 66 37 67 35 68 61 69
REMARK SMILES IDX 62 70 70 71 63 72 64 73 68 74 71 75 65 76 66 77 69 78 67 79
REMARK SMILES IDX 46 80 47 81 55 82 48 83 49 84 53 85 56 86 50 87 51 88 54 89
REMARK SMILES IDX 52 90
REMARK H PARENT 12 6 8 9 8 10 2 17 17 24 76 43 44 54
REMARK Flexibility Score: inf
ROOT
ATOM      1  C   UNL     1       1.181   1.142   2.809  1.00  0.00     0.023 C 
ENDROOT
BRANCH   1   2
ATOM      2  C   UNL     1       1.501   0.309   4.048  1.00  0.00     0.116 C 
BRANCH   2   3
ATOM      3  N   UNL     1       0.322  -0.410   4.485  1.00  0.00    -0.351 N 
ATOM      4  C   UNL     1      -0.108  -1.657   4.127  1.00  0.00     0.275 C 
ATOM      5  O   UNL     1      -1.275  -1.958   4.396  1.00  0.00    -0.269 OA
ATOM      6  H   UNL     1      -0.249   0.066   5.130  1.00  0.00     0.163 HD
BRANCH   4   7
ATOM      7  C   UNL     1       0.825  -2.660   3.423  1.00  0.00     0.361 C 
BRANCH   7   8
ATOM      8  N   UNL     1       0.515  -2.807   1.982  1.00  0.00    -0.338 N 
ATOM      9  H   UNL     1       0.750  -3.755   1.689  1.00  0.00     0.346 HD
ATOM     10  H   UNL     1      -0.479  -2.616   1.852  1.00  0.00     0.346 HD
BRANCH   8  11
ATOM     11  C   UNL     1       1.267  -1.859   1.160  1.00  0.00     0.270 C 
BRANCH  11  12
ATOM     12  C   UNL     1       0.886  -1.784  -0.335  1.00  0.00     0.099 C 
ATOM     13  C   UNL     1      -2.485  -0.078  -0.212  1.00  0.00     0.332 C 
ATOM     14  N   UNL     1      -1.029  -0.210  -0.145  1.00  0.00    -0.337 N 
ATOM     15  C   UNL     1      -0.382   0.816  -0.973  1.00  0.00     0.262 C 
ATOM     16  C   UNL     1      -0.612  -1.549  -0.591  1.00  0.00     0.271 C 
ATOM     17  H   UNL     1      -0.741  -0.081   0.825  1.00  0.00     0.347 HD
ATOM     18  C   UNL     1       1.140   0.738  -0.859  1.00  0.00     0.062 C 
ATOM     19  C   UNL     1       1.701  -0.676  -1.048  1.00  0.00     0.021 C 
ENDBRANCH  11  12
ENDBRANCH   8  11
ENDBRANCH   7   8
ENDBRANCH   4   7
ENDBRANCH   2   3
ENDBRANCH   1   2
BRANCH   1  20
ATOM     20  C   UNL     1       0.797   2.588   3.037  1.00  0.00     0.023 C 
BRANCH  20  21
ATOM     21  C   UNL     1       1.952   3.479   3.449  1.00  0.00     0.116 C 
BRANCH  21  22
ATOM     22  N   UNL     1       3.029   3.560   2.467  1.00  0.00    -0.352 N 
ATOM     23  C   UNL     1       3.696   4.659   1.978  1.00  0.00     0.251 C 
ATOM     24  H   UNL     1       3.324   2.695   2.099  1.00  0.00     0.163 HD
ATOM     25  O   UNL     1       4.541   4.524   1.096  1.00  0.00    -0.269 OA
BRANCH  23  26
ATOM     26  C   UNL     1       3.352   6.010   2.471  1.00  0.00     0.039 A 
ATOM     27  C   UNL     1       3.251   7.061   1.556  1.00  0.00     0.014 A 
ATOM     28  C   UNL     1       3.057   6.229   3.817  1.00  0.00     0.014 A 
ATOM     29  C   UNL     1       2.750   8.294   1.976  1.00  0.00     0.010 A 
ATOM     30  C   UNL     1       2.428   7.404   4.201  1.00  0.00     0.010 A 
ATOM     31  C   UNL     1       2.276   8.455   3.288  1.00  0.00    -0.014 A 
BRANCH  31  32
ATOM     32  C   UNL     1       1.620   9.713   3.727  1.00  0.00     0.031 A 
ATOM     33  C   UNL     1       2.185  10.498   4.880  1.00  0.00     0.074 A 
ATOM     34  C   UNL     1       0.475  10.108   3.135  1.00  0.00     0.049 A 
ATOM     35  N   UNL     1       1.734  11.595   5.435  1.00  0.00    -0.248 NA
ATOM     36  C   UNL     1       3.392   9.956   5.527  1.00  0.00     0.031 C 
ATOM     37  C   UNL     1      -0.225   9.383   2.072  1.00  0.00     0.029 A 
ATOM     38  N   UNL     1      -0.305  11.217   3.345  1.00  0.00    -0.354 N 
ATOM     39  C   UNL     1       2.586  11.854   6.501  1.00  0.00     0.074 A 
ATOM     40  C   UNL     1       3.532  10.764   6.565  1.00  0.00     0.031 C 
ATOM     41  C   UNL     1      -1.301  10.090   1.690  1.00  0.00     0.029 A 
ATOM     42  C   UNL     1      -1.386  11.299   2.502  1.00  0.00     0.049 A 
ATOM     43  H   UNL     1      -0.109  11.891   4.036  1.00  0.00     0.167 HD
ATOM     44  C   UNL     1       2.603  12.925   7.329  1.00  0.00     0.037 A 
ATOM     45  C   UNL     1      -2.332  12.250   2.389  1.00  0.00     0.037 A 
ATOM     46  C   UNL     1       1.690  14.031   7.229  1.00  0.00     0.049 A 
ATOM     47  C   UNL     1      -2.262  13.455   3.287  1.00  0.00     0.074 A 
ATOM     48  C   UNL     1       1.671  15.205   7.960  1.00  0.00     0.029 A 
ATOM     49  N   UNL     1       0.633  14.099   6.333  1.00  0.00    -0.354 N 
ATOM     50  N   UNL     1      -1.396  13.735   4.230  1.00  0.00    -0.248 NA
ATOM     51  C   UNL     1      -3.295  14.482   3.095  1.00  0.00     0.031 C 
ATOM     52  C   UNL     1       0.579  15.967   7.533  1.00  0.00     0.029 A 
ATOM     53  C   UNL     1      -0.056  15.288   6.504  1.00  0.00     0.049 A 
ATOM     54  H   UNL     1       0.406  13.405   5.673  1.00  0.00     0.167 HD
ATOM     55  C   UNL     1      -1.765  14.976   4.731  1.00  0.00     0.074 A 
ATOM     56  C   UNL     1      -2.919  15.406   3.968  1.00  0.00     0.031 C 
ATOM     57  C   UNL     1      -1.203  15.694   5.734  1.00  0.00     0.037 A 
BRANCH  44  58
ATOM     58  C   UNL     1       3.657  12.957   8.397  1.00  0.00     0.064 A 
ATOM     59  C   UNL     1       5.017  13.118   8.084  1.00  0.00     0.173 A 
ATOM     60  C   UNL     1       3.306  12.846   9.751  1.00  0.00     0.173 A 
ATOM     61  F   UNL     1       5.408  13.213   6.804  1.00  0.00    -0.203 F 
ATOM     62  C   UNL     1       5.987  13.130   9.083  1.00  0.00     0.198 A 
ATOM     63  C   UNL     1       4.276  12.892  10.749  1.00  0.00     0.198 A 
ATOM     64  F   UNL     1       2.022  12.693  10.106  1.00  0.00    -0.203 F 
ATOM     65  F   UNL     1       7.282  13.225   8.754  1.00  0.00    -0.200 F 
ATOM     66  C   UNL     1       5.615  13.025  10.414  1.00  0.00     0.200 A 
ATOM     67  F   UNL     1       3.915  12.800  12.037  1.00  0.00    -0.200 F 
ATOM     68  F   UNL     1       6.550  13.041  11.375  1.00  0.00    -0.200 F 
ENDBRANCH  44  58
BRANCH  45  69
ATOM     69  C   UNL     1      -3.392  12.127   1.355  1.00  0.00     0.064 A 
ATOM     70  C   UNL     1      -3.403  12.973   0.236  1.00  0.00     0.173 A 
ATOM     71  C   UNL     1      -4.408  11.167   1.456  1.00  0.00     0.173 A 
ATOM     72  F   UNL     1      -2.462  13.920   0.104  1.00  0.00    -0.203 F 
ATOM     73  C   UNL     1      -4.402  12.878  -0.730  1.00  0.00     0.198 A 
ATOM     74  C   UNL     1      -5.392  11.054   0.474  1.00  0.00     0.198 A 
ATOM     75  F   UNL     1      -4.438  10.328   2.502  1.00  0.00    -0.203 F 
ATOM     76  F   UNL     1      -4.413  13.728  -1.766  1.00  0.00    -0.200 F 
ATOM     77  C   UNL     1      -5.393  11.915  -0.613  1.00  0.00     0.200 A 
ATOM     78  F   UNL     1      -6.339  10.112   0.583  1.00  0.00    -0.200 F 
ATOM     79  F   UNL     1      -6.351  11.819  -1.545  1.00  0.00    -0.200 F 
ENDBRANCH  45  69
BRANCH  57  80
ATOM     80  C   UNL     1      -1.820  17.025   6.048  1.00  0.00     0.064 A 
ATOM     81  C   UNL     1      -3.068  17.123   6.680  1.00  0.00     0.173 A 
ATOM     82  C   UNL     1      -1.141  18.213   5.739  1.00  0.00     0.173 A 
ATOM     83  F   UNL     1      -3.761  16.015   6.982  1.00  0.00    -0.203 F 
ATOM     84  C   UNL     1      -3.629  18.365   6.964  1.00  0.00     0.198 A 
ATOM     85  C   UNL     1      -1.692  19.453   6.052  1.00  0.00     0.198 A 
ATOM     86  F   UNL     1       0.059  18.172   5.141  1.00  0.00    -0.203 F 
ATOM     87  F   UNL     1      -4.846  18.436   7.521  1.00  0.00    -0.200 F 
ATOM     88  C   UNL     1      -2.938  19.527   6.656  1.00  0.00     0.200 A 
ATOM     89  F   UNL     1      -1.018  20.575   5.766  1.00  0.00    -0.200 F 
ATOM     90  F   UNL     1      -3.478  20.722   6.933  1.00  0.00    -0.200 F 
ENDBRANCH  57  80
ENDBRANCH  31  32
ENDBRANCH  23  26
ENDBRANCH  21  22
ENDBRANCH  20  21
ENDBRANCH   1  20
TORSDOF 14
