REMARK SMILES CC[C@@H](Oc1ccccc1/C=C1\S/C(=[NH+]\c2cccc(O)c2)N(CC)C1=O)C(=O)NCCCCNC(=O)c1ccc(-c2c3nc(c(-c4c(F)c(F)c(F)c(F)c4F)c4ccc([nH]4)c(-c4c(F)c(F)c(F)c(F)c4F)c4nc(c(-c5c(F)c(F)c(F)c(F)c5F)c5ccc2[nH]5)C=C4)C=C3)cc1
REMARK SMILES IDX 31 1 30 2 28 3 29 4 3 6 2 7 1 8 4 9 5 10 6 11 10 12 7 13
REMARK SMILES IDX 9 14 8 15 11 16 12 17 13 18 26 19 14 20 23 21 27 22 15 23
REMARK SMILES IDX 24 25 25 26 16 27 17 28 22 29 18 30 20 31 19 32 21 33 32 35
REMARK SMILES IDX 33 36 34 37 35 38 36 39 37 41 38 42 39 43 100 44 40 45 99 46
REMARK SMILES IDX 41 47 42 48 43 49 93 50 44 51 98 52 92 53 94 54 45 55 97 56
REMARK SMILES IDX 91 57 90 58 46 60 78 61 58 62 77 63 59 64 62 65 76 66 95 67
REMARK SMILES IDX 60 68 61 69 75 71 96 72 63 73 47 74 48 75 56 76 49 77 50 78
REMARK SMILES IDX 54 79 57 80 51 81 52 82 55 83 53 84 79 85 80 86 88 87 81 88
REMARK SMILES IDX 82 89 86 90 89 91 83 92 84 93 87 94 85 95 64 96 65 97 73 98
REMARK SMILES IDX 66 99 67 100 71 101 74 102 68 103 69 104 72 105 70 106
REMARK H PARENT 30 5 15 24 21 34 35 40 94 59 62 70
REMARK Flexibility Score: inf
ROOT
ATOM      1  C   UNL     1      -1.570  -0.692   3.624  1.00  0.00     0.116 C 
ENDROOT
BRANCH   1   2
ATOM      2  N   UNL     1      -0.287  -0.942   4.249  1.00  0.00    -0.353 N 
ATOM      3  C   UNL     1       0.978  -0.593   3.871  1.00  0.00     0.261 C 
ATOM      4  O   UNL     1       1.885  -0.868   4.667  1.00  0.00    -0.271 OA
ATOM      5  H   UNL     1      -0.336  -1.450   5.091  1.00  0.00     0.163 HD
BRANCH   3   6
ATOM      6  C   UNL     1       1.327  -0.000   2.480  1.00  0.00     0.261 C 
BRANCH   6   7
ATOM      7  C   UNL     1       1.512  -1.185   1.513  1.00  0.00     0.052 C 
ATOM      8  C   UNL     1       2.629  -0.953   0.498  1.00  0.00     0.008 C 
ENDBRANCH   6   7
BRANCH   6   9
ATOM      9  O   UNL     1       0.334   0.912   2.005  1.00  0.00    -0.480 OA
BRANCH   9  10
ATOM     10  C   UNL     1       0.775   1.872   1.130  1.00  0.00     0.127 A 
ATOM     11  C   UNL     1       1.391   3.018   1.631  1.00  0.00     0.047 A 
ATOM     12  C   UNL     1       0.473   1.768  -0.245  1.00  0.00     0.018 A 
ATOM     13  C   UNL     1       1.753   4.045   0.758  1.00  0.00     0.004 A 
ATOM     14  C   UNL     1       0.852   2.796  -1.112  1.00  0.00     0.012 A 
ATOM     15  C   UNL     1       1.490   3.931  -0.609  1.00  0.00     0.001 A 
BRANCH  12  16
ATOM     16  C   UNL     1      -0.196   0.575  -0.779  1.00  0.00     0.036 C 
ATOM     17  C   UNL     1      -1.483   0.281  -0.569  1.00  0.00     0.110 C 
ATOM     18  S   UNL     1      -2.678   1.296   0.106  1.00  0.00     0.007 SA
ATOM     19  C   UNL     1      -2.003  -1.102  -0.737  1.00  0.00     0.348 C 
ATOM     20  C   UNL     1      -3.795  -0.032   0.328  1.00  0.00     0.324 C 
ATOM     21  N   UNL     1      -3.287  -1.192  -0.227  1.00  0.00    -0.186 N 
ATOM     22  O   UNL     1      -1.315  -2.024  -1.147  1.00  0.00    -0.240 OA
ATOM     23  N   UNL     1      -4.915   0.021   0.974  1.00  0.00    -0.234 N 
ATOM     24  H   UNL     1      -5.427  -0.807   1.118  1.00  0.00     0.313 HD
BRANCH  21  25
ATOM     25  C   UNL     1      -3.920  -2.503  -0.051  1.00  0.00     0.244 C 
ATOM     26  C   UNL     1      -4.023  -3.361  -1.302  1.00  0.00     0.055 C 
ENDBRANCH  21  25
BRANCH  23  27
ATOM     27  C   UNL     1      -5.419   1.243   1.476  1.00  0.00     0.129 A 
ATOM     28  C   UNL     1      -5.666   1.400   2.845  1.00  0.00     0.052 A 
ATOM     29  C   UNL     1      -5.758   2.299   0.622  1.00  0.00     0.097 A 
ATOM     30  C   UNL     1      -6.253   2.563   3.353  1.00  0.00     0.008 A 
ATOM     31  C   UNL     1      -6.275   3.485   1.142  1.00  0.00     0.119 A 
ATOM     32  C   UNL     1      -6.552   3.615   2.495  1.00  0.00     0.046 A 
BRANCH  31  33
ATOM     33  O   UNL     1      -6.513   4.561   0.339  1.00  0.00    -0.508 OA
ATOM     34  H   UNL     1      -6.861   5.351   0.704  1.00  0.00     0.293 HD
ENDBRANCH  31  33
ENDBRANCH  23  27
ENDBRANCH  12  16
ENDBRANCH   9  10
ENDBRANCH   6   9
ENDBRANCH   3   6
ENDBRANCH   1   2
BRANCH   1  35
ATOM     35  C   UNL     1      -2.188  -1.955   3.038  1.00  0.00     0.023 C 
BRANCH  35  36
ATOM     36  C   UNL     1      -3.027  -2.808   3.989  1.00  0.00     0.023 C 
BRANCH  36  37
ATOM     37  C   UNL     1      -4.336  -2.162   4.443  1.00  0.00     0.116 C 
BRANCH  37  38
ATOM     38  N   UNL     1      -5.297  -1.906   3.378  1.00  0.00    -0.352 N 
ATOM     39  C   UNL     1      -6.671  -1.807   3.411  1.00  0.00     0.251 C 
ATOM     40  H   UNL     1      -4.899  -1.783   2.486  1.00  0.00     0.163 HD
ATOM     41  O   UNL     1      -7.294  -1.658   2.362  1.00  0.00    -0.269 OA
BRANCH  39  42
ATOM     42  C   UNL     1      -7.425  -1.922   4.680  1.00  0.00     0.039 A 
ATOM     43  C   UNL     1      -8.716  -2.457   4.623  1.00  0.00     0.014 A 
ATOM     44  C   UNL     1      -6.883  -1.563   5.914  1.00  0.00     0.014 A 
ATOM     45  C   UNL     1      -9.385  -2.774   5.801  1.00  0.00     0.010 A 
ATOM     46  C   UNL     1      -7.491  -1.991   7.085  1.00  0.00     0.010 A 
ATOM     47  C   UNL     1      -8.735  -2.628   7.034  1.00  0.00    -0.014 A 
BRANCH  47  48
ATOM     48  C   UNL     1      -9.316  -3.215   8.261  1.00  0.00     0.031 A 
ATOM     49  C   UNL     1      -9.690  -2.343   9.420  1.00  0.00     0.074 A 
ATOM     50  C   UNL     1      -9.441  -4.555   8.329  1.00  0.00     0.049 A 
ATOM     51  N   UNL     1     -10.236  -2.680  10.560  1.00  0.00    -0.248 NA
ATOM     52  C   UNL     1      -9.383  -0.909   9.302  1.00  0.00     0.031 C 
ATOM     53  C   UNL     1      -9.020  -5.497   7.287  1.00  0.00     0.029 A 
ATOM     54  N   UNL     1      -9.966  -5.359   9.306  1.00  0.00    -0.354 N 
ATOM     55  C   UNL     1     -10.329  -1.505  11.292  1.00  0.00     0.074 A 
ATOM     56  C   UNL     1      -9.720  -0.460  10.501  1.00  0.00     0.031 C 
ATOM     57  C   UNL     1      -9.363  -6.742   7.651  1.00  0.00     0.029 A 
ATOM     58  C   UNL     1      -9.987  -6.691   8.967  1.00  0.00     0.049 A 
ATOM     59  H   UNL     1     -10.297  -5.017  10.167  1.00  0.00     0.167 HD
ATOM     60  C   UNL     1     -10.902  -1.317  12.504  1.00  0.00     0.037 A 
ATOM     61  C   UNL     1     -10.473  -7.748   9.642  1.00  0.00     0.037 A 
ATOM     62  C   UNL     1     -11.517  -2.371  13.267  1.00  0.00     0.049 A 
ATOM     63  C   UNL     1     -11.120  -7.506  10.977  1.00  0.00     0.074 A 
ATOM     64  C   UNL     1     -12.182  -2.289  14.476  1.00  0.00     0.029 A 
ATOM     65  N   UNL     1     -11.533  -3.708  12.889  1.00  0.00    -0.354 N 
ATOM     66  N   UNL     1     -11.294  -6.376  11.620  1.00  0.00    -0.248 NA
ATOM     67  C   UNL     1     -11.649  -8.683  11.675  1.00  0.00     0.031 C 
ATOM     68  C   UNL     1     -12.550  -3.583  14.858  1.00  0.00     0.029 A 
ATOM     69  C   UNL     1     -12.175  -4.465  13.856  1.00  0.00     0.049 A 
ATOM     70  H   UNL     1     -11.146  -4.065  12.058  1.00  0.00     0.167 HD
ATOM     71  C   UNL     1     -11.984  -6.699  12.780  1.00  0.00     0.074 A 
ATOM     72  C   UNL     1     -12.210  -8.130  12.740  1.00  0.00     0.031 C 
ATOM     73  C   UNL     1     -12.394  -5.888  13.787  1.00  0.00     0.037 A 
BRANCH  60  74
ATOM     74  C   UNL     1     -10.880   0.074  13.071  1.00  0.00     0.064 A 
ATOM     75  C   UNL     1     -11.607   1.124  12.486  1.00  0.00     0.173 A 
ATOM     76  C   UNL     1     -10.129   0.362  14.220  1.00  0.00     0.173 A 
ATOM     77  F   UNL     1     -12.330   0.909  11.376  1.00  0.00    -0.203 F 
ATOM     78  C   UNL     1     -11.550   2.415  13.005  1.00  0.00     0.198 A 
ATOM     79  C   UNL     1     -10.103   1.647  14.758  1.00  0.00     0.198 A 
ATOM     80  F   UNL     1      -9.417  -0.602  14.823  1.00  0.00    -0.203 F 
ATOM     81  F   UNL     1     -12.200   3.412  12.390  1.00  0.00    -0.200 F 
ATOM     82  C   UNL     1     -10.804   2.674  14.145  1.00  0.00     0.200 A 
ATOM     83  F   UNL     1      -9.391   1.892  15.867  1.00  0.00    -0.200 F 
ATOM     84  F   UNL     1     -10.752   3.916  14.646  1.00  0.00    -0.200 F 
ENDBRANCH  60  74
BRANCH  61  85
ATOM     85  C   UNL     1     -10.418  -9.110   9.046  1.00  0.00     0.064 A 
ATOM     86  C   UNL     1     -11.591  -9.773   8.656  1.00  0.00     0.173 A 
ATOM     87  C   UNL     1      -9.201  -9.779   8.855  1.00  0.00     0.173 A 
ATOM     88  F   UNL     1     -12.783  -9.181   8.828  1.00  0.00    -0.203 F 
ATOM     89  C   UNL     1     -11.552 -11.062   8.129  1.00  0.00     0.198 A 
ATOM     90  C   UNL     1      -9.159 -11.056   8.298  1.00  0.00     0.198 A 
ATOM     91  F   UNL     1      -8.047  -9.187   9.198  1.00  0.00    -0.203 F 
ATOM     92  F   UNL     1     -12.693 -11.691   7.816  1.00  0.00    -0.200 F 
ATOM     93  C   UNL     1     -10.335 -11.701   7.946  1.00  0.00     0.200 A 
ATOM     94  F   UNL     1      -7.980 -11.663   8.105  1.00  0.00    -0.200 F 
ATOM     95  F   UNL     1     -10.296 -12.940   7.438  1.00  0.00    -0.200 F 
ENDBRANCH  61  85
BRANCH  73  96
ATOM     96  C   UNL     1     -13.171  -6.528  14.900  1.00  0.00     0.064 A 
ATOM     97  C   UNL     1     -12.572  -7.410  15.811  1.00  0.00     0.173 A 
ATOM     98  C   UNL     1     -14.533  -6.234  15.069  1.00  0.00     0.173 A 
ATOM     99  F   UNL     1     -11.277  -7.735  15.685  1.00  0.00    -0.203 F 
ATOM    100  C   UNL     1     -13.318  -8.005  16.825  1.00  0.00     0.198 A 
ATOM    101  C   UNL     1     -15.266  -6.800  16.107  1.00  0.00     0.198 A 
ATOM    102  F   UNL     1     -15.152  -5.389  14.230  1.00  0.00    -0.203 F 
ATOM    103  F   UNL     1     -12.740  -8.895  17.644  1.00  0.00    -0.200 F 
ATOM    104  C   UNL     1     -14.661  -7.694  16.977  1.00  0.00     0.200 A 
ATOM    105  F   UNL     1     -16.559  -6.484  16.262  1.00  0.00    -0.200 F 
ATOM    106  F   UNL     1     -15.375  -8.264  17.956  1.00  0.00    -0.200 F 
ENDBRANCH  73  96
ENDBRANCH  47  48
ENDBRANCH  39  42
ENDBRANCH  37  38
ENDBRANCH  36  37
ENDBRANCH  35  36
ENDBRANCH   1  35
TORSDOF 18
