REMARK SMILES O=C(NCCCCNC(=O)[C@@H]1C[N@H+](Cc2ccco2)CC12CCOCC2)c1ccc(-c2c3nc(c(-c4c(F)c(F)c(F)c(F)c4F)c4ccc([nH]4)c(-c4c(F)c(F)c(F)c(F)c4F)c4nc(c(-c5c(F)c(F)c(F)c(F)c5F)c5ccc2[nH]5)C=C4)C=C3)cc1
REMARK SMILES IDX 5 1 4 2 3 3 1 4 2 5 27 7 28 8 89 9 29 10 88 11 30 12 31 13
REMARK SMILES IDX 32 14 82 15 33 16 87 17 81 18 83 19 34 20 86 21 80 22 79 23
REMARK SMILES IDX 35 25 67 26 47 27 66 28 48 29 51 30 65 31 84 32 49 33 50 34
REMARK SMILES IDX 64 36 85 37 52 38 36 39 37 40 45 41 38 42 39 43 43 44 46 45
REMARK SMILES IDX 40 46 41 47 44 48 42 49 68 50 69 51 77 52 70 53 71 54 75 55
REMARK SMILES IDX 78 56 72 57 73 58 76 59 74 60 53 61 54 62 62 63 55 64 56 65
REMARK SMILES IDX 60 66 63 67 57 68 58 69 61 70 59 71 6 72 7 73 8 74 9 75
REMARK SMILES IDX 10 77 11 78 12 79 21 80 13 81 20 82 22 83 26 84 23 86 25 87
REMARK SMILES IDX 24 88 14 89 15 90 16 91 19 92 17 93 18 94
REMARK H PARENT 3 6 83 24 51 35 8 76 13 85
REMARK Flexibility Score: inf
ROOT
ATOM      1  C   UNL     1       7.388  10.119  -1.996  1.00  0.00     0.023 C 
ENDROOT
BRANCH   1   2
ATOM      2  C   UNL     1       7.903  10.399  -0.605  1.00  0.00     0.116 C 
BRANCH   2   3
ATOM      3  N   UNL     1       9.268  10.892  -0.580  1.00  0.00    -0.352 N 
ATOM      4  O   UNL     1      10.940  12.314  -0.045  1.00  0.00    -0.269 OA
ATOM      5  C   UNL     1       9.782  11.960   0.122  1.00  0.00     0.251 C 
ATOM      6  H   UNL     1       9.911  10.399  -1.139  1.00  0.00     0.163 HD
BRANCH   5   7
ATOM      7  C   UNL     1       8.900  12.698   1.054  1.00  0.00     0.039 A 
ATOM      8  C   UNL     1       8.024  12.007   1.891  1.00  0.00     0.014 A 
ATOM      9  C   UNL     1       8.919  14.096   1.058  1.00  0.00     0.014 A 
ATOM     10  C   UNL     1       7.050  12.701   2.588  1.00  0.00     0.010 A 
ATOM     11  C   UNL     1       8.018  14.799   1.865  1.00  0.00     0.010 A 
ATOM     12  C   UNL     1       7.058  14.105   2.615  1.00  0.00    -0.014 A 
BRANCH  12  13
ATOM     13  C   UNL     1       6.109  14.791   3.526  1.00  0.00     0.031 A 
ATOM     14  C   UNL     1       5.034  15.703   3.012  1.00  0.00     0.074 A 
ATOM     15  C   UNL     1       6.198  14.512   4.842  1.00  0.00     0.049 A 
ATOM     16  N   UNL     1       4.098  16.327   3.684  1.00  0.00    -0.248 NA
ATOM     17  C   UNL     1       5.002  15.960   1.564  1.00  0.00     0.031 C 
ATOM     18  C   UNL     1       7.222  13.654   5.449  1.00  0.00     0.029 A 
ATOM     19  N   UNL     1       5.405  14.874   5.898  1.00  0.00    -0.354 N 
ATOM     20  C   UNL     1       3.382  17.062   2.750  1.00  0.00     0.074 A 
ATOM     21  C   UNL     1       4.000  16.824   1.463  1.00  0.00     0.031 C 
ATOM     22  C   UNL     1       6.949  13.493   6.750  1.00  0.00     0.029 A 
ATOM     23  C   UNL     1       5.784  14.299   7.087  1.00  0.00     0.049 A 
ATOM     24  H   UNL     1       4.639  15.486   5.814  1.00  0.00     0.167 HD
ATOM     25  C   UNL     1       2.304  17.858   2.955  1.00  0.00     0.037 A 
ATOM     26  C   UNL     1       5.261  14.418   8.319  1.00  0.00     0.037 A 
ATOM     27  C   UNL     1       1.689  18.076   4.241  1.00  0.00     0.049 A 
ATOM     28  C   UNL     1       4.062  15.297   8.508  1.00  0.00     0.074 A 
ATOM     29  C   UNL     1       0.593  18.861   4.554  1.00  0.00     0.029 A 
ATOM     30  N   UNL     1       2.116  17.498   5.429  1.00  0.00    -0.354 N 
ATOM     31  N   UNL     1       3.395  15.985   7.614  1.00  0.00    -0.248 NA
ATOM     32  C   UNL     1       3.547  15.423   9.876  1.00  0.00     0.031 C 
ATOM     33  C   UNL     1       0.377  18.785   5.935  1.00  0.00     0.029 A 
ATOM     34  C   UNL     1       1.312  17.919   6.477  1.00  0.00     0.049 A 
ATOM     35  H   UNL     1       2.878  16.881   5.515  1.00  0.00     0.167 HD
ATOM     36  C   UNL     1       2.386  16.631   8.309  1.00  0.00     0.074 A 
ATOM     37  C   UNL     1       2.502  16.217   9.693  1.00  0.00     0.031 C 
ATOM     38  C   UNL     1       1.456  17.503   7.848  1.00  0.00     0.037 A 
BRANCH  25  39
ATOM     39  C   UNL     1       1.718  18.567   1.769  1.00  0.00     0.064 A 
ATOM     40  C   UNL     1       0.964  17.884   0.803  1.00  0.00     0.173 A 
ATOM     41  C   UNL     1       1.849  19.958   1.634  1.00  0.00     0.173 A 
ATOM     42  F   UNL     1       0.818  16.552   0.879  1.00  0.00    -0.203 F 
ATOM     43  C   UNL     1       0.373  18.565  -0.258  1.00  0.00     0.198 A 
ATOM     44  C   UNL     1       1.237  20.639   0.585  1.00  0.00     0.198 A 
ATOM     45  F   UNL     1       2.555  20.660   2.533  1.00  0.00    -0.203 F 
ATOM     46  F   UNL     1      -0.321  17.888  -1.184  1.00  0.00    -0.200 F 
ATOM     47  C   UNL     1       0.502  19.942  -0.362  1.00  0.00     0.200 A 
ATOM     48  F   UNL     1       1.354  21.971   0.493  1.00  0.00    -0.200 F 
ATOM     49  F   UNL     1      -0.081  20.598  -1.375  1.00  0.00    -0.200 F 
ENDBRANCH  25  39
BRANCH  26  50
ATOM     50  C   UNL     1       5.888  13.703   9.459  1.00  0.00     0.064 A 
ATOM     51  C   UNL     1       5.226  12.654  10.111  1.00  0.00     0.173 A 
ATOM     52  C   UNL     1       7.173  14.043   9.909  1.00  0.00     0.173 A 
ATOM     53  F   UNL     1       3.989  12.303   9.727  1.00  0.00    -0.203 F 
ATOM     54  C   UNL     1       5.818  11.984  11.179  1.00  0.00     0.198 A 
ATOM     55  C   UNL     1       7.778  13.350  10.953  1.00  0.00     0.198 A 
ATOM     56  F   UNL     1       7.853  15.033   9.312  1.00  0.00    -0.203 F 
ATOM     57  F   UNL     1       5.146  11.014  11.813  1.00  0.00    -0.200 F 
ATOM     58  C   UNL     1       7.096  12.327  11.594  1.00  0.00     0.200 A 
ATOM     59  F   UNL     1       9.021  13.671  11.335  1.00  0.00    -0.200 F 
ATOM     60  F   UNL     1       7.669  11.675  12.614  1.00  0.00    -0.200 F 
ENDBRANCH  26  50
BRANCH  38  61
ATOM     61  C   UNL     1       0.501  18.058   8.862  1.00  0.00     0.064 A 
ATOM     62  C   UNL     1       0.917  18.999   9.815  1.00  0.00     0.173 A 
ATOM     63  C   UNL     1      -0.837  17.640   8.884  1.00  0.00     0.173 A 
ATOM     64  F   UNL     1       2.193  19.413   9.844  1.00  0.00    -0.203 F 
ATOM     65  C   UNL     1       0.034  19.476  10.779  1.00  0.00     0.198 A 
ATOM     66  C   UNL     1      -1.724  18.140   9.832  1.00  0.00     0.198 A 
ATOM     67  F   UNL     1      -1.281  16.744   7.991  1.00  0.00    -0.203 F 
ATOM     68  F   UNL     1       0.466  20.329  11.718  1.00  0.00    -0.200 F 
ATOM     69  C   UNL     1      -1.286  19.049  10.785  1.00  0.00     0.200 A 
ATOM     70  F   UNL     1      -3.001  17.733   9.833  1.00  0.00    -0.200 F 
ATOM     71  F   UNL     1      -2.134  19.504  11.718  1.00  0.00    -0.200 F 
ENDBRANCH  38  61
ENDBRANCH  12  13
ENDBRANCH   5   7
ENDBRANCH   2   3
ENDBRANCH   1   2
BRANCH   1  72
ATOM     72  C   UNL     1       8.147   9.050  -2.772  1.00  0.00     0.023 C 
BRANCH  72  73
ATOM     73  C   UNL     1       8.175   7.645  -2.152  1.00  0.00     0.116 C 
BRANCH  73  74
ATOM     74  N   UNL     1       6.858   7.059  -1.981  1.00  0.00    -0.356 N 
ATOM     75  C   UNL     1       6.128   6.149  -2.685  1.00  0.00     0.229 C 
ATOM     76  H   UNL     1       6.390   7.392  -1.182  1.00  0.00     0.163 HD
ATOM     77  O   UNL     1       5.110   5.775  -2.094  1.00  0.00    -0.275 OA
BRANCH  75  78
ATOM     78  C   UNL     1       6.592   5.511  -4.010  1.00  0.00     0.145 C 
ATOM     79  C   UNL     1       7.306   6.436  -4.987  1.00  0.00     0.276 C 
ATOM     80  C   UNL     1       5.525   4.790  -4.928  1.00  0.00     0.041 C 
ATOM     81  N   UNL     1       6.418   6.730  -6.092  1.00  0.00    -0.327 N 
ATOM     82  C   UNL     1       5.612   5.541  -6.292  1.00  0.00     0.270 C 
ATOM     83  C   UNL     1       5.921   3.302  -5.139  1.00  0.00     0.042 C 
ATOM     84  C   UNL     1       4.068   4.751  -4.417  1.00  0.00     0.042 C 
ATOM     85  H   UNL     1       6.980   6.925  -6.921  1.00  0.00     0.348 HD
ATOM     86  C   UNL     1       4.922   2.568  -6.037  1.00  0.00     0.161 C 
ATOM     87  C   UNL     1       3.142   3.986  -5.359  1.00  0.00     0.161 C 
ATOM     88  O   UNL     1       3.598   2.644  -5.516  1.00  0.00    -0.381 OA
BRANCH  81  89
ATOM     89  C   UNL     1       5.706   8.014  -6.086  1.00  0.00     0.338 C 
BRANCH  89  90
ATOM     90  C   UNL     1       4.519   8.168  -5.196  1.00  0.00     0.157 A 
ATOM     91  C   UNL     1       4.343   8.558  -3.886  1.00  0.00     0.052 A 
ATOM     92  O   UNL     1       3.292   7.957  -5.766  1.00  0.00    -0.463 OA
ATOM     93  C   UNL     1       2.955   8.543  -3.624  1.00  0.00     0.042 A 
ATOM     94  C   UNL     1       2.356   8.186  -4.807  1.00  0.00     0.195 A 
ENDBRANCH  89  90
ENDBRANCH  81  89
ENDBRANCH  75  78
ENDBRANCH  73  74
ENDBRANCH  72  73
ENDBRANCH   1  72
TORSDOF 13
