REMARK SMILES C[NH2+][C@@]1(C(=O)NCCCCNC(=O)c2ccc(-c3c4nc(c(-c5c(F)c(F)c(F)c(F)c5F)c5ccc([nH]5)c(-c5c(F)c(F)c(F)c(F)c5F)c5nc(c(-c6c(F)c(F)c(F)c(F)c6F)c6ccc3[nH]6)C=C5)C=C4)cc2)CC[C@@H]([N@@H+](C)C2CCCCCC2)C1
REMARK SMILES IDX 7 1 6 2 4 3 5 4 3 6 77 7 89 8 78 9 79 10 2 11 1 12 80 15
REMARK SMILES IDX 81 16 82 18 83 19 84 20 85 21 88 23 87 24 86 25 8 27 9 28
REMARK SMILES IDX 10 29 11 30 12 31 13 33 14 34 15 35 76 36 16 37 75 38 17 39
REMARK SMILES IDX 18 40 19 41 69 42 20 43 74 44 68 45 70 46 21 47 73 48 67 49
REMARK SMILES IDX 66 50 22 52 54 53 34 54 53 55 35 56 38 57 52 58 71 59 36 60
REMARK SMILES IDX 37 61 51 63 72 64 39 65 23 66 24 67 32 68 25 69 26 70 30 71
REMARK SMILES IDX 33 72 27 73 28 74 31 75 29 76 55 77 56 78 64 79 57 80 58 81
REMARK SMILES IDX 62 82 65 83 59 84 60 85 63 86 61 87 40 88 41 89 49 90 42 91
REMARK SMILES IDX 43 92 47 93 50 94 44 95 45 96 48 97 46 98
REMARK H PARENT 6 5 2 13 2 14 80 17 11 32 70 51 38 62
REMARK Flexibility Score: 90.00
ROOT
ATOM      1  C   UNL     1      -3.785   0.988   1.734  1.00  0.00     0.116 C 
ENDROOT
BRANCH   1   2
ATOM      2  N   UNL     1      -2.455   0.793   2.250  1.00  0.00    -0.351 N 
ATOM      3  C   UNL     1      -1.242   0.979   1.664  1.00  0.00     0.281 C 
ATOM      4  O   UNL     1      -0.280   0.989   2.444  1.00  0.00    -0.268 OA
ATOM      5  H   UNL     1      -2.418   0.474   3.180  1.00  0.00     0.163 HD
BRANCH   3   6
ATOM      6  C   UNL     1      -1.048   1.233   0.115  1.00  0.00     0.181 C 
ATOM      7  C   UNL     1      -1.639   2.611  -0.263  1.00  0.00     0.085 C 
ATOM      8  C   UNL     1      -1.738   0.200  -0.797  1.00  0.00     0.144 C 
ATOM      9  C   UNL     1      -2.756   2.408  -1.286  1.00  0.00     0.072 C 
ATOM     10  C   UNL     1      -2.772   0.931  -1.672  1.00  0.00     0.191 C 
BRANCH   6  11
ATOM     11  N   UNL     1       0.427   1.326  -0.143  1.00  0.00    -0.336 N 
ATOM     12  C   UNL     1       1.152   0.059  -0.041  1.00  0.00     0.331 C 
ATOM     13  H   UNL     1       0.562   1.692  -1.085  1.00  0.00     0.346 HD
ATOM     14  H   UNL     1       0.807   1.931   0.585  1.00  0.00     0.346 HD
ENDBRANCH   6  11
BRANCH  10  15
ATOM     15  N   UNL     1      -2.832   0.558  -3.097  1.00  0.00    -0.332 N 
ATOM     16  C   UNL     1      -4.199   0.690  -3.618  1.00  0.00     0.333 C 
ATOM     17  H   UNL     1      -2.522  -0.411  -3.023  1.00  0.00     0.348 HD
BRANCH  15  18
ATOM     18  C   UNL     1      -1.818   1.026  -4.085  1.00  0.00     0.184 C 
BRANCH  18  19
ATOM     19  C   UNL     1      -1.868   2.511  -4.520  1.00  0.00     0.065 C 
BRANCH  19  20
ATOM     20  C   UNL     1      -0.849   3.454  -3.878  1.00  0.00     0.006 C 
BRANCH  20  21
ATOM     21  C   UNL     1       0.497   3.496  -4.586  1.00  0.00     0.000 CG0
ATOM     22  G   UNL     1       1.348   2.249  -4.378  1.00  0.00     0.000 G0
ENDBRANCH  20  21
ENDBRANCH  19  20
ENDBRANCH  18  19
BRANCH  18  23
ATOM     23  C   UNL     1      -0.401   0.499  -3.797  1.00  0.00     0.065 C 
BRANCH  23  24
ATOM     24  C   UNL     1       0.672   0.943  -4.795  1.00  0.00     0.006 C 
BRANCH  24  25
ATOM     25  C   UNL     1       1.348   2.249  -4.378  1.00  0.00     0.000 CG0
ATOM     26  G   UNL     1       0.497   3.496  -4.586  1.00  0.00     0.000 G0
ENDBRANCH  24  25
ENDBRANCH  23  24
ENDBRANCH  18  23
ENDBRANCH  15  18
ENDBRANCH  10  15
ENDBRANCH   3   6
ENDBRANCH   1   2
BRANCH   1  27
ATOM     27  C   UNL     1      -4.552  -0.316   1.556  1.00  0.00     0.023 C 
BRANCH  27  28
ATOM     28  C   UNL     1      -5.524  -0.619   2.692  1.00  0.00     0.023 C 
BRANCH  28  29
ATOM     29  C   UNL     1      -6.556   0.469   2.966  1.00  0.00     0.116 C 
BRANCH  29  30
ATOM     30  N   UNL     1      -7.365   0.847   1.816  1.00  0.00    -0.352 N 
ATOM     31  C   UNL     1      -8.637   1.380   1.846  1.00  0.00     0.251 C 
ATOM     32  H   UNL     1      -6.963   0.708   0.927  1.00  0.00     0.163 HD
ATOM     33  O   UNL     1      -9.261   1.625   0.827  1.00  0.00    -0.269 OA
BRANCH  31  34
ATOM     34  C   UNL     1      -9.241   1.593   3.176  1.00  0.00     0.039 A 
ATOM     35  C   UNL     1     -10.349   0.828   3.540  1.00  0.00     0.014 A 
ATOM     36  C   UNL     1      -8.583   2.402   4.105  1.00  0.00     0.014 A 
ATOM     37  C   UNL     1     -10.748   0.805   4.876  1.00  0.00     0.010 A 
ATOM     38  C   UNL     1      -8.934   2.315   5.445  1.00  0.00     0.010 A 
ATOM     39  C   UNL     1     -10.012   1.508   5.845  1.00  0.00    -0.014 A 
BRANCH  39  40
ATOM     40  C   UNL     1     -10.342   1.405   7.288  1.00  0.00     0.031 A 
ATOM     41  C   UNL     1     -10.779   2.628   8.040  1.00  0.00     0.074 A 
ATOM     42  C   UNL     1     -10.165   0.237   7.937  1.00  0.00     0.049 A 
ATOM     43  N   UNL     1     -11.026   2.772   9.317  1.00  0.00    -0.248 NA
ATOM     44  C   UNL     1     -10.919   3.867   7.258  1.00  0.00     0.031 C 
ATOM     45  C   UNL     1      -9.676  -1.004   7.333  1.00  0.00     0.029 A 
ATOM     46  N   UNL     1     -10.363  -0.093   9.254  1.00  0.00    -0.354 N 
ATOM     47  C   UNL     1     -11.322   4.116   9.492  1.00  0.00     0.074 A 
ATOM     48  C   UNL     1     -11.172   4.757   8.204  1.00  0.00     0.031 C 
ATOM     49  C   UNL     1      -9.635  -1.965   8.271  1.00  0.00     0.029 A 
ATOM     50  C   UNL     1     -10.066  -1.402   9.547  1.00  0.00     0.049 A 
ATOM     51  H   UNL     1     -10.687   0.549   9.927  1.00  0.00     0.167 HD
ATOM     52  C   UNL     1     -11.710   4.754  10.621  1.00  0.00     0.037 A 
ATOM     53  C   UNL     1     -10.136  -2.070  10.714  1.00  0.00     0.037 A 
ATOM     54  C   UNL     1     -11.907   4.104  11.888  1.00  0.00     0.049 A 
ATOM     55  C   UNL     1     -10.617  -1.349  11.944  1.00  0.00     0.074 A 
ATOM     56  C   UNL     1     -12.380   4.645  13.070  1.00  0.00     0.029 A 
ATOM     57  N   UNL     1     -11.648   2.764  12.133  1.00  0.00    -0.354 N 
ATOM     58  N   UNL     1     -10.970  -0.095  12.082  1.00  0.00    -0.248 NA
ATOM     59  C   UNL     1     -10.719  -2.140  13.180  1.00  0.00     0.031 C 
ATOM     60  C   UNL     1     -12.377   3.638  14.041  1.00  0.00     0.029 A 
ATOM     61  C   UNL     1     -11.939   2.462  13.453  1.00  0.00     0.049 A 
ATOM     62  H   UNL     1     -11.307   2.123  11.469  1.00  0.00     0.167 HD
ATOM     63  C   UNL     1     -11.358   0.050  13.407  1.00  0.00     0.074 A 
ATOM     64  C   UNL     1     -11.211  -1.249  14.030  1.00  0.00     0.031 C 
ATOM     65  C   UNL     1     -11.795   1.160  14.050  1.00  0.00     0.037 A 
BRANCH  52  66
ATOM     66  C   UNL     1     -11.961   6.229  10.527  1.00  0.00     0.064 A 
ATOM     67  C   UNL     1     -13.069   6.743   9.835  1.00  0.00     0.173 A 
ATOM     68  C   UNL     1     -11.097   7.140  11.153  1.00  0.00     0.173 A 
ATOM     69  F   UNL     1     -13.915   5.914   9.206  1.00  0.00    -0.203 F 
ATOM     70  C   UNL     1     -13.284   8.115   9.747  1.00  0.00     0.198 A 
ATOM     71  C   UNL     1     -11.333   8.510  11.088  1.00  0.00     0.198 A 
ATOM     72  F   UNL     1     -10.025   6.700  11.830  1.00  0.00    -0.203 F 
ATOM     73  F   UNL     1     -14.319   8.585   9.036  1.00  0.00    -0.200 F 
ATOM     74  C   UNL     1     -12.421   8.997  10.379  1.00  0.00     0.200 A 
ATOM     75  F   UNL     1     -10.503   9.362  11.707  1.00  0.00    -0.200 F 
ATOM     76  F   UNL     1     -12.632  10.318  10.296  1.00  0.00    -0.200 F 
ENDBRANCH  52  66
BRANCH  53  77
ATOM     77  C   UNL     1      -9.779  -3.511  10.768  1.00  0.00     0.064 A 
ATOM     78  C   UNL     1     -10.769  -4.490  10.934  1.00  0.00     0.173 A 
ATOM     79  C   UNL     1      -8.449  -3.940  10.658  1.00  0.00     0.173 A 
ATOM     80  F   UNL     1     -12.053  -4.126  11.065  1.00  0.00    -0.203 F 
ATOM     81  C   UNL     1     -10.441  -5.842  11.007  1.00  0.00     0.198 A 
ATOM     82  C   UNL     1      -8.124  -5.295  10.707  1.00  0.00     0.198 A 
ATOM     83  F   UNL     1      -7.465  -3.044  10.492  1.00  0.00    -0.203 F 
ATOM     84  F   UNL     1     -11.403  -6.753  11.207  1.00  0.00    -0.200 F 
ATOM     85  C   UNL     1      -9.119  -6.244  10.888  1.00  0.00     0.200 A 
ATOM     86  F   UNL     1      -6.847  -5.681  10.579  1.00  0.00    -0.200 F 
ATOM     87  F   UNL     1      -8.804  -7.544  10.955  1.00  0.00    -0.200 F 
ENDBRANCH  53  77
BRANCH  65  88
ATOM     88  C   UNL     1     -12.175   1.013  15.493  1.00  0.00     0.064 A 
ATOM     89  C   UNL     1     -11.206   0.871  16.496  1.00  0.00     0.173 A 
ATOM     90  C   UNL     1     -13.523   1.067  15.880  1.00  0.00     0.173 A 
ATOM     91  F   UNL     1      -9.906   0.800  16.172  1.00  0.00    -0.203 F 
ATOM     92  C   UNL     1     -11.573   0.770  17.834  1.00  0.00     0.198 A 
ATOM     93  C   UNL     1     -13.885   0.991  17.222  1.00  0.00     0.198 A 
ATOM     94  F   UNL     1     -14.486   1.208  14.958  1.00  0.00    -0.203 F 
ATOM     95  F   UNL     1     -10.633   0.597  18.774  1.00  0.00    -0.200 F 
ATOM     96  C   UNL     1     -12.911   0.838  18.197  1.00  0.00     0.200 A 
ATOM     97  F   UNL     1     -15.176   1.068  17.571  1.00  0.00    -0.200 F 
ATOM     98  F   UNL     1     -13.261   0.749  19.487  1.00  0.00    -0.200 F 
ENDBRANCH  65  88
ENDBRANCH  39  40
ENDBRANCH  31  34
ENDBRANCH  29  30
ENDBRANCH  28  29
ENDBRANCH  27  28
ENDBRANCH   1  27
TORSDOF 14
