REMARK SMILES O=C(NCCCCNC(=O)[C@H]1COCCN1C(=O)c1ccc(Br)nc1)c1ccc(-c2c3nc(c(-c4c(F)c(F)c(F)c(F)c4F)c4ccc([nH]4)c(-c4c(F)c(F)c(F)c(F)c4F)c4nc(c(-c5c(F)c(F)c(F)c(F)c5F)c5ccc2[nH]5)C=C4)C=C3)cc1
REMARK SMILES IDX 5 1 4 2 3 3 1 4 2 5 26 7 27 8 88 9 28 10 87 11 29 12 30 13
REMARK SMILES IDX 31 14 81 15 32 16 86 17 80 18 82 19 33 20 85 21 79 22 78 23
REMARK SMILES IDX 34 25 66 26 46 27 65 28 47 29 50 30 64 31 83 32 48 33 49 34
REMARK SMILES IDX 63 36 84 37 51 38 35 39 36 40 44 41 37 42 38 43 42 44 45 45
REMARK SMILES IDX 39 46 40 47 43 48 41 49 67 50 68 51 76 52 69 53 70 54 74 55
REMARK SMILES IDX 77 56 71 57 72 58 75 59 73 60 52 61 53 62 61 63 54 64 55 65
REMARK SMILES IDX 59 66 62 67 56 68 57 69 60 70 58 71 6 72 7 73 8 74 9 75
REMARK SMILES IDX 10 77 11 78 12 79 16 80 13 81 15 82 14 83 17 84 18 85 19 86
REMARK SMILES IDX 20 87 25 88 21 89 24 90 22 91 23 92
REMARK H PARENT 3 6 82 24 50 35 8 76
REMARK Flexibility Score: inf
ROOT
ATOM      1  C   UNL     1      11.225   2.171   6.639  1.00  0.00     0.023 C 
ENDROOT
BRANCH   1   2
ATOM      2  C   UNL     1      11.491   0.684   6.812  1.00  0.00     0.116 C 
BRANCH   2   3
ATOM      3  N   UNL     1      12.044   0.068   5.617  1.00  0.00    -0.352 N 
ATOM      4  O   UNL     1      13.559  -1.089   4.405  1.00  0.00    -0.269 OA
ATOM      5  C   UNL     1      13.139  -0.752   5.508  1.00  0.00     0.251 C 
ATOM      6  H   UNL     1      11.571   0.265   4.776  1.00  0.00     0.163 HD
BRANCH   5   7
ATOM      7  C   UNL     1      13.823  -1.213   6.732  1.00  0.00     0.039 A 
ATOM      8  C   UNL     1      13.088  -1.734   7.801  1.00  0.00     0.014 A 
ATOM      9  C   UNL     1      15.215  -1.124   6.806  1.00  0.00     0.014 A 
ATOM     10  C   UNL     1      13.735  -2.068   8.985  1.00  0.00     0.010 A 
ATOM     11  C   UNL     1      15.872  -1.533   7.968  1.00  0.00     0.010 A 
ATOM     12  C   UNL     1      15.135  -1.998   9.068  1.00  0.00    -0.014 A 
BRANCH  12  13
ATOM     13  C   UNL     1      15.820  -2.531  10.269  1.00  0.00     0.031 A 
ATOM     14  C   UNL     1      16.593  -1.635  11.190  1.00  0.00     0.074 A 
ATOM     15  C   UNL     1      15.749  -3.856  10.501  1.00  0.00     0.049 A 
ATOM     16  N   UNL     1      17.289  -1.953  12.252  1.00  0.00    -0.248 NA
ATOM     17  C   UNL     1      16.598  -0.197  10.879  1.00  0.00     0.031 C 
ATOM     18  C   UNL     1      15.040  -4.819   9.654  1.00  0.00     0.029 A 
ATOM     19  N   UNL     1      16.279  -4.625  11.504  1.00  0.00    -0.354 N 
ATOM     20  C   UNL     1      17.831  -0.765  12.723  1.00  0.00     0.074 A 
ATOM     21  C   UNL     1      17.394   0.283  11.826  1.00  0.00     0.031 C 
ATOM     22  C   UNL     1      15.165  -6.045  10.180  1.00  0.00     0.029 A 
ATOM     23  C   UNL     1      16.015  -5.965  11.361  1.00  0.00     0.049 A 
ATOM     24  H   UNL     1      16.797  -4.253  12.254  1.00  0.00     0.167 HD
ATOM     25  C   UNL     1      18.619  -0.578  13.809  1.00  0.00     0.037 A 
ATOM     26  C   UNL     1      16.444  -7.019  12.078  1.00  0.00     0.037 A 
ATOM     27  C   UNL     1      19.021  -1.629  14.709  1.00  0.00     0.049 A 
ATOM     28  C   UNL     1      17.342  -6.778  13.256  1.00  0.00     0.074 A 
ATOM     29  C   UNL     1      19.738  -1.525  15.889  1.00  0.00     0.029 A 
ATOM     30  N   UNL     1      18.754  -2.977  14.520  1.00  0.00    -0.354 N 
ATOM     31  N   UNL     1      17.786  -5.642  13.735  1.00  0.00    -0.248 NA
ATOM     32  C   UNL     1      17.807  -7.963  13.988  1.00  0.00     0.031 C 
ATOM     33  C   UNL     1      19.955  -2.815  16.383  1.00  0.00     0.029 A 
ATOM     34  C   UNL     1      19.333  -3.720  15.538  1.00  0.00     0.049 A 
ATOM     35  H   UNL     1      18.232  -3.351  13.775  1.00  0.00     0.167 HD
ATOM     36  C   UNL     1      18.576  -5.972  14.825  1.00  0.00     0.074 A 
ATOM     37  C   UNL     1      18.529  -7.414  14.954  1.00  0.00     0.031 C 
ATOM     38  C   UNL     1      19.283  -5.155  15.642  1.00  0.00     0.037 A 
BRANCH  25  39
ATOM     39  C   UNL     1      19.123   0.806  14.091  1.00  0.00     0.064 A 
ATOM     40  C   UNL     1      18.289   1.806  14.610  1.00  0.00     0.173 A 
ATOM     41  C   UNL     1      20.485   1.105  13.928  1.00  0.00     0.173 A 
ATOM     42  F   UNL     1      16.979   1.572  14.779  1.00  0.00    -0.203 F 
ATOM     43  C   UNL     1      18.799   3.058  14.949  1.00  0.00     0.198 A 
ATOM     44  C   UNL     1      20.995   2.349  14.289  1.00  0.00     0.198 A 
ATOM     45  F   UNL     1      21.327   0.180  13.443  1.00  0.00    -0.203 F 
ATOM     46  F   UNL     1      17.980   4.006  15.426  1.00  0.00    -0.200 F 
ATOM     47  C   UNL     1      20.152   3.325  14.798  1.00  0.00     0.200 A 
ATOM     48  F   UNL     1      22.305   2.600  14.155  1.00  0.00    -0.200 F 
ATOM     49  F   UNL     1      20.643   4.523  15.144  1.00  0.00    -0.200 F 
ENDBRANCH  25  39
BRANCH  26  50
ATOM     50  C   UNL     1      16.060  -8.394  11.669  1.00  0.00     0.064 A 
ATOM     51  C   UNL     1      15.207  -9.174  12.460  1.00  0.00     0.173 A 
ATOM     52  C   UNL     1      16.538  -8.954  10.474  1.00  0.00     0.173 A 
ATOM     53  F   UNL     1      14.740  -8.689  13.620  1.00  0.00    -0.203 F 
ATOM     54  C   UNL     1      14.861 -10.469  12.081  1.00  0.00     0.198 A 
ATOM     55  C   UNL     1      16.165 -10.236  10.080  1.00  0.00     0.198 A 
ATOM     56  F   UNL     1      17.352  -8.246   9.678  1.00  0.00    -0.203 F 
ATOM     57  F   UNL     1      14.080 -11.211  12.878  1.00  0.00    -0.200 F 
ATOM     58  C   UNL     1      15.335 -10.997  10.888  1.00  0.00     0.200 A 
ATOM     59  F   UNL     1      16.610 -10.734   8.918  1.00  0.00    -0.200 F 
ATOM     60  F   UNL     1      14.996 -12.240  10.522  1.00  0.00    -0.200 F 
ENDBRANCH  26  50
BRANCH  38  61
ATOM     61  C   UNL     1      20.061  -5.804  16.747  1.00  0.00     0.064 A 
ATOM     62  C   UNL     1      21.240  -6.517  16.485  1.00  0.00     0.173 A 
ATOM     63  C   UNL     1      19.648  -5.679  18.081  1.00  0.00     0.173 A 
ATOM     64  F   UNL     1      21.663  -6.681  15.222  1.00  0.00    -0.203 F 
ATOM     65  C   UNL     1      21.968  -7.097  17.519  1.00  0.00     0.198 A 
ATOM     66  C   UNL     1      20.393  -6.236  19.115  1.00  0.00     0.198 A 
ATOM     67  F   UNL     1      18.528  -5.004  18.382  1.00  0.00    -0.203 F 
ATOM     68  F   UNL     1      23.069  -7.809  17.243  1.00  0.00    -0.200 F 
ATOM     69  C   UNL     1      21.549  -6.948  18.833  1.00  0.00     0.200 A 
ATOM     70  F   UNL     1      19.994  -6.082  20.385  1.00  0.00    -0.200 F 
ATOM     71  F   UNL     1      22.257  -7.499  19.829  1.00  0.00    -0.200 F 
ENDBRANCH  38  61
ENDBRANCH  12  13
ENDBRANCH   5   7
ENDBRANCH   2   3
ENDBRANCH   1   2
BRANCH   1  72
ATOM     72  C   UNL     1      10.225   2.523   5.539  1.00  0.00     0.023 C 
BRANCH  72  73
ATOM     73  C   UNL     1       8.876   1.815   5.638  1.00  0.00     0.116 C 
BRANCH  73  74
ATOM     74  N   UNL     1       8.180   2.178   6.856  1.00  0.00    -0.354 N 
ATOM     75  C   UNL     1       7.006   2.839   7.064  1.00  0.00     0.245 C 
ATOM     76  H   UNL     1       8.637   1.897   7.681  1.00  0.00     0.163 HD
ATOM     77  O   UNL     1       6.736   3.108   8.237  1.00  0.00    -0.273 OA
BRANCH  75  78
ATOM     78  C   UNL     1       6.112   3.270   5.878  1.00  0.00     0.200 C 
ATOM     79  C   UNL     1       4.661   2.817   6.147  1.00  0.00     0.195 C 
ATOM     80  N   UNL     1       6.161   4.734   5.646  1.00  0.00    -0.322 N 
ATOM     81  O   UNL     1       3.979   3.606   7.130  1.00  0.00    -0.377 OA
ATOM     82  C   UNL     1       5.429   5.522   6.646  1.00  0.00     0.149 C 
ATOM     83  C   UNL     1       4.001   5.000   6.805  1.00  0.00     0.181 C 
BRANCH  80  84
ATOM     84  C   UNL     1       6.915   5.415   4.699  1.00  0.00     0.256 C 
ATOM     85  O   UNL     1       7.054   6.636   4.694  1.00  0.00    -0.269 OA
BRANCH  84  86
ATOM     86  C   UNL     1       7.600   4.680   3.624  1.00  0.00     0.058 A 
ATOM     87  C   UNL     1       6.944   3.810   2.754  1.00  0.00     0.018 A 
ATOM     88  C   UNL     1       8.954   4.907   3.428  1.00  0.00     0.126 A 
ATOM     89  C   UNL     1       7.687   3.129   1.788  1.00  0.00     0.037 A 
ATOM     90  N   UNL     1       9.701   4.242   2.513  1.00  0.00    -0.249 NA
ATOM     91  C   UNL     1       9.054   3.365   1.715  1.00  0.00     0.106 A 
ATOM     92  Br  UNL     1      10.088   2.389   0.463  1.00  0.00    -0.029 Br
ENDBRANCH  84  86
ENDBRANCH  80  84
ENDBRANCH  75  78
ENDBRANCH  73  74
ENDBRANCH  72  73
ENDBRANCH   1  72
TORSDOF 13
