REMARK SMILES C[C@]12c3ccccc3[C@](C)(c3ccccc31)[C@@H]1C(=O)N(c3ccc(C(=O)NCCCCNC(=O)c4ccc(-c5c6nc(c(-c7c(F)c(F)c(F)c(F)c7F)c7ccc([nH]7)c(-c7c(F)c(F)c(F)c(F)c7F)c7nc(c(-c8c(F)c(F)c(F)c(F)c8F)c8ccc5[nH]8)C=C7)C=C6)cc4)cc3)C(=O)[C@H]12
REMARK SMILES IDX 30 1 29 2 28 3 27 4 25 5 26 6 24 8 21 9 22 10 99 11 23 12
REMARK SMILES IDX 98 13 20 14 1 15 2 16 16 17 3 18 102 19 15 20 11 21 8 22
REMARK SMILES IDX 4 23 17 24 100 25 14 26 12 27 9 28 7 29 5 30 18 31 101 32
REMARK SMILES IDX 13 33 10 34 6 35 19 36 31 37 32 38 33 39 34 41 35 42 36 43
REMARK SMILES IDX 97 44 37 45 96 46 38 47 39 48 40 49 90 50 41 51 95 52 89 53
REMARK SMILES IDX 91 54 42 55 94 56 88 57 87 58 43 60 75 61 55 62 74 63 56 64
REMARK SMILES IDX 59 65 73 66 92 67 57 68 58 69 72 71 93 72 60 73 44 74 45 75
REMARK SMILES IDX 53 76 46 77 47 78 51 79 54 80 48 81 49 82 52 83 50 84 76 85
REMARK SMILES IDX 77 86 85 87 78 88 79 89 83 90 86 91 80 92 81 93 84 94 82 95
REMARK SMILES IDX 61 96 62 97 70 98 63 99 64 100 68 101 71 102 65 103 66 104
REMARK SMILES IDX 69 105 67 106
REMARK H PARENT 27 7 32 40 91 59 59 70
REMARK Flexibility Score: inf
ROOT
ATOM      1  C   UNL     1      -3.926   5.183   9.333  1.00  0.00     0.023 C 
ENDROOT
BRANCH   1   2
ATOM      2  C   UNL     1      -3.307   4.191   8.358  1.00  0.00     0.023 C 
BRANCH   2   3
ATOM      3  C   UNL     1      -4.240   3.631   7.291  1.00  0.00     0.116 C 
BRANCH   3   4
ATOM      4  N   UNL     1      -4.825   4.635   6.419  1.00  0.00    -0.352 N 
ATOM      5  C   UNL     1      -5.004   4.619   5.053  1.00  0.00     0.251 C 
ATOM      6  O   UNL     1      -5.497   5.596   4.496  1.00  0.00    -0.269 OA
ATOM      7  H   UNL     1      -5.141   5.450   6.872  1.00  0.00     0.163 HD
BRANCH   5   8
ATOM      8  C   UNL     1      -4.541   3.468   4.242  1.00  0.00     0.039 A 
ATOM      9  C   UNL     1      -3.296   1.371   2.842  1.00  0.00     0.052 A 
ATOM     10  C   UNL     1      -3.212   2.689   2.375  1.00  0.00     0.027 A 
ATOM     11  C   UNL     1      -4.113   1.106   3.950  1.00  0.00     0.027 A 
ATOM     12  C   UNL     1      -3.841   3.732   3.062  1.00  0.00     0.016 A 
ATOM     13  C   UNL     1      -4.745   2.145   4.637  1.00  0.00     0.016 A 
BRANCH   9  14
ATOM     14  N   UNL     1      -2.521   0.339   2.261  1.00  0.00    -0.250 N 
ATOM     15  C   UNL     1       1.289  -0.303  -0.103  1.00  0.00     0.022 C 
ATOM     16  C   UNL     1       0.405  -1.361   0.555  1.00  0.00     0.030 C 
ATOM     17  C   UNL     1       1.086  -2.189   1.675  1.00  0.00    -0.033 A 
ATOM     18  C   UNL     1      -0.150  -2.446  -0.424  1.00  0.00    -0.033 A 
ATOM     19  C   UNL     1      -0.948  -0.775   1.030  1.00  0.00     0.108 C 
ATOM     20  C   UNL     1       2.405  -2.063   2.104  1.00  0.00     0.005 A 
ATOM     21  C   UNL     1       0.256  -3.221   2.236  1.00  0.00    -0.033 A 
ATOM     22  C   UNL     1      -1.088  -3.344   0.193  1.00  0.00    -0.033 A 
ATOM     23  C   UNL     1       0.152  -2.560  -1.778  1.00  0.00     0.005 A 
ATOM     24  C   UNL     1      -1.536  -1.705   2.092  1.00  0.00     0.108 C 
ATOM     25  C   UNL     1      -1.265   0.542   1.664  1.00  0.00     0.238 C 
ATOM     26  C   UNL     1       2.900  -2.953   3.060  1.00  0.00     0.000 A 
ATOM     27  C   UNL     1       0.767  -4.110   3.178  1.00  0.00     0.005 A 
ATOM     28  C   UNL     1      -1.220  -3.171   1.725  1.00  0.00     0.030 C 
ATOM     29  C   UNL     1      -1.723  -4.313  -0.578  1.00  0.00     0.005 A 
ATOM     30  C   UNL     1      -0.487  -3.545  -2.530  1.00  0.00     0.000 A 
ATOM     31  C   UNL     1      -2.841  -1.023   2.329  1.00  0.00     0.238 C 
ATOM     32  O   UNL     1      -0.585   1.549   1.594  1.00  0.00    -0.274 OA
ATOM     33  C   UNL     1       2.093  -3.972   3.584  1.00  0.00     0.000 A 
ATOM     34  C   UNL     1      -2.167  -4.148   2.419  1.00  0.00     0.022 C 
ATOM     35  C   UNL     1      -1.422  -4.405  -1.939  1.00  0.00     0.000 A 
ATOM     36  O   UNL     1      -3.888  -1.568   2.637  1.00  0.00    -0.274 OA
ENDBRANCH   9  14
ENDBRANCH   5   8
ENDBRANCH   3   4
ENDBRANCH   2   3
ENDBRANCH   1   2
BRANCH   1  37
ATOM     37  C   UNL     1      -5.231   4.743   9.982  1.00  0.00     0.116 C 
BRANCH  37  38
ATOM     38  N   UNL     1      -5.118   3.524  10.773  1.00  0.00    -0.352 N 
ATOM     39  C   UNL     1      -5.387   3.299  12.106  1.00  0.00     0.251 C 
ATOM     40  H   UNL     1      -4.799   2.736  10.276  1.00  0.00     0.163 HD
ATOM     41  O   UNL     1      -5.137   2.209  12.610  1.00  0.00    -0.269 OA
BRANCH  39  42
ATOM     42  C   UNL     1      -5.929   4.391  12.944  1.00  0.00     0.039 A 
ATOM     43  C   UNL     1      -6.934   5.224  12.458  1.00  0.00     0.014 A 
ATOM     44  C   UNL     1      -5.386   4.620  14.212  1.00  0.00     0.014 A 
ATOM     45  C   UNL     1      -7.213   6.413  13.117  1.00  0.00     0.010 A 
ATOM     46  C   UNL     1      -5.769   5.753  14.938  1.00  0.00     0.010 A 
ATOM     47  C   UNL     1      -6.635   6.698  14.366  1.00  0.00    -0.014 A 
BRANCH  47  48
ATOM     48  C   UNL     1      -6.958   7.991  15.030  1.00  0.00     0.031 A 
ATOM     49  C   UNL     1      -5.885   9.007  15.327  1.00  0.00     0.074 A 
ATOM     50  C   UNL     1      -8.249   8.286  15.286  1.00  0.00     0.049 A 
ATOM     51  N   UNL     1      -6.008  10.213  15.826  1.00  0.00    -0.248 NA
ATOM     52  C   UNL     1      -4.494   8.627  15.035  1.00  0.00     0.031 C 
ATOM     53  C   UNL     1      -9.377   7.385  15.042  1.00  0.00     0.029 A 
ATOM     54  N   UNL     1      -8.838   9.429  15.765  1.00  0.00    -0.354 N 
ATOM     55  C   UNL     1      -4.720  10.724  15.918  1.00  0.00     0.074 A 
ATOM     56  C   UNL     1      -3.821   9.686  15.464  1.00  0.00     0.031 C 
ATOM     57  C   UNL     1     -10.522   8.033  15.294  1.00  0.00     0.029 A 
ATOM     58  C   UNL     1     -10.210   9.368  15.794  1.00  0.00     0.049 A 
ATOM     59  H   UNL     1      -8.326  10.217  16.058  1.00  0.00     0.167 HD
ATOM     60  C   UNL     1      -4.325  11.956  16.322  1.00  0.00     0.037 A 
ATOM     61  C   UNL     1     -11.122  10.277  16.188  1.00  0.00     0.037 A 
ATOM     62  C   UNL     1      -5.226  12.995  16.749  1.00  0.00     0.049 A 
ATOM     63  C   UNL     1     -10.652  11.616  16.679  1.00  0.00     0.074 A 
ATOM     64  C   UNL     1      -4.920  14.283  17.155  1.00  0.00     0.029 A 
ATOM     65  N   UNL     1      -6.605  12.868  16.826  1.00  0.00    -0.354 N 
ATOM     66  N   UNL     1      -9.433  12.093  16.734  1.00  0.00    -0.248 NA
ATOM     67  C   UNL     1     -11.681  12.542  17.172  1.00  0.00     0.031 C 
ATOM     68  C   UNL     1      -6.107  14.916  17.531  1.00  0.00     0.029 A 
ATOM     69  C   UNL     1      -7.160  14.046  17.299  1.00  0.00     0.049 A 
ATOM     70  H   UNL     1      -7.113  12.061  16.580  1.00  0.00     0.167 HD
ATOM     71  C   UNL     1      -9.548  13.377  17.245  1.00  0.00     0.074 A 
ATOM     72  C   UNL     1     -10.958  13.613  17.471  1.00  0.00     0.031 C 
ATOM     73  C   UNL     1      -8.568  14.276  17.505  1.00  0.00     0.037 A 
BRANCH  60  74
ATOM     74  C   UNL     1      -2.854  12.265  16.326  1.00  0.00     0.064 A 
ATOM     75  C   UNL     1      -2.136  12.436  15.133  1.00  0.00     0.173 A 
ATOM     76  C   UNL     1      -2.175  12.485  17.535  1.00  0.00     0.173 A 
ATOM     77  F   UNL     1      -2.734  12.232  13.949  1.00  0.00    -0.203 F 
ATOM     78  C   UNL     1      -0.792  12.801  15.150  1.00  0.00     0.198 A 
ATOM     79  C   UNL     1      -0.840  12.880  17.548  1.00  0.00     0.198 A 
ATOM     80  F   UNL     1      -2.816  12.346  18.706  1.00  0.00    -0.203 F 
ATOM     81  F   UNL     1      -0.119  12.928  13.998  1.00  0.00    -0.200 F 
ATOM     82  C   UNL     1      -0.148  13.034  16.356  1.00  0.00     0.200 A 
ATOM     83  F   UNL     1      -0.225  13.124  18.714  1.00  0.00    -0.200 F 
ATOM     84  F   UNL     1       1.139  13.407  16.370  1.00  0.00    -0.200 F 
ENDBRANCH  60  74
BRANCH  61  85
ATOM     85  C   UNL     1     -12.569   9.942  16.116  1.00  0.00     0.064 A 
ATOM     86  C   UNL     1     -13.416  10.595  15.211  1.00  0.00     0.173 A 
ATOM     87  C   UNL     1     -13.125   8.935  16.920  1.00  0.00     0.173 A 
ATOM     88  F   UNL     1     -12.937  11.576  14.433  1.00  0.00    -0.203 F 
ATOM     89  C   UNL     1     -14.765  10.257  15.117  1.00  0.00     0.198 A 
ATOM     90  C   UNL     1     -14.465   8.575  16.801  1.00  0.00     0.198 A 
ATOM     91  F   UNL     1     -12.356   8.275  17.799  1.00  0.00    -0.203 F 
ATOM     92  F   UNL     1     -15.561  10.919  14.266  1.00  0.00    -0.200 F 
ATOM     93  C   UNL     1     -15.286   9.240  15.904  1.00  0.00     0.200 A 
ATOM     94  F   UNL     1     -14.957   7.577  17.548  1.00  0.00    -0.200 F 
ATOM     95  F   UNL     1     -16.578   8.903  15.798  1.00  0.00    -0.200 F 
ENDBRANCH  61  85
BRANCH  73  96
ATOM     96  C   UNL     1      -8.969  15.619  18.041  1.00  0.00     0.064 A 
ATOM     97  C   UNL     1      -9.399  15.780  19.365  1.00  0.00     0.173 A 
ATOM     98  C   UNL     1      -8.810  16.770  17.254  1.00  0.00     0.173 A 
ATOM     99  F   UNL     1      -9.579  14.709  20.152  1.00  0.00    -0.203 F 
ATOM    100  C   UNL     1      -9.653  17.047  19.884  1.00  0.00     0.198 A 
ATOM    101  C   UNL     1      -9.037  18.037  17.785  1.00  0.00     0.198 A 
ATOM    102  F   UNL     1      -8.394  16.669  15.982  1.00  0.00    -0.203 F 
ATOM    103  F   UNL     1     -10.081  17.177  21.147  1.00  0.00    -0.200 F 
ATOM    104  C   UNL     1      -9.457  18.174  19.099  1.00  0.00     0.200 A 
ATOM    105  F   UNL     1      -8.828  19.125  17.031  1.00  0.00    -0.200 F 
ATOM    106  F   UNL     1      -9.672  19.394  19.610  1.00  0.00    -0.200 F 
ENDBRANCH  73  96
ENDBRANCH  47  48
ENDBRANCH  39  42
ENDBRANCH  37  38
ENDBRANCH   1  37
TORSDOF 12
