REMARK SMILES CCSc1ccc(-c2cc(Cl)cc3c2O[C@H](C(F)(F)F)C(C(=O)NCCCCNC(=O)c2ccc(-c4c5nc(c(-c6c(F)c(F)c(F)c(F)c6F)c6ccc([nH]6)c(-c6c(F)c(F)c(F)c(F)c6F)c6nc(c(-c7c(F)c(F)c(F)c(F)c7F)c7ccc4[nH]7)C=C6)C=C5)cc2)=C3)cc1
REMARK SMILES IDX 26 1 25 2 24 3 22 4 23 5 21 7 8 8 9 9 14 10 10 11 13 12
REMARK SMILES IDX 15 13 11 14 12 15 95 16 16 17 7 18 4 19 5 20 97 21 6 22
REMARK SMILES IDX 96 23 3 24 2 25 1 26 17 27 18 28 19 29 20 30 27 31 28 32
REMARK SMILES IDX 29 33 30 34 31 36 32 37 33 38 94 39 34 40 93 41 35 42 36 43
REMARK SMILES IDX 37 44 87 45 38 46 92 47 86 48 88 49 39 50 91 51 85 52 84 53
REMARK SMILES IDX 40 55 72 56 52 57 71 58 53 59 56 60 70 61 89 62 54 63 55 64
REMARK SMILES IDX 69 66 90 67 57 68 41 69 42 70 50 71 43 72 44 73 48 74 51 75
REMARK SMILES IDX 45 76 46 77 49 78 47 79 73 80 74 81 82 82 75 83 76 84 80 85
REMARK SMILES IDX 83 86 77 87 78 88 81 89 79 90 58 91 59 92 67 93 60 94 61 95
REMARK SMILES IDX 65 96 68 97 62 98 63 99 66 100 64 101
REMARK H PARENT 24 6 29 35 88 54 56 65
REMARK Flexibility Score: inf
ROOT
ATOM      1  C   UNL     1      14.996  -2.213   1.909  1.00  0.00     0.023 C 
ENDROOT
BRANCH   1   2
ATOM      2  C   UNL     1      14.111  -1.239   1.119  1.00  0.00     0.116 C 
BRANCH   2   3
ATOM      3  N   UNL     1      13.433  -1.953   0.060  1.00  0.00    -0.352 N 
ATOM      4  C   UNL     1      12.146  -1.888  -0.344  1.00  0.00     0.251 C 
ATOM      5  O   UNL     1      11.660  -2.885  -0.869  1.00  0.00    -0.270 OA
ATOM      6  H   UNL     1      13.997  -2.583  -0.444  1.00  0.00     0.163 HD
BRANCH   4   7
ATOM      7  C   UNL     1      11.417  -0.588  -0.234  1.00  0.00     0.067 C 
ATOM      8  C   UNL     1       7.735  -1.866  -1.390  1.00  0.00     0.026 A 
ATOM      9  C   UNL     1       7.914  -2.674  -2.543  1.00  0.00     0.033 A 
ATOM     10  C   UNL     1       8.832  -1.085  -0.995  1.00  0.00     0.135 A 
ATOM     11  C   UNL     1       9.041  -2.578  -3.354  1.00  0.00     0.042 A 
ATOM     12  C   UNL     1       9.914  -0.912  -1.892  1.00  0.00     0.019 A 
ATOM     13  O   UNL     1       8.936  -0.513   0.263  1.00  0.00    -0.475 OA
ATOM     14  Cl  UNL     1       9.203  -3.610  -4.718  1.00  0.00    -0.084 Cl
ATOM     15  C   UNL     1      10.015  -1.638  -3.076  1.00  0.00     0.032 A 
ATOM     16  C   UNL     1      11.059  -0.092  -1.436  1.00  0.00     0.025 C 
ATOM     17  C   UNL     1      10.318  -0.566   0.827  1.00  0.00     0.314 C 
BRANCH   8  18
ATOM     18  C   UNL     1       6.334  -1.777  -0.907  1.00  0.00    -0.015 A 
ATOM     19  C   UNL     1       3.509  -1.756  -1.253  1.00  0.00     0.007 A 
ATOM     20  C   UNL     1       4.182  -2.934  -0.914  1.00  0.00     0.015 A 
ATOM     21  C   UNL     1       4.238  -0.566  -1.291  1.00  0.00     0.015 A 
ATOM     22  C   UNL     1       5.570  -2.943  -0.719  1.00  0.00     0.010 A 
ATOM     23  C   UNL     1       5.632  -0.573  -1.099  1.00  0.00     0.010 A 
BRANCH  19  24
ATOM     24  S   UNL     1       1.808  -1.927  -1.781  1.00  0.00    -0.126 SA
BRANCH  24  25
ATOM     25  C   UNL     1       1.035  -0.337  -1.344  1.00  0.00     0.071 C 
ATOM     26  C   UNL     1       1.026  -0.119   0.156  1.00  0.00     0.016 C 
ENDBRANCH  24  25
ENDBRANCH  19  24
ENDBRANCH   8  18
BRANCH  17  27
ATOM     27  C   UNL     1      10.580   0.617   1.786  1.00  0.00     0.429 C 
ATOM     28  F   UNL     1       9.693   1.624   1.630  1.00  0.00    -0.167 F 
ATOM     29  F   UNL     1      10.528   0.218   3.080  1.00  0.00    -0.167 F 
ATOM     30  F   UNL     1      11.814   1.160   1.609  1.00  0.00    -0.167 F 
ENDBRANCH  17  27
ENDBRANCH   4   7
ENDBRANCH   2   3
ENDBRANCH   1   2
BRANCH   1  31
ATOM     31  C   UNL     1      16.083  -2.924   1.088  1.00  0.00     0.023 C 
BRANCH  31  32
ATOM     32  C   UNL     1      17.025  -1.995   0.330  1.00  0.00     0.116 C 
BRANCH  32  33
ATOM     33  N   UNL     1      17.837  -1.193   1.231  1.00  0.00    -0.352 N 
ATOM     34  C   UNL     1      19.202  -1.156   1.373  1.00  0.00     0.251 C 
ATOM     35  H   UNL     1      17.336  -0.588   1.825  1.00  0.00     0.163 HD
ATOM     36  O   UNL     1      19.709  -0.566   2.325  1.00  0.00    -0.269 OA
BRANCH  34  37
ATOM     37  C   UNL     1      20.065  -1.856   0.399  1.00  0.00     0.039 A 
ATOM     38  C   UNL     1      21.088  -2.681   0.872  1.00  0.00     0.014 A 
ATOM     39  C   UNL     1      19.856  -1.714  -0.976  1.00  0.00     0.014 A 
ATOM     40  C   UNL     1      21.841  -3.437  -0.030  1.00  0.00     0.010 A 
ATOM     41  C   UNL     1      20.561  -2.517  -1.869  1.00  0.00     0.010 A 
ATOM     42  C   UNL     1      21.547  -3.401  -1.403  1.00  0.00    -0.014 A 
BRANCH  42  43
ATOM     43  C   UNL     1      22.210  -4.327  -2.359  1.00  0.00     0.031 A 
ATOM     44  C   UNL     1      23.070  -3.793  -3.469  1.00  0.00     0.074 A 
ATOM     45  C   UNL     1      21.952  -5.648  -2.281  1.00  0.00     0.049 A 
ATOM     46  N   UNL     1      23.637  -4.438  -4.458  1.00  0.00    -0.248 NA
ATOM     47  C   UNL     1      23.306  -2.341  -3.486  1.00  0.00     0.031 C 
ATOM     48  C   UNL     1      21.091  -6.283  -1.280  1.00  0.00     0.029 A 
ATOM     49  N   UNL     1      22.366  -6.694  -3.070  1.00  0.00    -0.354 N 
ATOM     50  C   UNL     1      24.277  -3.472  -5.222  1.00  0.00     0.074 A 
ATOM     51  C   UNL     1      24.003  -2.192  -4.604  1.00  0.00     0.031 C 
ATOM     52  C   UNL     1      21.042  -7.603  -1.514  1.00  0.00     0.029 A 
ATOM     53  C   UNL     1      21.828  -7.906  -2.706  1.00  0.00     0.049 A 
ATOM     54  H   UNL     1      22.988  -6.586  -3.825  1.00  0.00     0.167 HD
ATOM     55  C   UNL     1      25.035  -3.643  -6.332  1.00  0.00     0.037 A 
ATOM     56  C   UNL     1      21.930  -9.119  -3.283  1.00  0.00     0.037 A 
ATOM     57  C   UNL     1      25.332  -4.922  -6.922  1.00  0.00     0.049 A 
ATOM     58  C   UNL     1      22.768  -9.274  -4.524  1.00  0.00     0.074 A 
ATOM     59  C   UNL     1      26.178  -5.205  -7.981  1.00  0.00     0.029 A 
ATOM     60  N   UNL     1      24.782  -6.129  -6.516  1.00  0.00    -0.354 N 
ATOM     61  N   UNL     1      23.454  -8.367  -5.176  1.00  0.00    -0.248 NA
ATOM     62  C   UNL     1      22.844 -10.619  -5.112  1.00  0.00     0.031 C 
ATOM     63  C   UNL     1      26.090  -6.572  -8.257  1.00  0.00     0.029 A 
ATOM     64  C   UNL     1      25.233  -7.151  -7.335  1.00  0.00     0.049 A 
ATOM     65  H   UNL     1      24.164  -6.242  -5.758  1.00  0.00     0.167 HD
ATOM     66  C   UNL     1      24.053  -9.032  -6.237  1.00  0.00     0.074 A 
ATOM     67  C   UNL     1      23.672 -10.424  -6.128  1.00  0.00     0.031 C 
ATOM     68  C   UNL     1      24.843  -8.533  -7.218  1.00  0.00     0.037 A 
BRANCH  55  69
ATOM     69  C   UNL     1      25.604  -2.423  -6.995  1.00  0.00     0.064 A 
ATOM     70  C   UNL     1      26.649  -1.688  -6.418  1.00  0.00     0.173 A 
ATOM     71  C   UNL     1      25.154  -2.037  -8.268  1.00  0.00     0.173 A 
ATOM     72  F   UNL     1      27.111  -2.012  -5.201  1.00  0.00    -0.203 F 
ATOM     73  C   UNL     1      27.212  -0.601  -7.083  1.00  0.00     0.198 A 
ATOM     74  C   UNL     1      25.738  -0.968  -8.941  1.00  0.00     0.198 A 
ATOM     75  F   UNL     1      24.162  -2.712  -8.868  1.00  0.00    -0.203 F 
ATOM     76  F   UNL     1      28.189   0.107  -6.499  1.00  0.00    -0.200 F 
ATOM     77  C   UNL     1      26.764  -0.249  -8.348  1.00  0.00     0.200 A 
ATOM     78  F   UNL     1      25.314  -0.640 -10.170  1.00  0.00    -0.200 F 
ATOM     79  F   UNL     1      27.320   0.785  -8.994  1.00  0.00    -0.200 F 
ENDBRANCH  55  69
BRANCH  56  80
ATOM     80  C   UNL     1      21.201 -10.283  -2.710  1.00  0.00     0.064 A 
ATOM     81  C   UNL     1      21.892 -11.361  -2.140  1.00  0.00     0.173 A 
ATOM     82  C   UNL     1      19.800 -10.353  -2.746  1.00  0.00     0.173 A 
ATOM     83  F   UNL     1      23.233 -11.352  -2.102  1.00  0.00    -0.203 F 
ATOM     84  C   UNL     1      21.212 -12.477  -1.655  1.00  0.00     0.198 A 
ATOM     85  C   UNL     1      19.120 -11.454  -2.229  1.00  0.00     0.198 A 
ATOM     86  F   UNL     1      19.090  -9.347  -3.276  1.00  0.00    -0.203 F 
ATOM     87  F   UNL     1      21.901 -13.518  -1.169  1.00  0.00    -0.200 F 
ATOM     88  C   UNL     1      19.827 -12.520  -1.695  1.00  0.00     0.200 A 
ATOM     89  F   UNL     1      17.781 -11.484  -2.256  1.00  0.00    -0.200 F 
ATOM     90  F   UNL     1      19.174 -13.593  -1.229  1.00  0.00    -0.200 F 
ENDBRANCH  56  80
BRANCH  68  91
ATOM     91  C   UNL     1      25.357  -9.494  -8.249  1.00  0.00     0.064 A 
ATOM     92  C   UNL     1      24.511 -10.038  -9.227  1.00  0.00     0.173 A 
ATOM     93  C   UNL     1      26.719  -9.829  -8.298  1.00  0.00     0.173 A 
ATOM     94  F   UNL     1      23.198  -9.762  -9.213  1.00  0.00    -0.203 F 
ATOM     95  C   UNL     1      25.007 -10.894 -10.206  1.00  0.00     0.198 A 
ATOM     96  C   UNL     1      27.216 -10.660  -9.297  1.00  0.00     0.198 A 
ATOM     97  F   UNL     1      27.571  -9.331  -7.389  1.00  0.00    -0.203 F 
ATOM     98  F   UNL     1      24.173 -11.433 -11.106  1.00  0.00    -0.200 F 
ATOM     99  C   UNL     1      26.360 -11.196 -10.247  1.00  0.00     0.200 A 
ATOM    100  F   UNL     1      28.527 -10.939  -9.344  1.00  0.00    -0.200 F 
ATOM    101  F   UNL     1      26.838 -12.008 -11.200  1.00  0.00    -0.200 F 
ENDBRANCH  68  91
ENDBRANCH  42  43
ENDBRANCH  34  37
ENDBRANCH  32  33
ENDBRANCH  31  32
ENDBRANCH   1  31
TORSDOF 15
