REMARK SMILES O=C(NCCCCNC(=O)c1ccc(NC(=O)[C@@H]2COCCO2)cc1O)c1ccc(-c2c3nc(c(-c4c(F)c(F)c(F)c(F)c4F)c4ccc([nH]4)c(-c4c(F)c(F)c(F)c(F)c4F)c4nc(c(-c5c(F)c(F)c(F)c(F)c5F)c5ccc2[nH]5)C=C4)C=C3)cc1
REMARK SMILES IDX 5 1 4 2 3 3 1 4 2 5 27 7 28 8 89 9 29 10 88 11 30 12 31 13
REMARK SMILES IDX 32 14 82 15 33 16 87 17 81 18 83 19 34 20 86 21 80 22 79 23
REMARK SMILES IDX 35 25 67 26 47 27 66 28 48 29 51 30 65 31 84 32 49 33 50 34
REMARK SMILES IDX 64 36 85 37 52 38 36 39 37 40 45 41 38 42 39 43 43 44 46 45
REMARK SMILES IDX 40 46 41 47 44 48 42 49 68 50 69 51 77 52 70 53 71 54 75 55
REMARK SMILES IDX 78 56 72 57 73 58 76 59 74 60 53 61 54 62 62 63 55 64 56 65
REMARK SMILES IDX 60 66 63 67 57 68 58 69 61 70 59 71 6 72 7 73 8 74 9 75
REMARK SMILES IDX 10 77 11 78 12 79 25 80 13 81 24 82 14 83 26 84 15 86 16 87
REMARK SMILES IDX 17 89 18 90 19 91 23 92 20 93 22 94 21 95
REMARK H PARENT 3 6 83 24 51 35 8 76 26 85 15 88
REMARK Flexibility Score: inf
ROOT
ATOM      1  C   UNL     1       4.866  -2.551   0.708  1.00  0.00     0.023 C 
ENDROOT
BRANCH   1   2
ATOM      2  C   UNL     1       4.578  -1.233   0.002  1.00  0.00     0.116 C 
BRANCH   2   3
ATOM      3  N   UNL     1       3.167  -1.028  -0.288  1.00  0.00    -0.352 N 
ATOM      4  O   UNL     1       1.201   0.086  -0.340  1.00  0.00    -0.269 OA
ATOM      5  C   UNL     1       2.408   0.104  -0.122  1.00  0.00     0.251 C 
ATOM      6  H   UNL     1       2.691  -1.809  -0.652  1.00  0.00     0.163 HD
BRANCH   5   7
ATOM      7  C   UNL     1       3.055   1.335   0.370  1.00  0.00     0.039 A 
ATOM      8  C   UNL     1       4.240   1.794  -0.209  1.00  0.00     0.014 A 
ATOM      9  C   UNL     1       2.494   2.001   1.463  1.00  0.00     0.014 A 
ATOM     10  C   UNL     1       4.947   2.821   0.404  1.00  0.00     0.010 A 
ATOM     11  C   UNL     1       3.167   3.084   2.030  1.00  0.00     0.010 A 
ATOM     12  C   UNL     1       4.421   3.471   1.534  1.00  0.00    -0.014 A 
BRANCH  12  13
ATOM     13  C   UNL     1       5.200   4.560   2.171  1.00  0.00     0.031 A 
ATOM     14  C   UNL     1       5.772   4.395   3.551  1.00  0.00     0.074 A 
ATOM     15  C   UNL     1       5.425   5.689   1.474  1.00  0.00     0.049 A 
ATOM     16  N   UNL     1       6.509   5.228   4.243  1.00  0.00    -0.248 NA
ATOM     17  C   UNL     1       5.474   3.136   4.251  1.00  0.00     0.031 C 
ATOM     18  C   UNL     1       4.913   5.962   0.130  1.00  0.00     0.029 A 
ATOM     19  N   UNL     1       6.160   6.802   1.785  1.00  0.00    -0.354 N 
ATOM     20  C   UNL     1       6.736   4.611   5.466  1.00  0.00     0.074 A 
ATOM     21  C   UNL     1       6.047   3.338   5.430  1.00  0.00     0.031 C 
ATOM     22  C   UNL     1       5.396   7.139  -0.292  1.00  0.00     0.029 A 
ATOM     23  C   UNL     1       6.209   7.724   0.769  1.00  0.00     0.049 A 
ATOM     24  H   UNL     1       6.610   6.928   2.651  1.00  0.00     0.167 HD
ATOM     25  C   UNL     1       7.457   5.065   6.519  1.00  0.00     0.037 A 
ATOM     26  C   UNL     1       6.841   8.909   0.700  1.00  0.00     0.037 A 
ATOM     27  C   UNL     1       8.171   6.315   6.537  1.00  0.00     0.049 A 
ATOM     28  C   UNL     1       7.646   9.380   1.875  1.00  0.00     0.074 A 
ATOM     29  C   UNL     1       8.967   6.842   7.540  1.00  0.00     0.029 A 
ATOM     30  N   UNL     1       8.180   7.233   5.497  1.00  0.00    -0.354 N 
ATOM     31  N   UNL     1       7.872   8.776   3.016  1.00  0.00    -0.248 NA
ATOM     32  C   UNL     1       8.281  10.698   1.754  1.00  0.00     0.031 C 
ATOM     33  C   UNL     1       9.431   8.094   7.119  1.00  0.00     0.029 A 
ATOM     34  C   UNL     1       8.954   8.330   5.840  1.00  0.00     0.049 A 
ATOM     35  H   UNL     1       7.706   7.122   4.641  1.00  0.00     0.167 HD
ATOM     36  C   UNL     1       8.686   9.631   3.744  1.00  0.00     0.074 A 
ATOM     37  C   UNL     1       8.927  10.790   2.908  1.00  0.00     0.031 C 
ATOM     38  C   UNL     1       9.185   9.471   4.993  1.00  0.00     0.037 A 
BRANCH  25  39
ATOM     39  C   UNL     1       7.494   4.213   7.753  1.00  0.00     0.064 A 
ATOM     40  C   UNL     1       8.251   3.034   7.814  1.00  0.00     0.173 A 
ATOM     41  C   UNL     1       6.791   4.603   8.903  1.00  0.00     0.173 A 
ATOM     42  F   UNL     1       8.930   2.611   6.737  1.00  0.00    -0.203 F 
ATOM     43  C   UNL     1       8.286   2.266   8.976  1.00  0.00     0.198 A 
ATOM     44  C   UNL     1       6.846   3.845  10.069  1.00  0.00     0.198 A 
ATOM     45  F   UNL     1       6.055   5.725   8.898  1.00  0.00    -0.203 F 
ATOM     46  F   UNL     1       8.984   1.122   9.000  1.00  0.00    -0.200 F 
ATOM     47  C   UNL     1       7.588   2.674  10.103  1.00  0.00     0.200 A 
ATOM     48  F   UNL     1       6.178   4.245  11.160  1.00  0.00    -0.200 F 
ATOM     49  F   UNL     1       7.626   1.935  11.220  1.00  0.00    -0.200 F 
ENDBRANCH  25  39
BRANCH  26  50
ATOM     50  C   UNL     1       6.753   9.711  -0.544  1.00  0.00     0.064 A 
ATOM     51  C   UNL     1       7.856   9.829  -1.399  1.00  0.00     0.173 A 
ATOM     52  C   UNL     1       5.559  10.342  -0.921  1.00  0.00     0.173 A 
ATOM     53  F   UNL     1       9.023   9.256  -1.068  1.00  0.00    -0.203 F 
ATOM     54  C   UNL     1       7.771  10.554  -2.585  1.00  0.00     0.198 A 
ATOM     55  C   UNL     1       5.467  11.046  -2.119  1.00  0.00     0.198 A 
ATOM     56  F   UNL     1       4.474  10.251  -0.138  1.00  0.00    -0.203 F 
ATOM     57  F   UNL     1       8.847  10.673  -3.373  1.00  0.00    -0.200 F 
ATOM     58  C   UNL     1       6.574  11.155  -2.948  1.00  0.00     0.200 A 
ATOM     59  F   UNL     1       4.306  11.613  -2.474  1.00  0.00    -0.200 F 
ATOM     60  F   UNL     1       6.489  11.841  -4.095  1.00  0.00    -0.200 F 
ENDBRANCH  26  50
BRANCH  38  61
ATOM     61  C   UNL     1      10.064  10.566   5.516  1.00  0.00     0.064 A 
ATOM     62  C   UNL     1       9.529  11.788   5.949  1.00  0.00     0.173 A 
ATOM     63  C   UNL     1      11.451  10.383   5.604  1.00  0.00     0.173 A 
ATOM     64  F   UNL     1       8.210  12.014   5.867  1.00  0.00    -0.203 F 
ATOM     65  C   UNL     1      10.357  12.798   6.430  1.00  0.00     0.198 A 
ATOM     66  C   UNL     1      12.274  11.387   6.106  1.00  0.00     0.198 A 
ATOM     67  F   UNL     1      12.007   9.229   5.205  1.00  0.00    -0.203 F 
ATOM     68  F   UNL     1       9.832  13.975   6.798  1.00  0.00    -0.200 F 
ATOM     69  C   UNL     1      11.727  12.595   6.513  1.00  0.00     0.200 A 
ATOM     70  F   UNL     1      13.596  11.188   6.192  1.00  0.00    -0.200 F 
ATOM     71  F   UNL     1      12.523  13.569   6.975  1.00  0.00    -0.200 F 
ENDBRANCH  38  61
ENDBRANCH  12  13
ENDBRANCH   5   7
ENDBRANCH   2   3
ENDBRANCH   1   2
BRANCH   1  72
ATOM     72  C   UNL     1       4.366  -3.800  -0.015  1.00  0.00     0.023 C 
BRANCH  72  73
ATOM     73  C   UNL     1       4.697  -3.851  -1.502  1.00  0.00     0.116 C 
BRANCH  73  74
ATOM     74  N   UNL     1       6.127  -3.832  -1.741  1.00  0.00    -0.352 N 
ATOM     75  C   UNL     1       6.887  -4.813  -2.320  1.00  0.00     0.255 C 
ATOM     76  H   UNL     1       6.606  -3.021  -1.455  1.00  0.00     0.163 HD
ATOM     77  O   UNL     1       8.104  -4.704  -2.425  1.00  0.00    -0.269 OA
BRANCH  75  78
ATOM     78  C   UNL     1       6.217  -6.051  -2.737  1.00  0.00     0.081 A 
ATOM     79  C   UNL     1       6.298  -7.144  -1.879  1.00  0.00     0.020 A 
ATOM     80  C   UNL     1       5.464  -6.125  -3.910  1.00  0.00     0.130 A 
ATOM     81  C   UNL     1       5.647  -8.329  -2.215  1.00  0.00     0.027 A 
ATOM     82  C   UNL     1       4.828  -7.320  -4.250  1.00  0.00     0.073 A 
ATOM     83  C   UNL     1       4.967  -8.449  -3.430  1.00  0.00     0.044 A 
BRANCH  80  84
ATOM     84  O   UNL     1       5.337  -5.026  -4.711  1.00  0.00    -0.507 OA
ATOM     85  H   UNL     1       5.765  -4.226  -4.480  1.00  0.00     0.293 HD
ENDBRANCH  80  84
BRANCH  83  86
ATOM     86  N   UNL     1       4.417  -9.649  -3.909  1.00  0.00    -0.324 N 
ATOM     87  C   UNL     1       4.769 -10.963  -3.723  1.00  0.00     0.255 C 
ATOM     88  H   UNL     1       3.631  -9.525  -4.488  1.00  0.00     0.170 HD
ATOM     89  O   UNL     1       4.039 -11.808  -4.253  1.00  0.00    -0.272 OA
BRANCH  87  90
ATOM     90  C   UNL     1       6.037 -11.357  -2.944  1.00  0.00     0.233 C 
ATOM     91  C   UNL     1       7.301 -10.816  -3.623  1.00  0.00     0.202 C 
ATOM     92  O   UNL     1       6.206 -12.781  -2.796  1.00  0.00    -0.364 OA
ATOM     93  O   UNL     1       8.428 -11.009  -2.751  1.00  0.00    -0.376 OA
ATOM     94  C   UNL     1       7.338 -13.050  -1.952  1.00  0.00     0.189 C 
ATOM     95  C   UNL     1       8.614 -12.410  -2.506  1.00  0.00     0.188 C 
ENDBRANCH  87  90
ENDBRANCH  83  86
ENDBRANCH  75  78
ENDBRANCH  73  74
ENDBRANCH  72  73
ENDBRANCH   1  72
TORSDOF 14
