REMARK SMILES CC[C@](O)(C(=O)NCCCCNC(=O)c1ccc(-c2c3nc(c(-c4c(F)c(F)c(F)c(F)c4F)c4ccc([nH]4)c(-c4c(F)c(F)c(F)c(F)c4F)c4nc(c(-c5c(F)c(F)c(F)c(F)c5F)c5ccc2[nH]5)C=C4)C=C3)cc1)[C@@H]1CCc2ccc(OC)cc21
REMARK SMILES IDX 9 1 8 2 7 3 5 4 6 5 3 7 2 8 1 9 78 10 79 11 88 12 80 13
REMARK SMILES IDX 81 14 87 15 82 16 84 17 83 18 85 19 86 20 4 21 10 23 11 24
REMARK SMILES IDX 12 25 13 26 14 28 15 29 16 30 77 31 17 32 76 33 18 34 19 35
REMARK SMILES IDX 20 36 70 37 21 38 75 39 69 40 71 41 22 42 74 43 68 44 67 45
REMARK SMILES IDX 23 47 55 48 35 49 54 50 36 51 39 52 53 53 72 54 37 55 38 56
REMARK SMILES IDX 52 58 73 59 40 60 24 61 25 62 33 63 26 64 27 65 31 66 34 67
REMARK SMILES IDX 28 68 29 69 32 70 30 71 56 72 57 73 65 74 58 75 59 76 63 77
REMARK SMILES IDX 66 78 60 79 61 80 64 81 62 82 41 83 42 84 50 85 43 86 44 87
REMARK SMILES IDX 48 88 51 89 45 90 46 91 49 92 47 93
REMARK H PARENT 7 6 4 22 12 27 71 46 39 57
REMARK Flexibility Score: inf
ROOT
ATOM      1  C   UNL     1      -2.739   1.432  -2.944  1.00  0.00     0.023 C 
ENDROOT
BRANCH   1   2
ATOM      2  C   UNL     1      -1.931   0.143  -2.944  1.00  0.00     0.116 C 
BRANCH   2   3
ATOM      3  N   UNL     1      -0.808   0.121  -3.870  1.00  0.00    -0.354 N 
ATOM      4  C   UNL     1       0.411  -0.505  -3.711  1.00  0.00     0.252 C 
ATOM      5  O   UNL     1       1.132  -0.613  -4.705  1.00  0.00    -0.272 OA
ATOM      6  H   UNL     1      -0.934   0.613  -4.713  1.00  0.00     0.163 HD
BRANCH   4   7
ATOM      7  C   UNL     1       0.862  -0.972  -2.285  1.00  0.00     0.149 C 
BRANCH   7   8
ATOM      8  C   UNL     1      -0.053  -2.132  -1.809  1.00  0.00     0.043 C 
ATOM      9  C   UNL     1      -0.383  -2.129  -0.323  1.00  0.00     0.007 C 
ENDBRANCH   7   8
BRANCH   7  10
ATOM     10  C   UNL     1       2.398  -1.307  -2.288  1.00  0.00     0.061 C 
ATOM     11  C   UNL     1       2.784  -2.741  -2.742  1.00  0.00     0.017 C 
ATOM     12  C   UNL     1       3.058  -1.294  -0.927  1.00  0.00    -0.035 A 
ATOM     13  C   UNL     1       2.921  -3.613  -1.475  1.00  0.00     0.036 C 
ATOM     14  C   UNL     1       3.295  -2.587  -0.455  1.00  0.00    -0.044 A 
ATOM     15  C   UNL     1       3.426  -0.183  -0.178  1.00  0.00     0.050 A 
ATOM     16  C   UNL     1       3.785  -2.797   0.822  1.00  0.00     0.008 A 
ATOM     17  C   UNL     1       3.982  -0.380   1.087  1.00  0.00     0.119 A 
ATOM     18  C   UNL     1       4.119  -1.682   1.596  1.00  0.00     0.047 A 
BRANCH  17  19
ATOM     19  O   UNL     1       4.407   0.616   1.927  1.00  0.00    -0.497 OA
ATOM     20  C   UNL     1       4.668   1.875   1.317  1.00  0.00     0.278 C 
ENDBRANCH  17  19
ENDBRANCH   7  10
BRANCH   7  21
ATOM     21  O   UNL     1       0.648   0.194  -1.452  1.00  0.00    -0.379 OA
ATOM     22  H   UNL     1       1.221   0.916  -1.753  1.00  0.00     0.212 HD
ENDBRANCH   7  21
ENDBRANCH   4   7
ENDBRANCH   2   3
ENDBRANCH   1   2
BRANCH   1  23
ATOM     23  C   UNL     1      -3.562   1.695  -4.200  1.00  0.00     0.023 C 
BRANCH  23  24
ATOM     24  C   UNL     1      -4.444   0.545  -4.676  1.00  0.00     0.116 C 
BRANCH  24  25
ATOM     25  N   UNL     1      -5.397   0.073  -3.681  1.00  0.00    -0.352 N 
ATOM     26  C   UNL     1      -6.757  -0.112  -3.791  1.00  0.00     0.251 C 
ATOM     27  H   UNL     1      -5.013  -0.145  -2.801  1.00  0.00     0.163 HD
ATOM     28  O   UNL     1      -7.420  -0.461  -2.819  1.00  0.00    -0.269 OA
BRANCH  26  29
ATOM     29  C   UNL     1      -7.428   0.165  -5.078  1.00  0.00     0.039 A 
ATOM     30  C   UNL     1      -8.529   1.025  -5.092  1.00  0.00     0.014 A 
ATOM     31  C   UNL     1      -6.928  -0.362  -6.271  1.00  0.00     0.014 A 
ATOM     32  C   UNL     1      -9.056   1.450  -6.314  1.00  0.00     0.010 A 
ATOM     33  C   UNL     1      -7.405   0.120  -7.485  1.00  0.00     0.010 A 
ATOM     34  C   UNL     1      -8.456   1.050  -7.518  1.00  0.00    -0.014 A 
BRANCH  34  35
ATOM     35  C   UNL     1      -8.869   1.628  -8.824  1.00  0.00     0.031 A 
ATOM     36  C   UNL     1      -9.430   0.741  -9.898  1.00  0.00     0.074 A 
ATOM     37  C   UNL     1      -8.627   2.929  -9.080  1.00  0.00     0.049 A 
ATOM     38  N   UNL     1      -9.708   1.026 -11.145  1.00  0.00    -0.248 NA
ATOM     39  C   UNL     1      -9.681  -0.661  -9.531  1.00  0.00     0.031 C 
ATOM     40  C   UNL     1      -8.035   3.883  -8.139  1.00  0.00     0.029 A 
ATOM     41  N   UNL     1      -8.824   3.671 -10.220  1.00  0.00    -0.354 N 
ATOM     42  C   UNL     1     -10.138  -0.163 -11.716  1.00  0.00     0.074 A 
ATOM     43  C   UNL     1     -10.052  -1.182 -10.692  1.00  0.00     0.031 C 
ATOM     44  C   UNL     1      -7.921   5.080  -8.737  1.00  0.00     0.029 A 
ATOM     45  C   UNL     1      -8.390   4.971 -10.114  1.00  0.00     0.049 A 
ATOM     46  H   UNL     1      -9.236   3.305 -11.036  1.00  0.00     0.167 HD
ATOM     47  C   UNL     1     -10.581  -0.380 -12.977  1.00  0.00     0.037 A 
ATOM     48  C   UNL     1      -8.352   5.957 -11.031  1.00  0.00     0.037 A 
ATOM     49  C   UNL     1     -10.709   0.645 -13.979  1.00  0.00     0.049 A 
ATOM     50  C   UNL     1      -8.855   5.688 -12.423  1.00  0.00     0.074 A 
ATOM     51  C   UNL     1     -11.249   0.544 -15.249  1.00  0.00     0.029 A 
ATOM     52  N   UNL     1     -10.289   1.957 -13.824  1.00  0.00    -0.354 N 
ATOM     53  N   UNL     1      -9.343   4.581 -12.925  1.00  0.00    -0.248 NA
ATOM     54  C   UNL     1      -8.801   6.806 -13.377  1.00  0.00     0.031 C 
ATOM     55  C   UNL     1     -11.112   1.784 -15.881  1.00  0.00     0.029 A 
ATOM     56  C   UNL     1     -10.527   2.668 -14.989  1.00  0.00     0.049 A 
ATOM     57  H   UNL     1      -9.882   2.328 -13.008  1.00  0.00     0.167 HD
ATOM     58  C   UNL     1      -9.672   4.872 -14.242  1.00  0.00     0.074 A 
ATOM     59  C   UNL     1      -9.344   6.265 -14.459  1.00  0.00     0.031 C 
ATOM     60  C   UNL     1     -10.198   4.056 -15.188  1.00  0.00     0.037 A 
BRANCH  47  61
ATOM     61  C   UNL     1     -10.966  -1.780 -13.352  1.00  0.00     0.064 A 
ATOM     62  C   UNL     1     -12.132  -2.381 -12.854  1.00  0.00     0.173 A 
ATOM     63  C   UNL     1     -10.189  -2.507 -14.266  1.00  0.00     0.173 A 
ATOM     64  F   UNL     1     -12.903  -1.730 -11.970  1.00  0.00    -0.203 F 
ATOM     65  C   UNL     1     -12.494  -3.668 -13.242  1.00  0.00     0.198 A 
ATOM     66  C   UNL     1     -10.569  -3.784 -14.671  1.00  0.00     0.198 A 
ATOM     67  F   UNL     1      -9.068  -1.975 -14.775  1.00  0.00    -0.203 F 
ATOM     68  F   UNL     1     -13.591  -4.237 -12.724  1.00  0.00    -0.200 F 
ATOM     69  C   UNL     1     -11.717  -4.365 -14.156  1.00  0.00     0.200 A 
ATOM     70  F   UNL     1      -9.824  -4.451 -15.564  1.00  0.00    -0.200 F 
ATOM     71  F   UNL     1     -12.074  -5.599 -14.536  1.00  0.00    -0.200 F 
ENDBRANCH  47  61
BRANCH  48  72
ATOM     72  C   UNL     1      -7.814   7.294 -10.665  1.00  0.00     0.064 A 
ATOM     73  C   UNL     1      -8.660   8.408 -10.569  1.00  0.00     0.173 A 
ATOM     74  C   UNL     1      -6.447   7.489 -10.419  1.00  0.00     0.173 A 
ATOM     75  F   UNL     1      -9.971   8.276 -10.818  1.00  0.00    -0.203 F 
ATOM     76  C   UNL     1      -8.155   9.670 -10.262  1.00  0.00     0.198 A 
ATOM     77  C   UNL     1      -5.948   8.746 -10.085  1.00  0.00     0.198 A 
ATOM     78  F   UNL     1      -5.597   6.455 -10.495  1.00  0.00    -0.203 F 
ATOM     79  F   UNL     1      -8.978  10.727 -10.224  1.00  0.00    -0.200 F 
ATOM     80  C   UNL     1      -6.801   9.837 -10.016  1.00  0.00     0.200 A 
ATOM     81  F   UNL     1      -4.641   8.901  -9.835  1.00  0.00    -0.200 F 
ATOM     82  F   UNL     1      -6.316  11.051  -9.720  1.00  0.00    -0.200 F 
ENDBRANCH  48  72
BRANCH  60  83
ATOM     83  C   UNL     1     -10.470   4.649 -16.538  1.00  0.00     0.064 A 
ATOM     84  C   UNL     1      -9.430   4.939 -17.432  1.00  0.00     0.173 A 
ATOM     85  C   UNL     1     -11.788   4.876 -16.962  1.00  0.00     0.173 A 
ATOM     86  F   UNL     1      -8.153   4.756 -17.065  1.00  0.00    -0.203 F 
ATOM     87  C   UNL     1      -9.700   5.447 -18.700  1.00  0.00     0.198 A 
ATOM     88  C   UNL     1     -12.055   5.359 -18.240  1.00  0.00     0.198 A 
ATOM     89  F   UNL     1     -12.817   4.609 -16.144  1.00  0.00    -0.203 F 
ATOM     90  F   UNL     1      -8.690   5.751 -19.527  1.00  0.00    -0.200 F 
ATOM     91  C   UNL     1     -11.011   5.648 -19.106  1.00  0.00     0.200 A 
ATOM     92  F   UNL     1     -13.322   5.540 -18.635  1.00  0.00    -0.200 F 
ATOM     93  F   UNL     1     -11.269   6.125 -20.331  1.00  0.00    -0.200 F 
ENDBRANCH  60  83
ENDBRANCH  34  35
ENDBRANCH  26  29
ENDBRANCH  24  25
ENDBRANCH  23  24
ENDBRANCH   1  23
TORSDOF 15
