REMARK SMILES O=C(NCCCCNC(=O)c1cccc(Nc2ccc([N+](=O)[O-])cc2)c1)c1ccc(-c2c3nc(c(-c4c(F)c(F)c(F)c(F)c4F)c4ccc([nH]4)c(-c4c(F)c(F)c(F)c(F)c4F)c4nc(c(-c5c(F)c(F)c(F)c(F)c5F)c5ccc2[nH]5)C=C4)C=C3)cc1
REMARK SMILES IDX 6 1 5 2 4 3 3 4 1 5 2 6 27 8 28 9 89 10 29 11 88 12 30 13
REMARK SMILES IDX 31 14 32 15 82 16 33 17 87 18 81 19 83 20 34 21 86 22 80 23
REMARK SMILES IDX 79 24 35 26 67 27 47 28 66 29 48 30 51 31 65 32 84 33 49 34
REMARK SMILES IDX 50 35 64 37 85 38 52 39 36 40 37 41 45 42 38 43 39 44 43 45
REMARK SMILES IDX 46 46 40 47 41 48 44 49 42 50 68 51 69 52 77 53 70 54 71 55
REMARK SMILES IDX 75 56 78 57 72 58 73 59 76 60 74 61 53 62 54 63 62 64 55 65
REMARK SMILES IDX 56 66 60 67 63 68 57 69 58 70 61 71 59 72 7 73 8 74 9 75
REMARK SMILES IDX 10 77 11 78 12 79 26 80 13 81 15 82 14 83 16 84 17 86 18 87
REMARK SMILES IDX 25 88 19 89 24 90 20 91 21 92 22 93 23 94
REMARK H PARENT 3 7 83 25 51 36 8 76 16 85
REMARK Flexibility Score: inf
ROOT
ATOM      1  C   UNL     1       4.459  -0.096  -3.935  1.00  0.00     0.023 C 
ENDROOT
BRANCH   1   2
ATOM      2  C   UNL     1       4.941  -0.751  -2.644  1.00  0.00     0.023 C 
BRANCH   2   3
ATOM      3  C   UNL     1       4.637   0.022  -1.369  1.00  0.00     0.116 C 
BRANCH   3   4
ATOM      4  N   UNL     1       3.213   0.189  -1.120  1.00  0.00    -0.352 N 
ATOM      5  O   UNL     1       1.269   0.002   0.015  1.00  0.00    -0.269 OA
ATOM      6  C   UNL     1       2.492  -0.095   0.016  1.00  0.00     0.251 C 
ATOM      7  H   UNL     1       2.693   0.556  -1.871  1.00  0.00     0.163 HD
BRANCH   6   8
ATOM      8  C   UNL     1       3.195  -0.554   1.233  1.00  0.00     0.039 A 
ATOM      9  C   UNL     1       4.354   0.089   1.668  1.00  0.00     0.014 A 
ATOM     10  C   UNL     1       2.701  -1.659   1.934  1.00  0.00     0.014 A 
ATOM     11  C   UNL     1       5.107  -0.468   2.693  1.00  0.00     0.010 A 
ATOM     12  C   UNL     1       3.411  -2.163   3.028  1.00  0.00     0.010 A 
ATOM     13  C   UNL     1       4.641  -1.595   3.393  1.00  0.00    -0.014 A 
BRANCH  13  14
ATOM     14  C   UNL     1       5.445  -2.114   4.528  1.00  0.00     0.031 A 
ATOM     15  C   UNL     1       6.083  -3.474   4.482  1.00  0.00     0.074 A 
ATOM     16  C   UNL     1       5.648  -1.308   5.588  1.00  0.00     0.049 A 
ATOM     17  N   UNL     1       6.868  -4.046   5.362  1.00  0.00    -0.248 NA
ATOM     18  C   UNL     1       5.802  -4.307   3.303  1.00  0.00     0.031 C 
ATOM     19  C   UNL     1       5.062   0.025   5.753  1.00  0.00     0.029 A 
ATOM     20  N   UNL     1       6.422  -1.471   6.708  1.00  0.00    -0.354 N 
ATOM     21  C   UNL     1       7.166  -5.302   4.850  1.00  0.00     0.074 A 
ATOM     22  C   UNL     1       6.454  -5.425   3.596  1.00  0.00     0.031 C 
ATOM     23  C   UNL     1       5.540   0.580   6.875  1.00  0.00     0.029 A 
ATOM     24  C   UNL     1       6.419  -0.376   7.537  1.00  0.00     0.049 A 
ATOM     25  H   UNL     1       6.929  -2.292   6.899  1.00  0.00     0.167 HD
ATOM     26  C   UNL     1       7.971  -6.258   5.375  1.00  0.00     0.037 A 
ATOM     27  C   UNL     1       7.049  -0.166   8.707  1.00  0.00     0.037 A 
ATOM     28  C   UNL     1       8.686  -6.128   6.620  1.00  0.00     0.049 A 
ATOM     29  C   UNL     1       7.938  -1.242   9.260  1.00  0.00     0.074 A 
ATOM     30  C   UNL     1       9.528  -7.040   7.233  1.00  0.00     0.029 A 
ATOM     31  N   UNL     1       8.647  -5.009   7.440  1.00  0.00    -0.354 N 
ATOM     32  N   UNL     1       8.223  -2.417   8.755  1.00  0.00    -0.248 NA
ATOM     33  C   UNL     1       8.593  -0.962  10.543  1.00  0.00     0.031 C 
ATOM     34  C   UNL     1       9.973  -6.487   8.440  1.00  0.00     0.029 A 
ATOM     35  C   UNL     1       9.441  -5.213   8.558  1.00  0.00     0.049 A 
ATOM     36  H   UNL     1       8.131  -4.192   7.255  1.00  0.00     0.167 HD
ATOM     37  C   UNL     1       9.091  -3.016   9.655  1.00  0.00     0.074 A 
ATOM     38  C   UNL     1       9.314  -2.059  10.720  1.00  0.00     0.031 C 
ATOM     39  C   UNL     1       9.646  -4.252   9.610  1.00  0.00     0.037 A 
BRANCH  26  40
ATOM     40  C   UNL     1       8.124  -7.540   4.608  1.00  0.00     0.064 A 
ATOM     41  C   UNL     1       8.882  -7.602   3.429  1.00  0.00     0.173 A 
ATOM     42  C   UNL     1       7.561  -8.732   5.089  1.00  0.00     0.173 A 
ATOM     43  F   UNL     1       9.433  -6.488   2.922  1.00  0.00    -0.203 F 
ATOM     44  C   UNL     1       9.058  -8.806   2.752  1.00  0.00     0.198 A 
ATOM     45  C   UNL     1       7.759  -9.939   4.423  1.00  0.00     0.198 A 
ATOM     46  F   UNL     1       6.833  -8.729   6.215  1.00  0.00    -0.203 F 
ATOM     47  F   UNL     1       9.759  -8.835   1.611  1.00  0.00    -0.200 F 
ATOM     48  C   UNL     1       8.503  -9.975   3.253  1.00  0.00     0.200 A 
ATOM     49  F   UNL     1       7.232 -11.069   4.914  1.00  0.00    -0.200 F 
ATOM     50  F   UNL     1       8.682 -11.135   2.607  1.00  0.00    -0.200 F 
ENDBRANCH  26  40
BRANCH  27  51
ATOM     51  C   UNL     1       6.854   1.118   9.427  1.00  0.00     0.064 A 
ATOM     52  C   UNL     1       7.894   2.049   9.545  1.00  0.00     0.173 A 
ATOM     53  C   UNL     1       5.615   1.444   9.999  1.00  0.00     0.173 A 
ATOM     54  F   UNL     1       9.101   1.774   9.029  1.00  0.00    -0.203 F 
ATOM     55  C   UNL     1       7.707   3.252  10.223  1.00  0.00     0.198 A 
ATOM     56  C   UNL     1       5.420   2.659  10.649  1.00  0.00     0.198 A 
ATOM     57  F   UNL     1       4.586   0.589   9.906  1.00  0.00    -0.203 F 
ATOM     58  F   UNL     1       8.729   4.107  10.357  1.00  0.00    -0.200 F 
ATOM     59  C   UNL     1       6.469   3.559  10.768  1.00  0.00     0.200 A 
ATOM     60  F   UNL     1       4.218   2.960  11.157  1.00  0.00    -0.200 F 
ATOM     61  F   UNL     1       6.287   4.720  11.411  1.00  0.00    -0.200 F 
ENDBRANCH  27  51
BRANCH  39  62
ATOM     62  C   UNL     1      10.553  -4.626  10.743  1.00  0.00     0.064 A 
ATOM     63  C   UNL     1      10.047  -4.913  12.020  1.00  0.00     0.173 A 
ATOM     64  C   UNL     1      11.940  -4.707  10.550  1.00  0.00     0.173 A 
ATOM     65  F   UNL     1       8.729  -4.831  12.257  1.00  0.00    -0.203 F 
ATOM     66  C   UNL     1      10.900  -5.236  13.070  1.00  0.00     0.198 A 
ATOM     67  C   UNL     1      12.788  -5.056  11.597  1.00  0.00     0.198 A 
ATOM     68  F   UNL     1      12.471  -4.446   9.346  1.00  0.00    -0.203 F 
ATOM     69  F   UNL     1      10.400  -5.453  14.295  1.00  0.00    -0.200 F 
ATOM     70  C   UNL     1      12.269  -5.311  12.857  1.00  0.00     0.200 A 
ATOM     71  F   UNL     1      14.109  -5.136  11.388  1.00  0.00    -0.200 F 
ATOM     72  F   UNL     1      13.089  -5.619  13.871  1.00  0.00    -0.200 F 
ENDBRANCH  39  62
ENDBRANCH  13  14
ENDBRANCH   6   8
ENDBRANCH   3   4
ENDBRANCH   2   3
ENDBRANCH   1   2
BRANCH   1  73
ATOM     73  C   UNL     1       4.864   1.364  -4.114  1.00  0.00     0.116 C 
BRANCH  73  74
ATOM     74  N   UNL     1       6.305   1.554  -4.076  1.00  0.00    -0.352 N 
ATOM     75  C   UNL     1       7.144   2.022  -5.056  1.00  0.00     0.251 C 
ATOM     76  H   UNL     1       6.741   1.312  -3.227  1.00  0.00     0.163 HD
ATOM     77  O   UNL     1       8.361   1.978  -4.905  1.00  0.00    -0.269 OA
BRANCH  75  78
ATOM     78  C   UNL     1       6.575   2.563  -6.303  1.00  0.00     0.041 A 
ATOM     79  C   UNL     1       7.009   2.043  -7.521  1.00  0.00     0.014 A 
ATOM     80  C   UNL     1       5.619   3.586  -6.260  1.00  0.00     0.039 A 
ATOM     81  C   UNL     1       6.434   2.506  -8.699  1.00  0.00     0.003 A 
ATOM     82  C   UNL     1       5.026   4.054  -7.436  1.00  0.00     0.039 A 
ATOM     83  C   UNL     1       5.439   3.489  -8.651  1.00  0.00     0.026 A 
BRANCH  82  84
ATOM     84  N   UNL     1       4.014   5.027  -7.345  1.00  0.00    -0.356 N 
ATOM     85  H   UNL     1       3.910   5.439  -6.457  1.00  0.00     0.167 HD
BRANCH  84  86
ATOM     86  C   UNL     1       3.131   5.500  -8.328  1.00  0.00     0.039 A 
ATOM     87  C   UNL     1       3.014   6.883  -8.523  1.00  0.00     0.033 A 
ATOM     88  C   UNL     1       2.448   4.635  -9.193  1.00  0.00     0.033 A 
ATOM     89  C   UNL     1       2.265   7.396  -9.584  1.00  0.00     0.088 A 
ATOM     90  C   UNL     1       1.684   5.133 -10.252  1.00  0.00     0.088 A 
ATOM     91  C   UNL     1       1.613   6.516 -10.455  1.00  0.00     0.269 A 
BRANCH  91  92
ATOM     92  N   UNL     1       0.875   7.047 -11.607  1.00  0.00     0.062 N 
ATOM     93  O   UNL     1       0.869   8.275 -11.771  1.00  0.00    -0.258 OA
ATOM     94  O   UNL     1       0.310   6.235 -12.354  1.00  0.00    -0.258 OA
ENDBRANCH  91  92
ENDBRANCH  84  86
ENDBRANCH  82  84
ENDBRANCH  75  78
ENDBRANCH  73  74
ENDBRANCH   1  73
TORSDOF 14
