REMARK SMILES Cc1nsc(N[C@H](C)c2cccc(Br)c2)c1C(=O)NCCCCNC(=O)c1ccc(-c2c3nc(c(-c4c(F)c(F)c(F)c(F)c4F)c4ccc([nH]4)c(-c4c(F)c(F)c(F)c(F)c4F)c4nc(c(-c5c(F)c(F)c(F)c(F)c5F)c5ccc2[nH]5)C=C4)C=C3)cc1
REMARK SMILES IDX 21 1 20 2 19 3 17 4 18 5 16 7 1 8 2 9 3 10 4 11 5 12 6 13
REMARK SMILES IDX 7 15 8 16 9 17 10 18 15 19 11 20 13 21 12 22 14 23 22 24
REMARK SMILES IDX 23 25 24 26 25 27 26 29 27 30 28 31 89 32 29 33 88 34 30 35
REMARK SMILES IDX 31 36 32 37 82 38 33 39 87 40 81 41 83 42 34 43 86 44 80 45
REMARK SMILES IDX 79 46 35 48 67 49 47 50 66 51 48 52 51 53 65 54 84 55 49 56
REMARK SMILES IDX 50 57 64 59 85 60 52 61 36 62 37 63 45 64 38 65 39 66 43 67
REMARK SMILES IDX 46 68 40 69 41 70 44 71 42 72 68 73 69 74 77 75 70 76 71 77
REMARK SMILES IDX 75 78 78 79 72 80 73 81 76 82 74 83 53 84 54 85 62 86 55 87
REMARK SMILES IDX 56 88 60 89 63 90 57 91 58 92 61 93 59 94
REMARK H PARENT 19 6 6 14 24 28 83 47 51 58
REMARK Flexibility Score: inf
ROOT
ATOM      1  C   UNL     1      -5.120  10.918  -1.625  1.00  0.00     0.023 C 
ENDROOT
BRANCH   1   2
ATOM      2  C   UNL     1      -4.013  10.748  -0.586  1.00  0.00     0.116 C 
BRANCH   2   3
ATOM      3  N   UNL     1      -3.538   9.396  -0.445  1.00  0.00    -0.352 N 
ATOM      4  C   UNL     1      -2.551   8.643  -1.022  1.00  0.00     0.256 C 
ATOM      5  O   UNL     1      -2.351   7.588  -0.400  1.00  0.00    -0.269 OA
ATOM      6  H   UNL     1      -4.046   8.891   0.230  1.00  0.00     0.163 HD
BRANCH   4   7
ATOM      7  C   UNL     1      -1.843   8.922  -2.287  1.00  0.00     0.097 A 
ATOM      8  C   UNL     1      -1.984  11.524  -2.924  1.00  0.00     0.069 C 
ATOM      9  C   UNL     1      -1.698  10.084  -3.158  1.00  0.00     0.066 A 
ATOM     10  N   UNL     1      -1.175   9.850  -4.364  1.00  0.00    -0.195 NA
ATOM     11  S   UNL     1      -0.681   8.293  -4.455  1.00  0.00    -0.018 S 
ATOM     12  C   UNL     1      -1.003   7.916  -2.812  1.00  0.00     0.123 A 
BRANCH  12  13
ATOM     13  N   UNL     1      -0.524   6.828  -2.138  1.00  0.00    -0.368 N 
ATOM     14  H   UNL     1      -0.909   6.666  -1.246  1.00  0.00     0.162 HD
BRANCH  13  15
ATOM     15  C   UNL     1       0.489   5.877  -2.584  1.00  0.00     0.107 C 
ATOM     16  C   UNL     1       0.744   4.874  -1.450  1.00  0.00     0.036 C 
BRANCH  15  17
ATOM     17  C   UNL     1       1.814   6.494  -3.035  1.00  0.00    -0.025 A 
ATOM     18  C   UNL     1       2.189   7.819  -2.754  1.00  0.00     0.006 A 
ATOM     19  C   UNL     1       2.686   5.720  -3.822  1.00  0.00     0.021 A 
ATOM     20  C   UNL     1       3.313   8.394  -3.354  1.00  0.00     0.002 A 
ATOM     21  C   UNL     1       3.836   6.283  -4.378  1.00  0.00     0.018 A 
ATOM     22  C   UNL     1       4.134   7.628  -4.177  1.00  0.00     0.016 A 
ATOM     23  Br  UNL     1       4.987   5.216  -5.432  1.00  0.00    -0.051 Br
ENDBRANCH  15  17
ENDBRANCH  13  15
ENDBRANCH  12  13
ENDBRANCH   4   7
ENDBRANCH   2   3
ENDBRANCH   1   2
BRANCH   1  24
ATOM     24  C   UNL     1      -6.550  10.692  -1.114  1.00  0.00     0.023 C 
BRANCH  24  25
ATOM     25  C   UNL     1      -7.031  11.693  -0.066  1.00  0.00     0.116 C 
BRANCH  25  26
ATOM     26  N   UNL     1      -7.030  13.085  -0.536  1.00  0.00    -0.352 N 
ATOM     27  C   UNL     1      -7.170  14.246   0.214  1.00  0.00     0.251 C 
ATOM     28  H   UNL     1      -6.915  13.211  -1.506  1.00  0.00     0.163 HD
ATOM     29  O   UNL     1      -7.543  15.293  -0.281  1.00  0.00    -0.269 OA
BRANCH  27  30
ATOM     30  C   UNL     1      -6.794  14.187   1.636  1.00  0.00     0.039 A 
ATOM     31  C   UNL     1      -7.531  14.795   2.660  1.00  0.00     0.014 A 
ATOM     32  C   UNL     1      -5.665  13.431   1.916  1.00  0.00     0.014 A 
ATOM     33  C   UNL     1      -7.136  14.583   3.980  1.00  0.00     0.010 A 
ATOM     34  C   UNL     1      -5.444  13.021   3.192  1.00  0.00     0.010 A 
ATOM     35  C   UNL     1      -6.087  13.691   4.225  1.00  0.00    -0.014 A 
BRANCH  35  36
ATOM     36  C   UNL     1      -5.604  13.350   5.550  1.00  0.00     0.031 A 
ATOM     37  C   UNL     1      -6.526  12.499   6.343  1.00  0.00     0.074 A 
ATOM     38  C   UNL     1      -4.286  13.484   5.824  1.00  0.00     0.049 A 
ATOM     39  N   UNL     1      -7.099  12.789   7.462  1.00  0.00    -0.248 NA
ATOM     40  C   UNL     1      -6.991  11.231   5.753  1.00  0.00     0.031 C 
ATOM     41  C   UNL     1      -3.221  13.982   4.939  1.00  0.00     0.029 A 
ATOM     42  N   UNL     1      -3.588  13.026   6.897  1.00  0.00    -0.354 N 
ATOM     43  C   UNL     1      -7.820  11.655   7.823  1.00  0.00     0.074 A 
ATOM     44  C   UNL     1      -7.914  10.848   6.637  1.00  0.00     0.031 C 
ATOM     45  C   UNL     1      -2.019  13.575   5.401  1.00  0.00     0.029 A 
ATOM     46  C   UNL     1      -2.213  12.917   6.676  1.00  0.00     0.049 A 
ATOM     47  H   UNL     1      -4.013  12.791   7.753  1.00  0.00     0.167 HD
ATOM     48  C   UNL     1      -8.024  11.340   9.134  1.00  0.00     0.037 A 
ATOM     49  C   UNL     1      -1.350  12.230   7.469  1.00  0.00     0.037 A 
ATOM     50  C   UNL     1      -7.710  12.466   9.983  1.00  0.00     0.049 A 
ATOM     51  C   UNL     1      -2.025  12.072   8.792  1.00  0.00     0.074 A 
ATOM     52  C   UNL     1      -8.148  13.776  10.041  1.00  0.00     0.029 A 
ATOM     53  N   UNL     1      -6.512  12.448  10.660  1.00  0.00    -0.354 N 
ATOM     54  N   UNL     1      -2.318  13.081   9.572  1.00  0.00    -0.248 NA
ATOM     55  C   UNL     1      -2.844  10.880   8.980  1.00  0.00     0.031 C 
ATOM     56  C   UNL     1      -6.964  14.543  10.256  1.00  0.00     0.029 A 
ATOM     57  C   UNL     1      -5.902  13.655  10.429  1.00  0.00     0.049 A 
ATOM     58  H   UNL     1      -6.160  11.709  11.207  1.00  0.00     0.167 HD
ATOM     59  C   UNL     1      -3.603  12.814  10.028  1.00  0.00     0.074 A 
ATOM     60  C   UNL     1      -3.855  11.419   9.668  1.00  0.00     0.031 C 
ATOM     61  C   UNL     1      -4.468  13.818  10.365  1.00  0.00     0.037 A 
BRANCH  48  62
ATOM     62  C   UNL     1      -8.118   9.934   9.683  1.00  0.00     0.064 A 
ATOM     63  C   UNL     1      -8.444   9.763  11.044  1.00  0.00     0.173 A 
ATOM     64  C   UNL     1      -7.626   8.782   9.032  1.00  0.00     0.173 A 
ATOM     65  F   UNL     1      -8.916  10.789  11.768  1.00  0.00    -0.203 F 
ATOM     66  C   UNL     1      -8.200   8.565  11.720  1.00  0.00     0.198 A 
ATOM     67  C   UNL     1      -7.439   7.571   9.696  1.00  0.00     0.198 A 
ATOM     68  F   UNL     1      -7.196   8.796   7.767  1.00  0.00    -0.203 F 
ATOM     69  F   UNL     1      -8.395   8.497  13.043  1.00  0.00    -0.200 F 
ATOM     70  C   UNL     1      -7.689   7.472  11.047  1.00  0.00     0.200 A 
ATOM     71  F   UNL     1      -6.930   6.527   9.026  1.00  0.00    -0.200 F 
ATOM     72  F   UNL     1      -7.391   6.343  11.703  1.00  0.00    -0.200 F 
ENDBRANCH  48  62
BRANCH  49  73
ATOM     73  C   UNL     1      -0.196  11.402   7.027  1.00  0.00     0.064 A 
ATOM     74  C   UNL     1       0.767  10.936   7.937  1.00  0.00     0.173 A 
ATOM     75  C   UNL     1      -0.143  10.839   5.733  1.00  0.00     0.173 A 
ATOM     76  F   UNL     1       0.761  11.373   9.205  1.00  0.00    -0.203 F 
ATOM     77  C   UNL     1       1.715   9.966   7.579  1.00  0.00     0.198 A 
ATOM     78  C   UNL     1       0.807   9.882   5.373  1.00  0.00     0.198 A 
ATOM     79  F   UNL     1      -1.069  11.137   4.811  1.00  0.00    -0.203 F 
ATOM     80  F   UNL     1       2.583   9.508   8.491  1.00  0.00    -0.200 F 
ATOM     81  C   UNL     1       1.730   9.436   6.299  1.00  0.00     0.200 A 
ATOM     82  F   UNL     1       0.782   9.354   4.141  1.00  0.00    -0.200 F 
ATOM     83  F   UNL     1       2.601   8.472   5.970  1.00  0.00    -0.200 F 
ENDBRANCH  49  73
BRANCH  61  84
ATOM     84  C   UNL     1      -3.956  15.232  10.443  1.00  0.00     0.064 A 
ATOM     85  C   UNL     1      -3.400  15.934   9.359  1.00  0.00     0.173 A 
ATOM     86  C   UNL     1      -4.223  15.966  11.607  1.00  0.00     0.173 A 
ATOM     87  F   UNL     1      -3.215  15.340   8.175  1.00  0.00    -0.203 F 
ATOM     88  C   UNL     1      -3.095  17.292   9.450  1.00  0.00     0.198 A 
ATOM     89  C   UNL     1      -3.953  17.329  11.684  1.00  0.00     0.198 A 
ATOM     90  F   UNL     1      -4.809  15.368  12.656  1.00  0.00    -0.203 F 
ATOM     91  F   UNL     1      -2.566  17.933   8.397  1.00  0.00    -0.200 F 
ATOM     92  C   UNL     1      -3.381  17.990  10.609  1.00  0.00     0.200 A 
ATOM     93  F   UNL     1      -4.284  18.011  12.789  1.00  0.00    -0.200 F 
ATOM     94  F   UNL     1      -3.134  19.306  10.682  1.00  0.00    -0.200 F 
ENDBRANCH  61  84
ENDBRANCH  35  36
ENDBRANCH  27  30
ENDBRANCH  25  26
ENDBRANCH  24  25
ENDBRANCH   1  24
TORSDOF 14
