REMARK SMILES O=C1NC(=O)/C(=C/c2ccc(OCc3cn(-c4ccc(C(=O)NCCCCNC(=O)c5ccc(-c6c7nc(c(-c8c(F)c(F)c(F)c(F)c8F)c8ccc([nH]8)c(-c8c(F)c(F)c(F)c(F)c8F)c8nc(c(-c9c(F)c(F)c(F)c(F)c9F)c9ccc6[nH]9)C=C8)C=C7)cc5)cc4)nn3)cc2)S1
REMARK SMILES IDX 24 1 23 2 21 3 22 4 20 6 17 7 18 8 95 9 19 10 94 11 16 12
REMARK SMILES IDX 14 13 15 14 97 15 96 16 13 17 12 18 11 19 8 20 9 21 99 22
REMARK SMILES IDX 10 23 98 24 7 25 1 26 2 27 3 28 100 29 4 30 6 32 5 33 25 34
REMARK SMILES IDX 26 35 27 36 28 37 29 38 30 40 31 41 32 42 93 43 33 44 92 45
REMARK SMILES IDX 34 46 35 47 36 48 86 49 37 50 91 51 85 52 87 53 38 54 90 55
REMARK SMILES IDX 84 56 83 57 39 59 71 60 51 61 70 62 52 63 55 64 69 65 88 66
REMARK SMILES IDX 53 67 54 68 68 70 89 71 56 72 40 73 41 74 49 75 42 76 43 77
REMARK SMILES IDX 47 78 50 79 44 80 45 81 48 82 46 83 72 84 73 85 81 86 74 87
REMARK SMILES IDX 75 88 79 89 82 90 76 91 77 92 80 93 78 94 57 95 58 96 66 97
REMARK SMILES IDX 59 98 60 99 64 100 67 101 61 102 62 103 65 104 63 105
REMARK H PARENT 23 5 3 31 28 39 87 58 55 69
REMARK Flexibility Score: inf
ROOT
ATOM      1  C   UNL     1      -7.741  10.427  -1.259  1.00  0.00     0.116 C 
ENDROOT
BRANCH   1   2
ATOM      2  N   UNL     1      -8.347   9.580  -0.252  1.00  0.00    -0.352 N 
ATOM      3  C   UNL     1      -7.851   8.614   0.586  1.00  0.00     0.251 C 
ATOM      4  O   UNL     1      -8.659   8.068   1.339  1.00  0.00    -0.269 OA
ATOM      5  H   UNL     1      -9.315   9.728  -0.148  1.00  0.00     0.163 HD
BRANCH   3   6
ATOM      6  C   UNL     1      -6.407   8.243   0.678  1.00  0.00     0.039 A 
ATOM      7  C   UNL     1      -3.697   7.626   1.113  1.00  0.00     0.066 A 
ATOM      8  C   UNL     1      -4.661   7.221   2.042  1.00  0.00     0.029 A 
ATOM      9  C   UNL     1      -4.086   8.271  -0.060  1.00  0.00     0.029 A 
ATOM     10  C   UNL     1      -6.001   7.559   1.837  1.00  0.00     0.016 A 
ATOM     11  C   UNL     1      -5.441   8.520  -0.294  1.00  0.00     0.016 A 
BRANCH   7  12
ATOM     12  N   UNL     1      -2.335   7.364   1.357  1.00  0.00    -0.220 N 
ATOM     13  C   UNL     1      -0.155   7.368   1.408  1.00  0.00     0.120 A 
ATOM     14  C   UNL     1      -1.236   8.065   0.914  1.00  0.00     0.144 A 
ATOM     15  N   UNL     1      -0.623   6.316   2.152  1.00  0.00    -0.131 NA
ATOM     16  N   UNL     1      -1.943   6.343   2.145  1.00  0.00    -0.062 NA
BRANCH  13  17
ATOM     17  C   UNL     1       1.310   7.655   1.340  1.00  0.00     0.289 C 
BRANCH  17  18
ATOM     18  O   UNL     1       2.027   6.984   0.290  1.00  0.00    -0.487 OA
BRANCH  18  19
ATOM     19  C   UNL     1       2.160   5.623   0.355  1.00  0.00     0.119 A 
ATOM     20  C   UNL     1       2.213   2.822   0.126  1.00  0.00    -0.024 A 
ATOM     21  C   UNL     1       2.676   3.621  -0.922  1.00  0.00     0.012 A 
ATOM     22  C   UNL     1       1.822   3.430   1.320  1.00  0.00     0.012 A 
ATOM     23  C   UNL     1       2.641   5.016  -0.808  1.00  0.00     0.047 A 
ATOM     24  C   UNL     1       1.828   4.821   1.443  1.00  0.00     0.047 A 
BRANCH  20  25
ATOM     25  C   UNL     1       2.148   1.365  -0.009  1.00  0.00     0.029 C 
ATOM     26  O   UNL     1      -2.446  -0.714   0.021  1.00  0.00    -0.261 OA
ATOM     27  C   UNL     1      -1.250  -0.435  -0.003  1.00  0.00     0.290 C 
ATOM     28  N   UNL     1      -0.234  -1.326  -0.051  1.00  0.00    -0.282 N 
ATOM     29  S   UNL     1      -0.616   1.195   0.017  1.00  0.00    -0.022 SA
ATOM     30  C   UNL     1       1.042  -0.845  -0.080  1.00  0.00     0.265 C 
ATOM     31  H   UNL     1      -0.410  -2.295  -0.064  1.00  0.00     0.174 HD
ATOM     32  C   UNL     1       1.019   0.641  -0.029  1.00  0.00     0.083 C 
ATOM     33  O   UNL     1       2.045  -1.535  -0.125  1.00  0.00    -0.268 OA
ENDBRANCH  20  25
ENDBRANCH  18  19
ENDBRANCH  17  18
ENDBRANCH  13  17
ENDBRANCH   7  12
ENDBRANCH   3   6
ENDBRANCH   1   2
BRANCH   1  34
ATOM     34  C   UNL     1      -7.848   9.796  -2.652  1.00  0.00     0.023 C 
BRANCH  34  35
ATOM     35  C   UNL     1      -9.245   9.873  -3.286  1.00  0.00     0.023 C 
BRANCH  35  36
ATOM     36  C   UNL     1      -9.712  11.284  -3.628  1.00  0.00     0.116 C 
BRANCH  36  37
ATOM     37  N   UNL     1      -8.837  11.955  -4.591  1.00  0.00    -0.352 N 
ATOM     38  C   UNL     1      -8.786  13.300  -4.905  1.00  0.00     0.251 C 
ATOM     39  H   UNL     1      -8.206  11.376  -5.076  1.00  0.00     0.163 HD
ATOM     40  O   UNL     1      -8.316  13.691  -5.966  1.00  0.00    -0.269 OA
BRANCH  38  41
ATOM     41  C   UNL     1      -9.293  14.265  -3.919  1.00  0.00     0.039 A 
ATOM     42  C   UNL     1     -10.103  15.341  -4.288  1.00  0.00     0.014 A 
ATOM     43  C   UNL     1      -8.971  14.034  -2.586  1.00  0.00     0.014 A 
ATOM     44  C   UNL     1     -10.657  16.133  -3.286  1.00  0.00     0.010 A 
ATOM     45  C   UNL     1      -9.648  14.703  -1.601  1.00  0.00     0.010 A 
ATOM     46  C   UNL     1     -10.441  15.792  -1.940  1.00  0.00    -0.014 A 
BRANCH  46  47
ATOM     47  C   UNL     1     -11.117  16.509  -0.867  1.00  0.00     0.031 A 
ATOM     48  C   UNL     1     -12.601  16.578  -0.985  1.00  0.00     0.074 A 
ATOM     49  C   UNL     1     -10.482  16.890   0.263  1.00  0.00     0.049 A 
ATOM     50  N   UNL     1     -13.331  17.636  -1.117  1.00  0.00    -0.248 NA
ATOM     51  C   UNL     1     -13.358  15.318  -1.072  1.00  0.00     0.031 C 
ATOM     52  C   UNL     1      -9.100  16.626   0.679  1.00  0.00     0.029 A 
ATOM     53  N   UNL     1     -10.998  17.523   1.348  1.00  0.00    -0.354 N 
ATOM     54  C   UNL     1     -14.652  17.198  -1.133  1.00  0.00     0.074 A 
ATOM     55  C   UNL     1     -14.603  15.764  -1.254  1.00  0.00     0.031 C 
ATOM     56  C   UNL     1      -8.969  16.872   2.001  1.00  0.00     0.029 A 
ATOM     57  C   UNL     1     -10.197  17.474   2.481  1.00  0.00     0.049 A 
ATOM     58  H   UNL     1     -11.869  17.981   1.333  1.00  0.00     0.167 HD
ATOM     59  C   UNL     1     -15.679  18.041  -0.828  1.00  0.00     0.037 A 
ATOM     60  C   UNL     1     -10.545  17.870   3.731  1.00  0.00     0.037 A 
ATOM     61  C   UNL     1     -15.268  19.419  -0.914  1.00  0.00     0.049 A 
ATOM     62  C   UNL     1     -11.697  18.799   3.587  1.00  0.00     0.074 A 
ATOM     63  C   UNL     1     -14.740  20.199  -1.927  1.00  0.00     0.029 A 
ATOM     64  N   UNL     1     -14.980  20.092   0.250  1.00  0.00    -0.354 N 
ATOM     65  N   UNL     1     -11.608  19.976   3.029  1.00  0.00    -0.248 NA
ATOM     66  C   UNL     1     -13.032  18.218   3.613  1.00  0.00     0.031 C 
ATOM     67  C   UNL     1     -13.721  20.973  -1.296  1.00  0.00     0.029 A 
ATOM     68  C   UNL     1     -13.755  20.686   0.069  1.00  0.00     0.049 A 
ATOM     69  H   UNL     1     -15.543  20.139   1.056  1.00  0.00     0.167 HD
ATOM     70  C   UNL     1     -12.756  20.088   2.259  1.00  0.00     0.074 A 
ATOM     71  C   UNL     1     -13.630  19.008   2.716  1.00  0.00     0.031 C 
ATOM     72  C   UNL     1     -12.783  20.848   1.125  1.00  0.00     0.037 A 
BRANCH  59  73
ATOM     73  C   UNL     1     -16.947  17.617  -0.135  1.00  0.00     0.064 A 
ATOM     74  C   UNL     1     -18.027  18.518  -0.045  1.00  0.00     0.173 A 
ATOM     75  C   UNL     1     -17.037  16.474   0.689  1.00  0.00     0.173 A 
ATOM     76  F   UNL     1     -18.031  19.653  -0.759  1.00  0.00    -0.203 F 
ATOM     77  C   UNL     1     -19.084  18.315   0.848  1.00  0.00     0.198 A 
ATOM     78  C   UNL     1     -18.119  16.248   1.537  1.00  0.00     0.198 A 
ATOM     79  F   UNL     1     -16.033  15.595   0.792  1.00  0.00    -0.203 F 
ATOM     80  F   UNL     1     -20.028  19.256   0.986  1.00  0.00    -0.200 F 
ATOM     81  C   UNL     1     -19.128  17.182   1.639  1.00  0.00     0.200 A 
ATOM     82  F   UNL     1     -18.130  15.155   2.312  1.00  0.00    -0.200 F 
ATOM     83  F   UNL     1     -20.109  17.012   2.534  1.00  0.00    -0.200 F 
ENDBRANCH  59  73
BRANCH  60  84
ATOM     84  C   UNL     1     -10.155  17.255   5.023  1.00  0.00     0.064 A 
ATOM     85  C   UNL     1     -10.366  17.925   6.239  1.00  0.00     0.173 A 
ATOM     86  C   UNL     1      -9.817  15.890   5.115  1.00  0.00     0.173 A 
ATOM     87  F   UNL     1     -10.734  19.215   6.242  1.00  0.00    -0.203 F 
ATOM     88  C   UNL     1     -10.271  17.264   7.469  1.00  0.00     0.198 A 
ATOM     89  C   UNL     1      -9.715  15.233   6.342  1.00  0.00     0.198 A 
ATOM     90  F   UNL     1      -9.670  15.140   4.013  1.00  0.00    -0.203 F 
ATOM     91  F   UNL     1     -10.539  17.922   8.605  1.00  0.00    -0.200 F 
ATOM     92  C   UNL     1      -9.955  15.916   7.518  1.00  0.00     0.200 A 
ATOM     93  F   UNL     1      -9.443  13.920   6.372  1.00  0.00    -0.200 F 
ATOM     94  F   UNL     1      -9.923  15.268   8.691  1.00  0.00    -0.200 F 
ENDBRANCH  60  84
BRANCH  72  95
ATOM     95  C   UNL     1     -11.604  21.739   0.830  1.00  0.00     0.064 A 
ATOM     96  C   UNL     1     -10.291  21.273   0.631  1.00  0.00     0.173 A 
ATOM     97  C   UNL     1     -11.841  23.096   0.577  1.00  0.00     0.173 A 
ATOM     98  F   UNL     1      -9.993  19.974   0.744  1.00  0.00    -0.203 F 
ATOM     99  C   UNL     1      -9.264  22.132   0.241  1.00  0.00     0.198 A 
ATOM    100  C   UNL     1     -10.822  23.945   0.151  1.00  0.00     0.198 A 
ATOM    101  F   UNL     1     -13.083  23.593   0.692  1.00  0.00    -0.203 F 
ATOM    102  F   UNL     1      -8.021  21.658   0.068  1.00  0.00    -0.200 F 
ATOM    103  C   UNL     1      -9.532  23.466  -0.006  1.00  0.00     0.200 A 
ATOM    104  F   UNL     1     -11.099  25.224  -0.137  1.00  0.00    -0.200 F 
ATOM    105  F   UNL     1      -8.556  24.284  -0.422  1.00  0.00    -0.200 F 
ENDBRANCH  72  95
ENDBRANCH  46  47
ENDBRANCH  38  41
ENDBRANCH  36  37
ENDBRANCH  35  36
ENDBRANCH  34  35
ENDBRANCH   1  34
TORSDOF 16
