REMARK SMILES CCOC(=O)C1=NN(c2cc(F)cc(F)c2)[C@@H](C(=O)NCCCCNC(=O)c2ccc(-c3c4nc(c(-c5c(F)c(F)c(F)c(F)c5F)c5ccc([nH]5)c(-c5c(F)c(F)c(F)c(F)c5F)c5nc(c(-c6c(F)c(F)c(F)c(F)c6F)c6ccc3[nH]6)C=C5)C=C4)cc2)C1
REMARK SMILES IDX 22 1 21 2 20 3 18 4 19 5 17 7 6 8 7 9 91 10 8 11 4 12 5 13
REMARK SMILES IDX 3 14 2 15 1 16 9 17 10 18 16 19 11 20 14 21 12 22 13 23
REMARK SMILES IDX 15 24 23 25 24 26 25 27 26 28 27 30 28 31 29 32 90 33 30 34
REMARK SMILES IDX 89 35 31 36 32 37 33 38 83 39 34 40 88 41 82 42 84 43 35 44
REMARK SMILES IDX 87 45 81 46 80 47 36 49 68 50 48 51 67 52 49 53 52 54 66 55
REMARK SMILES IDX 85 56 50 57 51 58 65 60 86 61 53 62 37 63 38 64 46 65 39 66
REMARK SMILES IDX 40 67 44 68 47 69 41 70 42 71 45 72 43 73 69 74 70 75 78 76
REMARK SMILES IDX 71 77 72 78 76 79 79 80 73 81 74 82 77 83 75 84 54 85 55 86
REMARK SMILES IDX 63 87 56 88 57 89 61 90 64 91 58 92 59 93 62 94 60 95
REMARK H PARENT 20 6 25 29 84 48 52 59
REMARK Flexibility Score: inf
ROOT
ATOM      1  C   UNL     1       0.493   4.814   3.351  1.00  0.00     0.023 C 
ENDROOT
BRANCH   1   2
ATOM      2  C   UNL     1       1.782   4.592   4.127  1.00  0.00     0.116 C 
BRANCH   2   3
ATOM      3  N   UNL     1       1.598   4.216   5.515  1.00  0.00    -0.354 N 
ATOM      4  C   UNL     1       2.348   3.373   6.290  1.00  0.00     0.245 C 
ATOM      5  O   UNL     1       2.119   3.397   7.506  1.00  0.00    -0.273 OA
ATOM      6  H   UNL     1       0.824   4.625   5.964  1.00  0.00     0.163 HD
BRANCH   4   7
ATOM      7  C   UNL     1       3.326   2.324   5.726  1.00  0.00     0.203 C 
ATOM      8  C   UNL     1       3.120   1.233   3.705  1.00  0.00     0.148 C 
ATOM      9  N   UNL     1       4.025   2.135   3.470  1.00  0.00    -0.169 NA
ATOM     10  C   UNL     1       2.554   1.179   5.083  1.00  0.00     0.103 C 
ATOM     11  N   UNL     1       4.207   2.797   4.652  1.00  0.00    -0.252 N 
BRANCH   8  12
ATOM     12  C   UNL     1       2.609   0.272   2.670  1.00  0.00     0.354 C 
ATOM     13  O   UNL     1       3.282  -0.636   2.224  1.00  0.00    -0.245 OA
BRANCH  12  14
ATOM     14  O   UNL     1       1.317   0.569   2.413  1.00  0.00    -0.461 OA
BRANCH  14  15
ATOM     15  C   UNL     1       0.652  -0.327   1.510  1.00  0.00     0.230 C 
ATOM     16  C   UNL     1       0.886   0.098   0.073  1.00  0.00     0.049 C 
ENDBRANCH  14  15
ENDBRANCH  12  14
ENDBRANCH   8  12
BRANCH  11  17
ATOM     17  C   UNL     1       5.027   3.916   4.745  1.00  0.00     0.066 A 
ATOM     18  C   UNL     1       5.722   4.226   5.919  1.00  0.00     0.067 A 
ATOM     19  C   UNL     1       5.149   4.804   3.664  1.00  0.00     0.067 A 
ATOM     20  C   UNL     1       6.476   5.396   6.010  1.00  0.00     0.128 A 
ATOM     21  C   UNL     1       5.859   5.994   3.793  1.00  0.00     0.128 A 
ATOM     22  F   UNL     1       7.151   5.655   7.138  1.00  0.00    -0.207 F 
ATOM     23  C   UNL     1       6.531   6.301   4.963  1.00  0.00     0.078 A 
ATOM     24  F   UNL     1       5.863   6.870   2.780  1.00  0.00    -0.207 F 
ENDBRANCH  11  17
ENDBRANCH   4   7
ENDBRANCH   2   3
ENDBRANCH   1   2
BRANCH   1  25
ATOM     25  C   UNL     1      -0.329   6.030   3.757  1.00  0.00     0.023 C 
BRANCH  25  26
ATOM     26  C   UNL     1       0.431   7.349   3.855  1.00  0.00     0.116 C 
BRANCH  26  27
ATOM     27  N   UNL     1       1.124   7.727   2.632  1.00  0.00    -0.352 N 
ATOM     28  C   UNL     1       1.032   8.877   1.883  1.00  0.00     0.251 C 
ATOM     29  H   UNL     1       1.756   7.055   2.287  1.00  0.00     0.163 HD
ATOM     30  O   UNL     1       1.637   8.971   0.819  1.00  0.00    -0.269 OA
BRANCH  28  31
ATOM     31  C   UNL     1       0.164   9.987   2.331  1.00  0.00     0.039 A 
ATOM     32  C   UNL     1      -0.696  10.583   1.405  1.00  0.00     0.014 A 
ATOM     33  C   UNL     1       0.168  10.416   3.660  1.00  0.00     0.014 A 
ATOM     34  C   UNL     1      -1.620  11.538   1.835  1.00  0.00     0.010 A 
ATOM     35  C   UNL     1      -0.813  11.297   4.104  1.00  0.00     0.010 A 
ATOM     36  C   UNL     1      -1.723  11.862   3.199  1.00  0.00    -0.014 A 
BRANCH  36  37
ATOM     37  C   UNL     1      -2.788  12.773   3.692  1.00  0.00     0.031 A 
ATOM     38  C   UNL     1      -2.429  14.072   4.357  1.00  0.00     0.074 A 
ATOM     39  C   UNL     1      -4.080  12.401   3.593  1.00  0.00     0.049 A 
ATOM     40  N   UNL     1      -3.216  14.974   4.886  1.00  0.00    -0.248 NA
ATOM     41  C   UNL     1      -0.996  14.388   4.470  1.00  0.00     0.031 C 
ATOM     42  C   UNL     1      -4.554  11.139   3.022  1.00  0.00     0.029 A 
ATOM     43  N   UNL     1      -5.233  13.046   3.969  1.00  0.00    -0.354 N 
ATOM     44  C   UNL     1      -2.377  15.954   5.397  1.00  0.00     0.074 A 
ATOM     45  C   UNL     1      -1.019  15.510   5.174  1.00  0.00     0.031 C 
ATOM     46  C   UNL     1      -5.896  11.120   3.047  1.00  0.00     0.029 A 
ATOM     47  C   UNL     1      -6.379  12.349   3.670  1.00  0.00     0.049 A 
ATOM     48  H   UNL     1      -5.237  13.925   4.412  1.00  0.00     0.167 HD
ATOM     49  C   UNL     1      -2.710  17.133   5.972  1.00  0.00     0.037 A 
ATOM     50  C   UNL     1      -7.673  12.666   3.870  1.00  0.00     0.037 A 
ATOM     51  C   UNL     1      -4.061  17.589   6.161  1.00  0.00     0.049 A 
ATOM     52  C   UNL     1      -8.016  13.983   4.511  1.00  0.00     0.074 A 
ATOM     53  C   UNL     1      -4.497  18.795   6.678  1.00  0.00     0.029 A 
ATOM     54  N   UNL     1      -5.194  16.858   5.835  1.00  0.00    -0.354 N 
ATOM     55  N   UNL     1      -7.213  14.931   4.929  1.00  0.00    -0.248 NA
ATOM     56  C   UNL     1      -9.444  14.278   4.705  1.00  0.00     0.031 C 
ATOM     57  C   UNL     1      -5.894  18.778   6.706  1.00  0.00     0.029 A 
ATOM     58  C   UNL     1      -6.329  17.581   6.159  1.00  0.00     0.049 A 
ATOM     59  H   UNL     1      -5.191  15.959   5.433  1.00  0.00     0.167 HD
ATOM     60  C   UNL     1      -8.033  15.943   5.408  1.00  0.00     0.074 A 
ATOM     61  C   UNL     1      -9.399  15.499   5.223  1.00  0.00     0.031 C 
ATOM     62  C   UNL     1      -7.683  17.132   5.954  1.00  0.00     0.037 A 
BRANCH  49  63
ATOM     63  C   UNL     1      -1.596  18.034   6.418  1.00  0.00     0.064 A 
ATOM     64  C   UNL     1      -1.382  18.286   7.782  1.00  0.00     0.173 A 
ATOM     65  C   UNL     1      -0.784  18.705   5.491  1.00  0.00     0.173 A 
ATOM     66  F   UNL     1      -2.135  17.675   8.709  1.00  0.00    -0.203 F 
ATOM     67  C   UNL     1      -0.405  19.185   8.199  1.00  0.00     0.198 A 
ATOM     68  C   UNL     1       0.212  19.581   5.913  1.00  0.00     0.198 A 
ATOM     69  F   UNL     1      -0.941  18.491   4.176  1.00  0.00    -0.203 F 
ATOM     70  F   UNL     1      -0.240  19.434   9.506  1.00  0.00    -0.200 F 
ATOM     71  C   UNL     1       0.394  19.828   7.266  1.00  0.00     0.200 A 
ATOM     72  F   UNL     1       0.999  20.183   5.011  1.00  0.00    -0.200 F 
ATOM     73  F   UNL     1       1.341  20.686   7.670  1.00  0.00    -0.200 F 
ENDBRANCH  49  63
BRANCH  50  74
ATOM     74  C   UNL     1      -8.738  11.737   3.410  1.00  0.00     0.064 A 
ATOM     75  C   UNL     1      -8.952  10.500   4.035  1.00  0.00     0.173 A 
ATOM     76  C   UNL     1      -9.544  12.060   2.310  1.00  0.00     0.173 A 
ATOM     77  F   UNL     1      -8.204  10.140   5.088  1.00  0.00    -0.203 F 
ATOM     78  C   UNL     1      -9.921   9.615   3.565  1.00  0.00     0.198 A 
ATOM     79  C   UNL     1     -10.530  11.186   1.857  1.00  0.00     0.198 A 
ATOM     80  F   UNL     1      -9.389  13.240   1.692  1.00  0.00    -0.203 F 
ATOM     81  F   UNL     1     -10.083   8.424   4.159  1.00  0.00    -0.200 F 
ATOM     82  C   UNL     1     -10.712   9.960   2.480  1.00  0.00     0.200 A 
ATOM     83  F   UNL     1     -11.307  11.534   0.823  1.00  0.00    -0.200 F 
ATOM     84  F   UNL     1     -11.650   9.113   2.035  1.00  0.00    -0.200 F 
ENDBRANCH  50  74
BRANCH  62  85
ATOM     85  C   UNL     1      -8.781  18.064   6.371  1.00  0.00     0.064 A 
ATOM     86  C   UNL     1      -9.007  19.255   5.663  1.00  0.00     0.173 A 
ATOM     87  C   UNL     1      -9.538  17.831   7.527  1.00  0.00     0.173 A 
ATOM     88  F   UNL     1      -8.301  19.526   4.554  1.00  0.00    -0.203 F 
ATOM     89  C   UNL     1      -9.934  20.190   6.112  1.00  0.00     0.198 A 
ATOM     90  C   UNL     1     -10.485  18.757   7.959  1.00  0.00     0.198 A 
ATOM     91  F   UNL     1      -9.367  16.702   8.230  1.00  0.00    -0.203 F 
ATOM     92  F   UNL     1     -10.102  21.340   5.444  1.00  0.00    -0.200 F 
ATOM     93  C   UNL     1     -10.672  19.940   7.259  1.00  0.00     0.200 A 
ATOM     94  F   UNL     1     -11.212  18.506   9.055  1.00  0.00    -0.200 F 
ATOM     95  F   UNL     1     -11.566  20.841   7.691  1.00  0.00    -0.200 F 
ENDBRANCH  62  85
ENDBRANCH  36  37
ENDBRANCH  28  31
ENDBRANCH  26  27
ENDBRANCH  25  26
ENDBRANCH   1  25
TORSDOF 15
