REMARK SMILES C[NH2+][C@@]1(C(=O)NCCCCNC(=O)c2ccc(-c3c4nc(c(-c5c(F)c(F)c(F)c(F)c5F)c5ccc([nH]5)c(-c5c(F)c(F)c(F)c(F)c5F)c5nc(c(-c6c(F)c(F)c(F)c(F)c6F)c6ccc3[nH]6)C=C5)C=C4)cc2)CCC[C@H]1CCn1ccc(C(F)(F)F)n1
REMARK SMILES IDX 7 1 6 2 4 3 5 4 3 6 77 7 80 8 78 9 79 10 2 11 1 12 81 15
REMARK SMILES IDX 82 16 83 17 84 18 91 19 85 20 86 21 87 22 88 23 89 24 90 25
REMARK SMILES IDX 8 26 9 27 10 28 11 29 12 30 13 32 14 33 15 34 76 35 16 36
REMARK SMILES IDX 75 37 17 38 18 39 19 40 69 41 20 42 74 43 68 44 70 45 21 46
REMARK SMILES IDX 73 47 67 48 66 49 22 51 54 52 34 53 53 54 35 55 38 56 52 57
REMARK SMILES IDX 71 58 36 59 37 60 51 62 72 63 39 64 23 65 24 66 32 67 25 68
REMARK SMILES IDX 26 69 30 70 33 71 27 72 28 73 31 74 29 75 55 76 56 77 64 78
REMARK SMILES IDX 57 79 58 80 62 81 65 82 59 83 60 84 63 85 61 86 40 87 41 88
REMARK SMILES IDX 49 89 42 90 43 91 47 92 50 93 44 94 45 95 48 96 46 97
REMARK H PARENT 6 5 2 13 2 14 11 31 70 50 38 61
REMARK Flexibility Score: inf
ROOT
ATOM      1  C   UNL     1      -4.025   1.161   0.462  1.00  0.00     0.116 C 
ENDROOT
BRANCH   1   2
ATOM      2  N   UNL     1      -2.732   1.188   1.095  1.00  0.00    -0.351 N 
ATOM      3  C   UNL     1      -1.571   1.715   0.627  1.00  0.00     0.281 C 
ATOM      4  O   UNL     1      -0.980   2.426   1.457  1.00  0.00    -0.268 OA
ATOM      5  H   UNL     1      -2.683   0.768   1.985  1.00  0.00     0.163 HD
BRANCH   3   6
ATOM      6  C   UNL     1      -0.962   1.497  -0.836  1.00  0.00     0.178 C 
ATOM      7  C   UNL     1      -1.428   2.662  -1.735  1.00  0.00     0.079 C 
ATOM      8  C   UNL     1      -1.356   0.215  -1.647  1.00  0.00     0.062 C 
ATOM      9  C   UNL     1      -2.589   2.164  -2.578  1.00  0.00     0.008 C 
ATOM     10  C   UNL     1      -2.589   0.644  -2.489  1.00  0.00     0.011 C 
BRANCH   6  11
ATOM     11  N   UNL     1       0.529   1.643  -0.718  1.00  0.00    -0.336 N 
ATOM     12  C   UNL     1       1.130   0.894   0.394  1.00  0.00     0.331 C 
ATOM     13  H   UNL     1       0.951   1.315  -1.587  1.00  0.00     0.346 HD
ATOM     14  H   UNL     1       0.710   2.630  -0.534  1.00  0.00     0.346 HD
ENDBRANCH   6  11
BRANCH   8  15
ATOM     15  C   UNL     1      -0.349  -0.341  -2.703  1.00  0.00     0.034 C 
BRANCH  15  16
ATOM     16  C   UNL     1       0.884  -1.128  -2.265  1.00  0.00     0.144 C 
BRANCH  16  17
ATOM     17  N   UNL     1       0.618  -2.314  -1.475  1.00  0.00    -0.272 N 
ATOM     18  C   UNL     1       0.432  -3.585  -1.937  1.00  0.00     0.109 A 
ATOM     19  N   UNL     1       0.674  -2.248  -0.136  1.00  0.00    -0.168 NA
ATOM     20  C   UNL     1       0.372  -4.391  -0.825  1.00  0.00     0.055 A 
ATOM     21  C   UNL     1       0.531  -3.518   0.285  1.00  0.00     0.166 A 
BRANCH  21  22
ATOM     22  C   UNL     1       0.565  -3.903   1.739  1.00  0.00     0.435 C 
ATOM     23  F   UNL     1      -0.515  -4.659   2.082  1.00  0.00    -0.164 F 
ATOM     24  F   UNL     1       1.664  -4.649   2.038  1.00  0.00    -0.164 F 
ATOM     25  F   UNL     1       0.574  -2.839   2.587  1.00  0.00    -0.164 F 
ENDBRANCH  21  22
ENDBRANCH  16  17
ENDBRANCH  15  16
ENDBRANCH   8  15
ENDBRANCH   3   6
ENDBRANCH   1   2
BRANCH   1  26
ATOM     26  C   UNL     1      -4.710  -0.195   0.564  1.00  0.00     0.023 C 
BRANCH  26  27
ATOM     27  C   UNL     1      -5.441  -0.435   1.887  1.00  0.00     0.023 C 
BRANCH  27  28
ATOM     28  C   UNL     1      -6.461   0.632   2.279  1.00  0.00     0.116 C 
BRANCH  28  29
ATOM     29  N   UNL     1      -7.436   0.936   1.240  1.00  0.00    -0.352 N 
ATOM     30  C   UNL     1      -8.750   1.316   1.390  1.00  0.00     0.251 C 
ATOM     31  H   UNL     1      -7.113   0.859   0.313  1.00  0.00     0.163 HD
ATOM     32  O   UNL     1      -9.474   1.476   0.418  1.00  0.00    -0.269 OA
BRANCH  30  33
ATOM     33  C   UNL     1      -9.287   1.480   2.755  1.00  0.00     0.039 A 
ATOM     34  C   UNL     1     -10.426   0.761   3.120  1.00  0.00     0.014 A 
ATOM     35  C   UNL     1      -8.618   2.279   3.686  1.00  0.00     0.014 A 
ATOM     36  C   UNL     1     -10.849   0.775   4.450  1.00  0.00     0.010 A 
ATOM     37  C   UNL     1      -9.000   2.237   5.022  1.00  0.00     0.010 A 
ATOM     38  C   UNL     1     -10.111   1.476   5.418  1.00  0.00    -0.014 A 
BRANCH  38  39
ATOM     39  C   UNL     1     -10.473   1.414   6.855  1.00  0.00     0.031 A 
ATOM     40  C   UNL     1     -10.914   2.657   7.573  1.00  0.00     0.074 A 
ATOM     41  C   UNL     1     -10.319   0.259   7.530  1.00  0.00     0.049 A 
ATOM     42  N   UNL     1     -11.186   2.827   8.842  1.00  0.00    -0.248 NA
ATOM     43  C   UNL     1     -11.034   3.879   6.763  1.00  0.00     0.031 C 
ATOM     44  C   UNL     1      -9.837  -0.999   6.957  1.00  0.00     0.029 A 
ATOM     45  N   UNL     1     -10.538  -0.041   8.852  1.00  0.00    -0.354 N 
ATOM     46  C   UNL     1     -11.484   4.175   8.984  1.00  0.00     0.074 A 
ATOM     47  C   UNL     1     -11.315   4.787   7.684  1.00  0.00     0.031 C 
ATOM     48  C   UNL     1      -9.814  -1.939   7.916  1.00  0.00     0.029 A 
ATOM     49  C   UNL     1     -10.248  -1.344   9.176  1.00  0.00     0.049 A 
ATOM     50  H   UNL     1     -10.871   0.616   9.505  1.00  0.00     0.167 HD
ATOM     51  C   UNL     1     -11.884   4.838  10.096  1.00  0.00     0.037 A 
ATOM     52  C   UNL     1     -10.322  -1.983  10.359  1.00  0.00     0.037 A 
ATOM     53  C   UNL     1     -12.089   4.217  11.377  1.00  0.00     0.049 A 
ATOM     54  C   UNL     1     -10.801  -1.233  11.571  1.00  0.00     0.074 A 
ATOM     55  C   UNL     1     -12.568   4.785  12.544  1.00  0.00     0.029 A 
ATOM     56  N   UNL     1     -11.828   2.884  11.658  1.00  0.00    -0.354 N 
ATOM     57  N   UNL     1     -11.154   0.025  11.678  1.00  0.00    -0.248 NA
ATOM     58  C   UNL     1     -10.901  -1.992  12.825  1.00  0.00     0.031 C 
ATOM     59  C   UNL     1     -12.564   3.804  13.541  1.00  0.00     0.029 A 
ATOM     60  C   UNL     1     -12.121   2.614  12.984  1.00  0.00     0.049 A 
ATOM     61  H   UNL     1     -11.485   2.227  11.010  1.00  0.00     0.167 HD
ATOM     62  C   UNL     1     -11.539   0.203  12.999  1.00  0.00     0.074 A 
ATOM     63  C   UNL     1     -11.390  -1.081  13.653  1.00  0.00     0.031 C 
ATOM     64  C   UNL     1     -11.975   1.328  13.615  1.00  0.00     0.037 A 
BRANCH  51  65
ATOM     65  C   UNL     1     -12.135   6.311   9.970  1.00  0.00     0.064 A 
ATOM     66  C   UNL     1     -13.239   6.810   9.262  1.00  0.00     0.173 A 
ATOM     67  C   UNL     1     -11.279   7.234  10.588  1.00  0.00     0.173 A 
ATOM     68  F   UNL     1     -14.079   5.968   8.641  1.00  0.00    -0.203 F 
ATOM     69  C   UNL     1     -13.460   8.180   9.154  1.00  0.00     0.198 A 
ATOM     70  C   UNL     1     -11.520   8.603  10.502  1.00  0.00     0.198 A 
ATOM     71  F   UNL     1     -10.212   6.809  11.281  1.00  0.00    -0.203 F 
ATOM     72  F   UNL     1     -14.494   8.634   8.431  1.00  0.00    -0.200 F 
ATOM     73  C   UNL     1     -12.605   9.075   9.779  1.00  0.00     0.200 A 
ATOM     74  F   UNL     1     -10.699   9.467  11.115  1.00  0.00    -0.200 F 
ATOM     75  F   UNL     1     -12.823  10.393   9.678  1.00  0.00    -0.200 F 
ENDBRANCH  51  65
BRANCH  52  76
ATOM     76  C   UNL     1      -9.965  -3.422  10.446  1.00  0.00     0.064 A 
ATOM     77  C   UNL     1     -10.955  -4.397  10.635  1.00  0.00     0.173 A 
ATOM     78  C   UNL     1      -8.635  -3.854  10.341  1.00  0.00     0.173 A 
ATOM     79  F   UNL     1     -12.239  -4.030  10.761  1.00  0.00    -0.203 F 
ATOM     80  C   UNL     1     -10.626  -5.747  10.732  1.00  0.00     0.198 A 
ATOM     81  C   UNL     1      -8.310  -5.207  10.414  1.00  0.00     0.198 A 
ATOM     82  F   UNL     1      -7.652  -2.961  10.154  1.00  0.00    -0.203 F 
ATOM     83  F   UNL     1     -11.588  -6.654  10.952  1.00  0.00    -0.200 F 
ATOM     84  C   UNL     1      -9.305  -6.152  10.617  1.00  0.00     0.200 A 
ATOM     85  F   UNL     1      -7.034  -5.595  10.289  1.00  0.00    -0.200 F 
ATOM     86  F   UNL     1      -8.990  -7.451  10.707  1.00  0.00    -0.200 F 
ENDBRANCH  52  76
BRANCH  64  87
ATOM     87  C   UNL     1     -12.353   1.216  15.062  1.00  0.00     0.064 A 
ATOM     88  C   UNL     1     -11.383   1.092  16.066  1.00  0.00     0.173 A 
ATOM     89  C   UNL     1     -13.700   1.281  15.450  1.00  0.00     0.173 A 
ATOM     90  F   UNL     1     -10.083   1.010  15.743  1.00  0.00    -0.203 F 
ATOM     91  C   UNL     1     -11.748   1.016  17.407  1.00  0.00     0.198 A 
ATOM     92  C   UNL     1     -14.060   1.232  16.794  1.00  0.00     0.198 A 
ATOM     93  F   UNL     1     -14.665   1.406  14.527  1.00  0.00    -0.203 F 
ATOM     94  F   UNL     1     -10.807   0.858  18.349  1.00  0.00    -0.200 F 
ATOM     95  C   UNL     1     -13.085   1.094  17.770  1.00  0.00     0.200 A 
ATOM     96  F   UNL     1     -15.351   1.319  17.144  1.00  0.00    -0.200 F 
ATOM     97  F   UNL     1     -13.434   1.030  19.062  1.00  0.00    -0.200 F 
ENDBRANCH  64  87
ENDBRANCH  38  39
ENDBRANCH  30  33
ENDBRANCH  28  29
ENDBRANCH  27  28
ENDBRANCH  26  27
ENDBRANCH   1  26
TORSDOF 16
