REMARK SMILES O=C(NCCCCNC(=O)C1(C/C=C/c2ccccc2)Cc2ccccc2C1)c1ccc(-c2c3nc(c(-c4c(F)c(F)c(F)c(F)c4F)c4ccc([nH]4)c(-c4c(F)c(F)c(F)c(F)c4F)c4nc(c(-c5c(F)c(F)c(F)c(F)c5F)c5ccc2[nH]5)C=C4)C=C3)cc1
REMARK SMILES IDX 6 1 5 2 4 3 3 4 1 5 2 6 29 8 30 9 91 10 31 11 90 12 32 13
REMARK SMILES IDX 33 14 34 15 84 16 35 17 89 18 83 19 85 20 36 21 88 22 82 23
REMARK SMILES IDX 81 24 37 26 69 27 49 28 68 29 50 30 53 31 67 32 86 33 51 34
REMARK SMILES IDX 52 35 66 37 87 38 54 39 38 40 39 41 47 42 40 43 41 44 45 45
REMARK SMILES IDX 48 46 42 47 43 48 46 49 44 50 70 51 71 52 79 53 72 54 73 55
REMARK SMILES IDX 77 56 80 57 74 58 75 59 78 60 76 61 55 62 56 63 64 64 57 65
REMARK SMILES IDX 58 66 62 67 65 68 59 69 60 70 63 71 61 72 7 73 8 74 9 75
REMARK SMILES IDX 10 77 11 78 21 79 28 80 22 81 27 82 23 83 26 84 24 85 25 86
REMARK SMILES IDX 12 87 13 88 14 89 15 90 16 91 20 92 17 93 19 94 18 95
REMARK H PARENT 3 7 85 25 53 36 8 76
REMARK Flexibility Score: inf
ROOT
ATOM      1  C   UNL     1       5.820  -2.700   1.938  1.00  0.00     0.023 C 
ENDROOT
BRANCH   1   2
ATOM      2  C   UNL     1       5.674  -1.190   1.816  1.00  0.00     0.023 C 
BRANCH   2   3
ATOM      3  C   UNL     1       5.112  -0.619   0.528  1.00  0.00     0.116 C 
BRANCH   3   4
ATOM      4  N   UNL     1       3.722  -0.915   0.237  1.00  0.00    -0.352 N 
ATOM      5  O   UNL     1       1.695  -0.429  -0.715  1.00  0.00    -0.269 OA
ATOM      6  C   UNL     1       2.830  -0.091  -0.428  1.00  0.00     0.251 C 
ATOM      7  H   UNL     1       3.380  -1.787   0.541  1.00  0.00     0.163 HD
BRANCH   6   8
ATOM      8  C   UNL     1       3.288   1.271  -0.763  1.00  0.00     0.039 A 
ATOM      9  C   UNL     1       4.435   1.433  -1.540  1.00  0.00     0.014 A 
ATOM     10  C   UNL     1       2.647   2.369  -0.182  1.00  0.00     0.014 A 
ATOM     11  C   UNL     1       5.033   2.679  -1.605  1.00  0.00     0.010 A 
ATOM     12  C   UNL     1       3.199   3.642  -0.335  1.00  0.00     0.010 A 
ATOM     13  C   UNL     1       4.414   3.798  -1.018  1.00  0.00    -0.014 A 
BRANCH  13  14
ATOM     14  C   UNL     1       5.026   5.128  -1.233  1.00  0.00     0.031 A 
ATOM     15  C   UNL     1       5.641   5.906  -0.109  1.00  0.00     0.074 A 
ATOM     16  C   UNL     1       5.068   5.587  -2.498  1.00  0.00     0.049 A 
ATOM     17  N   UNL     1       6.297   7.038  -0.157  1.00  0.00    -0.248 NA
ATOM     18  C   UNL     1       5.499   5.353   1.246  1.00  0.00     0.031 C 
ATOM     19  C   UNL     1       4.476   4.903  -3.651  1.00  0.00     0.029 A 
ATOM     20  N   UNL     1       5.656   6.698  -3.035  1.00  0.00    -0.354 N 
ATOM     21  C   UNL     1       6.632   7.342   1.155  1.00  0.00     0.074 A 
ATOM     22  C   UNL     1       6.090   6.285   1.983  1.00  0.00     0.031 C 
ATOM     23  C   UNL     1       4.789   5.572  -4.767  1.00  0.00     0.029 A 
ATOM     24  C   UNL     1       5.546   6.762  -4.402  1.00  0.00     0.049 A 
ATOM     25  H   UNL     1       6.113   7.384  -2.496  1.00  0.00     0.167 HD
ATOM     26  C   UNL     1       7.331   8.408   1.616  1.00  0.00     0.037 A 
ATOM     27  C   UNL     1       6.002   7.684  -5.268  1.00  0.00     0.037 A 
ATOM     28  C   UNL     1       7.866   9.446   0.770  1.00  0.00     0.049 A 
ATOM     29  C   UNL     1       6.780   8.846  -4.729  1.00  0.00     0.074 A 
ATOM     30  C   UNL     1       8.605  10.560   1.127  1.00  0.00     0.029 A 
ATOM     31  N   UNL     1       7.712   9.496  -0.610  1.00  0.00    -0.354 N 
ATOM     32  N   UNL     1       7.118   9.107  -3.490  1.00  0.00    -0.248 NA
ATOM     33  C   UNL     1       7.237   9.842  -5.704  1.00  0.00     0.031 C 
ATOM     34  C   UNL     1       8.862  11.305  -0.030  1.00  0.00     0.029 A 
ATOM     35  C   UNL     1       8.325  10.632  -1.116  1.00  0.00     0.049 A 
ATOM     36  H   UNL     1       7.238   8.823  -1.150  1.00  0.00     0.167 HD
ATOM     37  C   UNL     1       7.830  10.294  -3.532  1.00  0.00     0.074 A 
ATOM     38  C   UNL     1       7.900  10.687  -4.926  1.00  0.00     0.031 C 
ATOM     39  C   UNL     1       8.371  11.000  -2.509  1.00  0.00     0.037 A 
BRANCH  26  40
ATOM     40  C   UNL     1       7.534   8.522   3.101  1.00  0.00     0.064 A 
ATOM     41  C   UNL     1       8.404   7.669   3.796  1.00  0.00     0.173 A 
ATOM     42  C   UNL     1       6.876   9.523   3.833  1.00  0.00     0.173 A 
ATOM     43  F   UNL     1       9.050   6.689   3.147  1.00  0.00    -0.203 F 
ATOM     44  C   UNL     1       8.587   7.796   5.172  1.00  0.00     0.198 A 
ATOM     45  C   UNL     1       7.080   9.663   5.204  1.00  0.00     0.198 A 
ATOM     46  F   UNL     1       6.037  10.370   3.219  1.00  0.00    -0.203 F 
ATOM     47  F   UNL     1       9.389   6.941   5.822  1.00  0.00    -0.200 F 
ATOM     48  C   UNL     1       7.929   8.796   5.874  1.00  0.00     0.200 A 
ATOM     49  F   UNL     1       6.452  10.637   5.878  1.00  0.00    -0.200 F 
ATOM     50  F   UNL     1       8.108   8.918   7.197  1.00  0.00    -0.200 F 
ENDBRANCH  26  40
BRANCH  27  51
ATOM     51  C   UNL     1       5.734   7.516  -6.718  1.00  0.00     0.064 A 
ATOM     52  C   UNL     1       6.764   7.201  -7.612  1.00  0.00     0.173 A 
ATOM     53  C   UNL     1       4.429   7.605  -7.227  1.00  0.00     0.173 A 
ATOM     54  F   UNL     1       8.028   7.115  -7.175  1.00  0.00    -0.203 F 
ATOM     55  C   UNL     1       6.500   6.986  -8.964  1.00  0.00     0.198 A 
ATOM     56  C   UNL     1       4.162   7.360  -8.572  1.00  0.00     0.198 A 
ATOM     57  F   UNL     1       3.406   7.891  -6.408  1.00  0.00    -0.203 F 
ATOM     58  F   UNL     1       7.507   6.710  -9.804  1.00  0.00    -0.200 F 
ATOM     59  C   UNL     1       5.199   7.055  -9.440  1.00  0.00     0.200 A 
ATOM     60  F   UNL     1       2.901   7.404  -9.021  1.00  0.00    -0.200 F 
ATOM     61  F   UNL     1       4.944   6.827 -10.735  1.00  0.00    -0.200 F 
ENDBRANCH  27  51
BRANCH  39  62
ATOM     62  C   UNL     1       9.091  12.263  -2.873  1.00  0.00     0.064 A 
ATOM     63  C   UNL     1       8.393  13.415  -3.266  1.00  0.00     0.173 A 
ATOM     64  C   UNL     1      10.490  12.327  -2.807  1.00  0.00     0.173 A 
ATOM     65  F   UNL     1       7.056  13.393  -3.362  1.00  0.00    -0.203 F 
ATOM     66  C   UNL     1       9.074  14.580  -3.604  1.00  0.00     0.198 A 
ATOM     67  C   UNL     1      11.166  13.502  -3.121  1.00  0.00     0.198 A 
ATOM     68  F   UNL     1      11.200  11.252  -2.434  1.00  0.00    -0.203 F 
ATOM     69  F   UNL     1       8.392  15.655  -4.023  1.00  0.00    -0.200 F 
ATOM     70  C   UNL     1      10.459  14.625  -3.526  1.00  0.00     0.200 A 
ATOM     71  F   UNL     1      12.503  13.548  -3.037  1.00  0.00    -0.200 F 
ATOM     72  F   UNL     1      11.113  15.749  -3.850  1.00  0.00    -0.200 F 
ENDBRANCH  39  62
ENDBRANCH  13  14
ENDBRANCH   6   8
ENDBRANCH   3   4
ENDBRANCH   2   3
ENDBRANCH   1   2
BRANCH   1  73
ATOM     73  C   UNL     1       6.183  -3.478   0.676  1.00  0.00     0.116 C 
BRANCH  73  74
ATOM     74  N   UNL     1       7.242  -4.420   0.954  1.00  0.00    -0.356 N 
ATOM     75  C   UNL     1       7.327  -5.584   1.622  1.00  0.00     0.227 C 
ATOM     76  H   UNL     1       8.103  -4.145   0.563  1.00  0.00     0.163 HD
ATOM     77  O   UNL     1       8.492  -5.862   1.948  1.00  0.00    -0.274 OA
BRANCH  75  78
ATOM     78  C   UNL     1       6.185  -6.556   1.981  1.00  0.00     0.061 C 
ATOM     79  C   UNL     1       6.692  -7.947   1.416  1.00  0.00     0.053 C 
ATOM     80  C   UNL     1       6.200  -6.774   3.530  1.00  0.00     0.053 C 
ATOM     81  C   UNL     1       6.272  -8.912   2.480  1.00  0.00    -0.044 A 
ATOM     82  C   UNL     1       5.968  -8.247   3.667  1.00  0.00    -0.044 A 
ATOM     83  C   UNL     1       6.208 -10.292   2.392  1.00  0.00     0.004 A 
ATOM     84  C   UNL     1       5.567  -8.946   4.793  1.00  0.00     0.004 A 
ATOM     85  C   UNL     1       5.800 -11.006   3.519  1.00  0.00     0.000 A 
ATOM     86  C   UNL     1       5.475 -10.337   4.709  1.00  0.00     0.000 A 
BRANCH  78  87
ATOM     87  C   UNL     1       4.742  -6.366   1.408  1.00  0.00     0.045 C 
BRANCH  87  88
ATOM     88  C   UNL     1       3.793  -5.398   2.078  1.00  0.00    -0.025 C 
ATOM     89  C   UNL     1       2.869  -4.682   1.412  1.00  0.00     0.004 C 
BRANCH  89  90
ATOM     90  C   UNL     1       2.029  -3.607   1.982  1.00  0.00    -0.026 A 
ATOM     91  C   UNL     1       0.972  -3.107   1.211  1.00  0.00     0.008 A 
ATOM     92  C   UNL     1       2.350  -2.935   3.172  1.00  0.00     0.008 A 
ATOM     93  C   UNL     1       0.291  -1.946   1.594  1.00  0.00     0.001 A 
ATOM     94  C   UNL     1       1.684  -1.763   3.545  1.00  0.00     0.001 A 
ATOM     95  C   UNL     1       0.662  -1.262   2.747  1.00  0.00     0.000 A 
ENDBRANCH  89  90
ENDBRANCH  87  88
ENDBRANCH  78  87
ENDBRANCH  75  78
ENDBRANCH  73  74
ENDBRANCH   1  73
TORSDOF 14
