REMARK SMILES O=C(NCCCCNC(=O)[C@@]12CN(CC3CC3)C(=O)[C@@H]1CN(c1nc3ccccc3o1)C2)c1ccc(-c2c3nc(c(-c4c(F)c(F)c(F)c(F)c4F)c4ccc([nH]4)c(-c4c(F)c(F)c(F)c(F)c4F)c4nc(c(-c5c(F)c(F)c(F)c(F)c5F)c5ccc2[nH]5)C=C4)C=C3)cc1
REMARK SMILES IDX 5 1 4 2 3 3 1 4 2 5 33 7 34 8 95 9 35 10 94 11 36 12 37 13
REMARK SMILES IDX 38 14 88 15 39 16 93 17 87 18 89 19 40 20 92 21 86 22 85 23
REMARK SMILES IDX 41 25 73 26 53 27 72 28 54 29 57 30 71 31 90 32 55 33 56 34
REMARK SMILES IDX 70 36 91 37 58 38 42 39 43 40 51 41 44 42 45 43 49 44 52 45
REMARK SMILES IDX 46 46 47 47 50 48 48 49 74 50 75 51 83 52 76 53 77 54 81 55
REMARK SMILES IDX 84 56 78 57 79 58 82 59 80 60 59 61 60 62 68 63 61 64 62 65
REMARK SMILES IDX 66 66 69 67 63 68 64 69 67 70 65 71 6 72 7 73 8 74 9 75
REMARK SMILES IDX 10 77 11 78 12 79 20 80 32 81 13 82 18 83 21 84 22 85 19 86
REMARK SMILES IDX 14 87 15 88 16 89 17 90 23 91 24 92 31 93 25 94 30 95 26 96
REMARK SMILES IDX 29 97 27 98 28 99
REMARK H PARENT 3 6 89 24 57 35 8 76
REMARK Flexibility Score: inf
ROOT
ATOM      1  C   UNL     1       4.805  -0.999   2.243  1.00  0.00     0.023 C 
ENDROOT
BRANCH   1   2
ATOM      2  C   UNL     1       4.510  -0.884   0.754  1.00  0.00     0.116 C 
BRANCH   2   3
ATOM      3  N   UNL     1       3.087  -0.940   0.467  1.00  0.00    -0.352 N 
ATOM      4  O   UNL     1       1.089  -0.179  -0.245  1.00  0.00    -0.269 OA
ATOM      5  C   UNL     1       2.309  -0.067  -0.249  1.00  0.00     0.251 C 
ATOM      6  H   UNL     1       2.612  -1.717   0.841  1.00  0.00     0.163 HD
BRANCH   5   7
ATOM      7  C   UNL     1       2.950   1.025  -1.006  1.00  0.00     0.039 A 
ATOM      8  C   UNL     1       4.061   0.774  -1.817  1.00  0.00     0.014 A 
ATOM      9  C   UNL     1       2.424   2.314  -0.902  1.00  0.00     0.014 A 
ATOM     10  C   UNL     1       4.721   1.832  -2.429  1.00  0.00     0.010 A 
ATOM     11  C   UNL     1       3.042   3.364  -1.580  1.00  0.00     0.010 A 
ATOM     12  C   UNL     1       4.208   3.134  -2.329  1.00  0.00    -0.014 A 
BRANCH  12  13
ATOM     13  C   UNL     1       4.857   4.251  -3.054  1.00  0.00     0.031 A 
ATOM     14  C   UNL     1       5.464   5.398  -2.304  1.00  0.00     0.074 A 
ATOM     15  C   UNL     1       4.850   4.242  -4.400  1.00  0.00     0.049 A 
ATOM     16  N   UNL     1       5.963   6.517  -2.765  1.00  0.00    -0.248 NA
ATOM     17  C   UNL     1       5.502   5.279  -0.840  1.00  0.00     0.031 C 
ATOM     18  C   UNL     1       4.291   3.174  -5.230  1.00  0.00     0.029 A 
ATOM     19  N   UNL     1       5.308   5.165  -5.304  1.00  0.00    -0.354 N 
ATOM     20  C   UNL     1       6.351   7.246  -1.649  1.00  0.00     0.074 A 
ATOM     21  C   UNL     1       6.003   6.455  -0.488  1.00  0.00     0.031 C 
ATOM     22  C   UNL     1       4.442   3.499  -6.521  1.00  0.00     0.029 A 
ATOM     23  C   UNL     1       5.041   4.827  -6.607  1.00  0.00     0.049 A 
ATOM     24  H   UNL     1       5.781   5.988  -5.045  1.00  0.00     0.167 HD
ATOM     25  C   UNL     1       6.943   8.465  -1.606  1.00  0.00     0.037 A 
ATOM     26  C   UNL     1       5.216   5.525  -7.743  1.00  0.00     0.037 A 
ATOM     27  C   UNL     1       7.277   9.238  -2.775  1.00  0.00     0.049 A 
ATOM     28  C   UNL     1       5.823   6.896  -7.669  1.00  0.00     0.074 A 
ATOM     29  C   UNL     1       7.910  10.467  -2.846  1.00  0.00     0.029 A 
ATOM     30  N   UNL     1       6.988   8.863  -4.081  1.00  0.00    -0.354 N 
ATOM     31  N   UNL     1       6.216   7.568  -6.614  1.00  0.00    -0.248 NA
ATOM     32  C   UNL     1       6.014   7.606  -8.940  1.00  0.00     0.031 C 
ATOM     33  C   UNL     1       7.941  10.865  -4.186  1.00  0.00     0.029 A 
ATOM     34  C   UNL     1       7.401   9.851  -4.961  1.00  0.00     0.049 A 
ATOM     35  H   UNL     1       6.554   8.019  -4.343  1.00  0.00     0.167 HD
ATOM     36  C   UNL     1       6.731   8.764  -7.093  1.00  0.00     0.074 A 
ATOM     37  C   UNL     1       6.599   8.725  -8.535  1.00  0.00     0.031 C 
ATOM     38  C   UNL     1       7.274   9.793  -6.398  1.00  0.00     0.037 A 
BRANCH  25  39
ATOM     39  C   UNL     1       7.223   9.053  -0.251  1.00  0.00     0.064 A 
ATOM     40  C   UNL     1       8.170   8.496   0.623  1.00  0.00     0.173 A 
ATOM     41  C   UNL     1       6.535  10.198   0.180  1.00  0.00     0.173 A 
ATOM     42  F   UNL     1       8.852   7.396   0.268  1.00  0.00    -0.203 F 
ATOM     43  C   UNL     1       8.381   9.033   1.891  1.00  0.00     0.198 A 
ATOM     44  C   UNL     1       6.776  10.755   1.433  1.00  0.00     0.198 A 
ATOM     45  F   UNL     1       5.625  10.781  -0.616  1.00  0.00    -0.203 F 
ATOM     46  F   UNL     1       9.239   8.440   2.733  1.00  0.00    -0.200 F 
ATOM     47  C   UNL     1       7.688  10.165   2.293  1.00  0.00     0.200 A 
ATOM     48  F   UNL     1       6.117  11.859   1.812  1.00  0.00    -0.200 F 
ATOM     49  F   UNL     1       7.890  10.678   3.514  1.00  0.00    -0.200 F 
ENDBRANCH  25  39
BRANCH  26  50
ATOM     50  C   UNL     1       4.793   4.925  -9.033  1.00  0.00     0.064 A 
ATOM     51  C   UNL     1       5.739   4.500  -9.975  1.00  0.00     0.173 A 
ATOM     52  C   UNL     1       3.437   4.710  -9.325  1.00  0.00     0.173 A 
ATOM     53  F   UNL     1       7.045   4.695  -9.746  1.00  0.00    -0.203 F 
ATOM     54  C   UNL     1       5.344   3.888 -11.163  1.00  0.00     0.198 A 
ATOM     55  C   UNL     1       3.045   4.072 -10.498  1.00  0.00     0.198 A 
ATOM     56  F   UNL     1       2.494   5.088  -8.449  1.00  0.00    -0.203 F 
ATOM     57  F   UNL     1       6.267   3.516 -12.059  1.00  0.00    -0.200 F 
ATOM     58  C   UNL     1       3.999   3.666 -11.419  1.00  0.00     0.200 A 
ATOM     59  F   UNL     1       1.746   3.838 -10.730  1.00  0.00    -0.200 F 
ATOM     60  F   UNL     1       3.622   3.059 -12.552  1.00  0.00    -0.200 F 
ENDBRANCH  26  50
BRANCH  38  61
ATOM     61  C   UNL     1       7.827  10.946  -7.184  1.00  0.00     0.064 A 
ATOM     62  C   UNL     1       6.997  11.869  -7.836  1.00  0.00     0.173 A 
ATOM     63  C   UNL     1       9.213  11.169  -7.219  1.00  0.00     0.173 A 
ATOM     64  F   UNL     1       5.668  11.691  -7.848  1.00  0.00    -0.203 F 
ATOM     65  C   UNL     1       7.536  12.967  -8.503  1.00  0.00     0.198 A 
ATOM     66  C   UNL     1       9.745  12.284  -7.858  1.00  0.00     0.198 A 
ATOM     67  F   UNL     1      10.050  10.317  -6.607  1.00  0.00    -0.203 F 
ATOM     68  F   UNL     1       6.728  13.818  -9.150  1.00  0.00    -0.200 F 
ATOM     69  C   UNL     1       8.907  13.180  -8.503  1.00  0.00     0.200 A 
ATOM     70  F   UNL     1      11.068  12.497  -7.841  1.00  0.00    -0.200 F 
ATOM     71  F   UNL     1       9.421  14.249  -9.126  1.00  0.00    -0.200 F 
ENDBRANCH  38  61
ENDBRANCH  12  13
ENDBRANCH   5   7
ENDBRANCH   2   3
ENDBRANCH   1   2
BRANCH   1  72
ATOM     72  C   UNL     1       4.208  -2.225   2.949  1.00  0.00     0.023 C 
BRANCH  72  73
ATOM     73  C   UNL     1       4.511  -3.590   2.321  1.00  0.00     0.116 C 
BRANCH  73  74
ATOM     74  N   UNL     1       5.914  -3.766   2.054  1.00  0.00    -0.355 N 
ATOM     75  C   UNL     1       6.934  -4.362   2.687  1.00  0.00     0.230 C 
ATOM     76  H   UNL     1       6.190  -3.350   1.205  1.00  0.00     0.163 HD
ATOM     77  O   UNL     1       8.028  -3.973   2.243  1.00  0.00    -0.274 OA
BRANCH  75  78
ATOM     78  C   UNL     1       6.902  -5.200   3.967  1.00  0.00     0.097 C 
ATOM     79  C   UNL     1       6.834  -4.108   5.040  1.00  0.00     0.139 C 
ATOM     80  C   UNL     1       5.871  -6.214   4.516  1.00  0.00     0.117 C 
ATOM     81  C   UNL     1       8.168  -6.104   3.876  1.00  0.00     0.141 C 
ATOM     82  N   UNL     1       6.438  -4.748   6.256  1.00  0.00    -0.341 N 
ATOM     83  C   UNL     1       5.996  -6.032   6.029  1.00  0.00     0.228 C 
ATOM     84  C   UNL     1       6.324  -7.631   4.173  1.00  0.00     0.136 C 
ATOM     85  N   UNL     1       7.626  -7.428   3.598  1.00  0.00    -0.324 N 
ATOM     86  O   UNL     1       5.694  -6.856   6.883  1.00  0.00    -0.274 OA
BRANCH  82  87
ATOM     87  C   UNL     1       6.451  -4.046   7.528  1.00  0.00     0.123 C 
BRANCH  87  88
ATOM     88  C   UNL     1       5.083  -3.698   8.060  1.00  0.00     0.008 C 
ATOM     89  C   UNL     1       3.767  -4.329   7.650  1.00  0.00     0.006 C 
ATOM     90  C   UNL     1       4.399  -4.706   8.956  1.00  0.00     0.006 C 
ENDBRANCH  87  88
ENDBRANCH  82  87
BRANCH  85  91
ATOM     91  C   UNL     1       8.306  -8.426   3.007  1.00  0.00     0.298 A 
ATOM     92  N   UNL     1       7.861  -9.581   2.548  1.00  0.00    -0.193 NA
ATOM     93  O   UNL     1       9.651  -8.237   2.851  1.00  0.00    -0.423 OA
ATOM     94  C   UNL     1       8.984 -10.190   2.038  1.00  0.00     0.111 A 
ATOM     95  C   UNL     1      10.083  -9.377   2.250  1.00  0.00     0.156 A 
ATOM     96  C   UNL     1       9.175 -11.419   1.388  1.00  0.00     0.032 A 
ATOM     97  C   UNL     1      11.389  -9.690   1.899  1.00  0.00     0.049 A 
ATOM     98  C   UNL     1      10.483 -11.771   1.006  1.00  0.00     0.003 A 
ATOM     99  C   UNL     1      11.568 -10.925   1.267  1.00  0.00     0.004 A 
ENDBRANCH  85  91
ENDBRANCH  75  78
ENDBRANCH  73  74
ENDBRANCH  72  73
ENDBRANCH   1  72
TORSDOF 14
