REMARK SMILES Cc1ccccc1OCC(=O)NCCC(=O)NCCCCNC(=O)c1ccc(-c2c3nc(c(-c4c(F)c(F)c(F)c(F)c4F)c4ccc([nH]4)c(-c4c(F)c(F)c(F)c(F)c4F)c4nc(c(-c5c(F)c(F)c(F)c(F)c5F)c5ccc2[nH]5)C=C4)C=C3)cc1
REMARK SMILES IDX 18 1 17 2 15 3 16 4 14 6 13 7 12 8 10 9 11 10 9 12 8 13 7 14
REMARK SMILES IDX 1 15 2 16 3 17 4 18 6 19 5 20 19 21 20 22 21 23 22 24 23 25
REMARK SMILES IDX 24 27 25 28 26 29 87 30 27 31 86 32 28 33 29 34 30 35 80 36
REMARK SMILES IDX 31 37 85 38 79 39 81 40 32 41 84 42 78 43 77 44 33 46 65 47
REMARK SMILES IDX 45 48 64 49 46 50 49 51 63 52 82 53 47 54 48 55 62 57 83 58
REMARK SMILES IDX 50 59 34 60 35 61 43 62 36 63 37 64 41 65 44 66 38 67 39 68
REMARK SMILES IDX 42 69 40 70 66 71 67 72 75 73 68 74 69 75 73 76 76 77 70 78
REMARK SMILES IDX 71 79 74 80 72 81 51 82 52 83 60 84 53 85 54 86 58 87 61 88
REMARK SMILES IDX 55 89 56 90 59 91 57 92
REMARK H PARENT 17 5 12 11 22 26 81 45 49 56
REMARK Flexibility Score: inf
ROOT
ATOM      1  C   UNL     1       2.271   0.613   3.827  1.00  0.00     0.116 C 
ENDROOT
BRANCH   1   2
ATOM      2  N   UNL     1       1.747   1.575   4.786  1.00  0.00    -0.356 N 
ATOM      3  C   UNL     1       0.975   2.683   4.601  1.00  0.00     0.221 C 
ATOM      4  O   UNL     1       0.696   3.369   5.587  1.00  0.00    -0.275 OA
ATOM      5  H   UNL     1       1.991   1.397   5.723  1.00  0.00     0.163 HD
BRANCH   3   6
ATOM      6  C   UNL     1       0.484   3.070   3.226  1.00  0.00     0.121 C 
BRANCH   6   7
ATOM      7  C   UNL     1       1.369   4.133   2.584  1.00  0.00     0.126 C 
BRANCH   7   8
ATOM      8  N   UNL     1       2.651   3.615   2.140  1.00  0.00    -0.353 N 
ATOM      9  C   UNL     1       2.994   3.057   0.940  1.00  0.00     0.257 C 
ATOM     10  O   UNL     1       4.117   2.563   0.820  1.00  0.00    -0.271 OA
ATOM     11  H   UNL     1       3.379   3.674   2.800  1.00  0.00     0.163 HD
BRANCH   9  12
ATOM     12  C   UNL     1       2.029   3.138  -0.242  1.00  0.00     0.329 C 
BRANCH  12  13
ATOM     13  O   UNL     1       0.695   2.760  -0.021  1.00  0.00    -0.484 OA
BRANCH  13  14
ATOM     14  C   UNL     1       0.237   1.480  -0.095  1.00  0.00     0.122 A 
ATOM     15  C   UNL     1       2.396   0.048  -0.322  1.00  0.00     0.048 C 
ATOM     16  C   UNL     1       0.913   0.260  -0.218  1.00  0.00    -0.009 A 
ATOM     17  C   UNL     1       0.142  -0.925  -0.177  1.00  0.00     0.007 A 
ATOM     18  C   UNL     1      -1.246  -0.917  -0.045  1.00  0.00     0.001 A 
ATOM     19  C   UNL     1      -1.168   1.472   0.027  1.00  0.00     0.047 A 
ATOM     20  C   UNL     1      -1.907   0.293   0.051  1.00  0.00     0.004 A 
ENDBRANCH  13  14
ENDBRANCH  12  13
ENDBRANCH   9  12
ENDBRANCH   7   8
ENDBRANCH   6   7
ENDBRANCH   3   6
ENDBRANCH   1   2
BRANCH   1  21
ATOM     21  C   UNL     1       3.788   0.734   3.630  1.00  0.00     0.023 C 
BRANCH  21  22
ATOM     22  C   UNL     1       4.637   0.514   4.879  1.00  0.00     0.023 C 
BRANCH  22  23
ATOM     23  C   UNL     1       4.754  -0.945   5.284  1.00  0.00     0.116 C 
BRANCH  23  24
ATOM     24  N   UNL     1       5.853  -1.665   4.653  1.00  0.00    -0.352 N 
ATOM     25  C   UNL     1       6.179  -3.016   4.730  1.00  0.00     0.251 C 
ATOM     26  H   UNL     1       6.450  -1.118   4.093  1.00  0.00     0.163 HD
ATOM     27  O   UNL     1       7.167  -3.449   4.178  1.00  0.00    -0.269 OA
BRANCH  25  28
ATOM     28  C   UNL     1       5.210  -3.944   5.372  1.00  0.00     0.039 A 
ATOM     29  C   UNL     1       4.829  -5.082   4.652  1.00  0.00     0.014 A 
ATOM     30  C   UNL     1       4.499  -3.559   6.501  1.00  0.00     0.014 A 
ATOM     31  C   UNL     1       3.580  -5.647   4.894  1.00  0.00     0.010 A 
ATOM     32  C   UNL     1       3.208  -4.022   6.647  1.00  0.00     0.010 A 
ATOM     33  C   UNL     1       2.722  -5.016   5.791  1.00  0.00    -0.014 A 
BRANCH  33  34
ATOM     34  C   UNL     1       1.282  -5.246   5.824  1.00  0.00     0.031 A 
ATOM     35  C   UNL     1       0.659  -5.918   6.983  1.00  0.00     0.074 A 
ATOM     36  C   UNL     1       0.495  -4.738   4.847  1.00  0.00     0.049 A 
ATOM     37  N   UNL     1      -0.509  -6.466   6.960  1.00  0.00    -0.248 NA
ATOM     38  C   UNL     1       1.331  -6.058   8.267  1.00  0.00     0.031 C 
ATOM     39  C   UNL     1      -0.959  -4.590   4.876  1.00  0.00     0.029 A 
ATOM     40  N   UNL     1       0.847  -4.422   3.520  1.00  0.00    -0.354 N 
ATOM     41  C   UNL     1      -0.858  -6.777   8.253  1.00  0.00     0.074 A 
ATOM     42  C   UNL     1       0.346  -6.556   9.021  1.00  0.00     0.031 C 
ATOM     43  C   UNL     1      -1.413  -4.530   3.616  1.00  0.00     0.029 A 
ATOM     44  C   UNL     1      -0.283  -4.782   2.742  1.00  0.00     0.049 A 
ATOM     45  H   UNL     1       1.694  -4.035   3.202  1.00  0.00     0.167 HD
ATOM     46  C   UNL     1      -2.161  -7.070   8.536  1.00  0.00     0.037 A 
ATOM     47  C   UNL     1      -0.220  -5.786   1.819  1.00  0.00     0.037 A 
ATOM     48  C   UNL     1      -2.981  -7.112   7.323  1.00  0.00     0.049 A 
ATOM     49  C   UNL     1      -1.161  -6.944   2.050  1.00  0.00     0.074 A 
ATOM     50  C   UNL     1      -3.906  -6.262   6.738  1.00  0.00     0.029 A 
ATOM     51  N   UNL     1      -2.691  -8.065   6.361  1.00  0.00    -0.354 N 
ATOM     52  N   UNL     1      -1.925  -7.084   3.095  1.00  0.00    -0.248 NA
ATOM     53  C   UNL     1      -1.222  -8.099   1.155  1.00  0.00     0.031 C 
ATOM     54  C   UNL     1      -4.200  -6.748   5.432  1.00  0.00     0.029 A 
ATOM     55  C   UNL     1      -3.447  -7.887   5.220  1.00  0.00     0.049 A 
ATOM     56  H   UNL     1      -2.026  -8.782   6.477  1.00  0.00     0.167 HD
ATOM     57  C   UNL     1      -2.496  -8.331   3.075  1.00  0.00     0.074 A 
ATOM     58  C   UNL     1      -2.029  -8.927   1.837  1.00  0.00     0.031 C 
ATOM     59  C   UNL     1      -3.262  -8.799   4.105  1.00  0.00     0.037 A 
BRANCH  46  60
ATOM     60  C   UNL     1      -2.745  -7.087   9.935  1.00  0.00     0.064 A 
ATOM     61  C   UNL     1      -4.111  -6.800  10.151  1.00  0.00     0.173 A 
ATOM     62  C   UNL     1      -2.008  -7.319  11.111  1.00  0.00     0.173 A 
ATOM     63  F   UNL     1      -4.977  -6.696   9.136  1.00  0.00    -0.203 F 
ATOM     64  C   UNL     1      -4.648  -6.613  11.428  1.00  0.00     0.198 A 
ATOM     65  C   UNL     1      -2.527  -7.073  12.386  1.00  0.00     0.198 A 
ATOM     66  F   UNL     1      -0.786  -7.862  11.073  1.00  0.00    -0.203 F 
ATOM     67  F   UNL     1      -5.952  -6.330  11.564  1.00  0.00    -0.200 F 
ATOM     68  C   UNL     1      -3.845  -6.702  12.544  1.00  0.00     0.200 A 
ATOM     69  F   UNL     1      -1.737  -7.204  13.462  1.00  0.00    -0.200 F 
ATOM     70  F   UNL     1      -4.346  -6.468  13.764  1.00  0.00    -0.200 F 
ENDBRANCH  46  60
BRANCH  47  71
ATOM     71  C   UNL     1       1.110  -5.905   1.173  1.00  0.00     0.064 A 
ATOM     72  C   UNL     1       1.508  -4.894   0.287  1.00  0.00     0.173 A 
ATOM     73  C   UNL     1       2.101  -6.744   1.691  1.00  0.00     0.173 A 
ATOM     74  F   UNL     1       0.581  -4.105  -0.274  1.00  0.00    -0.203 F 
ATOM     75  C   UNL     1       2.854  -4.633   0.045  1.00  0.00     0.198 A 
ATOM     76  C   UNL     1       3.449  -6.498   1.428  1.00  0.00     0.198 A 
ATOM     77  F   UNL     1       1.776  -7.725   2.546  1.00  0.00    -0.203 F 
ATOM     78  F   UNL     1       3.206  -3.581  -0.708  1.00  0.00    -0.200 F 
ATOM     79  C   UNL     1       3.826  -5.417   0.643  1.00  0.00     0.200 A 
ATOM     80  F   UNL     1       4.388  -7.253   2.014  1.00  0.00    -0.200 F 
ATOM     81  F   UNL     1       5.122  -5.116   0.490  1.00  0.00    -0.200 F 
ENDBRANCH  47  71
BRANCH  59  82
ATOM     82  C   UNL     1      -3.870 -10.177   4.160  1.00  0.00     0.064 A 
ATOM     83  C   UNL     1      -4.461 -10.799   3.049  1.00  0.00     0.173 A 
ATOM     84  C   UNL     1      -3.960 -10.889   5.378  1.00  0.00     0.173 A 
ATOM     85  F   UNL     1      -4.524 -10.175   1.864  1.00  0.00    -0.203 F 
ATOM     86  C   UNL     1      -5.031 -12.073   3.135  1.00  0.00     0.198 A 
ATOM     87  C   UNL     1      -4.580 -12.133   5.474  1.00  0.00     0.198 A 
ATOM     88  F   UNL     1      -3.428 -10.415   6.513  1.00  0.00    -0.203 F 
ATOM     89  F   UNL     1      -5.523 -12.656   2.033  1.00  0.00    -0.200 F 
ATOM     90  C   UNL     1      -5.097 -12.736   4.347  1.00  0.00     0.200 A 
ATOM     91  F   UNL     1      -4.662 -12.745   6.664  1.00  0.00    -0.200 F 
ATOM     92  F   UNL     1      -5.658 -13.950   4.431  1.00  0.00    -0.200 F 
ENDBRANCH  59  82
ENDBRANCH  33  34
ENDBRANCH  25  28
ENDBRANCH  23  24
ENDBRANCH  22  23
ENDBRANCH  21  22
ENDBRANCH   1  21
TORSDOF 16
