REMARK SMILES CCN(C(=O)N(CCOC)CC(=O)NCCCCNC(=O)c1ccc(-c2c3nc(c(-c4c(F)c(F)c(F)c(F)c4F)c4ccc([nH]4)c(-c4c(F)c(F)c(F)c(F)c4F)c4nc(c(-c5c(F)c(F)c(F)c(F)c5F)c5ccc2[nH]5)C=C4)C=C3)cc1)C1CCCC1
REMARK SMILES IDX 15 1 14 2 12 3 13 4 11 6 6 7 4 8 5 9 3 10 2 11 1 12 85 13
REMARK SMILES IDX 86 14 89 15 87 16 88 17 7 18 8 19 9 20 10 21 16 22 17 23
REMARK SMILES IDX 18 24 19 25 20 26 21 28 22 29 23 30 84 31 24 32 83 33 25 34
REMARK SMILES IDX 26 35 27 36 77 37 28 38 82 39 76 40 78 41 29 42 81 43 75 44
REMARK SMILES IDX 74 45 30 47 62 48 42 49 61 50 43 51 46 52 60 53 79 54 44 55
REMARK SMILES IDX 45 56 59 58 80 59 47 60 31 61 32 62 40 63 33 64 34 65 38 66
REMARK SMILES IDX 41 67 35 68 36 69 39 70 37 71 63 72 64 73 72 74 65 75 66 76
REMARK SMILES IDX 70 77 73 78 67 79 68 80 71 81 69 82 48 83 49 84 57 85 50 86
REMARK SMILES IDX 51 87 55 88 58 89 52 90 53 91 56 92 54 93
REMARK H PARENT 14 5 19 27 78 46 46 57
REMARK Flexibility Score: inf
ROOT
ATOM      1  C   UNL     1      -1.986   1.887   4.821  1.00  0.00     0.116 C 
ENDROOT
BRANCH   1   2
ATOM      2  N   UNL     1      -1.711   3.297   4.872  1.00  0.00    -0.355 N 
ATOM      3  C   UNL     1      -1.677   4.195   3.842  1.00  0.00     0.239 C 
ATOM      4  O   UNL     1      -1.761   5.391   4.149  1.00  0.00    -0.273 OA
ATOM      5  H   UNL     1      -1.523   3.664   5.766  1.00  0.00     0.163 HD
BRANCH   3   6
ATOM      6  C   UNL     1      -1.746   3.770   2.352  1.00  0.00     0.221 C 
BRANCH   6   7
ATOM      7  N   UNL     1      -1.154   2.499   1.890  1.00  0.00    -0.313 N 
BRANCH   7   8
ATOM      8  C   UNL     1       0.218   2.450   2.103  1.00  0.00     0.320 C 
ATOM      9  O   UNL     1       0.736   3.310   2.825  1.00  0.00    -0.248 OA
BRANCH   8  10
ATOM     10  N   UNL     1       1.029   1.491   1.508  1.00  0.00    -0.322 N 
BRANCH  10  11
ATOM     11  C   UNL     1       0.632   0.085   1.373  1.00  0.00     0.118 C 
ATOM     12  C   UNL     1       0.640  -0.424  -0.065  1.00  0.00     0.027 C 
ENDBRANCH  10  11
BRANCH  10  13
ATOM     13  C   UNL     1       2.483   1.789   1.582  1.00  0.00     0.087 C 
ATOM     14  C   UNL     1       3.445   0.859   0.836  1.00  0.00     0.025 C 
ATOM     15  C   UNL     1       2.884   3.153   0.979  1.00  0.00     0.025 C 
ATOM     16  C   UNL     1       4.769   1.609   0.885  1.00  0.00     0.002 C 
ATOM     17  C   UNL     1       4.390   3.076   0.730  1.00  0.00     0.002 C 
ENDBRANCH  10  13
ENDBRANCH   8  10
ENDBRANCH   7   8
BRANCH   7  18
ATOM     18  C   UNL     1      -1.969   1.750   0.908  1.00  0.00     0.150 C 
BRANCH  18  19
ATOM     19  C   UNL     1      -3.039   0.796   1.490  1.00  0.00     0.181 C 
BRANCH  19  20
ATOM     20  O   UNL     1      -4.337   1.398   1.518  1.00  0.00    -0.383 OA
ATOM     21  C   UNL     1      -4.782   1.831   2.793  1.00  0.00     0.194 C 
ENDBRANCH  19  20
ENDBRANCH  18  19
ENDBRANCH   7  18
ENDBRANCH   6   7
ENDBRANCH   3   6
ENDBRANCH   1   2
BRANCH   1  22
ATOM     22  C   UNL     1      -0.892   0.999   5.392  1.00  0.00     0.023 C 
BRANCH  22  23
ATOM     23  C   UNL     1      -0.831   0.973   6.915  1.00  0.00     0.023 C 
BRANCH  23  24
ATOM     24  C   UNL     1      -2.143   0.640   7.617  1.00  0.00     0.116 C 
BRANCH  24  25
ATOM     25  N   UNL     1      -2.687  -0.665   7.268  1.00  0.00    -0.352 N 
ATOM     26  C   UNL     1      -3.163  -1.655   8.100  1.00  0.00     0.251 C 
ATOM     27  H   UNL     1      -2.719  -0.867   6.305  1.00  0.00     0.163 HD
ATOM     28  O   UNL     1      -3.499  -2.739   7.646  1.00  0.00    -0.269 OA
BRANCH  26  29
ATOM     29  C   UNL     1      -3.221  -1.409   9.558  1.00  0.00     0.039 A 
ATOM     30  C   UNL     1      -2.689  -2.365  10.425  1.00  0.00     0.014 A 
ATOM     31  C   UNL     1      -3.746  -0.217  10.062  1.00  0.00     0.014 A 
ATOM     32  C   UNL     1      -2.607  -2.087  11.791  1.00  0.00     0.010 A 
ATOM     33  C   UNL     1      -3.579   0.097  11.407  1.00  0.00     0.010 A 
ATOM     34  C   UNL     1      -3.008  -0.835  12.287  1.00  0.00    -0.014 A 
BRANCH  34  35
ATOM     35  C   UNL     1      -2.839  -0.485  13.722  1.00  0.00     0.031 A 
ATOM     36  C   UNL     1      -4.041  -0.177  14.572  1.00  0.00     0.074 A 
ATOM     37  C   UNL     1      -1.601  -0.382  14.245  1.00  0.00     0.049 A 
ATOM     38  N   UNL     1      -4.096   0.190  15.828  1.00  0.00    -0.248 NA
ATOM     39  C   UNL     1      -5.355  -0.262  13.916  1.00  0.00     0.031 C 
ATOM     40  C   UNL     1      -0.351  -0.590  13.511  1.00  0.00     0.029 A 
ATOM     41  N   UNL     1      -1.189  -0.070  15.517  1.00  0.00    -0.354 N 
ATOM     42  C   UNL     1      -5.441   0.392  16.104  1.00  0.00     0.074 A 
ATOM     43  C   UNL     1      -6.164   0.171  14.871  1.00  0.00     0.031 C 
ATOM     44  C   UNL     1       0.684  -0.432  14.351  1.00  0.00     0.029 A 
ATOM     45  C   UNL     1       0.176  -0.078  15.672  1.00  0.00     0.049 A 
ATOM     46  H   UNL     1      -1.813   0.139  16.249  1.00  0.00     0.167 HD
ATOM     47  C   UNL     1      -6.027   0.704  17.285  1.00  0.00     0.037 A 
ATOM     48  C   UNL     1       0.932   0.173  16.759  1.00  0.00     0.037 A 
ATOM     49  C   UNL     1      -5.309   0.896  18.518  1.00  0.00     0.049 A 
ATOM     50  C   UNL     1       0.257   0.507  18.062  1.00  0.00     0.074 A 
ATOM     51  C   UNL     1      -5.815   1.150  19.780  1.00  0.00     0.029 A 
ATOM     52  N   UNL     1      -3.928   0.855  18.641  1.00  0.00    -0.354 N 
ATOM     53  N   UNL     1      -1.022   0.614  18.329  1.00  0.00    -0.248 NA
ATOM     54  C   UNL     1       1.132   0.744  19.218  1.00  0.00     0.031 C 
ATOM     55  C   UNL     1      -4.738   1.310  20.659  1.00  0.00     0.029 A 
ATOM     56  C   UNL     1      -3.563   1.101  19.955  1.00  0.00     0.049 A 
ATOM     57  H   UNL     1      -3.300   0.678  17.904  1.00  0.00     0.167 HD
ATOM     58  C   UNL     1      -1.106   0.902  19.685  1.00  0.00     0.074 A 
ATOM     59  C   UNL     1       0.251   0.933  20.189  1.00  0.00     0.031 C 
ATOM     60  C   UNL     1      -2.208   1.122  20.444  1.00  0.00     0.037 A 
BRANCH  47  61
ATOM     61  C   UNL     1      -7.522   0.848  17.300  1.00  0.00     0.064 A 
ATOM     62  C   UNL     1      -8.369  -0.258  17.125  1.00  0.00     0.173 A 
ATOM     63  C   UNL     1      -8.116   2.099  17.523  1.00  0.00     0.173 A 
ATOM     64  F   UNL     1      -7.852  -1.475  16.896  1.00  0.00    -0.203 F 
ATOM     65  C   UNL     1      -9.753  -0.111  17.138  1.00  0.00     0.198 A 
ATOM     66  C   UNL     1      -9.501   2.237  17.569  1.00  0.00     0.198 A 
ATOM     67  F   UNL     1      -7.354   3.188  17.703  1.00  0.00    -0.203 F 
ATOM     68  F   UNL     1     -10.540  -1.172  16.913  1.00  0.00    -0.200 F 
ATOM     69  C   UNL     1     -10.318   1.134  17.367  1.00  0.00     0.200 A 
ATOM     70  F   UNL     1     -10.046   3.438  17.804  1.00  0.00    -0.200 F 
ATOM     71  F   UNL     1     -11.651   1.274  17.387  1.00  0.00    -0.200 F 
ENDBRANCH  47  61
BRANCH  48  72
ATOM     72  C   UNL     1       2.414   0.083  16.673  1.00  0.00     0.064 A 
ATOM     73  C   UNL     1       3.111  -0.944  17.326  1.00  0.00     0.173 A 
ATOM     74  C   UNL     1       3.163   1.022  15.950  1.00  0.00     0.173 A 
ATOM     75  F   UNL     1       2.440  -1.855  18.047  1.00  0.00    -0.203 F 
ATOM     76  C   UNL     1       4.502  -1.014  17.280  1.00  0.00     0.198 A 
ATOM     77  C   UNL     1       4.553   0.934  15.880  1.00  0.00     0.198 A 
ATOM     78  F   UNL     1       2.545   2.021  15.303  1.00  0.00    -0.203 F 
ATOM     79  F   UNL     1       5.145  -1.976  17.954  1.00  0.00    -0.200 F 
ATOM     80  C   UNL     1       5.221  -0.078  16.552  1.00  0.00     0.200 A 
ATOM     81  F   UNL     1       5.243   1.832  15.165  1.00  0.00    -0.200 F 
ATOM     82  F   UNL     1       6.559  -0.147  16.506  1.00  0.00    -0.200 F 
ENDBRANCH  48  72
BRANCH  60  83
ATOM     83  C   UNL     1      -1.994   1.379  21.908  1.00  0.00     0.064 A 
ATOM     84  C   UNL     1      -1.425   2.575  22.371  1.00  0.00     0.173 A 
ATOM     85  C   UNL     1      -2.389   0.428  22.860  1.00  0.00     0.173 A 
ATOM     86  F   UNL     1      -1.017   3.511  21.500  1.00  0.00    -0.203 F 
ATOM     87  C   UNL     1      -1.231   2.794  23.732  1.00  0.00     0.198 A 
ATOM     88  C   UNL     1      -2.224   0.664  24.222  1.00  0.00     0.198 A 
ATOM     89  F   UNL     1      -2.946  -0.729  22.471  1.00  0.00    -0.203 F 
ATOM     90  F   UNL     1      -0.635   3.920  24.149  1.00  0.00    -0.200 F 
ATOM     91  C   UNL     1      -1.636   1.843  24.656  1.00  0.00     0.200 A 
ATOM     92  F   UNL     1      -2.630  -0.250  25.114  1.00  0.00    -0.200 F 
ATOM     93  F   UNL     1      -1.452   2.058  25.966  1.00  0.00    -0.200 F 
ENDBRANCH  60  83
ENDBRANCH  34  35
ENDBRANCH  26  29
ENDBRANCH  24  25
ENDBRANCH  23  24
ENDBRANCH  22  23
ENDBRANCH   1  22
TORSDOF 19
