REMARK SMILES CCOC(=O)c1c(-c2cccc3ccccc23)csc1NC(=O)[C@H]1CC=CC[C@H]1C(=O)NCCCCNC(=O)c1ccc(-c2c3nc(c(-c4c(F)c(F)c(F)c(F)c4F)c4ccc([nH]4)c(-c4c(F)c(F)c(F)c(F)c4F)c4nc(c(-c5c(F)c(F)c(F)c(F)c5F)c5ccc2[nH]5)C=C4)C=C3)cc1
REMARK SMILES IDX 33 1 32 2 30 3 31 4 29 6 24 7 25 8 26 9 28 10 27 11 22 12
REMARK SMILES IDX 21 13 23 15 20 16 6 17 7 18 18 19 19 20 4 21 5 22 3 23 2 24
REMARK SMILES IDX 1 25 8 26 9 27 17 28 10 29 12 30 16 31 11 32 13 33 15 34
REMARK SMILES IDX 14 35 34 36 35 37 36 38 37 39 38 40 39 42 40 43 41 44 102 45
REMARK SMILES IDX 42 46 101 47 43 48 44 49 45 50 95 51 46 52 100 53 94 54
REMARK SMILES IDX 96 55 47 56 99 57 93 58 92 59 48 61 80 62 60 63 79 64 61 65
REMARK SMILES IDX 64 66 78 67 97 68 62 69 63 70 77 72 98 73 65 74 49 75 50 76
REMARK SMILES IDX 58 77 51 78 52 79 56 80 59 81 53 82 54 83 57 84 55 85 81 86
REMARK SMILES IDX 82 87 90 88 83 89 84 90 88 91 91 92 85 93 86 94 89 95 87 96
REMARK SMILES IDX 66 97 67 98 75 99 68 100 69 101 73 102 76 103 70 104 71 105
REMARK SMILES IDX 74 106 72 107
REMARK H PARENT 32 5 21 14 37 41 96 60 64 71
REMARK Flexibility Score: inf
ROOT
ATOM      1  C   UNL     1       6.145   0.163  -3.277  1.00  0.00     0.116 C 
ENDROOT
BRANCH   1   2
ATOM      2  N   UNL     1       6.879  -0.096  -4.507  1.00  0.00    -0.356 N 
ATOM      3  C   UNL     1       6.473  -0.811  -5.602  1.00  0.00     0.224 C 
ATOM      4  O   UNL     1       6.630  -0.268  -6.701  1.00  0.00    -0.275 OA
ATOM      5  H   UNL     1       7.782   0.292  -4.558  1.00  0.00     0.163 HD
BRANCH   3   6
ATOM      6  C   UNL     1       6.132  -2.303  -5.521  1.00  0.00     0.095 C 
ATOM      7  C   UNL     1       5.723  -2.956  -4.205  1.00  0.00     0.095 C 
ATOM      8  C   UNL     1       6.104  -4.470  -4.355  1.00  0.00     0.041 C 
ATOM      9  C   UNL     1       5.443  -5.090  -5.553  1.00  0.00    -0.030 C 
ATOM     10  C   UNL     1       5.434  -2.905  -6.765  1.00  0.00     0.041 C 
ATOM     11  C   UNL     1       5.122  -4.370  -6.636  1.00  0.00    -0.030 C 
BRANCH   7  12
ATOM     12  C   UNL     1       4.341  -2.920  -3.522  1.00  0.00     0.229 C 
ATOM     13  N   UNL     1       3.363  -1.997  -3.488  1.00  0.00    -0.317 N 
ATOM     14  H   UNL     1       2.836  -2.115  -2.664  1.00  0.00     0.170 HD
ATOM     15  O   UNL     1       4.137  -3.787  -2.644  1.00  0.00    -0.274 OA
BRANCH  13  16
ATOM     16  C   UNL     1       2.845  -0.944  -4.208  1.00  0.00     0.110 A 
ATOM     17  C   UNL     1       1.872  -0.057  -3.748  1.00  0.00     0.102 A 
ATOM     18  C   UNL     1       1.383   0.777  -4.822  1.00  0.00     0.010 A 
ATOM     19  C   UNL     1       2.093   0.573  -5.986  1.00  0.00     0.076 A 
ATOM     20  S   UNL     1       3.248  -0.645  -5.803  1.00  0.00    -0.125 S 
BRANCH  17  21
ATOM     21  C   UNL     1       1.513   0.014  -2.333  1.00  0.00     0.341 C 
ATOM     22  O   UNL     1       2.305  -0.322  -1.462  1.00  0.00    -0.246 OA
BRANCH  21  23
ATOM     23  O   UNL     1       0.280   0.531  -2.096  1.00  0.00    -0.462 OA
BRANCH  23  24
ATOM     24  C   UNL     1       0.011   0.976  -0.756  1.00  0.00     0.230 C 
ATOM     25  C   UNL     1       0.013  -0.125   0.291  1.00  0.00     0.049 C 
ENDBRANCH  23  24
ENDBRANCH  21  23
ENDBRANCH  17  21
BRANCH  18  26
ATOM     26  C   UNL     1       0.378   1.832  -4.808  1.00  0.00    -0.009 A 
ATOM     27  C   UNL     1      -0.840   1.573  -5.458  1.00  0.00     0.009 A 
ATOM     28  C   UNL     1       0.644   3.107  -4.241  1.00  0.00    -0.010 A 
ATOM     29  C   UNL     1      -1.802   2.569  -5.567  1.00  0.00     0.001 A 
ATOM     30  C   UNL     1      -0.351   4.108  -4.356  1.00  0.00    -0.018 A 
ATOM     31  C   UNL     1       1.856   3.447  -3.589  1.00  0.00     0.009 A 
ATOM     32  C   UNL     1      -1.556   3.827  -5.021  1.00  0.00     0.009 A 
ATOM     33  C   UNL     1      -0.117   5.384  -3.820  1.00  0.00     0.009 A 
ATOM     34  C   UNL     1       2.069   4.718  -3.058  1.00  0.00     0.001 A 
ATOM     35  C   UNL     1       1.082   5.687  -3.174  1.00  0.00     0.001 A 
ENDBRANCH  18  26
ENDBRANCH  13  16
ENDBRANCH   7  12
ENDBRANCH   3   6
ENDBRANCH   1   2
BRANCH   1  36
ATOM     36  C   UNL     1       6.924  -0.129  -1.994  1.00  0.00     0.023 C 
BRANCH  36  37
ATOM     37  C   UNL     1       6.806   0.973  -0.932  1.00  0.00     0.023 C 
BRANCH  37  38
ATOM     38  C   UNL     1       5.394   1.386  -0.509  1.00  0.00     0.116 C 
BRANCH  38  39
ATOM     39  N   UNL     1       4.726   0.432   0.358  1.00  0.00    -0.352 N 
ATOM     40  C   UNL     1       3.999   0.653   1.508  1.00  0.00     0.251 C 
ATOM     41  H   UNL     1       4.803  -0.510   0.084  1.00  0.00     0.163 HD
ATOM     42  O   UNL     1       3.551  -0.291   2.152  1.00  0.00    -0.269 OA
BRANCH  40  43
ATOM     43  C   UNL     1       3.789   2.031   2.018  1.00  0.00     0.039 A 
ATOM     44  C   UNL     1       4.007   2.280   3.377  1.00  0.00     0.014 A 
ATOM     45  C   UNL     1       3.388   3.075   1.179  1.00  0.00     0.014 A 
ATOM     46  C   UNL     1       3.929   3.585   3.872  1.00  0.00     0.010 A 
ATOM     47  C   UNL     1       3.367   4.386   1.660  1.00  0.00     0.010 A 
ATOM     48  C   UNL     1       3.663   4.658   3.005  1.00  0.00    -0.014 A 
BRANCH  48  49
ATOM     49  C   UNL     1       3.770   6.064   3.478  1.00  0.00     0.031 A 
ATOM     50  C   UNL     1       2.567   6.961   3.532  1.00  0.00     0.074 A 
ATOM     51  C   UNL     1       4.984   6.559   3.797  1.00  0.00     0.049 A 
ATOM     52  N   UNL     1       2.490   8.223   3.878  1.00  0.00    -0.248 NA
ATOM     53  C   UNL     1       1.285   6.372   3.121  1.00  0.00     0.031 C 
ATOM     54  C   UNL     1       6.242   5.813   3.731  1.00  0.00     0.029 A 
ATOM     55  N   UNL     1       5.361   7.806   4.230  1.00  0.00    -0.354 N 
ATOM     56  C   UNL     1       1.158   8.580   3.720  1.00  0.00     0.074 A 
ATOM     57  C   UNL     1       0.470   7.415   3.203  1.00  0.00     0.031 C 
ATOM     58  C   UNL     1       7.247   6.609   4.129  1.00  0.00     0.029 A 
ATOM     59  C   UNL     1       6.712   7.928   4.451  1.00  0.00     0.049 A 
ATOM     60  H   UNL     1       4.724   8.544   4.370  1.00  0.00     0.167 HD
ATOM     61  C   UNL     1       0.560   9.764   3.998  1.00  0.00     0.037 A 
ATOM     62  C   UNL     1       7.440   8.983   4.865  1.00  0.00     0.037 A 
ATOM     63  C   UNL     1       1.238  10.918   4.533  1.00  0.00     0.049 A 
ATOM     64  C   UNL     1       6.749  10.281   5.178  1.00  0.00     0.074 A 
ATOM     65  C   UNL     1       0.701  12.138   4.909  1.00  0.00     0.029 A 
ATOM     66  N   UNL     1       2.603  10.995   4.766  1.00  0.00    -0.354 N 
ATOM     67  N   UNL     1       5.477  10.581   5.097  1.00  0.00    -0.248 NA
ATOM     68  C   UNL     1       7.598  11.386   5.648  1.00  0.00     0.031 C 
ATOM     69  C   UNL     1       1.746  12.966   5.334  1.00  0.00     0.029 A 
ATOM     70  C   UNL     1       2.929  12.249   5.261  1.00  0.00     0.049 A 
ATOM     71  H   UNL     1       3.246  10.267   4.604  1.00  0.00     0.167 HD
ATOM     72  C   UNL     1       5.367  11.896   5.526  1.00  0.00     0.074 A 
ATOM     73  C   UNL     1       6.701  12.333   5.882  1.00  0.00     0.031 C 
ATOM     74  C   UNL     1       4.260  12.672   5.614  1.00  0.00     0.037 A 
BRANCH  61  75
ATOM     75  C   UNL     1      -0.913   9.873   3.734  1.00  0.00     0.064 A 
ATOM     76  C   UNL     1      -1.852   9.216   4.543  1.00  0.00     0.173 A 
ATOM     77  C   UNL     1      -1.393  10.675   2.688  1.00  0.00     0.173 A 
ATOM     78  F   UNL     1      -1.442   8.430   5.550  1.00  0.00    -0.203 F 
ATOM     79  C   UNL     1      -3.217   9.335   4.297  1.00  0.00     0.198 A 
ATOM     80  C   UNL     1      -2.761  10.812   2.461  1.00  0.00     0.198 A 
ATOM     81  F   UNL     1      -0.538  11.330   1.890  1.00  0.00    -0.203 F 
ATOM     82  F   UNL     1      -4.094   8.661   5.054  1.00  0.00    -0.200 F 
ATOM     83  C   UNL     1      -3.671  10.137   3.260  1.00  0.00     0.200 A 
ATOM     84  F   UNL     1      -3.198  11.596   1.466  1.00  0.00    -0.200 F 
ATOM     85  F   UNL     1      -4.985  10.253   3.027  1.00  0.00    -0.200 F 
ENDBRANCH  61  75
BRANCH  62  86
ATOM     86  C   UNL     1       8.908   8.845   5.040  1.00  0.00     0.064 A 
ATOM     87  C   UNL     1       9.478   8.822   6.321  1.00  0.00     0.173 A 
ATOM     88  C   UNL     1       9.768   8.738   3.938  1.00  0.00     0.173 A 
ATOM     89  F   UNL     1       8.696   8.945   7.403  1.00  0.00    -0.203 F 
ATOM     90  C   UNL     1      10.856   8.715   6.492  1.00  0.00     0.198 A 
ATOM     91  C   UNL     1      11.144   8.606   4.112  1.00  0.00     0.198 A 
ATOM     92  F   UNL     1       9.270   8.751   2.693  1.00  0.00    -0.203 F 
ATOM     93  F   UNL     1      11.379   8.738   7.726  1.00  0.00    -0.200 F 
ATOM     94  C   UNL     1      11.688   8.601   5.388  1.00  0.00     0.200 A 
ATOM     95  F   UNL     1      11.944   8.485   3.044  1.00  0.00    -0.200 F 
ATOM     96  F   UNL     1      13.013   8.496   5.554  1.00  0.00    -0.200 F 
ENDBRANCH  62  86
BRANCH  74  97
ATOM     97  C   UNL     1       4.440  14.066   6.137  1.00  0.00     0.064 A 
ATOM     98  C   UNL     1       5.042  15.068   5.361  1.00  0.00     0.173 A 
ATOM     99  C   UNL     1       3.980  14.412   7.416  1.00  0.00     0.173 A 
ATOM    100  F   UNL     1       5.514  14.782   4.138  1.00  0.00    -0.203 F 
ATOM    101  C   UNL     1       5.198  16.360   5.857  1.00  0.00     0.198 A 
ATOM    102  C   UNL     1       4.115  15.711   7.899  1.00  0.00     0.198 A 
ATOM    103  F   UNL     1       3.394  13.491   8.196  1.00  0.00    -0.203 F 
ATOM    104  F   UNL     1       5.816  17.290   5.116  1.00  0.00    -0.200 F 
ATOM    105  C   UNL     1       4.729  16.681   7.122  1.00  0.00     0.200 A 
ATOM    106  F   UNL     1       3.653  16.023   9.118  1.00  0.00    -0.200 F 
ATOM    107  F   UNL     1       4.877  17.926   7.596  1.00  0.00    -0.200 F 
ENDBRANCH  74  97
ENDBRANCH  48  49
ENDBRANCH  40  43
ENDBRANCH  38  39
ENDBRANCH  37  38
ENDBRANCH  36  37
ENDBRANCH   1  36
TORSDOF 17
