REMARK SMILES NS(=O)(=O)c1ccc(N2N=C(C(=O)NCCCCNC(=O)c3ccc(-c4c5nc(c(-c6c(F)c(F)c(F)c(F)c6F)c6ccc([nH]6)c(-c6c(F)c(F)c(F)c(F)c6F)c6nc(c(-c7c(F)c(F)c(F)c(F)c7F)c7ccc4[nH]7)C=C6)C=C5)cc3)C[C@H]2c2ccco2)cc1
REMARK SMILES IDX 16 1 15 2 14 3 12 4 13 5 11 7 9 8 10 9 86 10 85 11 8 12 5 13
REMARK SMILES IDX 6 14 93 15 7 16 92 17 2 18 3 19 4 20 1 21 87 24 88 25 91 26
REMARK SMILES IDX 89 27 90 28 17 29 18 30 19 31 20 32 21 34 22 35 23 36 84 37
REMARK SMILES IDX 24 38 83 39 25 40 26 41 27 42 77 43 28 44 82 45 76 46 78 47
REMARK SMILES IDX 29 48 81 49 75 50 74 51 30 53 62 54 42 55 61 56 43 57 46 58
REMARK SMILES IDX 60 59 79 60 44 61 45 62 59 64 80 65 47 66 31 67 32 68 40 69
REMARK SMILES IDX 33 70 34 71 38 72 41 73 35 74 36 75 39 76 37 77 63 78 64 79
REMARK SMILES IDX 72 80 65 81 66 82 70 83 73 84 67 85 68 86 71 87 69 88 48 89
REMARK SMILES IDX 49 90 57 91 50 92 51 93 55 94 58 95 52 96 53 97 56 98 54 99
REMARK H PARENT 14 6 1 22 1 23 19 33 78 52 46 63
REMARK Flexibility Score: inf
ROOT
ATOM      1  C   UNL     1       2.858   1.250  12.079  1.00  0.00     0.023 C 
ENDROOT
BRANCH   1   2
ATOM      2  C   UNL     1       3.440   2.244  11.079  1.00  0.00     0.116 C 
BRANCH   2   3
ATOM      3  N   UNL     1       4.322   1.587  10.135  1.00  0.00    -0.351 N 
ATOM      4  C   UNL     1       4.268   1.327   8.788  1.00  0.00     0.267 C 
ATOM      5  O   UNL     1       5.175   0.647   8.312  1.00  0.00    -0.268 OA
ATOM      6  H   UNL     1       5.147   1.251  10.555  1.00  0.00     0.163 HD
BRANCH   4   7
ATOM      7  C   UNL     1       3.190   1.859   7.855  1.00  0.00     0.128 C 
ATOM      8  N   UNL     1       2.247   2.375   6.008  1.00  0.00    -0.254 N 
ATOM      9  N   UNL     1       3.244   1.639   6.574  1.00  0.00    -0.171 NA
ATOM     10  C   UNL     1       1.329   2.968   6.985  1.00  0.00     0.180 C 
ATOM     11  C   UNL     1       2.028   2.669   8.313  1.00  0.00     0.099 C 
BRANCH   8  12
ATOM     12  C   UNL     1       1.840   2.120   4.701  1.00  0.00     0.060 A 
ATOM     13  C   UNL     1       0.954   1.656   2.076  1.00  0.00     0.082 A 
ATOM     14  C   UNL     1       1.180   0.576   2.932  1.00  0.00     0.024 A 
ATOM     15  C   UNL     1       1.192   2.961   2.505  1.00  0.00     0.024 A 
ATOM     16  C   UNL     1       1.634   0.814   4.235  1.00  0.00     0.029 A 
ATOM     17  C   UNL     1       1.629   3.183   3.811  1.00  0.00     0.029 A 
BRANCH  13  18
ATOM     18  S   UNL     1       0.395   1.389   0.423  1.00  0.00     0.238 S 
ATOM     19  O   UNL     1       0.895   2.457  -0.420  1.00  0.00    -0.207 OA
ATOM     20  O   UNL     1      -0.995   1.020   0.465  1.00  0.00    -0.207 OA
BRANCH  18  21
ATOM     21  N   UNL     1       1.236   0.021  -0.069  1.00  0.00    -0.225 NA
ATOM     22  H   UNL     1       0.975  -0.213  -1.026  1.00  0.00     0.137 HD
ATOM     23  H   UNL     1       1.006  -0.759   0.547  1.00  0.00     0.137 HD
ENDBRANCH  18  21
ENDBRANCH  13  18
ENDBRANCH   8  12
BRANCH  10  24
ATOM     24  C   UNL     1       0.994   4.422   6.835  1.00  0.00     0.128 A 
ATOM     25  C   UNL     1      -0.022   5.086   6.173  1.00  0.00     0.048 A 
ATOM     26  O   UNL     1       1.804   5.335   7.452  1.00  0.00    -0.467 OA
ATOM     27  C   UNL     1       0.185   6.468   6.395  1.00  0.00     0.042 A 
ATOM     28  C   UNL     1       1.301   6.566   7.190  1.00  0.00     0.195 A 
ENDBRANCH  10  24
ENDBRANCH   4   7
ENDBRANCH   2   3
ENDBRANCH   1   2
BRANCH   1  29
ATOM     29  C   UNL     1       3.836   0.800  13.165  1.00  0.00     0.023 C 
BRANCH  29  30
ATOM     30  C   UNL     1       4.462   1.924  13.986  1.00  0.00     0.116 C 
BRANCH  30  31
ATOM     31  N   UNL     1       3.486   2.832  14.571  1.00  0.00    -0.352 N 
ATOM     32  C   UNL     1       3.485   3.416  15.814  1.00  0.00     0.251 C 
ATOM     33  H   UNL     1       2.720   3.058  13.996  1.00  0.00     0.163 HD
ATOM     34  O   UNL     1       2.528   4.088  16.183  1.00  0.00    -0.269 OA
BRANCH  32  35
ATOM     35  C   UNL     1       4.629   3.194  16.722  1.00  0.00     0.039 A 
ATOM     36  C   UNL     1       4.374   2.791  18.035  1.00  0.00     0.014 A 
ATOM     37  C   UNL     1       5.941   3.348  16.269  1.00  0.00     0.014 A 
ATOM     38  C   UNL     1       5.441   2.467  18.874  1.00  0.00     0.010 A 
ATOM     39  C   UNL     1       7.000   2.959  17.084  1.00  0.00     0.010 A 
ATOM     40  C   UNL     1       6.759   2.509  18.391  1.00  0.00    -0.014 A 
BRANCH  40  41
ATOM     41  C   UNL     1       7.899   2.075  19.235  1.00  0.00     0.031 A 
ATOM     42  C   UNL     1       8.945   3.065  19.658  1.00  0.00     0.074 A 
ATOM     43  C   UNL     1       8.025   0.774  19.560  1.00  0.00     0.049 A 
ATOM     44  N   UNL     1      10.047   2.865  20.336  1.00  0.00    -0.248 NA
ATOM     45  C   UNL     1       8.740   4.460  19.240  1.00  0.00     0.031 C 
ATOM     46  C   UNL     1       7.103  -0.291  19.162  1.00  0.00     0.029 A 
ATOM     47  N   UNL     1       8.987   0.124  20.291  1.00  0.00    -0.354 N 
ATOM     48  C   UNL     1      10.671   4.103  20.412  1.00  0.00     0.074 A 
ATOM     49  C   UNL     1       9.853   5.037  19.669  1.00  0.00     0.031 C 
ATOM     50  C   UNL     1       7.530  -1.457  19.674  1.00  0.00     0.029 A 
ATOM     51  C   UNL     1       8.772  -1.228  20.407  1.00  0.00     0.049 A 
ATOM     52  H   UNL     1       9.759   0.583  20.694  1.00  0.00     0.167 HD
ATOM     53  C   UNL     1      11.811   4.434  21.063  1.00  0.00     0.037 A 
ATOM     54  C   UNL     1       9.496  -2.174  21.033  1.00  0.00     0.037 A 
ATOM     55  C   UNL     1      12.607   3.509  21.826  1.00  0.00     0.049 A 
ATOM     56  C   UNL     1      10.752  -1.776  21.758  1.00  0.00     0.074 A 
ATOM     57  C   UNL     1      13.747   3.759  22.570  1.00  0.00     0.029 A 
ATOM     58  N   UNL     1      12.343   2.152  21.942  1.00  0.00    -0.354 N 
ATOM     59  N   UNL     1      11.299  -0.591  21.878  1.00  0.00    -0.248 NA
ATOM     60  C   UNL     1      11.489  -2.849  22.442  1.00  0.00     0.031 C 
ATOM     61  C   UNL     1      14.192   2.547  23.109  1.00  0.00     0.029 A 
ATOM     62  C   UNL     1      13.306   1.549  22.735  1.00  0.00     0.049 A 
ATOM     63  H   UNL     1      11.583   1.687  21.524  1.00  0.00     0.167 HD
ATOM     64  C   UNL     1      12.425  -0.769  22.669  1.00  0.00     0.074 A 
ATOM     65  C   UNL     1      12.476  -2.175  23.013  1.00  0.00     0.031 C 
ATOM     66  C   UNL     1      13.336   0.150  23.074  1.00  0.00     0.037 A 
BRANCH  53  67
ATOM     67  C   UNL     1      12.259   5.864  20.986  1.00  0.00     0.064 A 
ATOM     68  C   UNL     1      11.566   6.886  21.654  1.00  0.00     0.173 A 
ATOM     69  C   UNL     1      13.408   6.214  20.263  1.00  0.00     0.173 A 
ATOM     70  F   UNL     1      10.453   6.604  22.348  1.00  0.00    -0.203 F 
ATOM     71  C   UNL     1      11.992   8.209  21.576  1.00  0.00     0.198 A 
ATOM     72  C   UNL     1      13.847   7.535  20.210  1.00  0.00     0.198 A 
ATOM     73  F   UNL     1      14.109   5.275  19.609  1.00  0.00    -0.203 F 
ATOM     74  F   UNL     1      11.286   9.174  22.182  1.00  0.00    -0.200 F 
ATOM     75  C   UNL     1      13.134   8.531  20.860  1.00  0.00     0.200 A 
ATOM     76  F   UNL     1      14.957   7.844  19.527  1.00  0.00    -0.200 F 
ATOM     77  F   UNL     1      13.545   9.805  20.791  1.00  0.00    -0.200 F 
ENDBRANCH  53  67
BRANCH  54  78
ATOM     78  C   UNL     1       9.031  -3.584  21.034  1.00  0.00     0.064 A 
ATOM     79  C   UNL     1       8.533  -4.173  22.204  1.00  0.00     0.173 A 
ATOM     80  C   UNL     1       9.076  -4.371  19.874  1.00  0.00     0.173 A 
ATOM     81  F   UNL     1       8.490  -3.465  23.343  1.00  0.00    -0.203 F 
ATOM     82  C   UNL     1       8.114  -5.501  22.220  1.00  0.00     0.198 A 
ATOM     83  C   UNL     1       8.633  -5.692  19.884  1.00  0.00     0.198 A 
ATOM     84  F   UNL     1       9.539  -3.852  18.728  1.00  0.00    -0.203 F 
ATOM     85  F   UNL     1       7.680  -6.051  23.362  1.00  0.00    -0.200 F 
ATOM     86  C   UNL     1       8.159  -6.258  21.058  1.00  0.00     0.200 A 
ATOM     87  F   UNL     1       8.666  -6.416  18.758  1.00  0.00    -0.200 F 
ATOM     88  F   UNL     1       7.753  -7.535  21.073  1.00  0.00    -0.200 F 
ENDBRANCH  54  78
BRANCH  66  89
ATOM     89  C   UNL     1      14.445  -0.331  23.960  1.00  0.00     0.064 A 
ATOM     90  C   UNL     1      15.500  -1.109  23.461  1.00  0.00     0.173 A 
ATOM     91  C   UNL     1      14.472   0.022  25.318  1.00  0.00     0.173 A 
ATOM     92  F   UNL     1      15.510  -1.485  22.173  1.00  0.00    -0.203 F 
ATOM     93  C   UNL     1      16.529  -1.537  24.295  1.00  0.00     0.198 A 
ATOM     94  C   UNL     1      15.516  -0.386  26.143  1.00  0.00     0.198 A 
ATOM     95  F   UNL     1      13.489   0.769  25.842  1.00  0.00    -0.203 F 
ATOM     96  F   UNL     1      17.503  -2.318  23.808  1.00  0.00    -0.200 F 
ATOM     97  C   UNL     1      16.539  -1.170  25.633  1.00  0.00     0.200 A 
ATOM     98  F   UNL     1      15.531  -0.021  27.433  1.00  0.00    -0.200 F 
ATOM     99  F   UNL     1      17.533  -1.580  26.433  1.00  0.00    -0.200 F 
ENDBRANCH  66  89
ENDBRANCH  40  41
ENDBRANCH  32  35
ENDBRANCH  30  31
ENDBRANCH  29  30
ENDBRANCH   1  29
TORSDOF 15
