REMARK SMILES C[C@@H](Oc1ccccc1Cl)C(=O)N1CC[C@H](C(=O)NCCCCNC(=O)c2ccc(-c3c4nc(c(-c5c(F)c(F)c(F)c(F)c5F)c5ccc([nH]5)c(-c5c(F)c(F)c(F)c(F)c5F)c5nc(c(-c6c(F)c(F)c(F)c(F)c6F)c6ccc3[nH]6)C=C5)C=C4)cc2)[C@@H]1C
REMARK SMILES IDX 20 1 19 2 17 3 18 4 16 6 13 7 14 8 90 9 15 10 91 11 11 12
REMARK SMILES IDX 12 13 2 14 1 15 3 16 4 17 5 18 9 19 6 20 8 21 10 22 7 23
REMARK SMILES IDX 21 24 22 25 23 26 24 27 25 28 26 30 27 31 28 32 89 33 29 34
REMARK SMILES IDX 88 35 30 36 31 37 32 38 82 39 33 40 87 41 81 42 83 43 34 44
REMARK SMILES IDX 86 45 80 46 79 47 35 49 67 50 47 51 66 52 48 53 51 54 65 55
REMARK SMILES IDX 84 56 49 57 50 58 64 60 85 61 52 62 36 63 37 64 45 65 38 66
REMARK SMILES IDX 39 67 43 68 46 69 40 70 41 71 44 72 42 73 68 74 69 75 77 76
REMARK SMILES IDX 70 77 71 78 75 79 78 80 72 81 73 82 76 83 74 84 53 85 54 86
REMARK SMILES IDX 62 87 55 88 56 89 60 90 63 91 57 92 58 93 61 94 59 95
REMARK H PARENT 19 5 24 29 83 48 51 59
REMARK Flexibility Score: inf
ROOT
ATOM      1  C   UNL     1      -2.165   3.506   3.645  1.00  0.00     0.116 C 
ENDROOT
BRANCH   1   2
ATOM      2  N   UNL     1      -3.362   2.804   3.221  1.00  0.00    -0.356 N 
ATOM      3  C   UNL     1      -3.555   1.492   2.914  1.00  0.00     0.225 C 
ATOM      4  O   UNL     1      -4.699   1.143   2.618  1.00  0.00    -0.275 OA
ATOM      5  H   UNL     1      -4.165   3.369   3.143  1.00  0.00     0.163 HD
BRANCH   3   6
ATOM      6  C   UNL     1      -2.383   0.518   2.937  1.00  0.00     0.102 C 
ATOM      7  N   UNL     1      -1.764  -0.870   1.083  1.00  0.00    -0.336 N 
ATOM      8  C   UNL     1      -2.962  -1.438   1.664  1.00  0.00     0.121 C 
ATOM      9  C   UNL     1      -1.525   0.469   1.641  1.00  0.00     0.094 C 
ATOM     10  C   UNL     1      -2.896  -0.926   3.092  1.00  0.00     0.037 C 
ATOM     11  C   UNL     1      -1.876   1.538   0.604  1.00  0.00     0.032 C 
BRANCH   7  12
ATOM     12  C   UNL     1      -0.980  -1.635   0.243  1.00  0.00     0.263 C 
ATOM     13  O   UNL     1      -1.452  -2.623  -0.332  1.00  0.00    -0.271 OA
BRANCH  12  14
ATOM     14  C   UNL     1       0.522  -1.327   0.080  1.00  0.00     0.259 C 
ATOM     15  C   UNL     1       0.814  -0.071  -0.727  1.00  0.00     0.064 C 
BRANCH  14  16
ATOM     16  O   UNL     1       1.118  -1.249   1.386  1.00  0.00    -0.479 OA
BRANCH  16  17
ATOM     17  C   UNL     1       2.406  -1.716   1.406  1.00  0.00     0.139 A 
ATOM     18  C   UNL     1       2.642  -3.094   1.384  1.00  0.00     0.048 A 
ATOM     19  C   UNL     1       3.477  -0.826   1.541  1.00  0.00     0.083 A 
ATOM     20  C   UNL     1       3.952  -3.576   1.439  1.00  0.00     0.004 A 
ATOM     21  C   UNL     1       4.785  -1.310   1.577  1.00  0.00     0.024 A 
ATOM     22  Cl  UNL     1       3.224   0.877   1.676  1.00  0.00    -0.080 Cl
ATOM     23  C   UNL     1       5.023  -2.684   1.522  1.00  0.00     0.002 A 
ENDBRANCH  16  17
ENDBRANCH  14  16
ENDBRANCH  12  14
ENDBRANCH   7  12
ENDBRANCH   3   6
ENDBRANCH   1   2
BRANCH   1  24
ATOM     24  C   UNL     1      -1.925   4.786   2.841  1.00  0.00     0.023 C 
BRANCH  24  25
ATOM     25  C   UNL     1      -3.082   5.788   2.827  1.00  0.00     0.023 C 
BRANCH  25  26
ATOM     26  C   UNL     1      -3.515   6.300   4.194  1.00  0.00     0.116 C 
BRANCH  26  27
ATOM     27  N   UNL     1      -2.483   7.090   4.846  1.00  0.00    -0.352 N 
ATOM     28  C   UNL     1      -2.541   8.362   5.361  1.00  0.00     0.251 C 
ATOM     29  H   UNL     1      -1.609   6.645   4.931  1.00  0.00     0.163 HD
ATOM     30  O   UNL     1      -1.509   8.918   5.726  1.00  0.00    -0.269 OA
BRANCH  28  31
ATOM     31  C   UNL     1      -3.832   9.081   5.456  1.00  0.00     0.039 A 
ATOM     32  C   UNL     1      -3.869  10.440   5.127  1.00  0.00     0.014 A 
ATOM     33  C   UNL     1      -4.997   8.439   5.884  1.00  0.00     0.014 A 
ATOM     34  C   UNL     1      -5.080  11.135   5.167  1.00  0.00     0.010 A 
ATOM     35  C   UNL     1      -6.217   9.111   5.844  1.00  0.00     0.010 A 
ATOM     36  C   UNL     1      -6.272  10.468   5.491  1.00  0.00    -0.014 A 
BRANCH  36  37
ATOM     37  C   UNL     1      -7.581  11.172   5.457  1.00  0.00     0.031 A 
ATOM     38  C   UNL     1      -8.400  11.323   6.709  1.00  0.00     0.074 A 
ATOM     39  C   UNL     1      -8.069  11.615   4.282  1.00  0.00     0.049 A 
ATOM     40  N   UNL     1      -9.587  11.856   6.865  1.00  0.00    -0.248 NA
ATOM     41  C   UNL     1      -7.822  10.775   7.945  1.00  0.00     0.031 C 
ATOM     42  C   UNL     1      -7.404  11.474   2.987  1.00  0.00     0.029 A 
ATOM     43  N   UNL     1      -9.246  12.257   3.984  1.00  0.00    -0.354 N 
ATOM     44  C   UNL     1      -9.904  11.687   8.207  1.00  0.00     0.074 A 
ATOM     45  C   UNL     1      -8.810  10.956   8.809  1.00  0.00     0.031 C 
ATOM     46  C   UNL     1      -8.174  12.025   2.036  1.00  0.00     0.029 A 
ATOM     47  C   UNL     1      -9.403  12.523   2.646  1.00  0.00     0.049 A 
ATOM     48  H   UNL     1      -9.913  12.503   4.665  1.00  0.00     0.167 HD
ATOM     49  C   UNL     1     -10.999  12.119   8.879  1.00  0.00     0.037 A 
ATOM     50  C   UNL     1     -10.427  13.092   1.981  1.00  0.00     0.037 A 
ATOM     51  C   UNL     1     -12.075  12.865   8.280  1.00  0.00     0.049 A 
ATOM     52  C   UNL     1     -11.626  13.578   2.748  1.00  0.00     0.074 A 
ATOM     53  C   UNL     1     -13.183  13.425   8.892  1.00  0.00     0.029 A 
ATOM     54  N   UNL     1     -12.186  13.143   6.925  1.00  0.00    -0.354 N 
ATOM     55  N   UNL     1     -11.873  13.498   4.033  1.00  0.00    -0.248 NA
ATOM     56  C   UNL     1     -12.682  14.243   1.975  1.00  0.00     0.031 C 
ATOM     57  C   UNL     1     -13.996  13.984   7.900  1.00  0.00     0.029 A 
ATOM     58  C   UNL     1     -13.363  13.834   6.677  1.00  0.00     0.049 A 
ATOM     59  H   UNL     1     -11.526  12.888   6.240  1.00  0.00     0.167 HD
ATOM     60  C   UNL     1     -13.099  14.120   4.227  1.00  0.00     0.074 A 
ATOM     61  C   UNL     1     -13.537  14.588   2.928  1.00  0.00     0.031 C 
ATOM     62  C   UNL     1     -13.796  14.289   5.378  1.00  0.00     0.037 A 
BRANCH  49  63
ATOM     63  C   UNL     1     -11.093  11.778  10.341  1.00  0.00     0.064 A 
ATOM     64  C   UNL     1     -10.215  12.324  11.291  1.00  0.00     0.173 A 
ATOM     65  C   UNL     1     -12.088  10.900  10.801  1.00  0.00     0.173 A 
ATOM     66  F   UNL     1      -9.241  13.163  10.906  1.00  0.00    -0.203 F 
ATOM     67  C   UNL     1     -10.300  11.969  12.635  1.00  0.00     0.198 A 
ATOM     68  C   UNL     1     -12.193  10.577  12.152  1.00  0.00     0.198 A 
ATOM     69  F   UNL     1     -12.961  10.355   9.941  1.00  0.00    -0.203 F 
ATOM     70  F   UNL     1      -9.407  12.452  13.511  1.00  0.00    -0.200 F 
ATOM     71  C   UNL     1     -11.291  11.101  13.065  1.00  0.00     0.200 A 
ATOM     72  F   UNL     1     -13.162   9.750  12.568  1.00  0.00    -0.200 F 
ATOM     73  F   UNL     1     -11.371  10.761  14.359  1.00  0.00    -0.200 F 
ENDBRANCH  49  63
BRANCH  50  74
ATOM     74  C   UNL     1     -10.345  13.243   0.505  1.00  0.00     0.064 A 
ATOM     75  C   UNL     1     -10.179  14.503  -0.086  1.00  0.00     0.173 A 
ATOM     76  C   UNL     1     -10.398  12.126  -0.343  1.00  0.00     0.173 A 
ATOM     77  F   UNL     1     -10.142  15.602   0.681  1.00  0.00    -0.203 F 
ATOM     78  C   UNL     1     -10.081  14.641  -1.469  1.00  0.00     0.198 A 
ATOM     79  C   UNL     1     -10.270  12.263  -1.723  1.00  0.00     0.198 A 
ATOM     80  F   UNL     1     -10.548  10.898   0.174  1.00  0.00    -0.203 F 
ATOM     81  F   UNL     1      -9.959  15.861  -2.011  1.00  0.00    -0.200 F 
ATOM     82  C   UNL     1     -10.118  13.521  -2.286  1.00  0.00     0.200 A 
ATOM     83  F   UNL     1     -10.287  11.176  -2.506  1.00  0.00    -0.200 F 
ATOM     84  F   UNL     1     -10.008  13.653  -3.615  1.00  0.00    -0.200 F 
ENDBRANCH  50  74
BRANCH  62  85
ATOM     85  C   UNL     1     -15.099  15.033   5.293  1.00  0.00     0.064 A 
ATOM     86  C   UNL     1     -16.229  14.478   4.673  1.00  0.00     0.173 A 
ATOM     87  C   UNL     1     -15.229  16.304   5.875  1.00  0.00     0.173 A 
ATOM     88  F   UNL     1     -16.155  13.273   4.089  1.00  0.00    -0.203 F 
ATOM     89  C   UNL     1     -17.430  15.180   4.614  1.00  0.00     0.198 A 
ATOM     90  C   UNL     1     -16.442  16.988   5.843  1.00  0.00     0.198 A 
ATOM     91  F   UNL     1     -14.183  16.878   6.487  1.00  0.00    -0.203 F 
ATOM     92  F   UNL     1     -18.481  14.652   3.970  1.00  0.00    -0.200 F 
ATOM     93  C   UNL     1     -17.538  16.429   5.205  1.00  0.00     0.200 A 
ATOM     94  F   UNL     1     -16.548  18.188   6.430  1.00  0.00    -0.200 F 
ATOM     95  F   UNL     1     -18.698  17.099   5.154  1.00  0.00    -0.200 F 
ENDBRANCH  62  85
ENDBRANCH  36  37
ENDBRANCH  28  31
ENDBRANCH  26  27
ENDBRANCH  25  26
ENDBRANCH  24  25
ENDBRANCH   1  24
TORSDOF 15
