REMARK SMILES [NH2+]=C1S[C@@H](C(=O)Nc2ccc(C(=O)NCCCCNC(=O)c3ccc(-c4c5nc(c(-c6c(F)c(F)c(F)c(F)c6F)c6ccc([nH]6)c(-c6c(F)c(F)c(F)c(F)c6F)c6nc(c(-c7c(F)c(F)c(F)c(F)c7F)c7ccc4[nH]7)C=C6)C=C5)cc3)cc2)CC(=O)N1/N=C/c1ccc(Cl)cc1
REMARK SMILES IDX 15 1 14 2 12 3 13 4 11 6 8 7 9 8 86 9 10 10 85 11 7 12 5 13
REMARK SMILES IDX 6 14 4 16 1 17 2 18 3 21 90 22 88 23 87 24 89 25 91 26 92 27
REMARK SMILES IDX 93 28 94 29 99 30 95 31 98 32 96 33 97 34 16 35 17 36 18 37
REMARK SMILES IDX 19 38 20 39 21 41 22 42 23 43 84 44 24 45 83 46 25 47 26 48
REMARK SMILES IDX 27 49 77 50 28 51 82 52 76 53 78 54 29 55 81 56 75 57 74 58
REMARK SMILES IDX 30 60 62 61 42 62 61 63 43 64 46 65 60 66 79 67 44 68 45 69
REMARK SMILES IDX 59 71 80 72 47 73 31 74 32 75 40 76 33 77 34 78 38 79 41 80
REMARK SMILES IDX 35 81 36 82 39 83 37 84 63 85 64 86 72 87 65 88 66 89 70 90
REMARK SMILES IDX 73 91 67 92 68 93 71 94 69 95 48 96 49 97 57 98 50 99 51 100
REMARK SMILES IDX 55 101 58 102 52 103 53 104 56 105 54 106
REMARK H PARENT 14 5 7 15 1 19 1 20 19 40 78 59 46 70
REMARK Flexibility Score: inf
ROOT
ATOM      1  C   UNL     1      -4.727   0.334  -1.215  1.00  0.00     0.116 C 
ENDROOT
BRANCH   1   2
ATOM      2  N   UNL     1      -4.834   0.670   0.200  1.00  0.00    -0.352 N 
ATOM      3  C   UNL     1      -4.001   0.374   1.250  1.00  0.00     0.251 C 
ATOM      4  O   UNL     1      -4.165   0.949   2.324  1.00  0.00    -0.269 OA
ATOM      5  H   UNL     1      -5.632   1.194   0.441  1.00  0.00     0.163 HD
BRANCH   3   6
ATOM      6  C   UNL     1      -2.856  -0.549   1.089  1.00  0.00     0.039 A 
ATOM      7  C   UNL     1      -0.590  -2.092   0.613  1.00  0.00     0.041 A 
ATOM      8  C   UNL     1      -0.502  -0.986   1.455  1.00  0.00     0.027 A 
ATOM      9  C   UNL     1      -1.831  -2.521   0.146  1.00  0.00     0.027 A 
ATOM     10  C   UNL     1      -1.631  -0.193   1.666  1.00  0.00     0.016 A 
ATOM     11  C   UNL     1      -2.970  -1.760   0.403  1.00  0.00     0.016 A 
BRANCH   7  12
ATOM     12  N   UNL     1       0.570  -2.802   0.323  1.00  0.00    -0.325 N 
ATOM     13  C   UNL     1       1.044  -3.263  -0.870  1.00  0.00     0.238 C 
ATOM     14  O   UNL     1       1.848  -4.202  -0.826  1.00  0.00    -0.273 OA
ATOM     15  H   UNL     1       1.137  -3.005   1.101  1.00  0.00     0.169 HD
BRANCH  13  16
ATOM     16  C   UNL     1       0.808  -2.533  -2.207  1.00  0.00     0.160 C 
ATOM     17  N   UNL     1       1.246   0.875  -0.702  1.00  0.00    -0.279 N 
ATOM     18  C   UNL     1       0.710   0.077  -1.560  1.00  0.00     0.338 C 
ATOM     19  H   UNL     1       2.206   0.802  -0.493  1.00  0.00     0.302 HD
ATOM     20  H   UNL     1       0.697   1.559  -0.256  1.00  0.00     0.302 HD
ATOM     21  S   UNL     1       1.808  -1.038  -2.307  1.00  0.00    -0.022 SA
ATOM     22  N   UNL     1      -0.630   0.070  -1.949  1.00  0.00    -0.057 N 
ATOM     23  C   UNL     1      -1.248  -0.972  -2.662  1.00  0.00     0.337 C 
ATOM     24  C   UNL     1      -0.561  -2.322  -2.789  1.00  0.00     0.155 C 
ATOM     25  O   UNL     1      -2.354  -0.861  -3.211  1.00  0.00    -0.244 OA
BRANCH  22  26
ATOM     26  N   UNL     1      -1.512   1.152  -1.706  1.00  0.00    -0.082 NA
ATOM     27  C   UNL     1      -1.091   2.310  -1.319  1.00  0.00     0.167 C 
BRANCH  27  28
ATOM     28  C   UNL     1      -2.017   3.457  -1.214  1.00  0.00    -0.003 A 
ATOM     29  C   UNL     1      -1.850   4.508  -2.120  1.00  0.00     0.011 A 
ATOM     30  C   UNL     1      -2.998   3.529  -0.225  1.00  0.00     0.011 A 
ATOM     31  C   UNL     1      -2.691   5.622  -2.053  1.00  0.00     0.021 A 
ATOM     32  C   UNL     1      -3.845   4.641  -0.165  1.00  0.00     0.021 A 
ATOM     33  C   UNL     1      -3.689   5.681  -1.081  1.00  0.00     0.041 A 
ATOM     34  Cl  UNL     1      -4.728   7.051  -1.009  1.00  0.00    -0.084 Cl
ENDBRANCH  27  28
ENDBRANCH  22  26
ENDBRANCH  13  16
ENDBRANCH   7  12
ENDBRANCH   3   6
ENDBRANCH   1   2
BRANCH   1  35
ATOM     35  C   UNL     1      -6.048  -0.223  -1.737  1.00  0.00     0.023 C 
BRANCH  35  36
ATOM     36  C   UNL     1      -7.079   0.868  -2.037  1.00  0.00     0.023 C 
BRANCH  36  37
ATOM     37  C   UNL     1      -6.761   1.700  -3.279  1.00  0.00     0.116 C 
BRANCH  37  38
ATOM     38  N   UNL     1      -6.824   0.912  -4.503  1.00  0.00    -0.352 N 
ATOM     39  C   UNL     1      -7.680   1.004  -5.569  1.00  0.00     0.251 C 
ATOM     40  H   UNL     1      -6.145   0.202  -4.575  1.00  0.00     0.163 HD
ATOM     41  O   UNL     1      -7.709   0.110  -6.416  1.00  0.00    -0.269 OA
BRANCH  39  42
ATOM     42  C   UNL     1      -8.585   2.164  -5.708  1.00  0.00     0.039 A 
ATOM     43  C   UNL     1      -9.907   1.949  -6.106  1.00  0.00     0.014 A 
ATOM     44  C   UNL     1      -8.130   3.465  -5.473  1.00  0.00     0.014 A 
ATOM     45  C   UNL     1     -10.789   3.028  -6.200  1.00  0.00     0.010 A 
ATOM     46  C   UNL     1      -9.030   4.529  -5.489  1.00  0.00     0.010 A 
ATOM     47  C   UNL     1     -10.369   4.323  -5.853  1.00  0.00    -0.014 A 
BRANCH  47  48
ATOM     48  C   UNL     1     -11.318   5.467  -5.855  1.00  0.00     0.031 A 
ATOM     49  C   UNL     1     -11.101   6.634  -6.780  1.00  0.00     0.074 A 
ATOM     50  C   UNL     1     -12.340   5.486  -4.976  1.00  0.00     0.049 A 
ATOM     51  N   UNL     1     -11.776   7.752  -6.874  1.00  0.00    -0.248 NA
ATOM     52  C   UNL     1      -9.961   6.544  -7.706  1.00  0.00     0.031 C 
ATOM     53  C   UNL     1     -12.629   4.439  -3.994  1.00  0.00     0.029 A 
ATOM     54  N   UNL     1     -13.316   6.425  -4.753  1.00  0.00    -0.354 N 
ATOM     55  C   UNL     1     -11.135   8.502  -7.852  1.00  0.00     0.074 A 
ATOM     56  C   UNL     1      -9.990   7.734  -8.291  1.00  0.00     0.031 C 
ATOM     57  C   UNL     1     -13.716   4.786  -3.287  1.00  0.00     0.029 A 
ATOM     58  C   UNL     1     -14.176   6.097  -3.732  1.00  0.00     0.049 A 
ATOM     59  H   UNL     1     -13.394   7.256  -5.276  1.00  0.00     0.167 HD
ATOM     60  C   UNL     1     -11.482   9.712  -8.351  1.00  0.00     0.037 A 
ATOM     61  C   UNL     1     -15.207   6.784  -3.202  1.00  0.00     0.037 A 
ATOM     62  C   UNL     1     -12.638  10.461  -7.933  1.00  0.00     0.049 A 
ATOM     63  C   UNL     1     -15.564   8.130  -3.775  1.00  0.00     0.074 A 
ATOM     64  C   UNL     1     -13.112  11.662  -8.431  1.00  0.00     0.029 A 
ATOM     65  N   UNL     1     -13.498  10.084  -6.912  1.00  0.00    -0.354 N 
ATOM     66  N   UNL     1     -14.998   8.790  -4.756  1.00  0.00    -0.248 NA
ATOM     67  C   UNL     1     -16.710   8.825  -3.172  1.00  0.00     0.031 C 
ATOM     68  C   UNL     1     -14.223  12.043  -7.673  1.00  0.00     0.029 A 
ATOM     69  C   UNL     1     -14.482  11.046  -6.747  1.00  0.00     0.049 A 
ATOM     70  H   UNL     1     -13.421   9.257  -6.384  1.00  0.00     0.167 HD
ATOM     71  C   UNL     1     -15.737   9.955  -4.910  1.00  0.00     0.074 A 
ATOM     72  C   UNL     1     -16.804   9.905  -3.933  1.00  0.00     0.031 C 
ATOM     73  C   UNL     1     -15.549  10.976  -5.781  1.00  0.00     0.037 A 
BRANCH  60  74
ATOM     74  C   UNL     1     -10.606  10.313  -9.413  1.00  0.00     0.064 A 
ATOM     75  C   UNL     1     -10.553   9.786 -10.712  1.00  0.00     0.173 A 
ATOM     76  C   UNL     1      -9.870  11.479  -9.148  1.00  0.00     0.173 A 
ATOM     77  F   UNL     1     -11.232   8.669 -11.016  1.00  0.00    -0.203 F 
ATOM     78  C   UNL     1      -9.783  10.393 -11.701  1.00  0.00     0.198 A 
ATOM     79  C   UNL     1      -9.125  12.100 -10.148  1.00  0.00     0.198 A 
ATOM     80  F   UNL     1      -9.890  12.029  -7.925  1.00  0.00    -0.203 F 
ATOM     81  F   UNL     1      -9.719   9.851 -12.925  1.00  0.00    -0.200 F 
ATOM     82  C   UNL     1      -9.079  11.554 -11.421  1.00  0.00     0.200 A 
ATOM     83  F   UNL     1      -8.459  13.232  -9.880  1.00  0.00    -0.200 F 
ATOM     84  F   UNL     1      -8.353  12.147 -12.379  1.00  0.00    -0.200 F 
ENDBRANCH  60  74
BRANCH  61  85
ATOM     85  C   UNL     1     -15.980   6.216  -2.064  1.00  0.00     0.064 A 
ATOM     86  C   UNL     1     -17.326   5.852  -2.213  1.00  0.00     0.173 A 
ATOM     87  C   UNL     1     -15.402   6.061  -0.795  1.00  0.00     0.173 A 
ATOM     88  F   UNL     1     -17.932   6.000  -3.401  1.00  0.00    -0.203 F 
ATOM     89  C   UNL     1     -18.073   5.391  -1.131  1.00  0.00     0.198 A 
ATOM     90  C   UNL     1     -16.140   5.566   0.278  1.00  0.00     0.198 A 
ATOM     91  F   UNL     1     -14.117   6.389  -0.598  1.00  0.00    -0.203 F 
ATOM     92  F   UNL     1     -19.374   5.114  -1.288  1.00  0.00    -0.200 F 
ATOM     93  C   UNL     1     -17.478   5.244   0.113  1.00  0.00     0.200 A 
ATOM     94  F   UNL     1     -15.556   5.410   1.474  1.00  0.00    -0.200 F 
ATOM     95  F   UNL     1     -18.197   4.805   1.155  1.00  0.00    -0.200 F 
ENDBRANCH  61  85
BRANCH  73  96
ATOM     96  C   UNL     1     -16.544  12.101  -5.756  1.00  0.00     0.064 A 
ATOM     97  C   UNL     1     -16.608  13.010  -4.689  1.00  0.00     0.173 A 
ATOM     98  C   UNL     1     -17.418  12.296  -6.837  1.00  0.00     0.173 A 
ATOM     99  F   UNL     1     -15.804  12.861  -3.626  1.00  0.00    -0.203 F 
ATOM    100  C   UNL     1     -17.530  14.054  -4.692  1.00  0.00     0.198 A 
ATOM    101  C   UNL     1     -18.314  13.361  -6.853  1.00  0.00     0.198 A 
ATOM    102  F   UNL     1     -17.393  11.461  -7.886  1.00  0.00    -0.203 F 
ATOM    103  F   UNL     1     -17.609  14.878  -3.639  1.00  0.00    -0.200 F 
ATOM    104  C   UNL     1     -18.375  14.234  -5.777  1.00  0.00     0.200 A 
ATOM    105  F   UNL     1     -19.117  13.543  -7.910  1.00  0.00    -0.200 F 
ATOM    106  F   UNL     1     -19.255  15.245  -5.783  1.00  0.00    -0.200 F 
ENDBRANCH  73  96
ENDBRANCH  47  48
ENDBRANCH  39  42
ENDBRANCH  37  38
ENDBRANCH  36  37
ENDBRANCH  35  36
ENDBRANCH   1  35
TORSDOF 15
