REMARK SMILES Cc1ccccc1-c1c(Cl)ccc2c1C=C(C(=O)NCCCCNC(=O)c1ccc(-c3c4nc(c(-c5c(F)c(F)c(F)c(F)c5F)c5ccc([nH]5)c(-c5c(F)c(F)c(F)c(F)c5F)c5nc(c(-c6c(F)c(F)c(F)c(F)c6F)c6ccc3[nH]6)C=C5)C=C4)cc1)[C@@H](C(F)(F)F)O2
REMARK SMILES IDX 22 1 21 2 20 3 19 4 17 5 18 6 16 8 8 9 9 10 14 11 10 12
REMARK SMILES IDX 11 13 13 14 15 15 12 16 95 17 90 18 7 19 1 20 2 21 3 22 4 23
REMARK SMILES IDX 6 24 5 25 91 26 92 27 93 28 94 29 23 30 24 31 25 32 26 34
REMARK SMILES IDX 27 35 28 36 89 37 29 38 88 39 30 40 31 41 32 42 82 43 33 44
REMARK SMILES IDX 87 45 81 46 83 47 34 48 86 49 80 50 79 51 35 53 67 54 47 55
REMARK SMILES IDX 66 56 48 57 51 58 65 59 84 60 49 61 50 62 64 64 85 65 52 66
REMARK SMILES IDX 36 67 37 68 45 69 38 70 39 71 43 72 46 73 40 74 41 75 44 76
REMARK SMILES IDX 42 77 68 78 69 79 77 80 70 81 71 82 75 83 78 84 72 85 73 86
REMARK SMILES IDX 76 87 74 88 53 89 54 90 62 91 55 92 56 93 60 94 63 95 57 96
REMARK SMILES IDX 58 97 61 98 59 99
REMARK H PARENT 19 7 24 33 83 52 51 63
REMARK Flexibility Score: inf
ROOT
ATOM      1  C   UNL     1       7.372  -1.564  -2.749  1.00  0.00     0.023 C 
ENDROOT
BRANCH   1   2
ATOM      2  C   UNL     1       5.900  -1.379  -3.134  1.00  0.00     0.023 C 
BRANCH   2   3
ATOM      3  C   UNL     1       5.046  -0.565  -2.155  1.00  0.00     0.116 C 
BRANCH   3   4
ATOM      4  N   UNL     1       5.586   0.756  -1.909  1.00  0.00    -0.352 N 
ATOM      5  C   UNL     1       5.092   2.000  -2.133  1.00  0.00     0.251 C 
ATOM      6  O   UNL     1       5.842   2.949  -1.905  1.00  0.00    -0.270 OA
ATOM      7  H   UNL     1       6.483   0.751  -1.503  1.00  0.00     0.163 HD
BRANCH   5   8
ATOM      8  C   UNL     1       3.697   2.227  -2.656  1.00  0.00     0.067 C 
ATOM      9  C   UNL     1       1.192   2.424   0.106  1.00  0.00     0.012 A 
ATOM     10  C   UNL     1       0.894   3.402   1.089  1.00  0.00     0.049 A 
ATOM     11  C   UNL     1       2.103   2.788  -0.920  1.00  0.00     0.027 A 
ATOM     12  Cl  UNL     1      -0.092   3.045   2.472  1.00  0.00    -0.084 Cl
ATOM     13  C   UNL     1       1.395   4.705   1.002  1.00  0.00     0.025 A 
ATOM     14  C   UNL     1       2.527   4.126  -1.037  1.00  0.00     0.128 A 
ATOM     15  C   UNL     1       2.732   1.800  -1.819  1.00  0.00     0.026 C 
ATOM     16  C   UNL     1       2.182   5.075  -0.080  1.00  0.00     0.049 A 
ATOM     17  O   UNL     1       3.306   4.593  -2.066  1.00  0.00    -0.475 OA
ATOM     18  C   UNL     1       3.562   3.664  -3.144  1.00  0.00     0.314 C 
BRANCH   9  19
ATOM     19  C   UNL     1       0.468   1.126   0.096  1.00  0.00    -0.013 A 
ATOM     20  C   UNL     1       2.509  -0.318   0.663  1.00  0.00     0.045 C 
ATOM     21  C   UNL     1       1.052  -0.131   0.353  1.00  0.00    -0.043 A 
ATOM     22  C   UNL     1       0.257  -1.294   0.284  1.00  0.00     0.004 A 
ATOM     23  C   UNL     1      -1.105  -1.224  -0.001  1.00  0.00     0.000 A 
ATOM     24  C   UNL     1      -0.915   1.163  -0.200  1.00  0.00     0.009 A 
ATOM     25  C   UNL     1      -1.695   0.008  -0.237  1.00  0.00     0.001 A 
ENDBRANCH   9  19
BRANCH  18  26
ATOM     26  C   UNL     1       2.508   3.776  -4.259  1.00  0.00     0.429 C 
ATOM     27  F   UNL     1       2.481   5.019  -4.795  1.00  0.00    -0.167 F 
ATOM     28  F   UNL     1       2.785   2.918  -5.274  1.00  0.00    -0.167 F 
ATOM     29  F   UNL     1       1.255   3.493  -3.834  1.00  0.00    -0.167 F 
ENDBRANCH  18  26
ENDBRANCH   5   8
ENDBRANCH   3   4
ENDBRANCH   2   3
ENDBRANCH   1   2
BRANCH   1  30
ATOM     30  C   UNL     1       7.623  -2.353  -1.468  1.00  0.00     0.116 C 
BRANCH  30  31
ATOM     31  N   UNL     1       7.650  -3.799  -1.633  1.00  0.00    -0.352 N 
ATOM     32  C   UNL     1       7.800  -4.807  -0.693  1.00  0.00     0.251 C 
ATOM     33  H   UNL     1       7.545  -4.111  -2.561  1.00  0.00     0.163 HD
ATOM     34  O   UNL     1       7.896  -5.965  -1.066  1.00  0.00    -0.269 OA
BRANCH  32  35
ATOM     35  C   UNL     1       7.702  -4.511   0.764  1.00  0.00     0.039 A 
ATOM     36  C   UNL     1       7.043  -5.442   1.584  1.00  0.00     0.014 A 
ATOM     37  C   UNL     1       8.081  -3.284   1.293  1.00  0.00     0.014 A 
ATOM     38  C   UNL     1       6.540  -5.041   2.822  1.00  0.00     0.010 A 
ATOM     39  C   UNL     1       7.495  -2.848   2.462  1.00  0.00     0.010 A 
ATOM     40  C   UNL     1       6.662  -3.704   3.188  1.00  0.00    -0.014 A 
BRANCH  40  41
ATOM     41  C   UNL     1       5.846  -3.053   4.204  1.00  0.00     0.031 A 
ATOM     42  C   UNL     1       6.444  -2.545   5.453  1.00  0.00     0.074 A 
ATOM     43  C   UNL     1       4.583  -2.710   3.865  1.00  0.00     0.049 A 
ATOM     44  N   UNL     1       5.767  -2.152   6.478  1.00  0.00    -0.248 NA
ATOM     45  C   UNL     1       7.883  -2.487   5.665  1.00  0.00     0.031 C 
ATOM     46  C   UNL     1       3.735  -1.700   4.489  1.00  0.00     0.029 A 
ATOM     47  N   UNL     1       3.738  -3.357   2.949  1.00  0.00    -0.354 N 
ATOM     48  C   UNL     1       6.633  -1.510   7.336  1.00  0.00     0.074 A 
ATOM     49  C   UNL     1       7.944  -1.854   6.840  1.00  0.00     0.031 C 
ATOM     50  C   UNL     1       2.455  -1.954   4.177  1.00  0.00     0.029 A 
ATOM     51  C   UNL     1       2.436  -3.230   3.483  1.00  0.00     0.049 A 
ATOM     52  H   UNL     1       3.998  -3.806   2.111  1.00  0.00     0.167 HD
ATOM     53  C   UNL     1       6.113  -0.649   8.262  1.00  0.00     0.037 A 
ATOM     54  C   UNL     1       1.732  -4.324   3.898  1.00  0.00     0.037 A 
ATOM     55  C   UNL     1       4.648  -0.753   8.295  1.00  0.00     0.049 A 
ATOM     56  C   UNL     1       1.350  -4.279   5.358  1.00  0.00     0.074 A 
ATOM     57  C   UNL     1       3.631   0.046   7.796  1.00  0.00     0.029 A 
ATOM     58  N   UNL     1       4.054  -1.960   8.658  1.00  0.00    -0.354 N 
ATOM     59  N   UNL     1       1.955  -3.538   6.244  1.00  0.00    -0.248 NA
ATOM     60  C   UNL     1       0.280  -5.084   5.939  1.00  0.00     0.031 C 
ATOM     61  C   UNL     1       2.432  -0.710   7.806  1.00  0.00     0.029 A 
ATOM     62  C   UNL     1       2.712  -1.961   8.330  1.00  0.00     0.049 A 
ATOM     63  H   UNL     1       4.526  -2.709   9.088  1.00  0.00     0.167 HD
ATOM     64  C   UNL     1       1.400  -3.753   7.477  1.00  0.00     0.074 A 
ATOM     65  C   UNL     1       0.345  -4.719   7.231  1.00  0.00     0.031 C 
ATOM     66  C   UNL     1       1.872  -3.122   8.593  1.00  0.00     0.037 A 
BRANCH  53  67
ATOM     67  C   UNL     1       6.870   0.490   8.941  1.00  0.00     0.064 A 
ATOM     68  C   UNL     1       6.165   1.563   9.538  1.00  0.00     0.173 A 
ATOM     69  C   UNL     1       8.270   0.650   8.968  1.00  0.00     0.173 A 
ATOM     70  F   UNL     1       4.835   1.528   9.694  1.00  0.00    -0.203 F 
ATOM     71  C   UNL     1       6.795   2.724  10.006  1.00  0.00     0.198 A 
ATOM     72  C   UNL     1       8.900   1.819   9.414  1.00  0.00     0.198 A 
ATOM     73  F   UNL     1       9.106  -0.325   8.616  1.00  0.00    -0.203 F 
ATOM     74  F   UNL     1       6.059   3.714  10.533  1.00  0.00    -0.200 F 
ATOM     75  C   UNL     1       8.162   2.864   9.918  1.00  0.00     0.200 A 
ATOM     76  F   UNL     1      10.236   1.914   9.348  1.00  0.00    -0.200 F 
ATOM     77  F   UNL     1       8.766   3.983  10.339  1.00  0.00    -0.200 F 
ENDBRANCH  53  67
BRANCH  54  78
ATOM     78  C   UNL     1       2.087  -5.557   3.146  1.00  0.00     0.064 A 
ATOM     79  C   UNL     1       1.837  -5.585   1.760  1.00  0.00     0.173 A 
ATOM     80  C   UNL     1       3.000  -6.487   3.658  1.00  0.00     0.173 A 
ATOM     81  F   UNL     1       0.976  -4.708   1.217  1.00  0.00    -0.203 F 
ATOM     82  C   UNL     1       2.562  -6.416   0.909  1.00  0.00     0.198 A 
ATOM     83  C   UNL     1       3.712  -7.331   2.803  1.00  0.00     0.198 A 
ATOM     84  F   UNL     1       3.296  -6.498   4.965  1.00  0.00    -0.203 F 
ATOM     85  F   UNL     1       2.390  -6.326  -0.418  1.00  0.00    -0.200 F 
ATOM     86  C   UNL     1       3.520  -7.268   1.429  1.00  0.00     0.200 A 
ATOM     87  F   UNL     1       4.664  -8.133   3.300  1.00  0.00    -0.200 F 
ATOM     88  F   UNL     1       4.291  -7.994   0.608  1.00  0.00    -0.200 F 
ENDBRANCH  54  78
BRANCH  66  89
ATOM     89  C   UNL     1       1.523  -3.465  10.023  1.00  0.00     0.064 A 
ATOM     90  C   UNL     1       1.116  -4.741  10.450  1.00  0.00     0.173 A 
ATOM     91  C   UNL     1       1.741  -2.522  11.059  1.00  0.00     0.173 A 
ATOM     92  F   UNL     1       0.997  -5.760   9.589  1.00  0.00    -0.203 F 
ATOM     93  C   UNL     1       0.878  -5.032  11.797  1.00  0.00     0.198 A 
ATOM     94  C   UNL     1       1.562  -2.834  12.406  1.00  0.00     0.198 A 
ATOM     95  F   UNL     1       2.164  -1.277  10.797  1.00  0.00    -0.203 F 
ATOM     96  F   UNL     1       0.449  -6.253  12.144  1.00  0.00    -0.200 F 
ATOM     97  C   UNL     1       1.112  -4.084  12.774  1.00  0.00     0.200 A 
ATOM     98  F   UNL     1       1.848  -1.921  13.345  1.00  0.00    -0.200 F 
ATOM     99  F   UNL     1       0.930  -4.383  14.067  1.00  0.00    -0.200 F 
ENDBRANCH  66  89
ENDBRANCH  40  41
ENDBRANCH  32  35
ENDBRANCH  30  31
ENDBRANCH   1  30
TORSDOF 13
