REMARK SMILES COc1ccccc1NC(=O)[C@H](C)c1nc(CC(=O)NCCCCNC(=O)c2ccc(-c3c4nc(c(-c5c(F)c(F)c(F)c(F)c5F)c5ccc([nH]5)c(-c5c(F)c(F)c(F)c(F)c5F)c5nc(c(-c6c(F)c(F)c(F)c(F)c6F)c6ccc3[nH]6)C=C5)C=C4)cc2)cs1
REMARK SMILES IDX 21 1 20 2 18 3 19 4 17 6 16 7 14 8 15 9 92 10 91 11 12 12
REMARK SMILES IDX 13 13 10 14 9 15 11 17 8 18 3 19 4 20 5 21 7 22 6 23 2 24
REMARK SMILES IDX 1 25 22 26 23 27 24 28 25 29 26 30 27 32 28 33 29 34 90 35
REMARK SMILES IDX 30 36 89 37 31 38 32 39 33 40 83 41 34 42 88 43 82 44 84 45
REMARK SMILES IDX 35 46 87 47 81 48 80 49 36 51 68 52 48 53 67 54 49 55 52 56
REMARK SMILES IDX 66 57 85 58 50 59 51 60 65 62 86 63 53 64 37 65 38 66 46 67
REMARK SMILES IDX 39 68 40 69 44 70 47 71 41 72 42 73 45 74 43 75 69 76 70 77
REMARK SMILES IDX 78 78 71 79 72 80 76 81 79 82 73 83 74 84 77 85 75 86 54 87
REMARK SMILES IDX 55 88 63 89 56 90 57 91 61 92 64 93 58 94 59 95 62 96 60 97
REMARK H PARENT 20 5 9 16 25 31 84 50 52 61
REMARK Flexibility Score: inf
ROOT
ATOM      1  C   UNL     1       5.700   5.588  -5.427  1.00  0.00     0.116 C 
ENDROOT
BRANCH   1   2
ATOM      2  N   UNL     1       4.759   6.692  -5.362  1.00  0.00    -0.356 N 
ATOM      3  C   UNL     1       3.950   7.066  -4.327  1.00  0.00     0.226 C 
ATOM      4  O   UNL     1       3.158   7.993  -4.511  1.00  0.00    -0.275 OA
ATOM      5  H   UNL     1       4.696   7.246  -6.174  1.00  0.00     0.163 HD
BRANCH   3   6
ATOM      6  C   UNL     1       4.069   6.391  -2.976  1.00  0.00     0.157 C 
BRANCH   6   7
ATOM      7  C   UNL     1       3.567   4.988  -2.990  1.00  0.00     0.061 A 
ATOM      8  C   UNL     1       3.907   2.787  -2.867  1.00  0.00     0.105 A 
ATOM      9  N   UNL     1       4.487   3.971  -2.803  1.00  0.00    -0.245 NA
ATOM     10  S   UNL     1       2.205   2.841  -3.101  1.00  0.00    -0.126 S 
ATOM     11  C   UNL     1       2.268   4.554  -3.166  1.00  0.00     0.091 A 
BRANCH   8  12
ATOM     12  C   UNL     1       4.699   1.523  -2.660  1.00  0.00     0.135 C 
ATOM     13  C   UNL     1       4.326   0.780  -1.384  1.00  0.00     0.026 C 
BRANCH  12  14
ATOM     14  C   UNL     1       4.670   0.583  -3.848  1.00  0.00     0.234 C 
ATOM     15  N   UNL     1       5.782  -0.099  -4.259  1.00  0.00    -0.322 N 
ATOM     16  H   UNL     1       5.581  -0.710  -5.005  1.00  0.00     0.170 HD
ATOM     17  O   UNL     1       3.632   0.364  -4.483  1.00  0.00    -0.274 OA
BRANCH  15  18
ATOM     18  C   UNL     1       7.144  -0.153  -3.890  1.00  0.00     0.083 A 
ATOM     19  C   UNL     1       8.002  -0.817  -4.790  1.00  0.00     0.142 A 
ATOM     20  C   UNL     1       9.380  -0.896  -4.573  1.00  0.00     0.048 A 
ATOM     21  C   UNL     1       9.935  -0.289  -3.452  1.00  0.00     0.004 A 
ATOM     22  C   UNL     1       7.716   0.388  -2.738  1.00  0.00     0.030 A 
ATOM     23  C   UNL     1       9.102   0.340  -2.532  1.00  0.00     0.002 A 
BRANCH  19  24
ATOM     24  O   UNL     1       7.471  -1.482  -5.870  1.00  0.00    -0.495 OA
ATOM     25  C   UNL     1       7.551  -0.693  -7.058  1.00  0.00     0.278 C 
ENDBRANCH  19  24
ENDBRANCH  15  18
ENDBRANCH  12  14
ENDBRANCH   8  12
ENDBRANCH   6   7
ENDBRANCH   3   6
ENDBRANCH   1   2
BRANCH   1  26
ATOM     26  C   UNL     1       5.111   4.377  -6.153  1.00  0.00     0.023 C 
BRANCH  26  27
ATOM     27  C   UNL     1       4.774   4.612  -7.628  1.00  0.00     0.023 C 
BRANCH  27  28
ATOM     28  C   UNL     1       5.938   5.069  -8.500  1.00  0.00     0.116 C 
BRANCH  28  29
ATOM     29  N   UNL     1       7.026   4.104  -8.550  1.00  0.00    -0.352 N 
ATOM     30  C   UNL     1       7.731   3.647  -9.640  1.00  0.00     0.251 C 
ATOM     31  H   UNL     1       7.296   3.724  -7.682  1.00  0.00     0.163 HD
ATOM     32  O   UNL     1       8.526   2.724  -9.520  1.00  0.00    -0.269 OA
BRANCH  30  33
ATOM     33  C   UNL     1       7.486   4.249 -10.971  1.00  0.00     0.039 A 
ATOM     34  C   UNL     1       7.254   3.403 -12.059  1.00  0.00     0.014 A 
ATOM     35  C   UNL     1       7.440   5.636 -11.136  1.00  0.00     0.014 A 
ATOM     36  C   UNL     1       6.879   3.946 -13.290  1.00  0.00     0.010 A 
ATOM     37  C   UNL     1       7.006   6.173 -12.345  1.00  0.00     0.010 A 
ATOM     38  C   UNL     1       6.700   5.332 -13.427  1.00  0.00    -0.014 A 
BRANCH  38  39
ATOM     39  C   UNL     1       6.137   5.922 -14.668  1.00  0.00     0.031 A 
ATOM     40  C   UNL     1       6.960   6.854 -15.509  1.00  0.00     0.074 A 
ATOM     41  C   UNL     1       4.846   5.694 -14.981  1.00  0.00     0.049 A 
ATOM     42  N   UNL     1       6.603   7.561 -16.552  1.00  0.00    -0.248 NA
ATOM     43  C   UNL     1       8.364   7.033 -15.113  1.00  0.00     0.031 C 
ATOM     44  C   UNL     1       3.929   4.842 -14.221  1.00  0.00     0.029 A 
ATOM     45  N   UNL     1       4.073   6.178 -16.008  1.00  0.00    -0.354 N 
ATOM     46  C   UNL     1       7.730   8.279 -16.925  1.00  0.00     0.074 A 
ATOM     47  C   UNL     1       8.773   7.953 -15.975  1.00  0.00     0.031 C 
ATOM     48  C   UNL     1       2.723   4.857 -14.810  1.00  0.00     0.029 A 
ATOM     49  C   UNL     1       2.767   5.752 -15.962  1.00  0.00     0.049 A 
ATOM     50  H   UNL     1       4.421   6.773 -16.711  1.00  0.00     0.167 HD
ATOM     51  C   UNL     1       7.884   9.120 -17.976  1.00  0.00     0.037 A 
ATOM     52  C   UNL     1       1.718   6.065 -16.746  1.00  0.00     0.037 A 
ATOM     53  C   UNL     1       6.853   9.422 -18.933  1.00  0.00     0.049 A 
ATOM     54  C   UNL     1       1.909   7.025 -17.888  1.00  0.00     0.074 A 
ATOM     55  C   UNL     1       6.939  10.197 -20.078  1.00  0.00     0.029 A 
ATOM     56  N   UNL     1       5.544   8.970 -18.855  1.00  0.00    -0.354 N 
ATOM     57  N   UNL     1       2.999   7.642 -18.274  1.00  0.00    -0.248 NA
ATOM     58  C   UNL     1       0.724   7.337 -18.699  1.00  0.00     0.031 C 
ATOM     59  C   UNL     1       5.671  10.252 -20.666  1.00  0.00     0.029 A 
ATOM     60  C   UNL     1       4.805   9.477 -19.912  1.00  0.00     0.049 A 
ATOM     61  H   UNL     1       5.192   8.377 -18.152  1.00  0.00     0.167 HD
ATOM     62  C   UNL     1       2.637   8.399 -19.379  1.00  0.00     0.074 A 
ATOM     63  C   UNL     1       1.230   8.153 -19.613  1.00  0.00     0.031 C 
ATOM     64  C   UNL     1       3.404   9.226 -20.131  1.00  0.00     0.037 A 
BRANCH  51  65
ATOM     65  C   UNL     1       9.221   9.777 -18.149  1.00  0.00     0.064 A 
ATOM     66  C   UNL     1      10.345   9.053 -18.575  1.00  0.00     0.173 A 
ATOM     67  C   UNL     1       9.370  11.155 -17.935  1.00  0.00     0.173 A 
ATOM     68  F   UNL     1      10.257   7.731 -18.784  1.00  0.00    -0.203 F 
ATOM     69  C   UNL     1      11.574   9.681 -18.756  1.00  0.00     0.198 A 
ATOM     70  C   UNL     1      10.594  11.785 -18.143  1.00  0.00     0.198 A 
ATOM     71  F   UNL     1       8.324  11.894 -17.534  1.00  0.00    -0.203 F 
ATOM     72  F   UNL     1      12.644   8.962 -19.123  1.00  0.00    -0.200 F 
ATOM     73  C   UNL     1      11.696  11.046 -18.547  1.00  0.00     0.200 A 
ATOM     74  F   UNL     1      10.708  13.106 -17.953  1.00  0.00    -0.200 F 
ATOM     75  F   UNL     1      12.879  11.650 -18.730  1.00  0.00    -0.200 F 
ENDBRANCH  51  65
BRANCH  52  76
ATOM     76  C   UNL     1       0.386   5.464 -16.475  1.00  0.00     0.064 A 
ATOM     77  C   UNL     1      -0.160   4.510 -17.343  1.00  0.00     0.173 A 
ATOM     78  C   UNL     1      -0.365   5.829 -15.349  1.00  0.00     0.173 A 
ATOM     79  F   UNL     1       0.511   4.147 -18.446  1.00  0.00    -0.203 F 
ATOM     80  C   UNL     1      -1.415   3.954 -17.103  1.00  0.00     0.198 A 
ATOM     81  C   UNL     1      -1.608   5.254 -15.096  1.00  0.00     0.198 A 
ATOM     82  F   UNL     1       0.115   6.738 -14.487  1.00  0.00    -0.203 F 
ATOM     83  F   UNL     1      -1.932   3.073 -17.971  1.00  0.00    -0.200 F 
ATOM     84  C   UNL     1      -2.135   4.321 -15.977  1.00  0.00     0.200 A 
ATOM     85  F   UNL     1      -2.296   5.603 -14.000  1.00  0.00    -0.200 F 
ATOM     86  F   UNL     1      -3.340   3.783 -15.744  1.00  0.00    -0.200 F 
ENDBRANCH  52  76
BRANCH  64  87
ATOM     87  C   UNL     1       2.743   9.918 -21.285  1.00  0.00     0.064 A 
ATOM     88  C   UNL     1       1.864  10.992 -21.087  1.00  0.00     0.173 A 
ATOM     89  C   UNL     1       3.033   9.539 -22.605  1.00  0.00     0.173 A 
ATOM     90  F   UNL     1       1.541  11.379 -19.843  1.00  0.00    -0.203 F 
ATOM     91  C   UNL     1       1.288  11.654 -22.168  1.00  0.00     0.198 A 
ATOM     92  C   UNL     1       2.477  10.220 -23.683  1.00  0.00     0.198 A 
ATOM     93  F   UNL     1       3.872   8.520 -22.846  1.00  0.00    -0.203 F 
ATOM     94  F   UNL     1       0.424  12.656 -21.955  1.00  0.00    -0.200 F 
ATOM     95  C   UNL     1       1.602  11.274 -23.465  1.00  0.00     0.200 A 
ATOM     96  F   UNL     1       2.789   9.858 -24.936  1.00  0.00    -0.200 F 
ATOM     97  F   UNL     1       1.057  11.920 -24.504  1.00  0.00    -0.200 F 
ENDBRANCH  64  87
ENDBRANCH  38  39
ENDBRANCH  30  33
ENDBRANCH  28  29
ENDBRANCH  27  28
ENDBRANCH  26  27
ENDBRANCH   1  26
TORSDOF 16
