REMARK SMILES Cc1cccc(C)c1Nc1ccccc1CC(=O)NCCCCNC(=O)c1ccc(-c2c3nc(c(-c4c(F)c(F)c(F)c(F)c4F)c4ccc([nH]4)c(-c4c(F)c(F)c(F)c(F)c4F)c4nc(c(-c5c(F)c(F)c(F)c(F)c5F)c5ccc2[nH]5)C=C4)C=C3)cc1
REMARK SMILES IDX 21 1 20 2 19 3 17 4 18 5 16 7 15 8 10 9 11 10 12 11 14 12
REMARK SMILES IDX 13 13 9 14 8 16 1 17 2 18 3 19 4 20 6 21 5 22 7 23 22 24
REMARK SMILES IDX 23 25 24 26 25 27 26 29 27 30 28 31 89 32 29 33 88 34 30 35
REMARK SMILES IDX 31 36 32 37 82 38 33 39 87 40 81 41 83 42 34 43 86 44 80 45
REMARK SMILES IDX 79 46 35 48 67 49 47 50 66 51 48 52 51 53 65 54 84 55 49 56
REMARK SMILES IDX 50 57 64 59 85 60 52 61 36 62 37 63 45 64 38 65 39 66 43 67
REMARK SMILES IDX 46 68 40 69 41 70 44 71 42 72 68 73 69 74 77 75 70 76 71 77
REMARK SMILES IDX 75 78 78 79 72 80 73 81 76 82 74 83 53 84 54 85 62 86 55 87
REMARK SMILES IDX 56 88 60 89 63 90 57 91 58 92 61 93 59 94
REMARK H PARENT 19 6 9 15 24 28 83 47 51 58
REMARK Flexibility Score: inf
ROOT
ATOM      1  C   UNL     1       0.220   5.370   2.272  1.00  0.00     0.023 C 
ENDROOT
BRANCH   1   2
ATOM      2  C   UNL     1       0.471   3.960   2.807  1.00  0.00     0.116 C 
BRANCH   2   3
ATOM      3  N   UNL     1      -0.534   3.581   3.777  1.00  0.00    -0.356 N 
ATOM      4  C   UNL     1      -1.677   2.864   3.559  1.00  0.00     0.224 C 
ATOM      5  O   UNL     1      -2.489   2.763   4.481  1.00  0.00    -0.275 OA
ATOM      6  H   UNL     1      -0.376   3.875   4.703  1.00  0.00     0.163 HD
BRANCH   4   7
ATOM      7  C   UNL     1      -1.891   2.170   2.223  1.00  0.00     0.137 C 
BRANCH   7   8
ATOM      8  C   UNL     1      -2.180   3.108   1.067  1.00  0.00    -0.015 A 
ATOM      9  C   UNL     1      -1.386   3.163  -0.100  1.00  0.00     0.042 A 
ATOM     10  C   UNL     1      -1.666   4.153  -1.061  1.00  0.00     0.026 A 
ATOM     11  C   UNL     1      -2.728   5.042  -0.904  1.00  0.00     0.002 A 
ATOM     12  C   UNL     1      -3.269   3.996   1.196  1.00  0.00     0.006 A 
ATOM     13  C   UNL     1      -3.540   4.953   0.219  1.00  0.00     0.000 A 
BRANCH   9  14
ATOM     14  N   UNL     1      -0.349   2.259  -0.407  1.00  0.00    -0.355 N 
ATOM     15  H   UNL     1       0.466   2.696  -0.743  1.00  0.00     0.167 HD
BRANCH  14  16
ATOM     16  C   UNL     1      -0.244   0.850  -0.330  1.00  0.00     0.044 A 
ATOM     17  C   UNL     1       2.285   1.138  -0.025  1.00  0.00     0.046 C 
ATOM     18  C   UNL     1       1.043   0.286  -0.110  1.00  0.00    -0.027 A 
ATOM     19  C   UNL     1       1.186  -1.101   0.064  1.00  0.00     0.005 A 
ATOM     20  C   UNL     1       0.078  -1.936   0.028  1.00  0.00     0.001 A 
ATOM     21  C   UNL     1      -1.357  -0.018  -0.416  1.00  0.00    -0.027 A 
ATOM     22  C   UNL     1      -1.181  -1.399  -0.208  1.00  0.00     0.005 A 
ATOM     23  C   UNL     1      -2.751   0.441  -0.759  1.00  0.00     0.046 C 
ENDBRANCH  14  16
ENDBRANCH   9  14
ENDBRANCH   7   8
ENDBRANCH   4   7
ENDBRANCH   2   3
ENDBRANCH   1   2
BRANCH   1  24
ATOM     24  C   UNL     1       0.428   6.478   3.305  1.00  0.00     0.023 C 
BRANCH  24  25
ATOM     25  C   UNL     1       1.805   6.490   3.949  1.00  0.00     0.116 C 
BRANCH  25  26
ATOM     26  N   UNL     1       2.882   6.619   2.980  1.00  0.00    -0.352 N 
ATOM     27  C   UNL     1       4.054   7.322   3.094  1.00  0.00     0.251 C 
ATOM     28  H   UNL     1       2.752   6.138   2.130  1.00  0.00     0.163 HD
ATOM     29  O   UNL     1       4.803   7.444   2.130  1.00  0.00    -0.269 OA
BRANCH  27  30
ATOM     30  C   UNL     1       4.390   7.962   4.381  1.00  0.00     0.039 A 
ATOM     31  C   UNL     1       4.834   9.285   4.378  1.00  0.00     0.014 A 
ATOM     32  C   UNL     1       4.244   7.267   5.586  1.00  0.00     0.014 A 
ATOM     33  C   UNL     1       5.087   9.927   5.590  1.00  0.00     0.010 A 
ATOM     34  C   UNL     1       4.413   7.935   6.793  1.00  0.00     0.010 A 
ATOM     35  C   UNL     1       4.852   9.266   6.808  1.00  0.00    -0.014 A 
BRANCH  35  36
ATOM     36  C   UNL     1       5.087   9.957   8.100  1.00  0.00     0.031 A 
ATOM     37  C   UNL     1       6.149   9.460   9.041  1.00  0.00     0.074 A 
ATOM     38  C   UNL     1       4.323  11.014   8.437  1.00  0.00     0.049 A 
ATOM     39  N   UNL     1       6.513   9.938  10.205  1.00  0.00    -0.248 NA
ATOM     40  C   UNL     1       6.883   8.251   8.636  1.00  0.00     0.031 C 
ATOM     41  C   UNL     1       3.222  11.551   7.636  1.00  0.00     0.029 A 
ATOM     42  N   UNL     1       4.360  11.829   9.540  1.00  0.00    -0.354 N 
ATOM     43  C   UNL     1       7.510   9.088  10.667  1.00  0.00     0.074 A 
ATOM     44  C   UNL     1       7.644   8.026   9.695  1.00  0.00     0.031 C 
ATOM     45  C   UNL     1       2.715  12.630   8.253  1.00  0.00     0.029 A 
ATOM     46  C   UNL     1       3.432  12.841   9.507  1.00  0.00     0.049 A 
ATOM     47  H   UNL     1       4.992  11.700  10.284  1.00  0.00     0.167 HD
ATOM     48  C   UNL     1       8.268   9.200  11.784  1.00  0.00     0.037 A 
ATOM     49  C   UNL     1       3.194  13.831  10.387  1.00  0.00     0.037 A 
ATOM     50  C   UNL     1       8.140  10.267  12.742  1.00  0.00     0.049 A 
ATOM     51  C   UNL     1       4.051  13.933  11.621  1.00  0.00     0.074 A 
ATOM     52  C   UNL     1       8.886  10.498  13.883  1.00  0.00     0.029 A 
ATOM     53  N   UNL     1       7.196  11.282  12.670  1.00  0.00    -0.354 N 
ATOM     54  N   UNL     1       5.043  13.169  12.009  1.00  0.00    -0.248 NA
ATOM     55  C   UNL     1       3.764  15.050  12.530  1.00  0.00     0.031 C 
ATOM     56  C   UNL     1       8.362  11.623  14.529  1.00  0.00     0.029 A 
ATOM     57  C   UNL     1       7.329  12.131  13.757  1.00  0.00     0.049 A 
ATOM     58  H   UNL     1       6.529  11.384  11.952  1.00  0.00     0.167 HD
ATOM     59  C   UNL     1       5.520  13.730  13.186  1.00  0.00     0.074 A 
ATOM     60  C   UNL     1       4.721  14.912  13.435  1.00  0.00     0.031 C 
ATOM     61  C   UNL     1       6.529  13.307  13.988  1.00  0.00     0.037 A 
BRANCH  48  62
ATOM     62  C   UNL     1       9.306   8.141  12.024  1.00  0.00     0.064 A 
ATOM     63  C   UNL     1      10.436   8.015  11.199  1.00  0.00     0.173 A 
ATOM     64  C   UNL     1       9.185   7.254  13.104  1.00  0.00     0.173 A 
ATOM     65  F   UNL     1      10.595   8.829  10.144  1.00  0.00    -0.203 F 
ATOM     66  C   UNL     1      11.384   7.021  11.425  1.00  0.00     0.198 A 
ATOM     67  C   UNL     1      10.154   6.283  13.349  1.00  0.00     0.198 A 
ATOM     68  F   UNL     1       8.129   7.330  13.928  1.00  0.00    -0.203 F 
ATOM     69  F   UNL     1      12.422   6.885  10.589  1.00  0.00    -0.200 F 
ATOM     70  C   UNL     1      11.247   6.161  12.504  1.00  0.00     0.200 A 
ATOM     71  F   UNL     1      10.027   5.462  14.400  1.00  0.00    -0.200 F 
ATOM     72  F   UNL     1      12.163   5.209  12.725  1.00  0.00    -0.200 F 
ENDBRANCH  48  62
BRANCH  49  73
ATOM     73  C   UNL     1       2.128  14.831  10.115  1.00  0.00     0.064 A 
ATOM     74  C   UNL     1       2.448  16.168   9.835  1.00  0.00     0.173 A 
ATOM     75  C   UNL     1       0.771  14.478  10.143  1.00  0.00     0.173 A 
ATOM     76  F   UNL     1       3.731  16.559   9.815  1.00  0.00    -0.203 F 
ATOM     77  C   UNL     1       1.452  17.118   9.624  1.00  0.00     0.198 A 
ATOM     78  C   UNL     1      -0.224  15.423   9.900  1.00  0.00     0.198 A 
ATOM     79  F   UNL     1       0.411  13.212  10.399  1.00  0.00    -0.203 F 
ATOM     80  F   UNL     1       1.785  18.399   9.414  1.00  0.00    -0.200 F 
ATOM     81  C   UNL     1       0.117  16.744   9.651  1.00  0.00     0.200 A 
ATOM     82  F   UNL     1      -1.512  15.054   9.911  1.00  0.00    -0.200 F 
ATOM     83  F   UNL     1      -0.841  17.658   9.447  1.00  0.00    -0.200 F 
ENDBRANCH  49  73
BRANCH  61  84
ATOM     84  C   UNL     1       6.853  14.158  15.184  1.00  0.00     0.064 A 
ATOM     85  C   UNL     1       5.976  14.272  16.274  1.00  0.00     0.173 A 
ATOM     86  C   UNL     1       8.065  14.864  15.242  1.00  0.00     0.173 A 
ATOM     87  F   UNL     1       4.800  13.627  16.265  1.00  0.00    -0.203 F 
ATOM     88  C   UNL     1       6.278  15.099  17.353  1.00  0.00     0.198 A 
ATOM     89  C   UNL     1       8.380  15.660  16.340  1.00  0.00     0.198 A 
ATOM     90  F   UNL     1       8.945  14.782  14.233  1.00  0.00    -0.203 F 
ATOM     91  F   UNL     1       5.393  15.249  18.348  1.00  0.00    -0.200 F 
ATOM     92  C   UNL     1       7.482  15.788  17.387  1.00  0.00     0.200 A 
ATOM     93  F   UNL     1       9.551  16.311  16.379  1.00  0.00    -0.200 F 
ATOM     94  F   UNL     1       7.769  16.585  18.425  1.00  0.00    -0.200 F 
ENDBRANCH  61  84
ENDBRANCH  35  36
ENDBRANCH  27  30
ENDBRANCH  25  26
ENDBRANCH  24  25
ENDBRANCH   1  24
TORSDOF 14
