REMARK SMILES CC1=C2C(=O)CC(C)(C)CC2=N[C@@H]1C(=O)NCCCCNC(=O)c1ccc(-c2c3nc(c(-c4c(F)c(F)c(F)c(F)c4F)c4ccc([nH]4)c(-c4c(F)c(F)c(F)c(F)c4F)c4nc(c(-c5c(F)c(F)c(F)c(F)c5F)c5ccc2[nH]5)C=C4)C=C3)cc1
REMARK SMILES IDX 19 1 18 2 17 3 16 4 14 5 15 6 13 8 1 9 2 10 3 11 4 12 11 13
REMARK SMILES IDX 12 14 5 15 6 16 10 17 7 18 8 19 9 20 20 21 21 22 22 23 23 25
REMARK SMILES IDX 24 26 25 27 86 28 26 29 85 30 27 31 28 32 29 33 79 34 30 35
REMARK SMILES IDX 84 36 78 37 80 38 31 39 83 40 77 41 76 42 32 44 64 45 44 46
REMARK SMILES IDX 63 47 45 48 48 49 62 50 81 51 46 52 47 53 61 55 82 56 49 57
REMARK SMILES IDX 33 58 34 59 42 60 35 61 36 62 40 63 43 64 37 65 38 66 41 67
REMARK SMILES IDX 39 68 65 69 66 70 74 71 67 72 68 73 72 74 75 75 69 76 70 77
REMARK SMILES IDX 73 78 71 79 50 80 51 81 59 82 52 83 53 84 57 85 60 86 54 87
REMARK SMILES IDX 55 88 58 89 56 90
REMARK H PARENT 16 7 21 24 80 43 48 54
REMARK Flexibility Score: inf
ROOT
ATOM      1  C   UNL     1       2.825   6.746  -1.220  1.00  0.00     0.023 C 
ENDROOT
BRANCH   1   2
ATOM      2  C   UNL     1       1.506   6.009  -1.496  1.00  0.00     0.023 C 
BRANCH   2   3
ATOM      3  C   UNL     1       1.635   4.681  -2.251  1.00  0.00     0.116 C 
BRANCH   3   4
ATOM      4  N   UNL     1       2.366   3.697  -1.466  1.00  0.00    -0.354 N 
ATOM      5  C   UNL     1       1.920   2.491  -0.976  1.00  0.00     0.249 C 
ATOM      6  O   UNL     1       2.689   1.805  -0.301  1.00  0.00    -0.272 OA
ATOM      7  H   UNL     1       3.302   3.924  -1.259  1.00  0.00     0.163 HD
BRANCH   5   8
ATOM      8  C   UNL     1       0.506   2.019  -1.404  1.00  0.00     0.221 C 
ATOM      9  C   UNL     1      -0.057   0.631   0.770  1.00  0.00     0.043 C 
ATOM     10  C   UNL     1      -0.109   0.833  -0.702  1.00  0.00    -0.027 C 
ATOM     11  C   UNL     1      -0.544  -0.052  -1.603  1.00  0.00     0.040 C 
ATOM     12  C   UNL     1      -1.197  -1.368  -1.557  1.00  0.00     0.165 C 
ATOM     13  C   UNL     1       0.368   0.293  -2.681  1.00  0.00     0.048 C 
ATOM     14  N   UNL     1       0.734   1.532  -2.805  1.00  0.00    -0.271 NA
ATOM     15  O   UNL     1      -2.333  -1.488  -1.106  1.00  0.00    -0.294 OA
ATOM     16  C   UNL     1      -0.450  -2.520  -2.209  1.00  0.00     0.088 C 
ATOM     17  C   UNL     1       1.012  -0.833  -3.432  1.00  0.00     0.063 C 
ATOM     18  C   UNL     1       1.008  -2.144  -2.578  1.00  0.00    -0.023 C 
ATOM     19  C   UNL     1       1.835  -2.049  -1.267  1.00  0.00     0.012 C 
ATOM     20  C   UNL     1       1.657  -3.249  -3.425  1.00  0.00     0.012 C 
ENDBRANCH   5   8
ENDBRANCH   3   4
ENDBRANCH   2   3
ENDBRANCH   1   2
BRANCH   1  21
ATOM     21  C   UNL     1       3.574   7.179  -2.470  1.00  0.00     0.116 C 
BRANCH  21  22
ATOM     22  N   UNL     1       2.859   8.187  -3.263  1.00  0.00    -0.352 N 
ATOM     23  C   UNL     1       3.258   8.776  -4.451  1.00  0.00     0.251 C 
ATOM     24  H   UNL     1       1.990   8.481  -2.906  1.00  0.00     0.163 HD
ATOM     25  O   UNL     1       2.783   9.851  -4.823  1.00  0.00    -0.269 OA
BRANCH  23  26
ATOM     26  C   UNL     1       4.256   8.083  -5.280  1.00  0.00     0.039 A 
ATOM     27  C   UNL     1       5.268   8.746  -5.982  1.00  0.00     0.014 A 
ATOM     28  C   UNL     1       4.175   6.699  -5.298  1.00  0.00     0.014 A 
ATOM     29  C   UNL     1       6.230   7.984  -6.646  1.00  0.00     0.010 A 
ATOM     30  C   UNL     1       5.250   5.972  -5.710  1.00  0.00     0.010 A 
ATOM     31  C   UNL     1       6.211   6.590  -6.494  1.00  0.00    -0.014 A 
BRANCH  31  32
ATOM     32  C   UNL     1       7.215   5.711  -7.077  1.00  0.00     0.031 A 
ATOM     33  C   UNL     1       8.605   5.985  -6.630  1.00  0.00     0.074 A 
ATOM     34  C   UNL     1       6.853   4.576  -7.721  1.00  0.00     0.049 A 
ATOM     35  N   UNL     1       9.614   6.341  -7.352  1.00  0.00    -0.248 NA
ATOM     36  C   UNL     1       8.877   5.997  -5.182  1.00  0.00     0.031 C 
ATOM     37  C   UNL     1       5.498   4.036  -7.925  1.00  0.00     0.029 A 
ATOM     38  N   UNL     1       7.633   3.582  -8.223  1.00  0.00    -0.354 N 
ATOM     39  C   UNL     1      10.699   6.419  -6.481  1.00  0.00     0.074 A 
ATOM     40  C   UNL     1      10.148   6.404  -5.154  1.00  0.00     0.031 C 
ATOM     41  C   UNL     1       5.568   2.732  -8.269  1.00  0.00     0.029 A 
ATOM     42  C   UNL     1       6.958   2.392  -8.488  1.00  0.00     0.049 A 
ATOM     43  H   UNL     1       8.597   3.693  -8.385  1.00  0.00     0.167 HD
ATOM     44  C   UNL     1      11.967   6.206  -6.933  1.00  0.00     0.037 A 
ATOM     45  C   UNL     1       7.518   1.205  -8.832  1.00  0.00     0.037 A 
ATOM     46  C   UNL     1      12.018   6.328  -8.372  1.00  0.00     0.049 A 
ATOM     47  C   UNL     1       8.893   1.497  -9.307  1.00  0.00     0.074 A 
ATOM     48  C   UNL     1      11.736   7.335  -9.275  1.00  0.00     0.029 A 
ATOM     49  N   UNL     1      12.042   5.169  -9.110  1.00  0.00    -0.354 N 
ATOM     50  N   UNL     1       9.153   2.165 -10.397  1.00  0.00    -0.248 NA
ATOM     51  C   UNL     1       9.959   1.471  -8.318  1.00  0.00     0.031 C 
ATOM     52  C   UNL     1      11.124   6.675 -10.383  1.00  0.00     0.029 A 
ATOM     53  C   UNL     1      11.139   5.303 -10.131  1.00  0.00     0.049 A 
ATOM     54  H   UNL     1      12.607   4.382  -8.935  1.00  0.00     0.167 HD
ATOM     55  C   UNL     1      10.213   2.994 -10.057  1.00  0.00     0.074 A 
ATOM     56  C   UNL     1      10.714   2.468  -8.788  1.00  0.00     0.031 C 
ATOM     57  C   UNL     1      10.386   4.199 -10.676  1.00  0.00     0.037 A 
BRANCH  44  58
ATOM     58  C   UNL     1      13.048   5.477  -6.157  1.00  0.00     0.064 A 
ATOM     59  C   UNL     1      14.315   5.321  -6.761  1.00  0.00     0.173 A 
ATOM     60  C   UNL     1      12.817   4.658  -5.029  1.00  0.00     0.173 A 
ATOM     61  F   UNL     1      14.659   6.056  -7.829  1.00  0.00    -0.203 F 
ATOM     62  C   UNL     1      15.214   4.332  -6.353  1.00  0.00     0.198 A 
ATOM     63  C   UNL     1      13.739   3.707  -4.595  1.00  0.00     0.198 A 
ATOM     64  F   UNL     1      11.662   4.657  -4.359  1.00  0.00    -0.203 F 
ATOM     65  F   UNL     1      16.334   4.123  -7.057  1.00  0.00    -0.200 F 
ATOM     66  C   UNL     1      14.917   3.513  -5.281  1.00  0.00     0.200 A 
ATOM     67  F   UNL     1      13.429   2.919  -3.555  1.00  0.00    -0.200 F 
ATOM     68  F   UNL     1      15.738   2.513  -4.938  1.00  0.00    -0.200 F 
ENDBRANCH  44  58
BRANCH  45  69
ATOM     69  C   UNL     1       7.074  -0.164  -8.470  1.00  0.00     0.064 A 
ATOM     70  C   UNL     1       7.563  -1.290  -9.153  1.00  0.00     0.173 A 
ATOM     71  C   UNL     1       6.385  -0.414  -7.266  1.00  0.00     0.173 A 
ATOM     72  F   UNL     1       8.268  -1.139 -10.283  1.00  0.00    -0.203 F 
ATOM     73  C   UNL     1       7.395  -2.586  -8.649  1.00  0.00     0.198 A 
ATOM     74  C   UNL     1       6.214  -1.708  -6.767  1.00  0.00     0.198 A 
ATOM     75  F   UNL     1       5.949   0.597  -6.502  1.00  0.00    -0.203 F 
ATOM     76  F   UNL     1       7.928  -3.631  -9.297  1.00  0.00    -0.200 F 
ATOM     77  C   UNL     1       6.730  -2.792  -7.451  1.00  0.00     0.200 A 
ATOM     78  F   UNL     1       5.601  -1.890  -5.589  1.00  0.00    -0.200 F 
ATOM     79  F   UNL     1       6.624  -4.025  -6.936  1.00  0.00    -0.200 F 
ENDBRANCH  45  69
BRANCH  57  80
ATOM     80  C   UNL     1       9.561   4.482 -11.902  1.00  0.00     0.064 A 
ATOM     81  C   UNL     1       8.159   4.593 -11.906  1.00  0.00     0.173 A 
ATOM     82  C   UNL     1      10.231   4.797 -13.091  1.00  0.00     0.173 A 
ATOM     83  F   UNL     1       7.449   4.407 -10.788  1.00  0.00    -0.203 F 
ATOM     84  C   UNL     1       7.463   4.961 -13.057  1.00  0.00     0.198 A 
ATOM     85  C   UNL     1       9.537   5.199 -14.228  1.00  0.00     0.198 A 
ATOM     86  F   UNL     1      11.572   4.763 -13.133  1.00  0.00    -0.203 F 
ATOM     87  F   UNL     1       6.124   5.049 -13.034  1.00  0.00    -0.200 F 
ATOM     88  C   UNL     1       8.154   5.271 -14.215  1.00  0.00     0.200 A 
ATOM     89  F   UNL     1      10.214   5.546 -15.332  1.00  0.00    -0.200 F 
ATOM     90  F   UNL     1       7.489   5.664 -15.311  1.00  0.00    -0.200 F 
ENDBRANCH  57  80
ENDBRANCH  31  32
ENDBRANCH  23  26
ENDBRANCH  21  22
ENDBRANCH   1  21
TORSDOF 11
