REMARK SMILES COc1ccc(/C=C2/SC(=S)N(NC(=O)c3ccc(C(C)(C)C)cc3)C2=O)c(C(=O)NCCCCNC(=O)c2ccc(-c3c4nc(c(-c5c(F)c(F)c(F)c(F)c5F)c5ccc([nH]5)c(-c5c(F)c(F)c(F)c(F)c5F)c5nc(c(-c6c(F)c(F)c(F)c(F)c6F)c6ccc3[nH]6)C=C5)C=C4)cc2)c1OC
REMARK SMILES IDX 32 1 31 2 29 3 30 4 28 6 3 7 4 8 102 9 5 10 6 11 2 12 1 13
REMARK SMILES IDX 103 14 104 15 7 16 8 17 9 18 26 19 10 20 12 21 27 22 11 23
REMARK SMILES IDX 13 24 14 25 15 27 16 28 17 29 25 30 18 31 24 32 19 33 20 34
REMARK SMILES IDX 21 35 22 36 23 37 33 38 34 39 35 40 36 41 37 42 38 44 39 45
REMARK SMILES IDX 40 46 101 47 41 48 100 49 42 50 43 51 44 52 94 53 45 54
REMARK SMILES IDX 99 55 93 56 95 57 46 58 98 59 92 60 91 61 47 63 79 64 59 65
REMARK SMILES IDX 78 66 60 67 63 68 77 69 96 70 61 71 62 72 76 74 97 75 64 76
REMARK SMILES IDX 48 77 49 78 57 79 50 80 51 81 55 82 58 83 52 84 53 85 56 86
REMARK SMILES IDX 54 87 80 88 81 89 89 90 82 91 83 92 87 93 90 94 84 95 85 96
REMARK SMILES IDX 88 97 86 98 65 99 66 100 74 101 67 102 68 103 72 104 75 105
REMARK SMILES IDX 69 106 70 107 73 108 71 109
REMARK H PARENT 31 5 13 26 36 43 95 62 63 73
REMARK Flexibility Score: inf
ROOT
ATOM      1  C   UNL     1       4.797   1.524  -1.089  1.00  0.00     0.116 C 
ENDROOT
BRANCH   1   2
ATOM      2  N   UNL     1       5.111   2.931  -1.021  1.00  0.00    -0.352 N 
ATOM      3  C   UNL     1       4.217   3.987  -0.924  1.00  0.00     0.255 C 
ATOM      4  O   UNL     1       4.647   5.135  -0.829  1.00  0.00    -0.269 OA
ATOM      5  H   UNL     1       6.066   3.168  -1.046  1.00  0.00     0.163 HD
BRANCH   3   6
ATOM      6  C   UNL     1       2.746   3.753  -1.041  1.00  0.00     0.092 A 
ATOM      7  C   UNL     1       0.682   2.707  -0.242  1.00  0.00     0.161 A 
ATOM      8  C   UNL     1      -0.017   3.298  -1.298  1.00  0.00     0.051 A 
ATOM      9  C   UNL     1       2.067   2.929  -0.104  1.00  0.00     0.174 A 
ATOM     10  C   UNL     1       0.640   4.160  -2.179  1.00  0.00     0.013 A 
ATOM     11  C   UNL     1       2.016   4.429  -2.047  1.00  0.00    -0.007 A 
BRANCH   7  12
ATOM     12  O   UNL     1      -0.072   2.155   0.762  1.00  0.00    -0.493 OA
ATOM     13  C   UNL     1      -0.263   0.747   0.652  1.00  0.00     0.278 C 
ENDBRANCH   7  12
BRANCH   9  14
ATOM     14  O   UNL     1       2.768   2.551   1.018  1.00  0.00    -0.492 OA
ATOM     15  C   UNL     1       2.729   1.167   1.344  1.00  0.00     0.278 C 
ENDBRANCH   9  14
BRANCH  11  16
ATOM     16  C   UNL     1       2.500   5.560  -2.869  1.00  0.00     0.030 C 
ATOM     17  C   UNL     1       3.444   5.615  -3.818  1.00  0.00     0.082 C 
ATOM     18  S   UNL     1       3.720   7.054  -4.746  1.00  0.00    -0.052 SA
ATOM     19  C   UNL     1       4.326   4.521  -4.312  1.00  0.00     0.285 C 
ATOM     20  C   UNL     1       4.788   6.239  -5.875  1.00  0.00     0.168 C 
ATOM     21  N   UNL     1       4.902   4.909  -5.516  1.00  0.00    -0.198 N 
ATOM     22  O   UNL     1       4.509   3.473  -3.727  1.00  0.00    -0.266 OA
ATOM     23  S   UNL     1       5.538   7.015  -7.149  1.00  0.00    -0.050 S 
BRANCH  21  24
ATOM     24  N   UNL     1       5.765   4.060  -6.234  1.00  0.00    -0.255 N 
ATOM     25  C   UNL     1       5.622   2.716  -6.517  1.00  0.00     0.270 C 
ATOM     26  H   UNL     1       6.583   4.482  -6.583  1.00  0.00     0.192 HD
ATOM     27  O   UNL     1       6.532   2.138  -7.112  1.00  0.00    -0.267 OA
BRANCH  25  28
ATOM     28  C   UNL     1       4.455   1.920  -6.069  1.00  0.00     0.041 A 
ATOM     29  C   UNL     1       4.721   0.702  -5.439  1.00  0.00     0.014 A 
ATOM     30  C   UNL     1       3.135   2.354  -6.180  1.00  0.00     0.014 A 
ATOM     31  C   UNL     1       3.697  -0.000  -4.797  1.00  0.00     0.005 A 
ATOM     32  C   UNL     1       2.112   1.650  -5.522  1.00  0.00     0.005 A 
ATOM     33  C   UNL     1       2.380   0.490  -4.769  1.00  0.00    -0.043 A 
BRANCH  33  34
ATOM     34  C   UNL     1       1.322  -0.210  -3.896  1.00  0.00    -0.013 C 
ATOM     35  C   UNL     1       1.098  -1.660  -4.357  1.00  0.00     0.016 C 
ATOM     36  C   UNL     1       1.799  -0.256  -2.431  1.00  0.00     0.016 C 
ATOM     37  C   UNL     1      -0.046   0.507  -3.888  1.00  0.00     0.016 C 
ENDBRANCH  33  34
ENDBRANCH  25  28
ENDBRANCH  21  24
ENDBRANCH  11  16
ENDBRANCH   3   6
ENDBRANCH   1   2
BRANCH   1  38
ATOM     38  C   UNL     1       5.716   0.627  -1.903  1.00  0.00     0.023 C 
BRANCH  38  39
ATOM     39  C   UNL     1       7.157   0.520  -1.437  1.00  0.00     0.023 C 
BRANCH  39  40
ATOM     40  C   UNL     1       7.366   0.374   0.061  1.00  0.00     0.116 C 
BRANCH  40  41
ATOM     41  N   UNL     1       6.829  -0.859   0.627  1.00  0.00    -0.352 N 
ATOM     42  C   UNL     1       7.470  -1.827   1.371  1.00  0.00     0.251 C 
ATOM     43  H   UNL     1       5.874  -1.022   0.454  1.00  0.00     0.163 HD
ATOM     44  O   UNL     1       6.877  -2.844   1.714  1.00  0.00    -0.269 OA
BRANCH  42  45
ATOM     45  C   UNL     1       8.900  -1.652   1.707  1.00  0.00     0.039 A 
ATOM     46  C   UNL     1       9.791  -2.697   1.458  1.00  0.00     0.014 A 
ATOM     47  C   UNL     1       9.369  -0.425   2.177  1.00  0.00     0.014 A 
ATOM     48  C   UNL     1      11.165  -2.472   1.576  1.00  0.00     0.010 A 
ATOM     49  C   UNL     1      10.734  -0.168   2.171  1.00  0.00     0.010 A 
ATOM     50  C   UNL     1      11.650  -1.188   1.875  1.00  0.00    -0.014 A 
BRANCH  50  51
ATOM     51  C   UNL     1      13.105  -0.885   1.889  1.00  0.00     0.031 A 
ATOM     52  C   UNL     1      13.750  -0.363   3.144  1.00  0.00     0.074 A 
ATOM     53  C   UNL     1      13.829  -1.002   0.758  1.00  0.00     0.049 A 
ATOM     54  N   UNL     1      14.983   0.028   3.343  1.00  0.00    -0.248 NA
ATOM     55  C   UNL     1      12.882  -0.227   4.325  1.00  0.00     0.031 C 
ATOM     56  C   UNL     1      13.311  -1.438  -0.540  1.00  0.00     0.029 A 
ATOM     57  N   UNL     1      15.159  -0.756   0.515  1.00  0.00    -0.354 N 
ATOM     58  C   UNL     1      15.029   0.475   4.657  1.00  0.00     0.074 A 
ATOM     59  C   UNL     1      13.687   0.376   5.185  1.00  0.00     0.031 C 
ATOM     60  C   UNL     1      14.316  -1.468  -1.430  1.00  0.00     0.029 A 
ATOM     61  C   UNL     1      15.540  -1.008  -0.781  1.00  0.00     0.049 A 
ATOM     62  H   UNL     1      15.780  -0.430   1.206  1.00  0.00     0.167 HD
ATOM     63  C   UNL     1      16.098   0.900   5.371  1.00  0.00     0.037 A 
ATOM     64  C   UNL     1      16.740  -0.879  -1.378  1.00  0.00     0.037 A 
ATOM     65  C   UNL     1      17.436   0.973   4.848  1.00  0.00     0.049 A 
ATOM     66  C   UNL     1      17.913  -0.393  -0.568  1.00  0.00     0.074 A 
ATOM     67  C   UNL     1      18.602   1.321   5.506  1.00  0.00     0.029 A 
ATOM     68  N   UNL     1      17.784   0.700   3.532  1.00  0.00    -0.354 N 
ATOM     69  N   UNL     1      17.962  -0.055   0.698  1.00  0.00    -0.248 NA
ATOM     70  C   UNL     1      19.198  -0.275  -1.270  1.00  0.00     0.031 C 
ATOM     71  C   UNL     1      19.644   1.323   4.574  1.00  0.00     0.029 A 
ATOM     72  C   UNL     1      19.142   0.906   3.351  1.00  0.00     0.049 A 
ATOM     73  H   UNL     1      17.159   0.405   2.832  1.00  0.00     0.167 HD
ATOM     74  C   UNL     1      19.285   0.284   0.953  1.00  0.00     0.074 A 
ATOM     75  C   UNL     1      20.008   0.096  -0.288  1.00  0.00     0.031 C 
ATOM     76  C   UNL     1      19.849   0.710   2.110  1.00  0.00     0.037 A 
BRANCH  63  77
ATOM     77  C   UNL     1      15.856   1.323   6.794  1.00  0.00     0.064 A 
ATOM     78  C   UNL     1      15.461   0.408   7.783  1.00  0.00     0.173 A 
ATOM     79  C   UNL     1      16.032   2.662   7.176  1.00  0.00     0.173 A 
ATOM     80  F   UNL     1      15.267  -0.883   7.471  1.00  0.00    -0.203 F 
ATOM     81  C   UNL     1      15.207   0.825   9.087  1.00  0.00     0.198 A 
ATOM     82  C   UNL     1      15.816   3.067   8.491  1.00  0.00     0.198 A 
ATOM     83  F   UNL     1      16.416   3.579   6.276  1.00  0.00    -0.203 F 
ATOM     84  F   UNL     1      14.762  -0.056   9.995  1.00  0.00    -0.200 F 
ATOM     85  C   UNL     1      15.391   2.152   9.442  1.00  0.00     0.200 A 
ATOM     86  F   UNL     1      16.011   4.347   8.836  1.00  0.00    -0.200 F 
ATOM     87  F   UNL     1      15.150   2.551  10.698  1.00  0.00    -0.200 F 
ENDBRANCH  63  77
BRANCH  64  88
ATOM     88  C   UNL     1      16.903  -1.251  -2.809  1.00  0.00     0.064 A 
ATOM     89  C   UNL     1      17.663  -2.370  -3.179  1.00  0.00     0.173 A 
ATOM     90  C   UNL     1      16.307  -0.503  -3.835  1.00  0.00     0.173 A 
ATOM     91  F   UNL     1      18.272  -3.106  -2.237  1.00  0.00    -0.203 F 
ATOM     92  C   UNL     1      17.836  -2.716  -4.518  1.00  0.00     0.198 A 
ATOM     93  C   UNL     1      16.454  -0.868  -5.172  1.00  0.00     0.198 A 
ATOM     94  F   UNL     1      15.566   0.575  -3.537  1.00  0.00    -0.203 F 
ATOM     95  F   UNL     1      18.605  -3.764  -4.843  1.00  0.00    -0.200 F 
ATOM     96  C   UNL     1      17.225  -1.969  -5.513  1.00  0.00     0.200 A 
ATOM     97  F   UNL     1      15.850  -0.152  -6.130  1.00  0.00    -0.200 F 
ATOM     98  F   UNL     1      17.385  -2.306  -6.800  1.00  0.00    -0.200 F 
ENDBRANCH  64  88
BRANCH  76  99
ATOM     99  C   UNL     1      21.330   0.964   2.103  1.00  0.00     0.064 A 
ATOM    100  C   UNL     1      21.894   2.046   1.411  1.00  0.00     0.173 A 
ATOM    101  C   UNL     1      22.193   0.136   2.839  1.00  0.00     0.173 A 
ATOM    102  F   UNL     1      21.116   2.861   0.682  1.00  0.00    -0.203 F 
ATOM    103  C   UNL     1      23.268   2.272   1.432  1.00  0.00     0.198 A 
ATOM    104  C   UNL     1      23.561   0.387   2.887  1.00  0.00     0.198 A 
ATOM    105  F   UNL     1      21.706  -0.908   3.526  1.00  0.00    -0.203 F 
ATOM    106  F   UNL     1      23.790   3.280   0.719  1.00  0.00    -0.200 F 
ATOM    107  C   UNL     1      24.099   1.448   2.176  1.00  0.00     0.200 A 
ATOM    108  F   UNL     1      24.359  -0.400   3.623  1.00  0.00    -0.200 F 
ATOM    109  F   UNL     1      25.419   1.674   2.204  1.00  0.00    -0.200 F 
ENDBRANCH  76  99
ENDBRANCH  50  51
ENDBRANCH  42  45
ENDBRANCH  40  41
ENDBRANCH  39  40
ENDBRANCH  38  39
ENDBRANCH   1  38
TORSDOF 17
