REMARK SMILES Cc1ccc([C@@]23C[C@@H]4C[C@@H](C[C@@](C(=O)N5CCC(C(=O)NCCCCNC(=O)c6ccc(-c7c8nc(c(-c9c(F)c(F)c(F)c(F)c9F)c9ccc([nH]9)c(-c9c(F)c(F)c(F)c(F)c9F)c9nc(c(-c%10c(F)c(F)c(F)c(F)c%10F)c%10ccc7[nH]%10)C=C9)C=C8)cc6)CC5)(C4)C2)C3)cc1
REMARK SMILES IDX 23 1 22 2 21 3 19 4 20 5 18 7 13 8 14 9 15 10 16 11 93 12
REMARK SMILES IDX 17 13 92 14 12 15 6 16 7 17 95 18 96 19 8 20 10 21 9 22
REMARK SMILES IDX 94 23 11 24 5 25 1 26 2 27 3 28 98 29 4 30 97 31 24 32 25 33
REMARK SMILES IDX 26 34 27 35 28 37 29 38 30 39 91 40 31 41 90 42 32 43 33 44
REMARK SMILES IDX 34 45 84 46 35 47 89 48 83 49 85 50 36 51 88 52 82 53 81 54
REMARK SMILES IDX 37 56 69 57 49 58 68 59 50 60 53 61 67 62 86 63 51 64 52 65
REMARK SMILES IDX 66 67 87 68 54 69 38 70 39 71 47 72 40 73 41 74 45 75 48 76
REMARK SMILES IDX 42 77 43 78 46 79 44 80 70 81 71 82 79 83 72 84 73 85 77 86
REMARK SMILES IDX 80 87 74 88 75 89 78 90 76 91 55 92 56 93 64 94 57 95 58 96
REMARK SMILES IDX 62 97 65 98 59 99 60 100 63 101 61 102
REMARK H PARENT 21 6 26 36 85 55 53 66
REMARK Flexibility Score: inf
ROOT
ATOM      1  C   UNL     1      -8.987  -1.529  -3.789  1.00  0.00     0.023 C 
ENDROOT
BRANCH   1   2
ATOM      2  C   UNL     1      -8.794  -2.985  -3.339  1.00  0.00     0.116 C 
BRANCH   2   3
ATOM      3  N   UNL     1      -8.420  -3.884  -4.425  1.00  0.00    -0.356 N 
ATOM      4  C   UNL     1      -7.288  -4.602  -4.666  1.00  0.00     0.223 C 
ATOM      5  O   UNL     1      -7.267  -5.313  -5.674  1.00  0.00    -0.275 OA
ATOM      6  H   UNL     1      -9.117  -3.991  -5.113  1.00  0.00     0.163 HD
BRANCH   4   7
ATOM      7  C   UNL     1      -6.080  -4.547  -3.743  1.00  0.00     0.082 C 
ATOM      8  C   UNL     1      -5.811  -2.459  -0.394  1.00  0.00     0.228 C 
ATOM      9  O   UNL     1      -6.706  -2.893   0.338  1.00  0.00    -0.274 OA
ATOM     10  N   UNL     1      -5.211  -3.292  -1.338  1.00  0.00    -0.342 N 
ATOM     11  C   UNL     1      -5.458  -4.725  -1.266  1.00  0.00     0.120 C 
ATOM     12  C   UNL     1      -4.529  -2.911  -2.572  1.00  0.00     0.120 C 
ATOM     13  C   UNL     1      -6.410  -5.161  -2.369  1.00  0.00     0.035 C 
ATOM     14  C   UNL     1      -5.466  -3.140  -3.744  1.00  0.00     0.035 C 
BRANCH   8  15
ATOM     15  C   UNL     1      -5.325  -1.001  -0.228  1.00  0.00     0.051 C 
ATOM     16  C   UNL     1      -3.179   0.397   0.067  1.00  0.00    -0.003 C 
ATOM     17  C   UNL     1      -3.667   1.223  -1.162  1.00  0.00     0.015 C 
ATOM     18  C   UNL     1      -3.795  -1.014  -0.060  1.00  0.00     0.028 C 
ATOM     19  C   UNL     1      -3.769   1.026   1.355  1.00  0.00     0.015 C 
ATOM     20  C   UNL     1      -5.205   1.319  -1.210  1.00  0.00    -0.009 C 
ATOM     21  C   UNL     1      -5.310   1.061   1.283  1.00  0.00    -0.009 C 
ATOM     22  C   UNL     1      -5.726   1.938   0.093  1.00  0.00     0.007 C 
ATOM     23  C   UNL     1      -5.802  -0.085  -1.372  1.00  0.00     0.020 C 
ATOM     24  C   UNL     1      -5.874  -0.366   1.088  1.00  0.00     0.020 C 
BRANCH  16  25
ATOM     25  C   UNL     1      -1.641   0.333   0.117  1.00  0.00    -0.042 A 
ATOM     26  C   UNL     1       2.698   0.155   0.013  1.00  0.00     0.044 C 
ATOM     27  C   UNL     1       1.203   0.235   0.074  1.00  0.00    -0.051 A 
ATOM     28  C   UNL     1       0.456  -0.939   0.138  1.00  0.00     0.004 A 
ATOM     29  C   UNL     1       0.530   1.458   0.057  1.00  0.00     0.004 A 
ATOM     30  C   UNL     1      -0.939  -0.887   0.168  1.00  0.00     0.004 A 
ATOM     31  C   UNL     1      -0.871   1.506   0.084  1.00  0.00     0.004 A 
ENDBRANCH  16  25
ENDBRANCH   8  15
ENDBRANCH   4   7
ENDBRANCH   2   3
ENDBRANCH   1   2
BRANCH   1  32
ATOM     32  C   UNL     1      -9.956  -1.315  -4.954  1.00  0.00     0.023 C 
BRANCH  32  33
ATOM     33  C   UNL     1     -11.401  -1.682  -4.646  1.00  0.00     0.116 C 
BRANCH  33  34
ATOM     34  N   UNL     1     -12.235  -0.569  -4.209  1.00  0.00    -0.352 N 
ATOM     35  C   UNL     1     -13.527  -0.596  -3.706  1.00  0.00     0.251 C 
ATOM     36  H   UNL     1     -11.825   0.323  -4.282  1.00  0.00     0.163 HD
ATOM     37  O   UNL     1     -14.114   0.440  -3.443  1.00  0.00    -0.269 OA
BRANCH  35  38
ATOM     38  C   UNL     1     -14.137  -1.905  -3.366  1.00  0.00     0.039 A 
ATOM     39  C   UNL     1     -14.678  -2.063  -2.086  1.00  0.00     0.014 A 
ATOM     40  C   UNL     1     -13.978  -3.006  -4.204  1.00  0.00     0.014 A 
ATOM     41  C   UNL     1     -14.812  -3.344  -1.558  1.00  0.00     0.010 A 
ATOM     42  C   UNL     1     -14.014  -4.271  -3.651  1.00  0.00     0.010 A 
ATOM     43  C   UNL     1     -14.356  -4.430  -2.305  1.00  0.00    -0.014 A 
BRANCH  43  44
ATOM     44  C   UNL     1     -14.103  -5.743  -1.726  1.00  0.00     0.031 A 
ATOM     45  C   UNL     1     -15.040  -6.857  -1.965  1.00  0.00     0.074 A 
ATOM     46  C   UNL     1     -12.975  -5.945  -1.008  1.00  0.00     0.049 A 
ATOM     47  N   UNL     1     -15.124  -7.906  -1.218  1.00  0.00    -0.248 NA
ATOM     48  C   UNL     1     -16.036  -6.833  -3.029  1.00  0.00     0.031 C 
ATOM     49  C   UNL     1     -12.422  -7.224  -0.570  1.00  0.00     0.029 A 
ATOM     50  N   UNL     1     -12.208  -4.982  -0.329  1.00  0.00    -0.354 N 
ATOM     51  C   UNL     1     -15.953  -8.807  -1.845  1.00  0.00     0.074 A 
ATOM     52  C   UNL     1     -16.598  -8.037  -2.878  1.00  0.00     0.031 C 
ATOM     53  C   UNL     1     -11.646  -7.012   0.505  1.00  0.00     0.029 A 
ATOM     54  C   UNL     1     -11.791  -5.614   0.867  1.00  0.00     0.049 A 
ATOM     55  H   UNL     1     -12.005  -4.064  -0.622  1.00  0.00     0.167 HD
ATOM     56  C   UNL     1     -15.870 -10.123  -1.491  1.00  0.00     0.037 A 
ATOM     57  C   UNL     1     -12.176  -5.160   2.093  1.00  0.00     0.037 A 
ATOM     58  C   UNL     1     -15.088 -10.274  -0.259  1.00  0.00     0.049 A 
ATOM     59  C   UNL     1     -12.906  -6.184   2.928  1.00  0.00     0.074 A 
ATOM     60  C   UNL     1     -13.802 -10.718   0.003  1.00  0.00     0.029 A 
ATOM     61  N   UNL     1     -15.544  -9.679   0.916  1.00  0.00    -0.354 N 
ATOM     62  N   UNL     1     -13.471  -7.251   2.437  1.00  0.00    -0.248 NA
ATOM     63  C   UNL     1     -13.086  -6.070   4.372  1.00  0.00     0.031 C 
ATOM     64  C   UNL     1     -13.464 -10.329   1.325  1.00  0.00     0.029 A 
ATOM     65  C   UNL     1     -14.554  -9.677   1.878  1.00  0.00     0.049 A 
ATOM     66  H   UNL     1     -16.448  -9.311   1.043  1.00  0.00     0.167 HD
ATOM     67  C   UNL     1     -14.087  -7.949   3.444  1.00  0.00     0.074 A 
ATOM     68  C   UNL     1     -13.800  -7.178   4.639  1.00  0.00     0.031 C 
ATOM     69  C   UNL     1     -14.787  -9.096   3.194  1.00  0.00     0.037 A 
BRANCH  56  70
ATOM     70  C   UNL     1     -16.265 -11.311  -2.365  1.00  0.00     0.064 A 
ATOM     71  C   UNL     1     -15.874 -12.622  -1.998  1.00  0.00     0.173 A 
ATOM     72  C   UNL     1     -16.910 -11.243  -3.618  1.00  0.00     0.173 A 
ATOM     73  F   UNL     1     -15.303 -12.876  -0.813  1.00  0.00    -0.203 F 
ATOM     74  C   UNL     1     -16.039 -13.732  -2.839  1.00  0.00     0.198 A 
ATOM     75  C   UNL     1     -17.087 -12.353  -4.453  1.00  0.00     0.198 A 
ATOM     76  F   UNL     1     -17.402 -10.111  -4.116  1.00  0.00    -0.203 F 
ATOM     77  F   UNL     1     -15.597 -14.935  -2.449  1.00  0.00    -0.200 F 
ATOM     78  C   UNL     1     -16.635 -13.594  -4.074  1.00  0.00     0.200 A 
ATOM     79  F   UNL     1     -17.689 -12.194  -5.641  1.00  0.00    -0.200 F 
ATOM     80  F   UNL     1     -16.779 -14.647  -4.889  1.00  0.00    -0.200 F 
ENDBRANCH  56  70
BRANCH  57  81
ATOM     81  C   UNL     1     -12.413  -3.694   2.129  1.00  0.00     0.064 A 
ATOM     82  C   UNL     1     -11.322  -2.838   1.880  1.00  0.00     0.173 A 
ATOM     83  C   UNL     1     -13.699  -3.154   2.017  1.00  0.00     0.173 A 
ATOM     84  F   UNL     1     -10.070  -3.309   1.978  1.00  0.00    -0.203 F 
ATOM     85  C   UNL     1     -11.511  -1.538   1.417  1.00  0.00     0.198 A 
ATOM     86  C   UNL     1     -13.884  -1.844   1.569  1.00  0.00     0.198 A 
ATOM     87  F   UNL     1     -14.778  -3.922   2.222  1.00  0.00    -0.203 F 
ATOM     88  F   UNL     1     -10.454  -0.787   1.074  1.00  0.00    -0.200 F 
ATOM     89  C   UNL     1     -12.794  -1.052   1.235  1.00  0.00     0.200 A 
ATOM     90  F   UNL     1     -15.126  -1.380   1.366  1.00  0.00    -0.200 F 
ATOM     91  F   UNL     1     -12.982   0.162   0.699  1.00  0.00    -0.200 F 
ENDBRANCH  57  81
BRANCH  69  92
ATOM     92  C   UNL     1     -15.681  -9.834   4.167  1.00  0.00     0.064 A 
ATOM     93  C   UNL     1     -16.342  -9.231   5.250  1.00  0.00     0.173 A 
ATOM     94  C   UNL     1     -16.015 -11.193   3.938  1.00  0.00     0.173 A 
ATOM     95  F   UNL     1     -16.216  -7.922   5.506  1.00  0.00    -0.203 F 
ATOM     96  C   UNL     1     -17.216  -9.945   6.078  1.00  0.00     0.198 A 
ATOM     97  C   UNL     1     -16.933 -11.885   4.728  1.00  0.00     0.198 A 
ATOM     98  F   UNL     1     -15.482 -11.885   2.921  1.00  0.00    -0.203 F 
ATOM     99  F   UNL     1     -17.788  -9.332   7.124  1.00  0.00    -0.200 F 
ATOM    100  C   UNL     1     -17.520 -11.266   5.810  1.00  0.00     0.200 A 
ATOM    101  F   UNL     1     -17.256 -13.149   4.421  1.00  0.00    -0.200 F 
ATOM    102  F   UNL     1     -18.395 -11.931   6.576  1.00  0.00    -0.200 F 
ENDBRANCH  69  92
ENDBRANCH  43  44
ENDBRANCH  35  38
ENDBRANCH  33  34
ENDBRANCH  32  33
ENDBRANCH   1  32
TORSDOF 13
