REMARK SMILES Cc1cc2c(N[C@@H]3CCCCC[C@@H]3C(=O)NCCCCNC(=O)c3ccc(-c4c5nc(c(-c6c(F)c(F)c(F)c(F)c6F)c6ccc([nH]6)c(-c6c(F)c(F)c(F)c(F)c6F)c6nc(c(-c7c(F)c(F)c(F)c(F)c7F)c7ccc4[nH]7)C=C6)C=C5)cc3)ncnc2s1
REMARK SMILES IDX 18 1 17 2 16 3 14 4 15 5 13 7 7 8 6 9 5 11 1 12 2 13 3 14
REMARK SMILES IDX 91 15 4 16 90 17 89 18 87 19 88 20 8 21 9 22 12 24 11 25
REMARK SMILES IDX 10 26 19 28 20 29 21 30 22 31 23 33 24 34 25 35 86 36 26 37
REMARK SMILES IDX 85 38 27 39 28 40 29 41 79 42 30 43 84 44 78 45 80 46 31 47
REMARK SMILES IDX 83 48 77 49 76 50 32 52 64 53 44 54 63 55 45 56 48 57 62 58
REMARK SMILES IDX 81 59 46 60 47 61 61 63 82 64 49 65 33 66 34 67 42 68 35 69
REMARK SMILES IDX 36 70 40 71 43 72 37 73 38 74 41 75 39 76 65 77 66 78 74 79
REMARK SMILES IDX 67 80 68 81 72 82 75 83 69 84 70 85 73 86 71 87 50 88 51 89
REMARK SMILES IDX 59 90 52 91 53 92 57 93 60 94 54 95 55 96 58 97 56 98
REMARK H PARENT 16 6 6 10 21 32 80 51 48 62
REMARK Flexibility Score: 100.00
ROOT
ATOM      1  C   UNL     1       3.401  -5.651  -4.900  1.00  0.00     0.023 C 
ENDROOT
BRANCH   1   2
ATOM      2  C   UNL     1       3.359  -4.300  -4.183  1.00  0.00     0.116 C 
BRANCH   2   3
ATOM      3  N   UNL     1       2.741  -3.279  -5.011  1.00  0.00    -0.356 N 
ATOM      4  C   UNL     1       1.498  -2.714  -4.931  1.00  0.00     0.225 C 
ATOM      5  O   UNL     1       1.131  -2.062  -5.906  1.00  0.00    -0.275 OA
ATOM      6  H   UNL     1       3.305  -2.941  -5.744  1.00  0.00     0.163 HD
BRANCH   4   7
ATOM      7  C   UNL     1       0.664  -2.913  -3.658  1.00  0.00     0.101 C 
BRANCH   7   8
ATOM      8  C   UNL     1      -0.849  -2.624  -3.852  1.00  0.00     0.093 C 
BRANCH   8   9
ATOM      9  N   UNL     1      -1.251  -1.425  -4.593  1.00  0.00    -0.366 N 
ATOM     10  H   UNL     1      -1.836  -1.634  -5.356  1.00  0.00     0.162 HD
BRANCH   9  11
ATOM     11  C   UNL     1      -1.004  -0.081  -4.473  1.00  0.00     0.138 A 
ATOM     12  C   UNL     1       0.795   1.089   0.114  1.00  0.00     0.056 C 
ATOM     13  C   UNL     1       0.218   1.272  -1.245  1.00  0.00     0.004 A 
ATOM     14  C   UNL     1      -0.582   0.394  -1.940  1.00  0.00     0.029 A 
ATOM     15  S   UNL     1       0.544   2.656  -2.187  1.00  0.00    -0.121 S 
ATOM     16  C   UNL     1      -0.626   0.660  -3.340  1.00  0.00     0.054 A 
ATOM     17  C   UNL     1      -0.181   1.956  -3.569  1.00  0.00     0.129 A 
ATOM     18  N   UNL     1      -0.220   2.621  -4.734  1.00  0.00    -0.225 NA
ATOM     19  N   UNL     1      -1.112   0.587  -5.647  1.00  0.00    -0.219 NA
ATOM     20  C   UNL     1      -0.735   1.874  -5.712  1.00  0.00     0.225 A 
ENDBRANCH   9  11
ENDBRANCH   8   9
BRANCH   8  21
ATOM     21  C   UNL     1      -1.796  -2.861  -2.663  1.00  0.00     0.026 C 
BRANCH  21  22
ATOM     22  C   UNL     1      -1.277  -3.722  -1.514  1.00  0.00     0.002 CG0
ATOM     23  G   UNL     1      -0.284  -3.032  -0.586  1.00  0.00     0.000 G0
ENDBRANCH  21  22
ENDBRANCH   8  21
ENDBRANCH   7   8
BRANCH   7  24
ATOM     24  C   UNL     1       1.358  -2.232  -2.471  1.00  0.00     0.015 C 
BRANCH  24  25
ATOM     25  C   UNL     1       1.139  -2.894  -1.112  1.00  0.00     0.001 C 
BRANCH  25  26
ATOM     26  C   UNL     1      -0.284  -3.032  -0.586  1.00  0.00     0.000 CG0
ATOM     27  G   UNL     1      -1.277  -3.722  -1.514  1.00  0.00     0.000 G0
ENDBRANCH  25  26
ENDBRANCH  24  25
ENDBRANCH   7  24
ENDBRANCH   4   7
ENDBRANCH   2   3
ENDBRANCH   1   2
BRANCH   1  28
ATOM     28  C   UNL     1       4.178  -5.671  -6.224  1.00  0.00     0.023 C 
BRANCH  28  29
ATOM     29  C   UNL     1       5.636  -5.254  -6.102  1.00  0.00     0.116 C 
BRANCH  29  30
ATOM     30  N   UNL     1       6.425  -6.182  -5.298  1.00  0.00    -0.352 N 
ATOM     31  C   UNL     1       7.784  -6.130  -5.052  1.00  0.00     0.251 C 
ATOM     32  H   UNL     1       5.934  -6.929  -4.886  1.00  0.00     0.163 HD
ATOM     33  O   UNL     1       8.405  -7.120  -4.705  1.00  0.00    -0.269 OA
BRANCH  31  34
ATOM     34  C   UNL     1       8.469  -4.835  -5.205  1.00  0.00     0.039 A 
ATOM     35  C   UNL     1       9.706  -4.745  -5.848  1.00  0.00     0.014 A 
ATOM     36  C   UNL     1       7.835  -3.698  -4.706  1.00  0.00     0.014 A 
ATOM     37  C   UNL     1      10.265  -3.485  -6.049  1.00  0.00     0.010 A 
ATOM     38  C   UNL     1       8.324  -2.452  -5.011  1.00  0.00     0.010 A 
ATOM     39  C   UNL     1       9.558  -2.341  -5.643  1.00  0.00    -0.014 A 
BRANCH  39  40
ATOM     40  C   UNL     1      10.029  -1.010  -6.010  1.00  0.00     0.031 A 
ATOM     41  C   UNL     1      10.213  -0.815  -7.476  1.00  0.00     0.074 A 
ATOM     42  C   UNL     1      10.084   0.017  -5.133  1.00  0.00     0.049 A 
ATOM     43  N   UNL     1      11.315  -0.578  -8.106  1.00  0.00    -0.248 NA
ATOM     44  C   UNL     1       9.061  -1.045  -8.365  1.00  0.00     0.031 C 
ATOM     45  C   UNL     1       9.647   0.047  -3.733  1.00  0.00     0.029 A 
ATOM     46  N   UNL     1      10.470   1.306  -5.345  1.00  0.00    -0.354 N 
ATOM     47  C   UNL     1      10.973  -0.439  -9.450  1.00  0.00     0.074 A 
ATOM     48  C   UNL     1       9.617  -0.902  -9.571  1.00  0.00     0.031 C 
ATOM     49  C   UNL     1       9.576   1.327  -3.303  1.00  0.00     0.029 A 
ATOM     50  C   UNL     1      10.119   2.194  -4.331  1.00  0.00     0.049 A 
ATOM     51  H   UNL     1      10.959   1.588  -6.152  1.00  0.00     0.167 HD
ATOM     52  C   UNL     1      11.765   0.273 -10.300  1.00  0.00     0.037 A 
ATOM     53  C   UNL     1      10.250   3.545  -4.356  1.00  0.00     0.037 A 
ATOM     54  C   UNL     1      13.084   0.445  -9.746  1.00  0.00     0.049 A 
ATOM     55  C   UNL     1      11.253   3.858  -5.404  1.00  0.00     0.074 A 
ATOM     56  C   UNL     1      14.092  -0.417  -9.360  1.00  0.00     0.029 A 
ATOM     57  N   UNL     1      13.374   1.648  -9.152  1.00  0.00    -0.354 N 
ATOM     58  N   UNL     1      12.515   3.541  -5.315  1.00  0.00    -0.248 NA
ATOM     59  C   UNL     1      10.757   4.103  -6.749  1.00  0.00     0.031 C 
ATOM     60  C   UNL     1      14.635   0.162  -8.177  1.00  0.00     0.029 A 
ATOM     61  C   UNL     1      13.989   1.380  -7.958  1.00  0.00     0.049 A 
ATOM     62  H   UNL     1      13.177   2.541  -9.517  1.00  0.00     0.167 HD
ATOM     63  C   UNL     1      12.858   3.123  -6.590  1.00  0.00     0.074 A 
ATOM     64  C   UNL     1      11.757   3.560  -7.447  1.00  0.00     0.031 C 
ATOM     65  C   UNL     1      13.850   2.207  -6.783  1.00  0.00     0.037 A 
BRANCH  52  66
ATOM     66  C   UNL     1      11.257   1.139 -11.430  1.00  0.00     0.064 A 
ATOM     67  C   UNL     1      12.191   1.770 -12.279  1.00  0.00     0.173 A 
ATOM     68  C   UNL     1       9.934   1.623 -11.521  1.00  0.00     0.173 A 
ATOM     69  F   UNL     1      13.482   1.406 -12.268  1.00  0.00    -0.203 F 
ATOM     70  C   UNL     1      11.843   2.858 -13.084  1.00  0.00     0.198 A 
ATOM     71  C   UNL     1       9.580   2.674 -12.365  1.00  0.00     0.198 A 
ATOM     72  F   UNL     1       8.956   1.185 -10.722  1.00  0.00    -0.203 F 
ATOM     73  F   UNL     1      12.793   3.511 -13.767  1.00  0.00    -0.200 F 
ATOM     74  C   UNL     1      10.539   3.314 -13.120  1.00  0.00     0.200 A 
ATOM     75  F   UNL     1       8.314   3.114 -12.371  1.00  0.00    -0.200 F 
ATOM     76  F   UNL     1      10.214   4.396 -13.840  1.00  0.00    -0.200 F 
ENDBRANCH  52  66
BRANCH  53  77
ATOM     77  C   UNL     1       9.360   4.591  -3.788  1.00  0.00     0.064 A 
ATOM     78  C   UNL     1       9.772   5.936  -3.736  1.00  0.00     0.173 A 
ATOM     79  C   UNL     1       7.989   4.354  -3.574  1.00  0.00     0.173 A 
ATOM     80  F   UNL     1      11.055   6.257  -3.963  1.00  0.00    -0.203 F 
ATOM     81  C   UNL     1       8.862   6.980  -3.534  1.00  0.00     0.198 A 
ATOM     82  C   UNL     1       7.082   5.397  -3.366  1.00  0.00     0.198 A 
ATOM     83  F   UNL     1       7.484   3.116  -3.659  1.00  0.00    -0.203 F 
ATOM     84  F   UNL     1       9.285   8.252  -3.568  1.00  0.00    -0.200 F 
ATOM     85  C   UNL     1       7.515   6.710  -3.365  1.00  0.00     0.200 A 
ATOM     86  F   UNL     1       5.776   5.125  -3.235  1.00  0.00    -0.200 F 
ATOM     87  F   UNL     1       6.633   7.712  -3.244  1.00  0.00    -0.200 F 
ENDBRANCH  53  77
BRANCH  65  88
ATOM     88  C   UNL     1      14.731   1.850  -5.618  1.00  0.00     0.064 A 
ATOM     89  C   UNL     1      14.285   1.168  -4.473  1.00  0.00     0.173 A 
ATOM     90  C   UNL     1      16.114   2.017  -5.772  1.00  0.00     0.173 A 
ATOM     91  F   UNL     1      12.988   0.897  -4.290  1.00  0.00    -0.203 F 
ATOM     92  C   UNL     1      15.186   0.681  -3.525  1.00  0.00     0.198 A 
ATOM     93  C   UNL     1      17.012   1.500  -4.843  1.00  0.00     0.198 A 
ATOM     94  F   UNL     1      16.597   2.621  -6.869  1.00  0.00    -0.203 F 
ATOM     95  F   UNL     1      14.737   0.020  -2.447  1.00  0.00    -0.200 F 
ATOM     96  C   UNL     1      16.548   0.834  -3.721  1.00  0.00     0.200 A 
ATOM     97  F   UNL     1      18.329   1.608  -5.062  1.00  0.00    -0.200 F 
ATOM     98  F   UNL     1      17.417   0.310  -2.844  1.00  0.00    -0.200 F 
ENDBRANCH  65  88
ENDBRANCH  39  40
ENDBRANCH  31  34
ENDBRANCH  29  30
ENDBRANCH  28  29
ENDBRANCH   1  28
TORSDOF 13
