REMARK SMILES Cc1nc(-c2ccccc2)sc1C(=O)N[C@@H](CC1=c2ccccc2=NC1)C(=O)NCCCCNC(=O)c1ccc(-c2c3nc(c(-c4c(F)c(F)c(F)c(F)c4F)c4ccc([nH]4)c(-c4c(F)c(F)c(F)c(F)c4F)c4nc(c(-c5c(F)c(F)c(F)c(F)c5F)c5ccc2[nH]5)C=C4)C=C3)cc1
REMARK SMILES IDX 31 1 30 2 29 3 27 4 28 5 16 7 15 8 13 9 14 10 12 12 1 13
REMARK SMILES IDX 2 14 3 15 4 16 11 17 5 18 6 19 10 20 7 21 9 22 8 23 17 24
REMARK SMILES IDX 18 25 19 26 26 27 20 28 24 29 25 30 21 31 23 32 22 33 32 34
REMARK SMILES IDX 33 35 34 36 35 37 36 39 37 40 38 41 99 42 39 43 98 44 40 45
REMARK SMILES IDX 41 46 42 47 92 48 43 49 97 50 91 51 93 52 44 53 96 54 90 55
REMARK SMILES IDX 89 56 45 58 77 59 57 60 76 61 58 62 61 63 75 64 94 65 59 66
REMARK SMILES IDX 60 67 74 69 95 70 62 71 46 72 47 73 55 74 48 75 49 76 53 77
REMARK SMILES IDX 56 78 50 79 51 80 54 81 52 82 78 83 79 84 87 85 80 86 81 87
REMARK SMILES IDX 85 88 88 89 82 90 83 91 86 92 84 93 63 94 64 95 72 96 65 97
REMARK SMILES IDX 66 98 70 99 73 100 67 101 68 102 71 103 69 104
REMARK H PARENT 29 6 15 11 34 38 93 57 61 68
REMARK Flexibility Score: inf
ROOT
ATOM      1  C   UNL     1      -3.000  -6.404   2.237  1.00  0.00     0.023 C 
ENDROOT
BRANCH   1   2
ATOM      2  C   UNL     1      -3.449  -5.285   1.315  1.00  0.00     0.116 C 
BRANCH   2   3
ATOM      3  N   UNL     1      -3.868  -4.075   1.979  1.00  0.00    -0.354 N 
ATOM      4  C   UNL     1      -3.947  -2.810   1.482  1.00  0.00     0.242 C 
ATOM      5  O   UNL     1      -4.779  -2.063   2.010  1.00  0.00    -0.273 OA
ATOM      6  H   UNL     1      -4.133  -4.178   2.922  1.00  0.00     0.163 HD
BRANCH   4   7
ATOM      7  C   UNL     1      -3.135  -2.308   0.265  1.00  0.00     0.175 C 
BRANCH   7   8
ATOM      8  N   UNL     1      -1.725  -2.656   0.265  1.00  0.00    -0.339 N 
ATOM      9  C   UNL     1      -0.561  -1.959   0.088  1.00  0.00     0.263 C 
ATOM     10  O   UNL     1       0.418  -2.718   0.069  1.00  0.00    -0.268 OA
ATOM     11  H   UNL     1      -1.571  -3.614   0.431  1.00  0.00     0.164 HD
BRANCH   9  12
ATOM     12  C   UNL     1      -0.428  -0.509  -0.039  1.00  0.00     0.115 A 
ATOM     13  C   UNL     1      -2.669   0.789  -0.584  1.00  0.00     0.068 C 
ATOM     14  C   UNL     1      -1.228   0.610  -0.274  1.00  0.00     0.062 A 
ATOM     15  N   UNL     1      -0.564   1.827  -0.227  1.00  0.00    -0.241 NA
ATOM     16  C   UNL     1       0.723   1.671  -0.066  1.00  0.00     0.124 A 
ATOM     17  S   UNL     1       1.233   0.063   0.109  1.00  0.00    -0.108 S 
BRANCH  16  18
ATOM     18  C   UNL     1       1.649   2.795  -0.020  1.00  0.00     0.010 A 
ATOM     19  C   UNL     1       1.477   3.772   0.971  1.00  0.00     0.011 A 
ATOM     20  C   UNL     1       2.604   2.996  -1.024  1.00  0.00     0.011 A 
ATOM     21  C   UNL     1       2.239   4.939   0.954  1.00  0.00     0.001 A 
ATOM     22  C   UNL     1       3.360   4.170  -1.044  1.00  0.00     0.001 A 
ATOM     23  C   UNL     1       3.172   5.141  -0.060  1.00  0.00     0.000 A 
ENDBRANCH  16  18
ENDBRANCH   9  12
ENDBRANCH   7   8
BRANCH   7  24
ATOM     24  C   UNL     1      -3.802  -2.530  -1.118  1.00  0.00     0.068 C 
BRANCH  24  25
ATOM     25  C   UNL     1      -4.013  -3.940  -1.583  1.00  0.00    -0.037 C 
ATOM     26  C   UNL     1      -3.117  -4.858  -1.945  1.00  0.00     0.001 A 
ATOM     27  C   UNL     1      -5.399  -4.515  -1.634  1.00  0.00     0.174 C 
ATOM     28  C   UNL     1      -1.697  -4.897  -2.081  1.00  0.00     0.010 A 
ATOM     29  C   UNL     1      -3.930  -6.088  -2.007  1.00  0.00     0.065 A 
ATOM     30  N   UNL     1      -5.213  -5.969  -1.844  1.00  0.00    -0.280 NA
ATOM     31  C   UNL     1      -1.090  -6.091  -2.177  1.00  0.00     0.001 A 
ATOM     32  C   UNL     1      -3.192  -7.363  -2.126  1.00  0.00     0.028 A 
ATOM     33  C   UNL     1      -1.849  -7.331  -2.170  1.00  0.00     0.002 A 
ENDBRANCH  24  25
ENDBRANCH   7  24
ENDBRANCH   4   7
ENDBRANCH   2   3
ENDBRANCH   1   2
BRANCH   1  34
ATOM     34  C   UNL     1      -4.073  -6.933   3.182  1.00  0.00     0.023 C 
BRANCH  34  35
ATOM     35  C   UNL     1      -5.439  -7.194   2.557  1.00  0.00     0.116 C 
BRANCH  35  36
ATOM     36  N   UNL     1      -5.407  -8.127   1.440  1.00  0.00    -0.352 N 
ATOM     37  C   UNL     1      -6.088  -9.316   1.278  1.00  0.00     0.251 C 
ATOM     38  H   UNL     1      -4.816  -7.874   0.695  1.00  0.00     0.163 HD
ATOM     39  O   UNL     1      -5.859 -10.050   0.336  1.00  0.00    -0.269 OA
BRANCH  37  40
ATOM     40  C   UNL     1      -7.080  -9.700   2.305  1.00  0.00     0.039 A 
ATOM     41  C   UNL     1      -6.974 -10.952   2.914  1.00  0.00     0.014 A 
ATOM     42  C   UNL     1      -8.053  -8.787   2.717  1.00  0.00     0.014 A 
ATOM     43  C   UNL     1      -7.785 -11.248   4.011  1.00  0.00     0.010 A 
ATOM     44  C   UNL     1      -8.794  -9.049   3.863  1.00  0.00     0.010 A 
ATOM     45  C   UNL     1      -8.662 -10.279   4.527  1.00  0.00    -0.014 A 
BRANCH  45  46
ATOM     46  C   UNL     1      -9.443 -10.522   5.766  1.00  0.00     0.031 A 
ATOM     47  C   UNL     1     -10.945 -10.520   5.719  1.00  0.00     0.074 A 
ATOM     48  C   UNL     1      -8.803 -10.658   6.944  1.00  0.00     0.049 A 
ATOM     49  N   UNL     1     -11.805 -10.625   6.700  1.00  0.00    -0.248 NA
ATOM     50  C   UNL     1     -11.563 -10.338   4.396  1.00  0.00     0.031 C 
ATOM     51  C   UNL     1      -7.352 -10.611   7.133  1.00  0.00     0.029 A 
ATOM     52  N   UNL     1      -9.294 -10.852   8.212  1.00  0.00    -0.354 N 
ATOM     53  C   UNL     1     -13.058 -10.499   6.116  1.00  0.00     0.074 A 
ATOM     54  C   UNL     1     -12.847 -10.254   4.707  1.00  0.00     0.031 C 
ATOM     55  C   UNL     1      -7.070 -10.797   8.432  1.00  0.00     0.029 A 
ATOM     56  C   UNL     1      -8.318 -10.943   9.174  1.00  0.00     0.049 A 
ATOM     57  H   UNL     1     -10.256 -10.918   8.412  1.00  0.00     0.167 HD
ATOM     58  C   UNL     1     -14.276 -10.607   6.698  1.00  0.00     0.037 A 
ATOM     59  C   UNL     1      -8.421 -11.124  10.505  1.00  0.00     0.037 A 
ATOM     60  C   UNL     1     -14.483 -10.891   8.093  1.00  0.00     0.049 A 
ATOM     61  C   UNL     1      -9.785 -11.270  11.122  1.00  0.00     0.074 A 
ATOM     62  C   UNL     1     -15.675 -11.091   8.766  1.00  0.00     0.029 A 
ATOM     63  N   UNL     1     -13.468 -11.021   9.029  1.00  0.00    -0.354 N 
ATOM     64  N   UNL     1     -10.963 -11.225  10.548  1.00  0.00    -0.248 NA
ATOM     65  C   UNL     1      -9.834 -11.501  12.573  1.00  0.00     0.031 C 
ATOM     66  C   UNL     1     -15.384 -11.307  10.117  1.00  0.00     0.029 A 
ATOM     67  C   UNL     1     -14.007 -11.285  10.277  1.00  0.00     0.049 A 
ATOM     68  H   UNL     1     -12.506 -10.938   8.835  1.00  0.00     0.167 HD
ATOM     69  C   UNL     1     -11.889 -11.449  11.557  1.00  0.00     0.074 A 
ATOM     70  C   UNL     1     -11.136 -11.644  12.779  1.00  0.00     0.031 C 
ATOM     71  C   UNL     1     -13.241 -11.489  11.479  1.00  0.00     0.037 A 
BRANCH  58  72
ATOM     72  C   UNL     1     -15.479 -10.430   5.819  1.00  0.00     0.064 A 
ATOM     73  C   UNL     1     -15.828 -11.385   4.852  1.00  0.00     0.173 A 
ATOM     74  C   UNL     1     -16.307  -9.307   5.961  1.00  0.00     0.173 A 
ATOM     75  F   UNL     1     -15.060 -12.470   4.668  1.00  0.00    -0.203 F 
ATOM     76  C   UNL     1     -16.942 -11.206   4.037  1.00  0.00     0.198 A 
ATOM     77  C   UNL     1     -17.438  -9.146   5.165  1.00  0.00     0.198 A 
ATOM     78  F   UNL     1     -16.021  -8.366   6.874  1.00  0.00    -0.203 F 
ATOM     79  F   UNL     1     -17.225 -12.105   3.085  1.00  0.00    -0.200 F 
ATOM     80  C   UNL     1     -17.750 -10.091   4.199  1.00  0.00     0.200 A 
ATOM     81  F   UNL     1     -18.225  -8.073   5.330  1.00  0.00    -0.200 F 
ATOM     82  F   UNL     1     -18.826  -9.922   3.417  1.00  0.00    -0.200 F 
ENDBRANCH  58  72
BRANCH  59  83
ATOM     83  C   UNL     1      -7.196 -11.217  11.340  1.00  0.00     0.064 A 
ATOM     84  C   UNL     1      -6.808 -12.439  11.909  1.00  0.00     0.173 A 
ATOM     85  C   UNL     1      -6.393 -10.096  11.592  1.00  0.00     0.173 A 
ATOM     86  F   UNL     1      -7.555 -13.535  11.713  1.00  0.00    -0.203 F 
ATOM     87  C   UNL     1      -5.676 -12.530  12.716  1.00  0.00     0.198 A 
ATOM     88  C   UNL     1      -5.247 -10.194  12.378  1.00  0.00     0.198 A 
ATOM     89  F   UNL     1      -6.718  -8.906  11.066  1.00  0.00    -0.203 F 
ATOM     90  F   UNL     1      -5.354 -13.700  13.284  1.00  0.00    -0.200 F 
ATOM     91  C   UNL     1      -4.894 -11.409  12.946  1.00  0.00     0.200 A 
ATOM     92  F   UNL     1      -4.486  -9.111  12.588  1.00  0.00    -0.200 F 
ATOM     93  F   UNL     1      -3.804 -11.498  13.721  1.00  0.00    -0.200 F 
ENDBRANCH  59  83
BRANCH  71  94
ATOM     94  C   UNL     1     -13.993 -11.791  12.742  1.00  0.00     0.064 A 
ATOM     95  C   UNL     1     -14.109 -10.848  13.772  1.00  0.00     0.173 A 
ATOM     96  C   UNL     1     -14.638 -13.027  12.903  1.00  0.00     0.173 A 
ATOM     97  F   UNL     1     -13.497  -9.658  13.671  1.00  0.00    -0.203 F 
ATOM     98  C   UNL     1     -14.826 -11.139  14.929  1.00  0.00     0.198 A 
ATOM     99  C   UNL     1     -15.377 -13.304  14.049  1.00  0.00     0.198 A 
ATOM    100  F   UNL     1     -14.561 -13.960  11.943  1.00  0.00    -0.203 F 
ATOM    101  F   UNL     1     -14.888 -10.239  15.921  1.00  0.00    -0.200 F 
ATOM    102  C   UNL     1     -15.465 -12.363  15.064  1.00  0.00     0.200 A 
ATOM    103  F   UNL     1     -16.004 -14.482  14.172  1.00  0.00    -0.200 F 
ATOM    104  F   UNL     1     -16.160 -12.638  16.176  1.00  0.00    -0.200 F 
ENDBRANCH  71  94
ENDBRANCH  45  46
ENDBRANCH  37  40
ENDBRANCH  35  36
ENDBRANCH  34  35
ENDBRANCH   1  34
TORSDOF 16
