REMARK SMILES O=C(NC1CCCCCC1)N[C@@H]1C=C[C@H](C(=O)NCCCCNC(=O)c2ccc(-c3c4nc(c(-c5c(F)c(F)c(F)c(F)c5F)c5ccc([nH]5)c(-c5c(F)c(F)c(F)c(F)c5F)c5nc(c(-c6c(F)c(F)c(F)c(F)c6F)c6ccc3[nH]6)C=C5)C=C4)cc2)C1
REMARK SMILES IDX 19 1 18 2 16 3 17 4 15 6 12 7 13 8 89 9 14 10 11 11 1 12
REMARK SMILES IDX 2 13 3 14 4 17 5 18 6 19 7 20 10 22 9 23 8 24 20 26 21 27
REMARK SMILES IDX 22 28 23 29 24 30 25 32 26 33 27 34 88 35 28 36 87 37 29 38
REMARK SMILES IDX 30 39 31 40 81 41 32 42 86 43 80 44 82 45 33 46 85 47 79 48
REMARK SMILES IDX 78 49 34 51 66 52 46 53 65 54 47 55 50 56 64 57 83 58 48 59
REMARK SMILES IDX 49 60 63 62 84 63 51 64 35 65 36 66 44 67 37 68 38 69 42 70
REMARK SMILES IDX 45 71 39 72 40 73 43 74 41 75 67 76 68 77 76 78 69 79 70 80
REMARK SMILES IDX 74 81 77 82 71 83 72 84 75 85 73 86 52 87 53 88 61 89 54 90
REMARK SMILES IDX 55 91 59 92 62 93 56 94 57 95 60 96 58 97
REMARK H PARENT 18 5 3 15 11 16 23 31 82 50 50 61
REMARK Flexibility Score: 90.00
ROOT
ATOM      1  C   UNL     1       2.227   6.554   2.169  1.00  0.00     0.116 C 
ENDROOT
BRANCH   1   2
ATOM      2  N   UNL     1       1.450   5.805   3.138  1.00  0.00    -0.356 N 
ATOM      3  C   UNL     1       1.663   4.545   3.629  1.00  0.00     0.227 C 
ATOM      4  O   UNL     1       0.896   4.129   4.499  1.00  0.00    -0.274 OA
ATOM      5  H   UNL     1       0.657   6.268   3.492  1.00  0.00     0.163 HD
BRANCH   3   6
ATOM      6  C   UNL     1       2.886   3.764   3.136  1.00  0.00     0.103 C 
ATOM      7  C   UNL     1       2.329   1.782   1.788  1.00  0.00     0.107 C 
ATOM      8  C   UNL     1       2.839   1.411   3.150  1.00  0.00    -0.006 C 
ATOM      9  C   UNL     1       2.747   3.256   1.695  1.00  0.00     0.047 C 
ATOM     10  C   UNL     1       3.119   2.490   3.892  1.00  0.00    -0.016 C 
BRANCH   7  11
ATOM     11  N   UNL     1       0.927   1.424   1.776  1.00  0.00    -0.332 N 
ATOM     12  O   UNL     1      -0.074   3.326   0.972  1.00  0.00    -0.249 OA
ATOM     13  C   UNL     1      -0.136   2.190   1.434  1.00  0.00     0.315 C 
ATOM     14  N   UNL     1      -1.363   1.642   1.636  1.00  0.00    -0.335 N 
ATOM     15  H   UNL     1      -2.113   2.250   1.444  1.00  0.00     0.165 HD
ATOM     16  H   UNL     1       0.718   0.503   2.053  1.00  0.00     0.165 HD
BRANCH  14  17
ATOM     17  C   UNL     1      -1.770   0.307   2.091  1.00  0.00     0.083 C 
BRANCH  17  18
ATOM     18  C   UNL     1      -1.373   0.038   3.553  1.00  0.00     0.025 C 
BRANCH  18  19
ATOM     19  C   UNL     1      -2.400   0.439   4.608  1.00  0.00     0.002 C 
BRANCH  19  20
ATOM     20  C   UNL     1      -3.415  -0.668   4.886  1.00  0.00     0.000 CG0
ATOM     21  G   UNL     1      -4.462  -0.872   3.798  1.00  0.00     0.000 G0
ENDBRANCH  19  20
ENDBRANCH  18  19
ENDBRANCH  17  18
BRANCH  17  22
ATOM     22  C   UNL     1      -3.264   0.116   1.776  1.00  0.00     0.025 C 
BRANCH  22  23
ATOM     23  C   UNL     1      -3.909  -1.123   2.395  1.00  0.00     0.002 C 
BRANCH  23  24
ATOM     24  C   UNL     1      -4.462  -0.872   3.798  1.00  0.00     0.000 CG0
ATOM     25  G   UNL     1      -3.415  -0.668   4.886  1.00  0.00     0.000 G0
ENDBRANCH  23  24
ENDBRANCH  22  23
ENDBRANCH  17  22
ENDBRANCH  14  17
ENDBRANCH   7  11
ENDBRANCH   3   6
ENDBRANCH   1   2
BRANCH   1  26
ATOM     26  C   UNL     1       1.394   6.970   0.958  1.00  0.00     0.023 C 
BRANCH  26  27
ATOM     27  C   UNL     1       0.227   7.910   1.268  1.00  0.00     0.023 C 
BRANCH  27  28
ATOM     28  C   UNL     1       0.600   9.197   1.994  1.00  0.00     0.116 C 
BRANCH  28  29
ATOM     29  N   UNL     1       1.507  10.040   1.230  1.00  0.00    -0.352 N 
ATOM     30  C   UNL     1       1.408  11.375   0.918  1.00  0.00     0.251 C 
ATOM     31  H   UNL     1       2.310   9.587   0.884  1.00  0.00     0.163 HD
ATOM     32  O   UNL     1       2.205  11.887   0.139  1.00  0.00    -0.269 OA
BRANCH  30  33
ATOM     33  C   UNL     1       0.319  12.193   1.496  1.00  0.00     0.039 A 
ATOM     34  C   UNL     1      -0.383  13.067   0.661  1.00  0.00     0.014 A 
ATOM     35  C   UNL     1      -0.014  12.100   2.850  1.00  0.00     0.014 A 
ATOM     36  C   UNL     1      -1.464  13.792   1.168  1.00  0.00     0.010 A 
ATOM     37  C   UNL     1      -1.141  12.760   3.333  1.00  0.00     0.010 A 
ATOM     38  C   UNL     1      -1.879  13.613   2.498  1.00  0.00    -0.014 A 
BRANCH  38  39
ATOM     39  C   UNL     1      -3.084  14.302   3.029  1.00  0.00     0.031 A 
ATOM     40  C   UNL     1      -2.961  15.287   4.158  1.00  0.00     0.074 A 
ATOM     41  C   UNL     1      -4.300  13.993   2.537  1.00  0.00     0.049 A 
ATOM     42  N   UNL     1      -3.900  15.942   4.794  1.00  0.00    -0.248 NA
ATOM     43  C   UNL     1      -1.603  15.551   4.657  1.00  0.00     0.031 C 
ATOM     44  C   UNL     1      -4.559  13.023   1.473  1.00  0.00     0.029 A 
ATOM     45  N   UNL     1      -5.548  14.456   2.875  1.00  0.00    -0.354 N 
ATOM     46  C   UNL     1      -3.249  16.683   5.771  1.00  0.00     0.074 A 
ATOM     47  C   UNL     1      -1.843  16.350   5.685  1.00  0.00     0.031 C 
ATOM     48  C   UNL     1      -5.877  12.985   1.224  1.00  0.00     0.029 A 
ATOM     49  C   UNL     1      -6.562  13.892   2.141  1.00  0.00     0.049 A 
ATOM     50  H   UNL     1      -5.701  15.130   3.577  1.00  0.00     0.167 HD
ATOM     51  C   UNL     1      -3.771  17.580   6.643  1.00  0.00     0.037 A 
ATOM     52  C   UNL     1      -7.894  14.077   2.204  1.00  0.00     0.037 A 
ATOM     53  C   UNL     1      -5.169  17.915   6.720  1.00  0.00     0.049 A 
ATOM     54  C   UNL     1      -8.454  15.053   3.204  1.00  0.00     0.074 A 
ATOM     55  C   UNL     1      -5.791  18.847   7.532  1.00  0.00     0.029 A 
ATOM     56  N   UNL     1      -6.168  17.319   5.961  1.00  0.00    -0.354 N 
ATOM     57  N   UNL     1      -7.822  15.802   4.075  1.00  0.00    -0.248 NA
ATOM     58  C   UNL     1      -9.915  15.211   3.226  1.00  0.00     0.031 C 
ATOM     59  C   UNL     1      -7.170  18.771   7.310  1.00  0.00     0.029 A 
ATOM     60  C   UNL     1      -7.404  17.841   6.310  1.00  0.00     0.049 A 
ATOM     61  H   UNL     1      -6.020  16.627   5.277  1.00  0.00     0.167 HD
ATOM     62  C   UNL     1      -8.801  16.542   4.725  1.00  0.00     0.074 A 
ATOM     63  C   UNL     1     -10.069  16.161   4.137  1.00  0.00     0.031 C 
ATOM     64  C   UNL     1      -8.661  17.456   5.716  1.00  0.00     0.037 A 
BRANCH  51  65
ATOM     65  C   UNL     1      -2.819  18.253   7.593  1.00  0.00     0.064 A 
ATOM     66  C   UNL     1      -1.841  19.154   7.144  1.00  0.00     0.173 A 
ATOM     67  C   UNL     1      -2.894  18.007   8.972  1.00  0.00     0.173 A 
ATOM     68  F   UNL     1      -1.718  19.421   5.834  1.00  0.00    -0.203 F 
ATOM     69  C   UNL     1      -0.947  19.747   8.032  1.00  0.00     0.198 A 
ATOM     70  C   UNL     1      -2.023  18.630   9.862  1.00  0.00     0.198 A 
ATOM     71  F   UNL     1      -3.816  17.162   9.460  1.00  0.00    -0.203 F 
ATOM     72  F   UNL     1       0.021  20.550   7.570  1.00  0.00    -0.200 F 
ATOM     73  C   UNL     1      -1.042  19.489   9.391  1.00  0.00     0.200 A 
ATOM     74  F   UNL     1      -2.128  18.393  11.177  1.00  0.00    -0.200 F 
ATOM     75  F   UNL     1      -0.182  20.061  10.245  1.00  0.00    -0.200 F 
ENDBRANCH  51  65
BRANCH  52  76
ATOM     76  C   UNL     1      -8.789  13.343   1.272  1.00  0.00     0.064 A 
ATOM     77  C   UNL     1      -9.479  14.020   0.257  1.00  0.00     0.173 A 
ATOM     78  C   UNL     1      -8.969  11.955   1.369  1.00  0.00     0.173 A 
ATOM     79  F   UNL     1      -9.357  15.350   0.136  1.00  0.00    -0.203 F 
ATOM     80  C   UNL     1     -10.329  13.340  -0.614  1.00  0.00     0.198 A 
ATOM     81  C   UNL     1      -9.794  11.272   0.478  1.00  0.00     0.198 A 
ATOM     82  F   UNL     1      -8.329  11.259   2.319  1.00  0.00    -0.203 F 
ATOM     83  F   UNL     1     -11.011  14.019  -1.547  1.00  0.00    -0.200 F 
ATOM     84  C   UNL     1     -10.479  11.966  -0.508  1.00  0.00     0.200 A 
ATOM     85  F   UNL     1      -9.925   9.942   0.574  1.00  0.00    -0.200 F 
ATOM     86  F   UNL     1     -11.290  11.312  -1.351  1.00  0.00    -0.200 F 
ENDBRANCH  52  76
BRANCH  64  87
ATOM     87  C   UNL     1      -9.906  18.140   6.207  1.00  0.00     0.064 A 
ATOM     88  C   UNL     1     -10.882  17.460   6.950  1.00  0.00     0.173 A 
ATOM     89  C   UNL     1     -10.107  19.508   5.960  1.00  0.00     0.173 A 
ATOM     90  F   UNL     1     -10.747  16.149   7.202  1.00  0.00    -0.203 F 
ATOM     91  C   UNL     1     -12.024  18.116   7.403  1.00  0.00     0.198 A 
ATOM     92  C   UNL     1     -11.232  20.168   6.444  1.00  0.00     0.198 A 
ATOM     93  F   UNL     1      -9.202  20.209   5.260  1.00  0.00    -0.203 F 
ATOM     94  F   UNL     1     -12.969  17.433   8.064  1.00  0.00    -0.200 F 
ATOM     95  C   UNL     1     -12.194  19.470   7.157  1.00  0.00     0.200 A 
ATOM     96  F   UNL     1     -11.386  21.481   6.220  1.00  0.00    -0.200 F 
ATOM     97  F   UNL     1     -13.290  20.101   7.601  1.00  0.00    -0.200 F 
ENDBRANCH  64  87
ENDBRANCH  38  39
ENDBRANCH  30  33
ENDBRANCH  28  29
ENDBRANCH  27  28
ENDBRANCH  26  27
ENDBRANCH   1  26
TORSDOF 13
