REMARK SMILES O=C(NCCCCNC(=O)c1cc(=O)[nH]c2ccc(C(F)(F)F)cc12)c1ccc(-c2c3nc(c(-c4c(F)c(F)c(F)c(F)c4F)c4ccc([nH]4)c(-c4c(F)c(F)c(F)c(F)c4F)c4nc(c(-c5c(F)c(F)c(F)c(F)c5F)c5ccc2[nH]5)C=C4)C=C3)cc1
REMARK SMILES IDX 5 1 4 2 3 3 1 4 2 5 26 7 27 8 88 9 28 10 87 11 29 12 30 13
REMARK SMILES IDX 31 14 81 15 32 16 86 17 80 18 82 19 33 20 85 21 79 22 78 23
REMARK SMILES IDX 34 25 66 26 46 27 65 28 47 29 50 30 64 31 83 32 48 33 49 34
REMARK SMILES IDX 63 36 84 37 51 38 35 39 36 40 44 41 37 42 38 43 42 44 45 45
REMARK SMILES IDX 39 46 40 47 43 48 41 49 67 50 68 51 76 52 69 53 70 54 74 55
REMARK SMILES IDX 77 56 71 57 72 58 75 59 73 60 52 61 53 62 61 63 54 64 55 65
REMARK SMILES IDX 59 66 62 67 56 68 57 69 60 70 58 71 6 72 7 73 8 74 9 75
REMARK SMILES IDX 10 77 11 78 12 79 25 80 13 81 16 82 24 83 14 84 15 85 17 86
REMARK SMILES IDX 19 87 18 89 20 90 21 91 22 92 23 93
REMARK H PARENT 3 6 82 24 50 35 8 76 15 88
REMARK Flexibility Score: inf
ROOT
ATOM      1  C   UNL     1       4.885  -1.202   2.196  1.00  0.00     0.023 C 
ENDROOT
BRANCH   1   2
ATOM      2  C   UNL     1       4.533  -1.096   0.717  1.00  0.00     0.116 C 
BRANCH   2   3
ATOM      3  N   UNL     1       3.099  -1.089   0.474  1.00  0.00    -0.352 N 
ATOM      4  O   UNL     1       1.088  -0.238  -0.085  1.00  0.00    -0.269 OA
ATOM      5  C   UNL     1       2.311  -0.126  -0.106  1.00  0.00     0.251 C 
ATOM      6  H   UNL     1       2.621  -1.897   0.772  1.00  0.00     0.163 HD
BRANCH   5   7
ATOM      7  C   UNL     1       2.927   1.064  -0.729  1.00  0.00     0.039 A 
ATOM      8  C   UNL     1       4.032   0.945  -1.576  1.00  0.00     0.014 A 
ATOM      9  C   UNL     1       2.377   2.322  -0.468  1.00  0.00     0.014 A 
ATOM     10  C   UNL     1       4.676   2.088  -2.040  1.00  0.00     0.010 A 
ATOM     11  C   UNL     1       2.976   3.465  -1.002  1.00  0.00     0.010 A 
ATOM     12  C   UNL     1       4.151   3.359  -1.764  1.00  0.00    -0.014 A 
BRANCH  12  13
ATOM     13  C   UNL     1       4.812   4.574  -2.304  1.00  0.00     0.031 A 
ATOM     14  C   UNL     1       5.411   5.596  -1.381  1.00  0.00     0.074 A 
ATOM     15  C   UNL     1       4.851   4.762  -3.636  1.00  0.00     0.049 A 
ATOM     16  N   UNL     1       5.957   6.752  -1.667  1.00  0.00    -0.248 NA
ATOM     17  C   UNL     1       5.385   5.284   0.056  1.00  0.00     0.031 C 
ATOM     18  C   UNL     1       4.305   3.839  -4.632  1.00  0.00     0.029 A 
ATOM     19  N   UNL     1       5.362   5.793  -4.381  1.00  0.00    -0.354 N 
ATOM     20  C   UNL     1       6.318   7.314  -0.449  1.00  0.00     0.074 A 
ATOM     21  C   UNL     1       5.904   6.385   0.581  1.00  0.00     0.031 C 
ATOM     22  C   UNL     1       4.522   4.337  -5.857  1.00  0.00     0.029 A 
ATOM     23  C   UNL     1       5.162   5.642  -5.731  1.00  0.00     0.049 A 
ATOM     24  H   UNL     1       5.828   6.566  -3.987  1.00  0.00     0.167 HD
ATOM     25  C   UNL     1       6.941   8.495  -0.217  1.00  0.00     0.037 A 
ATOM     26  C   UNL     1       5.431   6.475  -6.753  1.00  0.00     0.037 A 
ATOM     27  C   UNL     1       7.353   9.410  -1.251  1.00  0.00     0.049 A 
ATOM     28  C   UNL     1       6.080   7.799  -6.467  1.00  0.00     0.074 A 
ATOM     29  C   UNL     1       8.022  10.615  -1.122  1.00  0.00     0.029 A 
ATOM     30  N   UNL     1       7.124   9.226  -2.608  1.00  0.00    -0.354 N 
ATOM     31  N   UNL     1       6.445   8.309  -5.316  1.00  0.00    -0.248 NA
ATOM     32  C   UNL     1       6.356   8.664  -7.622  1.00  0.00     0.031 C 
ATOM     33  C   UNL     1       8.144  11.187  -2.393  1.00  0.00     0.029 A 
ATOM     34  C   UNL     1       7.613  10.308  -3.323  1.00  0.00     0.049 A 
ATOM     35  H   UNL     1       6.679   8.441  -3.004  1.00  0.00     0.167 HD
ATOM     36  C   UNL     1       7.021   9.537  -5.607  1.00  0.00     0.074 A 
ATOM     37  C   UNL     1       6.960   9.694  -7.046  1.00  0.00     0.031 C 
ATOM     38  C   UNL     1       7.556  10.448  -4.758  1.00  0.00     0.037 A 
BRANCH  25  39
ATOM     39  C   UNL     1       7.185   8.882   1.216  1.00  0.00     0.064 A 
ATOM     40  C   UNL     1       8.105   8.198   2.024  1.00  0.00     0.173 A 
ATOM     41  C   UNL     1       6.500   9.969   1.782  1.00  0.00     0.173 A 
ATOM     42  F   UNL     1       8.781   7.146   1.537  1.00  0.00    -0.203 F 
ATOM     43  C   UNL     1       8.301   8.562   3.355  1.00  0.00     0.198 A 
ATOM     44  C   UNL     1       6.724  10.352   3.103  1.00  0.00     0.198 A 
ATOM     45  F   UNL     1       5.616  10.667   1.054  1.00  0.00    -0.203 F 
ATOM     46  F   UNL     1       9.141   7.854   4.124  1.00  0.00    -0.200 F 
ATOM     47  C   UNL     1       7.615   9.641   3.891  1.00  0.00     0.200 A 
ATOM     48  F   UNL     1       6.072  11.405   3.614  1.00  0.00    -0.200 F 
ATOM     49  F   UNL     1       7.806   9.989   5.171  1.00  0.00    -0.200 F 
ENDBRANCH  25  39
BRANCH  26  50
ATOM     50  C   UNL     1       5.074   6.069  -8.136  1.00  0.00     0.064 A 
ATOM     51  C   UNL     1       6.066   5.745  -9.071  1.00  0.00     0.173 A 
ATOM     52  C   UNL     1       3.734   5.956  -8.537  1.00  0.00     0.173 A 
ATOM     53  F   UNL     1       7.360   5.853  -8.738  1.00  0.00    -0.203 F 
ATOM     54  C   UNL     1       5.731   5.331 -10.358  1.00  0.00     0.198 A 
ATOM     55  C   UNL     1       3.400   5.513  -9.814  1.00  0.00     0.198 A 
ATOM     56  F   UNL     1       2.749   6.246  -7.675  1.00  0.00    -0.203 F 
ATOM     57  F   UNL     1       6.698   5.057 -11.244  1.00  0.00    -0.200 F 
ATOM     58  C   UNL     1       4.399   5.207 -10.726  1.00  0.00     0.200 A 
ATOM     59  F   UNL     1       2.113   5.375 -10.157  1.00  0.00    -0.200 F 
ATOM     60  F   UNL     1       4.078   4.792 -11.959  1.00  0.00    -0.200 F 
ENDBRANCH  26  50
BRANCH  38  61
ATOM     61  C   UNL     1       8.172  11.678  -5.361  1.00  0.00     0.064 A 
ATOM     62  C   UNL     1       7.392  12.698  -5.923  1.00  0.00     0.173 A 
ATOM     63  C   UNL     1       9.563  11.859  -5.322  1.00  0.00     0.173 A 
ATOM     64  F   UNL     1       6.059  12.566  -6.000  1.00  0.00    -0.203 F 
ATOM     65  C   UNL     1       7.984  13.848  -6.441  1.00  0.00     0.198 A 
ATOM     66  C   UNL     1      10.149  13.023  -5.812  1.00  0.00     0.198 A 
ATOM     67  F   UNL     1      10.354  10.915  -4.791  1.00  0.00    -0.203 F 
ATOM     68  F   UNL     1       7.224  14.792  -7.012  1.00  0.00    -0.200 F 
ATOM     69  C   UNL     1       9.360  14.013  -6.376  1.00  0.00     0.200 A 
ATOM     70  F   UNL     1      11.477  13.186  -5.734  1.00  0.00    -0.200 F 
ATOM     71  F   UNL     1       9.927  15.126  -6.862  1.00  0.00    -0.200 F 
ENDBRANCH  38  61
ENDBRANCH  12  13
ENDBRANCH   5   7
ENDBRANCH   2   3
ENDBRANCH   1   2
BRANCH   1  72
ATOM     72  C   UNL     1       4.403  -2.473   2.894  1.00  0.00     0.023 C 
BRANCH  72  73
ATOM     73  C   UNL     1       4.792  -3.783   2.215  1.00  0.00     0.116 C 
BRANCH  73  74
ATOM     74  N   UNL     1       6.232  -3.946   2.088  1.00  0.00    -0.352 N 
ATOM     75  C   UNL     1       7.029  -4.991   2.461  1.00  0.00     0.252 C 
ATOM     76  H   UNL     1       6.703  -3.189   1.671  1.00  0.00     0.163 HD
ATOM     77  O   UNL     1       8.246  -4.905   2.321  1.00  0.00    -0.269 OA
BRANCH  75  78
ATOM     78  C   UNL     1       6.406  -6.199   3.061  1.00  0.00     0.054 A 
ATOM     79  C   UNL     1       5.503  -6.847   2.306  1.00  0.00     0.086 A 
ATOM     80  C   UNL     1       6.797  -6.743   4.374  1.00  0.00     0.012 A 
ATOM     81  C   UNL     1       4.770  -8.017   2.824  1.00  0.00     0.249 A 
ATOM     82  C   UNL     1       6.117  -7.875   4.850  1.00  0.00     0.049 A 
ATOM     83  C   UNL     1       7.814  -6.191   5.167  1.00  0.00     0.024 A 
ATOM     84  O   UNL     1       3.882  -8.539   2.160  1.00  0.00    -0.270 OA
ATOM     85  N   UNL     1       5.113  -8.459   4.069  1.00  0.00    -0.322 N 
ATOM     86  C   UNL     1       6.431  -8.439   6.086  1.00  0.00     0.027 A 
ATOM     87  C   UNL     1       8.157  -6.761   6.408  1.00  0.00     0.056 A 
ATOM     88  H   UNL     1       4.627  -9.232   4.438  1.00  0.00     0.170 HD
ATOM     89  C   UNL     1       7.451  -7.885   6.860  1.00  0.00     0.015 A 
BRANCH  87  90
ATOM     90  C   UNL     1       9.278  -6.162   7.227  1.00  0.00     0.416 C 
ATOM     91  F   UNL     1      10.461  -6.137   6.555  1.00  0.00    -0.166 F 
ATOM     92  F   UNL     1       9.022  -4.876   7.591  1.00  0.00    -0.166 F 
ATOM     93  F   UNL     1       9.521  -6.837   8.385  1.00  0.00    -0.166 F 
ENDBRANCH  87  90
ENDBRANCH  75  78
ENDBRANCH  73  74
ENDBRANCH  72  73
ENDBRANCH   1  72
TORSDOF 12
