REMARK SMILES Cc1ccccc1C(=O)Nc1ccc(N2CCC(n3c(C)nc4cccnc43)CC2)c(C(=O)NCCCCNC(=O)c2ccc(-c3c4nc(c(-c5c(F)c(F)c(F)c(F)c5F)c5ccc([nH]5)c(-c5c(F)c(F)c(F)c(F)c5F)c5nc(c(-c6c(F)c(F)c(F)c(F)c6F)c6ccc3[nH]6)C=C5)C=C4)cc2)c1
REMARK SMILES IDX 36 1 35 2 34 3 32 4 33 5 31 7 11 8 12 9 105 10 13 11 14 12
REMARK SMILES IDX 10 13 8 14 9 15 7 17 1 18 2 19 3 20 4 21 6 22 5 23 15 24
REMARK SMILES IDX 16 25 30 26 17 27 29 28 18 29 19 30 20 31 28 32 21 33 22 34
REMARK SMILES IDX 23 35 27 36 24 37 26 38 25 39 37 40 38 41 39 42 40 43 41 45
REMARK SMILES IDX 42 46 43 47 104 48 44 49 103 50 45 51 46 52 47 53 97 54
REMARK SMILES IDX 48 55 102 56 96 57 98 58 49 59 101 60 95 61 94 62 50 64
REMARK SMILES IDX 82 65 62 66 81 67 63 68 66 69 80 70 99 71 64 72 65 73 79 75
REMARK SMILES IDX 100 76 67 77 51 78 52 79 60 80 53 81 54 82 58 83 61 84 55 85
REMARK SMILES IDX 56 86 59 87 57 88 83 89 84 90 92 91 85 92 86 93 90 94 93 95
REMARK SMILES IDX 87 96 88 97 91 98 89 99 68 100 69 101 77 102 70 103 71 104
REMARK SMILES IDX 75 105 78 106 72 107 73 108 76 109 74 110
REMARK H PARENT 34 6 10 16 39 44 98 63 66 74
REMARK Flexibility Score: inf
ROOT
ATOM      1  C   UNL     1       9.426  -1.847  -0.265  1.00  0.00     0.023 C 
ENDROOT
BRANCH   1   2
ATOM      2  C   UNL     1       7.980  -1.638   0.177  1.00  0.00     0.116 C 
BRANCH   2   3
ATOM      3  N   UNL     1       7.646  -0.783   1.286  1.00  0.00    -0.352 N 
ATOM      4  C   UNL     1       6.466  -0.072   1.488  1.00  0.00     0.253 C 
ATOM      5  O   UNL     1       6.350   0.492   2.581  1.00  0.00    -0.269 OA
ATOM      6  H   UNL     1       8.334  -0.689   1.985  1.00  0.00     0.163 HD
BRANCH   4   7
ATOM      7  C   UNL     1       5.352   0.110   0.469  1.00  0.00     0.065 A 
ATOM      8  C   UNL     1       3.434   1.533  -0.124  1.00  0.00     0.042 A 
ATOM      9  C   UNL     1       3.162   0.755  -1.231  1.00  0.00     0.028 A 
ATOM     10  C   UNL     1       4.599   1.302   0.626  1.00  0.00     0.042 A 
ATOM     11  C   UNL     1       3.903  -0.400  -1.425  1.00  0.00     0.029 A 
ATOM     12  C   UNL     1       4.904  -0.813  -0.507  1.00  0.00     0.050 A 
BRANCH   8  13
ATOM     13  N   UNL     1       2.510   2.471   0.347  1.00  0.00    -0.322 N 
ATOM     14  C   UNL     1       1.126   2.437   0.370  1.00  0.00     0.255 C 
ATOM     15  O   UNL     1       0.544   3.497   0.622  1.00  0.00    -0.269 OA
ATOM     16  H   UNL     1       2.909   3.288   0.725  1.00  0.00     0.170 HD
BRANCH  14  17
ATOM     17  C   UNL     1       0.279   1.199   0.190  1.00  0.00     0.043 A 
ATOM     18  C   UNL     1       1.745  -0.525   1.454  1.00  0.00     0.045 C 
ATOM     19  C   UNL     1       0.554  -0.110   0.645  1.00  0.00    -0.038 A 
ATOM     20  C   UNL     1      -0.373  -1.147   0.388  1.00  0.00     0.004 A 
ATOM     21  C   UNL     1      -1.615  -0.887  -0.179  1.00  0.00     0.000 A 
ATOM     22  C   UNL     1      -1.000   1.437  -0.361  1.00  0.00     0.014 A 
ATOM     23  C   UNL     1      -1.942   0.415  -0.524  1.00  0.00     0.001 A 
ENDBRANCH  14  17
ENDBRANCH   8  13
BRANCH  12  24
ATOM     24  N   UNL     1       5.189  -2.181  -0.520  1.00  0.00    -0.371 N 
ATOM     25  C   UNL     1       5.688  -2.768  -1.756  1.00  0.00     0.118 C 
ATOM     26  C   UNL     1       4.932  -2.927   0.704  1.00  0.00     0.118 C 
ATOM     27  C   UNL     1       5.434  -4.240  -1.908  1.00  0.00     0.047 C 
ATOM     28  C   UNL     1       4.422  -4.318   0.404  1.00  0.00     0.047 C 
ATOM     29  C   UNL     1       5.274  -5.055  -0.624  1.00  0.00     0.094 C 
BRANCH  29  30
ATOM     30  N   UNL     1       4.773  -6.372  -1.036  1.00  0.00    -0.310 N 
ATOM     31  C   UNL     1       3.521  -6.948  -0.927  1.00  0.00     0.108 A 
ATOM     32  C   UNL     1       5.527  -7.204  -1.835  1.00  0.00     0.160 A 
ATOM     33  C   UNL     1       2.484  -6.617   0.085  1.00  0.00     0.088 C 
ATOM     34  N   UNL     1       3.389  -7.944  -1.790  1.00  0.00    -0.232 NA
ATOM     35  C   UNL     1       4.638  -8.161  -2.299  1.00  0.00     0.108 A 
ATOM     36  N   UNL     1       6.854  -7.125  -2.066  1.00  0.00    -0.237 NA
ATOM     37  C   UNL     1       5.149  -9.206  -3.079  1.00  0.00     0.034 A 
ATOM     38  C   UNL     1       7.315  -8.193  -2.764  1.00  0.00     0.113 A 
ATOM     39  C   UNL     1       6.534  -9.229  -3.276  1.00  0.00     0.022 A 
ENDBRANCH  29  30
ENDBRANCH  12  24
ENDBRANCH   4   7
ENDBRANCH   2   3
ENDBRANCH   1   2
BRANCH   1  40
ATOM     40  C   UNL     1      10.377  -2.642   0.625  1.00  0.00     0.023 C 
BRANCH  40  41
ATOM     41  C   UNL     1       9.916  -4.017   1.077  1.00  0.00     0.116 C 
BRANCH  41  42
ATOM     42  N   UNL     1      10.085  -5.134   0.170  1.00  0.00    -0.352 N 
ATOM     43  C   UNL     1      10.041  -6.505   0.434  1.00  0.00     0.251 C 
ATOM     44  H   UNL     1      10.256  -4.892  -0.768  1.00  0.00     0.163 HD
ATOM     45  O   UNL     1      10.394  -7.275  -0.432  1.00  0.00    -0.269 OA
BRANCH  43  46
ATOM     46  C   UNL     1       9.485  -7.053   1.720  1.00  0.00     0.039 A 
ATOM     47  C   UNL     1       9.347  -8.451   1.863  1.00  0.00     0.014 A 
ATOM     48  C   UNL     1       8.965  -6.244   2.720  1.00  0.00     0.014 A 
ATOM     49  C   UNL     1       8.570  -8.994   2.894  1.00  0.00     0.010 A 
ATOM     50  C   UNL     1       8.145  -6.756   3.683  1.00  0.00     0.010 A 
ATOM     51  C   UNL     1       7.896  -8.123   3.732  1.00  0.00    -0.014 A 
BRANCH  51  52
ATOM     52  C   UNL     1       6.888  -8.431   4.727  1.00  0.00     0.031 A 
ATOM     53  C   UNL     1       7.277  -8.414   6.144  1.00  0.00     0.074 A 
ATOM     54  C   UNL     1       5.632  -8.151   4.319  1.00  0.00     0.049 A 
ATOM     55  N   UNL     1       6.472  -8.610   7.124  1.00  0.00    -0.248 NA
ATOM     56  C   UNL     1       8.651  -8.165   6.566  1.00  0.00     0.031 C 
ATOM     57  C   UNL     1       4.495  -7.642   5.077  1.00  0.00     0.029 A 
ATOM     58  N   UNL     1       5.100  -8.434   3.058  1.00  0.00    -0.354 N 
ATOM     59  C   UNL     1       7.121  -8.219   8.277  1.00  0.00     0.074 A 
ATOM     60  C   UNL     1       8.501  -8.060   7.888  1.00  0.00     0.031 C 
ATOM     61  C   UNL     1       3.366  -7.911   4.394  1.00  0.00     0.029 A 
ATOM     62  C   UNL     1       3.756  -8.785   3.298  1.00  0.00     0.049 A 
ATOM     63  H   UNL     1       5.564  -8.397   2.190  1.00  0.00     0.167 HD
ATOM     64  C   UNL     1       6.363  -7.931   9.376  1.00  0.00     0.037 A 
ATOM     65  C   UNL     1       3.361 -10.093   3.171  1.00  0.00     0.037 A 
ATOM     66  C   UNL     1       4.950  -8.198   9.088  1.00  0.00     0.049 A 
ATOM     67  C   UNL     1       2.772 -10.627   4.433  1.00  0.00     0.074 A 
ATOM     68  C   UNL     1       3.902  -7.372   8.719  1.00  0.00     0.029 A 
ATOM     69  N   UNL     1       4.541  -9.500   8.817  1.00  0.00    -0.354 N 
ATOM     70  N   UNL     1       3.193 -10.295   5.619  1.00  0.00    -0.248 NA
ATOM     71  C   UNL     1       1.636 -11.533   4.443  1.00  0.00     0.031 C 
ATOM     72  C   UNL     1       2.870  -8.188   8.185  1.00  0.00     0.029 A 
ATOM     73  C   UNL     1       3.281  -9.510   8.252  1.00  0.00     0.049 A 
ATOM     74  H   UNL     1       5.077 -10.305   9.002  1.00  0.00     0.167 HD
ATOM     75  C   UNL     1       2.401 -10.910   6.547  1.00  0.00     0.074 A 
ATOM     76  C   UNL     1       1.436 -11.660   5.763  1.00  0.00     0.031 C 
ATOM     77  C   UNL     1       2.625 -10.760   7.884  1.00  0.00     0.037 A 
BRANCH  64  78
ATOM     78  C   UNL     1       6.816  -7.160  10.606  1.00  0.00     0.064 A 
ATOM     79  C   UNL     1       5.860  -6.561  11.461  1.00  0.00     0.173 A 
ATOM     80  C   UNL     1       8.152  -6.928  10.990  1.00  0.00     0.173 A 
ATOM     81  F   UNL     1       4.546  -6.754  11.288  1.00  0.00    -0.203 F 
ATOM     82  C   UNL     1       6.212  -5.740  12.539  1.00  0.00     0.198 A 
ATOM     83  C   UNL     1       8.505  -6.079  12.046  1.00  0.00     0.198 A 
ATOM     84  F   UNL     1       9.175  -7.554  10.407  1.00  0.00    -0.203 F 
ATOM     85  F   UNL     1       5.252  -5.198  13.301  1.00  0.00    -0.200 F 
ATOM     86  C   UNL     1       7.535  -5.479  12.817  1.00  0.00     0.200 A 
ATOM     87  F   UNL     1       9.801  -5.859  12.312  1.00  0.00    -0.200 F 
ATOM     88  F   UNL     1       7.875  -4.677  13.835  1.00  0.00    -0.200 F 
ENDBRANCH  64  78
BRANCH  65  89
ATOM     89  C   UNL     1       4.242 -10.886   2.257  1.00  0.00     0.064 A 
ATOM     90  C   UNL     1       4.439 -10.316   0.995  1.00  0.00     0.173 A 
ATOM     91  C   UNL     1       5.230 -11.761   2.735  1.00  0.00     0.173 A 
ATOM     92  F   UNL     1       3.505  -9.493   0.499  1.00  0.00    -0.203 F 
ATOM     93  C   UNL     1       5.701 -10.350   0.426  1.00  0.00     0.198 A 
ATOM     94  C   UNL     1       6.437 -11.919   2.047  1.00  0.00     0.198 A 
ATOM     95  F   UNL     1       5.092 -12.360   3.925  1.00  0.00    -0.203 F 
ATOM     96  F   UNL     1       6.050  -9.427  -0.458  1.00  0.00    -0.200 F 
ATOM     97  C   UNL     1       6.693 -11.161   0.924  1.00  0.00     0.200 A 
ATOM     98  F   UNL     1       7.418 -12.676   2.557  1.00  0.00    -0.200 F 
ATOM     99  F   UNL     1       7.920 -11.116   0.384  1.00  0.00    -0.200 F 
ENDBRANCH  65  89
BRANCH  77 100
ATOM    100  C   UNL     1       2.183 -11.730   8.954  1.00  0.00     0.064 A 
ATOM    101  C   UNL     1       1.731 -13.038   8.699  1.00  0.00     0.173 A 
ATOM    102  C   UNL     1       2.367 -11.420  10.324  1.00  0.00     0.173 A 
ATOM    103  F   UNL     1       1.648 -13.534   7.459  1.00  0.00    -0.203 F 
ATOM    104  C   UNL     1       1.413 -13.931   9.723  1.00  0.00     0.198 A 
ATOM    105  C   UNL     1       2.124 -12.342  11.341  1.00  0.00     0.198 A 
ATOM    106  F   UNL     1       2.833 -10.229  10.726  1.00  0.00    -0.203 F 
ATOM    107  F   UNL     1       0.935 -15.144   9.413  1.00  0.00    -0.200 F 
ATOM    108  C   UNL     1       1.625 -13.591  11.042  1.00  0.00     0.200 A 
ATOM    109  F   UNL     1       2.406 -12.019  12.610  1.00  0.00    -0.200 F 
ATOM    110  F   UNL     1       1.378 -14.474  12.017  1.00  0.00    -0.200 F 
ENDBRANCH  77 100
ENDBRANCH  51  52
ENDBRANCH  43  46
ENDBRANCH  41  42
ENDBRANCH  40  41
ENDBRANCH   1  40
TORSDOF 15
