REMARK SMILES COc1cc(/C=C2/SC(=S)N(c3ccc(C)cc3C)C2=O)ccc1O[C@@H](C)C(=O)NCCCCNC(=O)c1ccc(-c2c3nc(c(-c4c(F)c(F)c(F)c(F)c4F)c4ccc([nH]4)c(-c4c(F)c(F)c(F)c(F)c4F)c4nc(c(-c5c(F)c(F)c(F)c(F)c5F)c5ccc2[nH]5)C=C4)C=C3)cc1
REMARK SMILES IDX 31 1 30 2 28 3 29 4 26 6 27 7 25 8 24 9 3 10 4 11 5 12 23 13
REMARK SMILES IDX 22 14 2 15 1 16 6 17 7 18 8 19 20 20 9 21 11 22 21 23 10 24
REMARK SMILES IDX 12 25 13 26 18 27 14 28 17 29 19 30 15 31 16 32 32 33 33 34
REMARK SMILES IDX 34 35 35 36 36 37 37 39 38 40 39 41 100 42 40 43 99 44 41 45
REMARK SMILES IDX 42 46 43 47 93 48 44 49 98 50 92 51 94 52 45 53 97 54 91 55
REMARK SMILES IDX 90 56 46 58 78 59 58 60 77 61 59 62 62 63 76 64 95 65 60 66
REMARK SMILES IDX 61 67 75 69 96 70 63 71 47 72 48 73 56 74 49 75 50 76 54 77
REMARK SMILES IDX 57 78 51 79 52 80 55 81 53 82 79 83 80 84 88 85 81 86 82 87
REMARK SMILES IDX 86 88 89 89 83 90 84 91 87 92 85 93 64 94 65 95 73 96 66 97
REMARK SMILES IDX 67 98 71 99 74 100 68 101 69 102 72 103 70 104
REMARK H PARENT 30 5 35 38 94 57 62 68
REMARK Flexibility Score: inf
ROOT
ATOM      1  C   UNL     1       0.827  -2.931   0.201  1.00  0.00     0.116 C 
ENDROOT
BRANCH   1   2
ATOM      2  N   UNL     1       2.081  -2.546   0.794  1.00  0.00    -0.353 N 
ATOM      3  C   UNL     1       2.928  -1.507   0.652  1.00  0.00     0.260 C 
ATOM      4  O   UNL     1       3.703  -1.386   1.621  1.00  0.00    -0.271 OA
ATOM      5  H   UNL     1       2.395  -3.197   1.462  1.00  0.00     0.163 HD
BRANCH   3   6
ATOM      6  C   UNL     1       3.061  -0.459  -0.533  1.00  0.00     0.259 C 
ATOM      7  C   UNL     1       2.842   0.949   0.058  1.00  0.00     0.064 C 
BRANCH   6   8
ATOM      8  O   UNL     1       2.803  -0.302  -1.909  1.00  0.00    -0.477 OA
BRANCH   8   9
ATOM      9  C   UNL     1       1.921  -1.110  -2.533  1.00  0.00     0.162 A 
ATOM     10  C   UNL     1       0.546  -0.866  -2.551  1.00  0.00     0.161 A 
ATOM     11  C   UNL     1      -0.308  -1.743  -3.239  1.00  0.00     0.058 A 
ATOM     12  C   UNL     1       0.224  -2.822  -3.969  1.00  0.00    -0.020 A 
ATOM     13  C   UNL     1       2.454  -2.064  -3.392  1.00  0.00     0.051 A 
ATOM     14  C   UNL     1       1.610  -2.875  -4.147  1.00  0.00     0.012 A 
BRANCH  10  15
ATOM     15  O   UNL     1       0.061   0.314  -2.050  1.00  0.00    -0.493 OA
ATOM     16  C   UNL     1      -0.572   0.195  -0.782  1.00  0.00     0.278 C 
ENDBRANCH  10  15
BRANCH  12  17
ATOM     17  C   UNL     1      -0.654  -3.876  -4.517  1.00  0.00     0.029 C 
ATOM     18  C   UNL     1      -0.442  -5.208  -4.487  1.00  0.00     0.081 C 
ATOM     19  S   UNL     1      -1.595  -6.340  -5.111  1.00  0.00    -0.054 SA
ATOM     20  C   UNL     1       0.725  -5.973  -3.932  1.00  0.00     0.270 C 
ATOM     21  C   UNL     1      -0.631  -7.750  -4.664  1.00  0.00     0.152 C 
ATOM     22  N   UNL     1       0.588  -7.333  -4.168  1.00  0.00    -0.261 N 
ATOM     23  O   UNL     1       1.666  -5.460  -3.343  1.00  0.00    -0.268 OA
ATOM     24  S   UNL     1      -1.246  -9.301  -4.778  1.00  0.00    -0.051 S 
BRANCH  22  25
ATOM     25  C   UNL     1       1.678  -8.196  -3.840  1.00  0.00     0.054 A 
ATOM     26  C   UNL     1       2.177  -8.183  -2.525  1.00  0.00     0.027 A 
ATOM     27  C   UNL     1       2.356  -8.950  -4.818  1.00  0.00    -0.027 A 
ATOM     28  C   UNL     1       3.303  -8.927  -2.168  1.00  0.00     0.005 A 
ATOM     29  C   UNL     1       3.480  -9.713  -4.435  1.00  0.00     0.009 A 
ATOM     30  C   UNL     1       2.014  -8.938  -6.283  1.00  0.00     0.046 C 
ATOM     31  C   UNL     1       3.964  -9.700  -3.121  1.00  0.00    -0.051 A 
ATOM     32  C   UNL     1       5.195 -10.468  -2.740  1.00  0.00     0.044 C 
ENDBRANCH  22  25
ENDBRANCH  12  17
ENDBRANCH   8   9
ENDBRANCH   6   8
ENDBRANCH   3   6
ENDBRANCH   1   2
BRANCH   1  33
ATOM     33  C   UNL     1       0.904  -4.245  -0.564  1.00  0.00     0.023 C 
BRANCH  33  34
ATOM     34  C   UNL     1      -0.099  -5.317  -0.139  1.00  0.00     0.023 C 
BRANCH  34  35
ATOM     35  C   UNL     1      -1.561  -4.896  -0.053  1.00  0.00     0.116 C 
BRANCH  35  36
ATOM     36  N   UNL     1      -2.152  -4.474  -1.312  1.00  0.00    -0.352 N 
ATOM     37  C   UNL     1      -3.427  -4.712  -1.783  1.00  0.00     0.251 C 
ATOM     38  H   UNL     1      -1.567  -3.950  -1.905  1.00  0.00     0.163 HD
ATOM     39  O   UNL     1      -3.766  -4.301  -2.889  1.00  0.00    -0.269 OA
BRANCH  37  40
ATOM     40  C   UNL     1      -4.370  -5.510  -0.963  1.00  0.00     0.039 A 
ATOM     41  C   UNL     1      -5.059  -6.575  -1.550  1.00  0.00     0.014 A 
ATOM     42  C   UNL     1      -4.522  -5.247   0.400  1.00  0.00     0.014 A 
ATOM     43  C   UNL     1      -5.828  -7.427  -0.749  1.00  0.00     0.010 A 
ATOM     44  C   UNL     1      -5.205  -6.151   1.207  1.00  0.00     0.010 A 
ATOM     45  C   UNL     1      -5.871  -7.250   0.644  1.00  0.00    -0.014 A 
BRANCH  45  46
ATOM     46  C   UNL     1      -6.618  -8.181   1.532  1.00  0.00     0.031 A 
ATOM     47  C   UNL     1      -7.751  -7.665   2.381  1.00  0.00     0.074 A 
ATOM     48  C   UNL     1      -6.235  -9.469   1.643  1.00  0.00     0.049 A 
ATOM     49  N   UNL     1      -8.468  -8.289   3.283  1.00  0.00    -0.248 NA
ATOM     50  C   UNL     1      -8.096  -6.243   2.224  1.00  0.00     0.031 C 
ATOM     51  C   UNL     1      -5.115 -10.086   0.931  1.00  0.00     0.029 A 
ATOM     52  N   UNL     1      -6.744 -10.492   2.406  1.00  0.00    -0.354 N 
ATOM     53  C   UNL     1      -9.323  -7.331   3.813  1.00  0.00     0.074 A 
ATOM     54  C   UNL     1      -8.991  -6.072   3.184  1.00  0.00     0.031 C 
ATOM     55  C   UNL     1      -5.045 -11.387   1.262  1.00  0.00     0.029 A 
ATOM     56  C   UNL     1      -6.094 -11.689   2.231  1.00  0.00     0.049 A 
ATOM     57  H   UNL     1      -7.505 -10.377   3.021  1.00  0.00     0.167 HD
ATOM     58  C   UNL     1     -10.320  -7.489   4.717  1.00  0.00     0.037 A 
ATOM     59  C   UNL     1      -6.326 -12.896   2.783  1.00  0.00     0.037 A 
ATOM     60  C   UNL     1     -10.683  -8.748   5.309  1.00  0.00     0.049 A 
ATOM     61  C   UNL     1      -7.465 -13.056   3.754  1.00  0.00     0.074 A 
ATOM     62  C   UNL     1     -11.709  -9.024   6.196  1.00  0.00     0.029 A 
ATOM     63  N   UNL     1     -10.035  -9.949   5.061  1.00  0.00    -0.354 N 
ATOM     64  N   UNL     1      -8.306 -12.156   4.200  1.00  0.00    -0.248 NA
ATOM     65  C   UNL     1      -7.695 -14.407   4.286  1.00  0.00     0.031 C 
ATOM     66  C   UNL     1     -11.666 -10.389   6.504  1.00  0.00     0.029 A 
ATOM     67  C   UNL     1     -10.639 -10.969   5.777  1.00  0.00     0.049 A 
ATOM     68  H   UNL     1      -9.260 -10.060   4.464  1.00  0.00     0.167 HD
ATOM     69  C   UNL     1      -9.188 -12.836   5.030  1.00  0.00     0.074 A 
ATOM     70  C   UNL     1      -8.783 -14.226   5.020  1.00  0.00     0.031 C 
ATOM     71  C   UNL     1     -10.241 -12.352   5.734  1.00  0.00     0.037 A 
BRANCH  58  72
ATOM     72  C   UNL     1     -11.098  -6.263   5.102  1.00  0.00     0.064 A 
ATOM     73  C   UNL     1     -11.955  -5.623   4.192  1.00  0.00     0.173 A 
ATOM     74  C   UNL     1     -10.993  -5.724   6.392  1.00  0.00     0.173 A 
ATOM     75  F   UNL     1     -12.081  -6.090   2.940  1.00  0.00    -0.203 F 
ATOM     76  C   UNL     1     -12.644  -4.466   4.546  1.00  0.00     0.198 A 
ATOM     77  C   UNL     1     -11.710  -4.586   6.754  1.00  0.00     0.198 A 
ATOM     78  F   UNL     1     -10.194  -6.299   7.303  1.00  0.00    -0.203 F 
ATOM     79  F   UNL     1     -13.403  -3.837   3.639  1.00  0.00    -0.200 F 
ATOM     80  C   UNL     1     -12.525  -3.952   5.828  1.00  0.00     0.200 A 
ATOM     81  F   UNL     1     -11.603  -4.095   7.997  1.00  0.00    -0.200 F 
ATOM     82  F   UNL     1     -13.187  -2.837   6.168  1.00  0.00    -0.200 F 
ENDBRANCH  58  72
BRANCH  59  83
ATOM     83  C   UNL     1      -5.505 -14.068   2.382  1.00  0.00     0.064 A 
ATOM     84  C   UNL     1      -6.055 -15.088   1.592  1.00  0.00     0.173 A 
ATOM     85  C   UNL     1      -4.169 -14.204   2.783  1.00  0.00     0.173 A 
ATOM     86  F   UNL     1      -7.337 -15.014   1.202  1.00  0.00    -0.203 F 
ATOM     87  C   UNL     1      -5.309 -16.210   1.238  1.00  0.00     0.198 A 
ATOM     88  C   UNL     1      -3.414 -15.314   2.408  1.00  0.00     0.198 A 
ATOM     89  F   UNL     1      -3.594 -13.254   3.536  1.00  0.00    -0.203 F 
ATOM     90  F   UNL     1      -5.875 -17.191   0.524  1.00  0.00    -0.200 F 
ATOM     91  C   UNL     1      -3.987 -16.320   1.643  1.00  0.00     0.200 A 
ATOM     92  F   UNL     1      -2.134 -15.413   2.791  1.00  0.00    -0.200 F 
ATOM     93  F   UNL     1      -3.269 -17.399   1.304  1.00  0.00    -0.200 F 
ENDBRANCH  59  83
BRANCH  71  94
ATOM     94  C   UNL     1     -11.068 -13.341   6.502  1.00  0.00     0.064 A 
ATOM     95  C   UNL     1     -10.597 -13.947   7.675  1.00  0.00     0.173 A 
ATOM     96  C   UNL     1     -12.366 -13.657   6.072  1.00  0.00     0.173 A 
ATOM     97  F   UNL     1      -9.358 -13.688   8.118  1.00  0.00    -0.203 F 
ATOM     98  C   UNL     1     -11.386 -14.856   8.375  1.00  0.00     0.198 A 
ATOM     99  C   UNL     1     -13.162 -14.545   6.790  1.00  0.00     0.198 A 
ATOM    100  F   UNL     1     -12.866 -13.098   4.960  1.00  0.00    -0.203 F 
ATOM    101  F   UNL     1     -10.898 -15.461   9.467  1.00  0.00    -0.200 F 
ATOM    102  C   UNL     1     -12.669 -15.149   7.936  1.00  0.00     0.200 A 
ATOM    103  F   UNL     1     -14.406 -14.817   6.372  1.00  0.00    -0.200 F 
ATOM    104  F   UNL     1     -13.427 -16.021   8.614  1.00  0.00    -0.200 F 
ENDBRANCH  71  94
ENDBRANCH  45  46
ENDBRANCH  37  40
ENDBRANCH  35  36
ENDBRANCH  34  35
ENDBRANCH  33  34
ENDBRANCH   1  33
TORSDOF 16
