REMARK SMILES O=C(Cn1nc(C(=O)NCCCCNC(=O)c2ccc(-c3c4nc(c(-c5c(F)c(F)c(F)c(F)c5F)c5ccc([nH]5)c(-c5c(F)c(F)c(F)c(F)c5F)c5nc(c(-c6c(F)c(F)c(F)c(F)c6F)c6ccc3[nH]6)C=C5)C=C4)cc2)c2ccccc2c1=O)Nc1ccc2c(c1)C(=O)c1ccccc1C2=O
REMARK SMILES IDX 11 1 10 2 9 3 7 4 8 5 6 7 4 8 5 9 86 10 85 11 87 12 80 13
REMARK SMILES IDX 84 14 81 15 83 16 82 17 3 18 2 19 1 20 88 21 89 23 90 24
REMARK SMILES IDX 94 25 91 26 93 27 92 28 95 29 103 30 96 31 97 32 102 33
REMARK SMILES IDX 104 34 98 35 101 36 99 37 100 38 12 39 13 40 14 41 15 42
REMARK SMILES IDX 16 44 17 45 18 46 79 47 19 48 78 49 20 50 21 51 22 52 72 53
REMARK SMILES IDX 23 54 77 55 71 56 73 57 24 58 76 59 70 60 69 61 25 63 57 64
REMARK SMILES IDX 37 65 56 66 38 67 41 68 55 69 74 70 39 71 40 72 54 74 75 75
REMARK SMILES IDX 42 76 26 77 27 78 35 79 28 80 29 81 33 82 36 83 30 84 31 85
REMARK SMILES IDX 34 86 32 87 58 88 59 89 67 90 60 91 61 92 65 93 68 94 62 95
REMARK SMILES IDX 63 96 66 97 64 98 43 99 44 100 52 101 45 102 46 103 50 104
REMARK SMILES IDX 53 105 47 106 48 107 51 108 49 109
REMARK H PARENT 9 6 88 22 14 43 73 62 41 73
REMARK Flexibility Score: inf
ROOT
ATOM      1  C   UNL     1       5.059  -3.265  -0.344  1.00  0.00     0.023 C 
ENDROOT
BRANCH   1   2
ATOM      2  C   UNL     1       4.231  -2.959   0.901  1.00  0.00     0.116 C 
BRANCH   2   3
ATOM      3  N   UNL     1       5.027  -2.817   2.102  1.00  0.00    -0.351 N 
ATOM      4  C   UNL     1       5.362  -1.718   2.864  1.00  0.00     0.272 C 
ATOM      5  O   UNL     1       5.916  -1.955   3.933  1.00  0.00    -0.267 OA
ATOM      6  H   UNL     1       5.399  -3.664   2.437  1.00  0.00     0.163 HD
BRANCH   4   7
ATOM      7  C   UNL     1       5.054  -0.258   2.432  1.00  0.00     0.156 A 
ATOM      8  N   UNL     1       3.937   1.172   0.973  1.00  0.00    -0.219 N 
ATOM      9  N   UNL     1       4.330  -0.089   1.362  1.00  0.00    -0.163 NA
ATOM     10  C   UNL     1       4.264   2.332   1.662  1.00  0.00     0.275 A 
ATOM     11  C   UNL     1       5.134   2.170   2.840  1.00  0.00     0.051 A 
ATOM     12  O   UNL     1       3.906   3.456   1.321  1.00  0.00    -0.267 OA
ATOM     13  C   UNL     1       5.556   0.899   3.232  1.00  0.00     0.020 A 
ATOM     14  C   UNL     1       5.553   3.318   3.537  1.00  0.00     0.014 A 
ATOM     15  C   UNL     1       6.433   0.803   4.324  1.00  0.00     0.011 A 
ATOM     16  C   UNL     1       6.410   3.204   4.627  1.00  0.00     0.001 A 
ATOM     17  C   UNL     1       6.853   1.946   5.017  1.00  0.00     0.001 A 
BRANCH   8  18
ATOM     18  C   UNL     1       3.034   1.252  -0.180  1.00  0.00     0.248 C 
BRANCH  18  19
ATOM     19  C   UNL     1       1.683   0.650   0.210  1.00  0.00     0.246 C 
ATOM     20  O   UNL     1       1.016   1.087   1.145  1.00  0.00    -0.273 OA
ATOM     21  N   UNL     1       1.372  -0.502  -0.508  1.00  0.00    -0.324 N 
ATOM     22  H   UNL     1       1.530  -0.495  -1.480  1.00  0.00     0.169 HD
BRANCH  21  23
ATOM     23  C   UNL     1       0.845  -1.681   0.065  1.00  0.00     0.042 A 
ATOM     24  C   UNL     1       0.724  -2.817  -0.751  1.00  0.00     0.027 A 
ATOM     25  C   UNL     1       0.686  -1.809   1.446  1.00  0.00     0.039 A 
ATOM     26  C   UNL     1       0.565  -4.088  -0.183  1.00  0.00     0.015 A 
ATOM     27  C   UNL     1       0.610  -3.080   2.011  1.00  0.00     0.036 A 
ATOM     28  C   UNL     1       0.578  -4.218   1.208  1.00  0.00     0.034 A 
ATOM     29  C   UNL     1       0.851  -3.215   3.458  1.00  0.00     0.194 C 
ATOM     30  C   UNL     1       0.794  -5.540   1.838  1.00  0.00     0.194 C 
ATOM     31  O   UNL     1       0.528  -2.348   4.255  1.00  0.00    -0.289 OA
ATOM     32  C   UNL     1       1.624  -4.394   3.877  1.00  0.00     0.034 A 
ATOM     33  C   UNL     1       1.576  -5.549   3.098  1.00  0.00     0.034 A 
ATOM     34  O   UNL     1       0.469  -6.575   1.283  1.00  0.00    -0.289 OA
ATOM     35  C   UNL     1       2.481  -4.309   4.975  1.00  0.00     0.013 A 
ATOM     36  C   UNL     1       2.366  -6.648   3.440  1.00  0.00     0.013 A 
ATOM     37  C   UNL     1       3.313  -5.386   5.278  1.00  0.00     0.001 A 
ATOM     38  C   UNL     1       3.251  -6.556   4.518  1.00  0.00     0.001 A 
ENDBRANCH  21  23
ENDBRANCH  18  19
ENDBRANCH   8  18
ENDBRANCH   4   7
ENDBRANCH   2   3
ENDBRANCH   1   2
BRANCH   1  39
ATOM     39  C   UNL     1       5.611  -4.697  -0.421  1.00  0.00     0.023 C 
BRANCH  39  40
ATOM     40  C   UNL     1       4.564  -5.815  -0.436  1.00  0.00     0.116 C 
BRANCH  40  41
ATOM     41  N   UNL     1       3.657  -5.766  -1.573  1.00  0.00    -0.352 N 
ATOM     42  C   UNL     1       2.843  -6.747  -2.103  1.00  0.00     0.251 C 
ATOM     43  H   UNL     1       3.618  -4.898  -2.036  1.00  0.00     0.163 HD
ATOM     44  O   UNL     1       2.224  -6.503  -3.136  1.00  0.00    -0.269 OA
BRANCH  42  45
ATOM     45  C   UNL     1       2.746  -8.098  -1.488  1.00  0.00     0.039 A 
ATOM     46  C   UNL     1       2.760  -8.280  -0.108  1.00  0.00     0.014 A 
ATOM     47  C   UNL     1       2.642  -9.223  -2.316  1.00  0.00     0.014 A 
ATOM     48  C   UNL     1       2.841  -9.555   0.446  1.00  0.00     0.010 A 
ATOM     49  C   UNL     1       2.679 -10.513  -1.764  1.00  0.00     0.010 A 
ATOM     50  C   UNL     1       2.851 -10.682  -0.382  1.00  0.00    -0.014 A 
BRANCH  50  51
ATOM     51  C   UNL     1       3.247 -11.989   0.204  1.00  0.00     0.031 A 
ATOM     52  C   UNL     1       4.640 -12.499  -0.060  1.00  0.00     0.074 A 
ATOM     53  C   UNL     1       2.454 -12.636   1.077  1.00  0.00     0.049 A 
ATOM     54  N   UNL     1       5.220 -13.594   0.362  1.00  0.00    -0.248 NA
ATOM     55  C   UNL     1       5.503 -11.649  -0.898  1.00  0.00     0.031 C 
ATOM     56  C   UNL     1       1.127 -12.197   1.502  1.00  0.00     0.029 A 
ATOM     57  N   UNL     1       2.674 -13.785   1.798  1.00  0.00    -0.354 N 
ATOM     58  C   UNL     1       6.500 -13.572  -0.175  1.00  0.00     0.074 A 
ATOM     59  C   UNL     1       6.615 -12.365  -0.962  1.00  0.00     0.031 C 
ATOM     60  C   UNL     1       0.669 -13.039   2.445  1.00  0.00     0.029 A 
ATOM     61  C   UNL     1       1.652 -14.100   2.658  1.00  0.00     0.049 A 
ATOM     62  H   UNL     1       3.489 -14.331   1.706  1.00  0.00     0.167 HD
ATOM     63  C   UNL     1       7.498 -14.472  -0.022  1.00  0.00     0.037 A 
ATOM     64  C   UNL     1       1.525 -15.130   3.517  1.00  0.00     0.037 A 
ATOM     65  C   UNL     1       7.406 -15.664   0.771  1.00  0.00     0.049 A 
ATOM     66  C   UNL     1       2.618 -16.162   3.609  1.00  0.00     0.074 A 
ATOM     67  C   UNL     1       8.339 -16.672   0.930  1.00  0.00     0.029 A 
ATOM     68  N   UNL     1       6.313 -15.997   1.555  1.00  0.00    -0.354 N 
ATOM     69  N   UNL     1       3.791 -16.177   3.027  1.00  0.00    -0.248 NA
ATOM     70  C   UNL     1       2.357 -17.332   4.462  1.00  0.00     0.031 C 
ATOM     71  C   UNL     1       7.805 -17.625   1.804  1.00  0.00     0.029 A 
ATOM     72  C   UNL     1       6.548 -17.197   2.202  1.00  0.00     0.049 A 
ATOM     73  H   UNL     1       5.492 -15.460   1.639  1.00  0.00     0.167 HD
ATOM     74  C   UNL     1       4.408 -17.350   3.443  1.00  0.00     0.074 A 
ATOM     75  C   UNL     1       3.489 -18.014   4.342  1.00  0.00     0.031 C 
ATOM     76  C   UNL     1       5.625 -17.836   3.100  1.00  0.00     0.037 A 
BRANCH  63  77
ATOM     77  C   UNL     1       8.773 -14.204  -0.758  1.00  0.00     0.064 A 
ATOM     78  C   UNL     1       9.708 -13.276  -0.283  1.00  0.00     0.173 A 
ATOM     79  C   UNL     1       9.058 -14.884  -1.951  1.00  0.00     0.173 A 
ATOM     80  F   UNL     1       9.462 -12.584   0.840  1.00  0.00    -0.203 F 
ATOM     81  C   UNL     1      10.883 -13.026  -0.986  1.00  0.00     0.198 A 
ATOM     82  C   UNL     1      10.241 -14.643  -2.643  1.00  0.00     0.198 A 
ATOM     83  F   UNL     1       8.187 -15.775  -2.446  1.00  0.00    -0.203 F 
ATOM     84  F   UNL     1      11.748 -12.107  -0.536  1.00  0.00    -0.200 F 
ATOM     85  C   UNL     1      11.150 -13.711  -2.163  1.00  0.00     0.200 A 
ATOM     86  F   UNL     1      10.497 -15.304  -3.780  1.00  0.00    -0.200 F 
ATOM     87  F   UNL     1      12.279 -13.465  -2.841  1.00  0.00    -0.200 F 
ENDBRANCH  63  77
BRANCH  64  88
ATOM     88  C   UNL     1       0.312 -15.245   4.366  1.00  0.00     0.064 A 
ATOM     89  C   UNL     1       0.378 -15.009   5.745  1.00  0.00     0.173 A 
ATOM     90  C   UNL     1      -0.928 -15.606   3.821  1.00  0.00     0.173 A 
ATOM     91  F   UNL     1       1.550 -14.689   6.314  1.00  0.00    -0.203 F 
ATOM     92  C   UNL     1      -0.753 -15.133   6.550  1.00  0.00     0.198 A 
ATOM     93  C   UNL     1      -2.062 -15.712   4.623  1.00  0.00     0.198 A 
ATOM     94  F   UNL     1      -1.037 -15.854   2.508  1.00  0.00    -0.203 F 
ATOM     95  F   UNL     1      -0.658 -14.931   7.871  1.00  0.00    -0.200 F 
ATOM     96  C   UNL     1      -1.972 -15.479   5.988  1.00  0.00     0.200 A 
ATOM     97  F   UNL     1      -3.238 -16.046   4.077  1.00  0.00    -0.200 F 
ATOM     98  F   UNL     1      -3.060 -15.598   6.762  1.00  0.00    -0.200 F 
ENDBRANCH  64  88
BRANCH  76  99
ATOM     99  C   UNL     1       6.044 -19.143   3.696  1.00  0.00     0.064 A 
ATOM    100  C   UNL     1       5.590 -20.357   3.164  1.00  0.00     0.173 A 
ATOM    101  C   UNL     1       6.977 -19.183   4.742  1.00  0.00     0.173 A 
ATOM    102  F   UNL     1       4.692 -20.363   2.168  1.00  0.00    -0.203 F 
ATOM    103  C   UNL     1       6.057 -21.571   3.660  1.00  0.00     0.198 A 
ATOM    104  C   UNL     1       7.451 -20.398   5.227  1.00  0.00     0.198 A 
ATOM    105  F   UNL     1       7.442 -18.044   5.277  1.00  0.00    -0.203 F 
ATOM    106  F   UNL     1       5.604 -22.722   3.145  1.00  0.00    -0.200 F 
ATOM    107  C   UNL     1       6.992 -21.590   4.685  1.00  0.00     0.200 A 
ATOM    108  F   UNL     1       8.361 -20.417   6.211  1.00  0.00    -0.200 F 
ATOM    109  F   UNL     1       7.452 -22.760   5.151  1.00  0.00    -0.200 F 
ENDBRANCH  76  99
ENDBRANCH  50  51
ENDBRANCH  42  45
ENDBRANCH  40  41
ENDBRANCH  39  40
ENDBRANCH   1  39
TORSDOF 14
