REMARK SMILES COc1ccc(-c2nn(-c3ccccc3)cc2/C=C2\SC(=S)N(CCC(=O)NCCCCNC(=O)c3ccc(-c4c5nc(c(-c6c(F)c(F)c(F)c(F)c6F)c6ccc([nH]6)c(-c6c(F)c(F)c(F)c(F)c6F)c6nc(c(-c7c(F)c(F)c(F)c(F)c7F)c7ccc4[nH]7)C=C6)C=C5)cc3)C2=O)c(C)c1
REMARK SMILES IDX 29 1 28 2 26 3 27 4 25 6 24 7 23 8 18 9 19 10 20 11 99 12
REMARK SMILES IDX 21 13 100 14 22 15 17 16 7 17 8 18 9 19 16 20 6 21 3 22 4 23
REMARK SMILES IDX 103 24 5 25 101 26 102 27 2 28 1 29 10 30 11 31 15 32 12 33
REMARK SMILES IDX 14 34 13 35 30 36 31 37 32 38 33 39 34 40 35 42 36 43 37 44
REMARK SMILES IDX 98 45 38 46 97 47 39 48 40 49 41 50 91 51 42 52 96 53 90 54
REMARK SMILES IDX 92 55 43 56 95 57 89 58 88 59 44 61 76 62 56 63 75 64 57 65
REMARK SMILES IDX 60 66 74 67 93 68 58 69 59 70 73 72 94 73 61 74 45 75 46 76
REMARK SMILES IDX 54 77 47 78 48 79 52 80 55 81 49 82 50 83 53 84 51 85 77 86
REMARK SMILES IDX 78 87 86 88 79 89 80 90 84 91 87 92 81 93 82 94 85 95 83 96
REMARK SMILES IDX 62 97 63 98 71 99 64 100 65 101 69 102 72 103 66 104 67 105
REMARK SMILES IDX 70 106 68 107
REMARK H PARENT 28 5 33 41 92 60 60 71
REMARK Flexibility Score: inf
ROOT
ATOM      1  C   UNL     1       6.465   3.763  -0.054  1.00  0.00     0.116 C 
ENDROOT
BRANCH   1   2
ATOM      2  N   UNL     1       7.137   4.601  -1.028  1.00  0.00    -0.356 N 
ATOM      3  C   UNL     1       8.207   5.436  -0.781  1.00  0.00     0.221 C 
ATOM      4  O   UNL     1       8.552   6.223  -1.661  1.00  0.00    -0.275 OA
ATOM      5  H   UNL     1       6.797   4.572  -1.951  1.00  0.00     0.163 HD
BRANCH   3   6
ATOM      6  C   UNL     1       8.956   5.352   0.575  1.00  0.00     0.122 C 
BRANCH   6   7
ATOM      7  C   UNL     1       8.847   6.590   1.559  1.00  0.00     0.137 C 
BRANCH   7   8
ATOM      8  N   UNL     1       7.772   6.645   2.649  1.00  0.00    -0.292 N 
ATOM      9  C   UNL     1       4.277   7.567   3.285  1.00  0.00     0.033 C 
ATOM     10  C   UNL     1       5.592   7.265   3.563  1.00  0.00     0.081 C 
ATOM     11  S   UNL     1       6.292   6.228   4.758  1.00  0.00    -0.054 SA
ATOM     12  C   UNL     1       6.731   7.601   2.582  1.00  0.00     0.266 C 
ATOM     13  C   UNL     1       7.744   5.857   3.783  1.00  0.00     0.148 C 
ATOM     14  O   UNL     1       6.680   8.530   1.824  1.00  0.00    -0.268 OA
ATOM     15  S   UNL     1       8.819   4.652   4.216  1.00  0.00    -0.052 S 
BRANCH   9  16
ATOM     16  C   UNL     1       3.002   7.148   3.906  1.00  0.00     0.022 A 
ATOM     17  C   UNL     1       1.610   6.653   3.442  1.00  0.00     0.100 A 
ATOM     18  N   UNL     1       0.897   6.363   4.572  1.00  0.00    -0.167 NA
ATOM     19  N   UNL     1       1.679   6.704   5.644  1.00  0.00    -0.240 N 
ATOM     20  C   UNL     1       2.908   7.181   5.278  1.00  0.00     0.123 A 
BRANCH  17  21
ATOM     21  C   UNL     1       0.987   6.229   2.018  1.00  0.00     0.006 A 
ATOM     22  C   UNL     1       0.254   4.576  -0.412  1.00  0.00     0.119 A 
ATOM     23  C   UNL     1       1.535   4.739  -0.019  1.00  0.00     0.047 A 
ATOM     24  C   UNL     1      -0.679   5.300   0.345  1.00  0.00     0.050 A 
ATOM     25  C   UNL     1       1.784   5.515   1.135  1.00  0.00     0.014 A 
ATOM     26  C   UNL     1      -0.338   6.084   1.568  1.00  0.00    -0.038 A 
ATOM     27  C   UNL     1      -1.533   6.500   2.372  1.00  0.00     0.045 C 
BRANCH  22  28
ATOM     28  O   UNL     1      -0.138   3.654  -1.343  1.00  0.00    -0.497 OA
ATOM     29  C   UNL     1       0.748   2.538  -1.593  1.00  0.00     0.278 C 
ENDBRANCH  22  28
ENDBRANCH  17  21
BRANCH  19  30
ATOM     30  C   UNL     1       1.278   6.646   7.016  1.00  0.00     0.065 A 
ATOM     31  C   UNL     1       1.277   5.431   7.713  1.00  0.00     0.028 A 
ATOM     32  C   UNL     1       1.204   7.843   7.747  1.00  0.00     0.028 A 
ATOM     33  C   UNL     1       1.162   5.416   9.115  1.00  0.00     0.002 A 
ATOM     34  C   UNL     1       1.073   7.822   9.143  1.00  0.00     0.002 A 
ATOM     35  C   UNL     1       1.054   6.609   9.828  1.00  0.00     0.000 A 
ENDBRANCH  19  30
ENDBRANCH   9  16
ENDBRANCH   7   8
ENDBRANCH   6   7
ENDBRANCH   3   6
ENDBRANCH   1   2
BRANCH   1  36
ATOM     36  C   UNL     1       6.254   4.587   1.184  1.00  0.00     0.023 C 
BRANCH  36  37
ATOM     37  C   UNL     1       4.889   5.045   1.434  1.00  0.00     0.023 C 
BRANCH  37  38
ATOM     38  C   UNL     1       4.211   4.256   2.537  1.00  0.00     0.116 C 
BRANCH  38  39
ATOM     39  N   UNL     1       4.425   3.849   3.873  1.00  0.00    -0.352 N 
ATOM     40  C   UNL     1       3.356   3.485   4.739  1.00  0.00     0.251 C 
ATOM     41  H   UNL     1       5.347   3.818   4.218  1.00  0.00     0.163 HD
ATOM     42  O   UNL     1       3.579   3.490   5.948  1.00  0.00    -0.269 OA
BRANCH  40  43
ATOM     43  C   UNL     1       1.951   3.089   4.274  1.00  0.00     0.039 A 
ATOM     44  C   UNL     1       0.985   2.544   5.131  1.00  0.00     0.014 A 
ATOM     45  C   UNL     1       1.566   3.076   2.951  1.00  0.00     0.014 A 
ATOM     46  C   UNL     1      -0.081   1.760   4.596  1.00  0.00     0.010 A 
ATOM     47  C   UNL     1       0.302   2.741   2.506  1.00  0.00     0.010 A 
ATOM     48  C   UNL     1      -0.288   1.728   3.214  1.00  0.00    -0.014 A 
BRANCH  48  49
ATOM     49  C   UNL     1      -0.229   0.531   2.293  1.00  0.00     0.031 A 
ATOM     50  C   UNL     1      -1.094   0.429   1.072  1.00  0.00     0.074 A 
ATOM     51  C   UNL     1       1.043   0.041   2.164  1.00  0.00     0.049 A 
ATOM     52  N   UNL     1      -0.945  -0.470   0.155  1.00  0.00    -0.248 NA
ATOM     53  C   UNL     1      -2.153   1.376   0.740  1.00  0.00     0.031 C 
ATOM     54  C   UNL     1       1.744  -0.468   0.979  1.00  0.00     0.029 A 
ATOM     55  N   UNL     1       2.048   0.010   3.137  1.00  0.00    -0.354 N 
ATOM     56  C   UNL     1      -1.643  -0.086  -0.975  1.00  0.00     0.074 A 
ATOM     57  C   UNL     1      -2.466   1.009  -0.513  1.00  0.00     0.031 C 
ATOM     58  C   UNL     1       2.927  -0.991   1.351  1.00  0.00     0.029 A 
ATOM     59  C   UNL     1       2.957  -1.003   2.799  1.00  0.00     0.049 A 
ATOM     60  H   UNL     1       2.107   0.599   3.924  1.00  0.00     0.167 HD
ATOM     61  C   UNL     1      -1.355  -0.694  -2.174  1.00  0.00     0.037 A 
ATOM     62  C   UNL     1       2.934  -2.104   3.608  1.00  0.00     0.037 A 
ATOM     63  C   UNL     1      -0.357  -1.764  -1.991  1.00  0.00     0.049 A 
ATOM     64  C   UNL     1       2.189  -3.251   2.943  1.00  0.00     0.074 A 
ATOM     65  C   UNL     1       0.939  -2.018  -2.405  1.00  0.00     0.029 A 
ATOM     66  N   UNL     1      -0.646  -2.753  -1.068  1.00  0.00    -0.354 N 
ATOM     67  N   UNL     1       1.899  -3.325   1.670  1.00  0.00    -0.248 NA
ATOM     68  C   UNL     1       1.614  -4.353   3.709  1.00  0.00     0.031 C 
ATOM     69  C   UNL     1       1.448  -3.105  -1.613  1.00  0.00     0.029 A 
ATOM     70  C   UNL     1       0.444  -3.540  -0.764  1.00  0.00     0.049 A 
ATOM     71  H   UNL     1      -1.537  -2.881  -0.669  1.00  0.00     0.167 HD
ATOM     72  C   UNL     1       0.975  -4.313   1.478  1.00  0.00     0.074 A 
ATOM     73  C   UNL     1       0.861  -4.956   2.778  1.00  0.00     0.031 C 
ATOM     74  C   UNL     1       0.294  -4.515   0.309  1.00  0.00     0.037 A 
BRANCH  61  75
ATOM     75  C   UNL     1      -1.878  -0.340  -3.569  1.00  0.00     0.064 A 
ATOM     76  C   UNL     1      -1.600  -1.192  -4.670  1.00  0.00     0.173 A 
ATOM     77  C   UNL     1      -2.602   0.819  -3.917  1.00  0.00     0.173 A 
ATOM     78  F   UNL     1      -0.946  -2.351  -4.505  1.00  0.00    -0.203 F 
ATOM     79  C   UNL     1      -1.982  -0.896  -5.986  1.00  0.00     0.198 A 
ATOM     80  C   UNL     1      -3.022   1.094  -5.229  1.00  0.00     0.198 A 
ATOM     81  F   UNL     1      -2.905   1.760  -3.021  1.00  0.00    -0.203 F 
ATOM     82  F   UNL     1      -1.644  -1.727  -6.982  1.00  0.00    -0.200 F 
ATOM     83  C   UNL     1      -2.700   0.245  -6.266  1.00  0.00     0.200 A 
ATOM     84  F   UNL     1      -3.732   2.204  -5.480  1.00  0.00    -0.200 F 
ATOM     85  F   UNL     1      -3.071   0.530  -7.522  1.00  0.00    -0.200 F 
ENDBRANCH  61  75
BRANCH  62  86
ATOM     86  C   UNL     1       2.802  -1.657   5.044  1.00  0.00     0.064 A 
ATOM     87  C   UNL     1       3.860  -0.885   5.581  1.00  0.00     0.173 A 
ATOM     88  C   UNL     1       1.547  -1.528   5.664  1.00  0.00     0.173 A 
ATOM     89  F   UNL     1       5.071  -0.922   5.002  1.00  0.00    -0.203 F 
ATOM     90  C   UNL     1       3.646   0.044   6.600  1.00  0.00     0.198 A 
ATOM     91  C   UNL     1       1.344  -0.609   6.698  1.00  0.00     0.198 A 
ATOM     92  F   UNL     1       0.475  -2.166   5.171  1.00  0.00    -0.203 F 
ATOM     93  F   UNL     1       4.643   0.854   6.985  1.00  0.00    -0.200 F 
ATOM     94  C   UNL     1       2.383   0.196   7.143  1.00  0.00     0.200 A 
ATOM     95  F   UNL     1       0.107  -0.413   7.178  1.00  0.00    -0.200 F 
ATOM     96  F   UNL     1       2.140   1.168   8.035  1.00  0.00    -0.200 F 
ENDBRANCH  62  86
BRANCH  74  97
ATOM     97  C   UNL     1      -0.644  -5.682   0.161  1.00  0.00     0.064 A 
ATOM     98  C   UNL     1      -0.260  -6.965   0.585  1.00  0.00     0.173 A 
ATOM     99  C   UNL     1      -1.902  -5.590  -0.470  1.00  0.00     0.173 A 
ATOM    100  F   UNL     1       0.954  -7.174   1.118  1.00  0.00    -0.203 F 
ATOM    101  C   UNL     1      -1.112  -8.061   0.477  1.00  0.00     0.198 A 
ATOM    102  C   UNL     1      -2.722  -6.704  -0.644  1.00  0.00     0.198 A 
ATOM    103  F   UNL     1      -2.394  -4.422  -0.905  1.00  0.00    -0.203 F 
ATOM    104  F   UNL     1      -0.739  -9.242   0.987  1.00  0.00    -0.200 F 
ATOM    105  C   UNL     1      -2.339  -7.933  -0.146  1.00  0.00     0.200 A 
ATOM    106  F   UNL     1      -3.892  -6.572  -1.284  1.00  0.00    -0.200 F 
ATOM    107  F   UNL     1      -3.152  -8.990  -0.264  1.00  0.00    -0.200 F 
ENDBRANCH  74  97
ENDBRANCH  48  49
ENDBRANCH  40  43
ENDBRANCH  38  39
ENDBRANCH  37  38
ENDBRANCH  36  37
ENDBRANCH   1  36
TORSDOF 17
