REMARK SMILES Cc1c(N2C(=O)/C(=C\c3cccc(OCCC(=O)NCCCCNC(=O)c4ccc(-c5c6nc(c(-c7c(F)c(F)c(F)c(F)c7F)c7ccc([nH]7)c(-c7c(F)c(F)c(F)c(F)c7F)c7nc(c(-c8c(F)c(F)c(F)c(F)c8F)c8ccc5[nH]8)C=C7)C=C6)cc4)c3)SC2=S)c(=O)n(-c2ccccc2)n1C
REMARK SMILES IDX 17 1 18 2 19 3 16 5 15 6 14 7 13 8 9 9 10 10 90 11 11 12
REMARK SMILES IDX 12 13 8 14 4 15 5 16 92 17 6 18 7 19 91 20 93 21 3 22 1 23
REMARK SMILES IDX 2 24 103 25 94 26 96 27 104 28 95 29 97 30 98 31 102 32
REMARK SMILES IDX 99 33 101 34 100 35 20 36 21 37 22 38 23 39 24 40 25 41
REMARK SMILES IDX 26 43 27 44 28 45 89 46 29 47 88 48 30 49 31 50 32 51 82 52
REMARK SMILES IDX 33 53 87 54 81 55 83 56 34 57 86 58 80 59 79 60 35 62 67 63
REMARK SMILES IDX 47 64 66 65 48 66 51 67 65 68 84 69 49 70 50 71 64 73 85 74
REMARK SMILES IDX 52 75 36 76 37 77 45 78 38 79 39 80 43 81 46 82 40 83 41 84
REMARK SMILES IDX 44 85 42 86 68 87 69 88 77 89 70 90 71 91 75 92 78 93 72 94
REMARK SMILES IDX 73 95 76 96 74 97 53 98 54 99 62 100 55 101 56 102 60 103
REMARK SMILES IDX 63 104 57 105 58 106 61 107 59 108
REMARK H PARENT 19 4 24 42 83 61 51 72
REMARK Flexibility Score: inf
ROOT
ATOM      1  C   UNL     1      -2.885  -4.340   0.219  1.00  0.00     0.223 C 
ATOM      2  O   UNL     1      -1.935  -3.698  -0.242  1.00  0.00    -0.275 OA
ATOM      3  N   UNL     1      -2.788  -4.875   1.466  1.00  0.00    -0.356 N 
ATOM      4  H   UNL     1      -1.901  -4.769   1.879  1.00  0.00     0.163 HD
ENDROOT
BRANCH   1   5
ATOM      5  C   UNL     1      -4.128  -4.559  -0.604  1.00  0.00     0.141 C 
BRANCH   5   6
ATOM      6  C   UNL     1      -3.820  -5.353  -1.875  1.00  0.00     0.239 C 
BRANCH   6   7
ATOM      7  O   UNL     1      -3.793  -6.768  -1.658  1.00  0.00    -0.493 OA
BRANCH   7   8
ATOM      8  C   UNL     1      -2.623  -7.375  -1.295  1.00  0.00     0.119 A 
ATOM      9  C   UNL     1      -0.283  -7.454  -0.608  1.00  0.00    -0.021 A 
ATOM     10  C   UNL     1      -0.418  -8.822  -0.342  1.00  0.00     0.008 A 
ATOM     11  C   UNL     1      -1.381  -6.755  -1.130  1.00  0.00     0.054 A 
ATOM     12  C   UNL     1      -1.636  -9.469  -0.571  1.00  0.00     0.004 A 
ATOM     13  C   UNL     1      -2.735  -8.743  -1.033  1.00  0.00     0.046 A 
BRANCH   9  14
ATOM     14  C   UNL     1       1.035  -6.805  -0.513  1.00  0.00     0.029 C 
ATOM     15  N   UNL     1       1.278  -3.540   1.145  1.00  0.00    -0.253 N 
ATOM     16  C   UNL     1       0.694  -4.807   1.105  1.00  0.00     0.271 C 
ATOM     17  C   UNL     1       2.562  -3.481   0.625  1.00  0.00     0.153 C 
ATOM     18  O   UNL     1      -0.230  -5.218   1.792  1.00  0.00    -0.268 OA
ATOM     19  C   UNL     1       1.421  -5.690   0.135  1.00  0.00     0.081 C 
ATOM     20  S   UNL     1       2.973  -4.999  -0.170  1.00  0.00    -0.054 SA
ATOM     21  S   UNL     1       3.714  -2.271   0.755  1.00  0.00    -0.051 S 
BRANCH  15  22
ATOM     22  C   UNL     1       0.630  -2.464   1.738  1.00  0.00     0.139 A 
ATOM     23  C   UNL     1       0.747  -0.681  -0.095  1.00  0.00     0.069 C 
ATOM     24  C   UNL     1       0.413  -1.218   1.262  1.00  0.00     0.062 A 
ATOM     25  N   UNL     1      -0.290  -0.410   2.157  1.00  0.00    -0.283 N 
ATOM     26  C   UNL     1       0.020  -2.465   3.119  1.00  0.00     0.296 A 
ATOM     27  N   UNL     1      -0.584  -1.207   3.287  1.00  0.00    -0.216 N 
ATOM     28  C   UNL     1       0.002   1.013   2.345  1.00  0.00     0.172 C 
ATOM     29  O   UNL     1       0.093  -3.396   3.907  1.00  0.00    -0.265 OA
BRANCH  27  30
ATOM     30  C   UNL     1      -1.332  -0.720   4.385  1.00  0.00     0.067 A 
ATOM     31  C   UNL     1      -1.067  -1.157   5.683  1.00  0.00     0.028 A 
ATOM     32  C   UNL     1      -2.332   0.252   4.213  1.00  0.00     0.028 A 
ATOM     33  C   UNL     1      -1.702  -0.550   6.776  1.00  0.00     0.002 A 
ATOM     34  C   UNL     1      -2.995   0.824   5.305  1.00  0.00     0.002 A 
ATOM     35  C   UNL     1      -2.662   0.436   6.593  1.00  0.00     0.000 A 
ENDBRANCH  27  30
ENDBRANCH  15  22
ENDBRANCH   9  14
ENDBRANCH   7   8
ENDBRANCH   6   7
ENDBRANCH   5   6
ENDBRANCH   1   5
BRANCH   3  36
ATOM     36  C   UNL     1      -3.748  -5.572   2.300  1.00  0.00     0.116 C 
BRANCH  36  37
ATOM     37  C   UNL     1      -3.823  -7.082   2.053  1.00  0.00     0.023 C 
BRANCH  37  38
ATOM     38  C   UNL     1      -2.533  -7.867   2.329  1.00  0.00     0.023 C 
BRANCH  38  39
ATOM     39  C   UNL     1      -2.358  -8.295   3.772  1.00  0.00     0.116 C 
BRANCH  39  40
ATOM     40  N   UNL     1      -3.237  -9.417   4.136  1.00  0.00    -0.352 N 
ATOM     41  C   UNL     1      -3.391 -10.025   5.378  1.00  0.00     0.251 C 
ATOM     42  H   UNL     1      -3.787  -9.785   3.407  1.00  0.00     0.163 HD
ATOM     43  O   UNL     1      -3.918 -11.107   5.506  1.00  0.00    -0.269 OA
BRANCH  41  44
ATOM     44  C   UNL     1      -2.827  -9.305   6.539  1.00  0.00     0.039 A 
ATOM     45  C   UNL     1      -1.854  -9.903   7.336  1.00  0.00     0.014 A 
ATOM     46  C   UNL     1      -3.070  -7.944   6.602  1.00  0.00     0.014 A 
ATOM     47  C   UNL     1      -0.980  -9.077   8.043  1.00  0.00     0.010 A 
ATOM     48  C   UNL     1      -2.079  -7.142   7.120  1.00  0.00     0.010 A 
ATOM     49  C   UNL     1      -1.021  -7.682   7.851  1.00  0.00    -0.014 A 
BRANCH  49  50
ATOM     50  C   UNL     1       0.101  -6.833   8.292  1.00  0.00     0.031 A 
ATOM     51  C   UNL     1       1.456  -7.447   8.258  1.00  0.00     0.074 A 
ATOM     52  C   UNL     1       0.033  -5.522   8.622  1.00  0.00     0.049 A 
ATOM     53  N   UNL     1       2.135  -7.847   9.283  1.00  0.00    -0.248 NA
ATOM     54  C   UNL     1       2.110  -7.717   6.972  1.00  0.00     0.031 C 
ATOM     55  C   UNL     1      -1.127  -4.632   8.556  1.00  0.00     0.029 A 
ATOM     56  N   UNL     1       1.026  -4.684   9.070  1.00  0.00    -0.354 N 
ATOM     57  C   UNL     1       3.385  -8.227   8.805  1.00  0.00     0.074 A 
ATOM     58  C   UNL     1       3.258  -8.278   7.371  1.00  0.00     0.031 C 
ATOM     59  C   UNL     1      -0.740  -3.356   8.740  1.00  0.00     0.029 A 
ATOM     60  C   UNL     1       0.655  -3.352   9.123  1.00  0.00     0.049 A 
ATOM     61  H   UNL     1       1.921  -5.003   9.329  1.00  0.00     0.167 HD
ATOM     62  C   UNL     1       4.466  -8.206   9.637  1.00  0.00     0.037 A 
ATOM     63  C   UNL     1       1.343  -2.296   9.606  1.00  0.00     0.037 A 
ATOM     64  C   UNL     1       4.052  -8.024  11.009  1.00  0.00     0.049 A 
ATOM     65  C   UNL     1       2.241  -2.765  10.668  1.00  0.00     0.074 A 
ATOM     66  C   UNL     1       3.573  -8.793  12.046  1.00  0.00     0.029 A 
ATOM     67  N   UNL     1       3.833  -6.717  11.342  1.00  0.00    -0.354 N 
ATOM     68  N   UNL     1       1.810  -3.237  11.804  1.00  0.00    -0.248 NA
ATOM     69  C   UNL     1       3.652  -2.990  10.382  1.00  0.00     0.031 C 
ATOM     70  C   UNL     1       2.937  -7.894  12.960  1.00  0.00     0.029 A 
ATOM     71  C   UNL     1       3.057  -6.602  12.464  1.00  0.00     0.049 A 
ATOM     72  H   UNL     1       4.190  -5.951  10.837  1.00  0.00     0.167 HD
ATOM     73  C   UNL     1       2.752  -4.183  12.139  1.00  0.00     0.074 A 
ATOM     74  C   UNL     1       3.938  -3.849  11.364  1.00  0.00     0.031 C 
ATOM     75  C   UNL     1       2.381  -5.356  12.724  1.00  0.00     0.037 A 
BRANCH  62  76
ATOM     76  C   UNL     1       5.895  -7.865   9.248  1.00  0.00     0.064 A 
ATOM     77  C   UNL     1       6.897  -7.910  10.247  1.00  0.00     0.173 A 
ATOM     78  C   UNL     1       6.258  -7.187   8.067  1.00  0.00     0.173 A 
ATOM     79  F   UNL     1       6.675  -8.534  11.414  1.00  0.00    -0.203 F 
ATOM     80  C   UNL     1       8.117  -7.241  10.111  1.00  0.00     0.198 A 
ATOM     81  C   UNL     1       7.499  -6.562   7.916  1.00  0.00     0.198 A 
ATOM     82  F   UNL     1       5.402  -7.003   7.059  1.00  0.00    -0.203 F 
ATOM     83  F   UNL     1       8.977  -7.205  11.139  1.00  0.00    -0.200 F 
ATOM     84  C   UNL     1       8.413  -6.557   8.949  1.00  0.00     0.200 A 
ATOM     85  F   UNL     1       7.765  -5.891   6.786  1.00  0.00    -0.200 F 
ATOM     86  F   UNL     1       9.551  -5.860   8.838  1.00  0.00    -0.200 F 
ENDBRANCH  62  76
BRANCH  63  87
ATOM     87  C   UNL     1       1.343  -0.913   9.118  1.00  0.00     0.064 A 
ATOM     88  C   UNL     1       1.236   0.198   9.957  1.00  0.00     0.173 A 
ATOM     89  C   UNL     1       1.689  -0.679   7.775  1.00  0.00     0.173 A 
ATOM     90  F   UNL     1       0.957   0.036  11.257  1.00  0.00    -0.203 F 
ATOM     91  C   UNL     1       1.456   1.490   9.469  1.00  0.00     0.198 A 
ATOM     92  C   UNL     1       1.895   0.608   7.285  1.00  0.00     0.198 A 
ATOM     93  F   UNL     1       1.896  -1.715   6.947  1.00  0.00    -0.203 F 
ATOM     94  F   UNL     1       1.389   2.538  10.301  1.00  0.00    -0.200 F 
ATOM     95  C   UNL     1       1.786   1.693   8.136  1.00  0.00     0.200 A 
ATOM     96  F   UNL     1       2.244   0.788   6.003  1.00  0.00    -0.200 F 
ATOM     97  F   UNL     1       2.037   2.929   7.681  1.00  0.00    -0.200 F 
ENDBRANCH  63  87
BRANCH  75  98
ATOM     98  C   UNL     1       1.106  -5.357  13.501  1.00  0.00     0.064 A 
ATOM     99  C   UNL     1      -0.171  -5.261  12.927  1.00  0.00     0.173 A 
ATOM    100  C   UNL     1       1.185  -5.482  14.892  1.00  0.00     0.173 A 
ATOM    101  F   UNL     1      -0.325  -5.200  11.599  1.00  0.00    -0.203 F 
ATOM    102  C   UNL     1      -1.318  -5.248  13.720  1.00  0.00     0.198 A 
ATOM    103  C   UNL     1       0.039  -5.496  15.680  1.00  0.00     0.198 A 
ATOM    104  F   UNL     1       2.381  -5.608  15.487  1.00  0.00    -0.203 F 
ATOM    105  F   UNL     1      -2.528  -5.129  13.153  1.00  0.00    -0.200 F 
ATOM    106  C   UNL     1      -1.211  -5.368  15.096  1.00  0.00     0.200 A 
ATOM    107  F   UNL     1       0.147  -5.641  17.008  1.00  0.00    -0.200 F 
ATOM    108  F   UNL     1      -2.313  -5.372  15.859  1.00  0.00    -0.200 F 
ENDBRANCH  75  98
ENDBRANCH  49  50
ENDBRANCH  41  44
ENDBRANCH  39  40
ENDBRANCH  38  39
ENDBRANCH  37  38
ENDBRANCH  36  37
ENDBRANCH   3  36
TORSDOF 17
