REMARK SMILES Cc1c(C(=O)NCCCCNC(=O)c2ccc(-c3c4nc(c(-c5c(F)c(F)c(F)c(F)c5F)c5ccc([nH]5)c(-c5c(F)c(F)c(F)c(F)c5F)c5nc(c(-c6c(F)c(F)c(F)c(F)c6F)c6ccc3[nH]6)C=C5)C=C4)cc2)sc2ncnc(NCc3cn4c(n3)SCC4)c12
REMARK SMILES IDX 8 1 7 2 6 3 4 4 5 5 3 7 1 8 2 9 93 10 77 11 78 12 82 13
REMARK SMILES IDX 79 14 81 15 80 16 83 17 84 19 85 20 86 21 89 22 87 23 88 24
REMARK SMILES IDX 92 25 90 26 91 27 9 28 10 29 11 30 12 31 13 33 14 34 15 35
REMARK SMILES IDX 76 36 16 37 75 38 17 39 18 40 19 41 69 42 20 43 74 44 68 45
REMARK SMILES IDX 70 46 21 47 73 48 67 49 66 50 22 52 54 53 34 54 53 55 35 56
REMARK SMILES IDX 38 57 52 58 71 59 36 60 37 61 51 63 72 64 39 65 23 66 24 67
REMARK SMILES IDX 32 68 25 69 26 70 30 71 33 72 27 73 28 74 31 75 29 76 55 77
REMARK SMILES IDX 56 78 64 79 57 80 58 81 62 82 65 83 59 84 60 85 63 86 61 87
REMARK SMILES IDX 40 88 41 89 49 90 42 91 43 92 47 93 50 94 44 95 45 96 48 97
REMARK SMILES IDX 46 98
REMARK H PARENT 6 6 83 18 11 32 70 51 38 62
REMARK Flexibility Score: inf
ROOT
ATOM      1  C   UNL     1      -4.366  -3.218  -1.889  1.00  0.00     0.023 C 
ENDROOT
BRANCH   1   2
ATOM      2  C   UNL     1      -3.219  -2.694  -2.757  1.00  0.00     0.116 C 
BRANCH   2   3
ATOM      3  N   UNL     1      -2.796  -1.377  -2.334  1.00  0.00    -0.351 N 
ATOM      4  C   UNL     1      -1.801  -0.937  -1.497  1.00  0.00     0.261 C 
ATOM      5  O   UNL     1      -1.801   0.287  -1.321  1.00  0.00    -0.268 OA
ATOM      6  H   UNL     1      -3.329  -0.648  -2.726  1.00  0.00     0.163 HD
BRANCH   4   7
ATOM      7  C   UNL     1      -0.787  -1.809  -0.897  1.00  0.00     0.098 A 
ATOM      8  C   UNL     1       0.992  -0.022  -0.725  1.00  0.00     0.047 C 
ATOM      9  C   UNL     1       0.494  -1.420  -0.477  1.00  0.00    -0.014 A 
ATOM     10  C   UNL     1       1.242  -2.527   0.153  1.00  0.00     0.057 A 
ATOM     11  S   UNL     1      -1.067  -3.444  -0.535  1.00  0.00    -0.110 S 
ATOM     12  C   UNL     1       0.517  -3.700  -0.017  1.00  0.00     0.129 A 
ATOM     13  C   UNL     1       2.480  -2.710   0.844  1.00  0.00     0.138 A 
ATOM     14  N   UNL     1       0.905  -4.957   0.238  1.00  0.00    -0.225 NA
ATOM     15  N   UNL     1       2.909  -3.979   1.061  1.00  0.00    -0.219 NA
ATOM     16  C   UNL     1       2.135  -5.014   0.728  1.00  0.00     0.225 A 
BRANCH  13  17
ATOM     17  N   UNL     1       3.328  -1.788   1.403  1.00  0.00    -0.364 N 
ATOM     18  H   UNL     1       4.193  -2.127   1.727  1.00  0.00     0.162 HD
BRANCH  17  19
ATOM     19  C   UNL     1       3.088  -0.386   1.565  1.00  0.00     0.172 C 
BRANCH  19  20
ATOM     20  C   UNL     1       3.245   0.282   2.893  1.00  0.00     0.079 A 
ATOM     21  C   UNL     1       2.366   0.192   3.968  1.00  0.00     0.113 A 
ATOM     22  N   UNL     1       4.071   1.391   3.013  1.00  0.00    -0.226 NA
ATOM     23  N   UNL     1       2.583   1.341   4.653  1.00  0.00    -0.325 N 
ATOM     24  C   UNL     1       3.612   2.008   4.065  1.00  0.00     0.168 A 
ATOM     25  C   UNL     1       1.720   2.117   5.522  1.00  0.00     0.135 C 
ATOM     26  S   UNL     1       3.665   3.672   4.517  1.00  0.00    -0.086 SA
ATOM     27  C   UNL     1       1.925   3.577   5.108  1.00  0.00     0.100 C 
ENDBRANCH  19  20
ENDBRANCH  17  19
ENDBRANCH  13  17
ENDBRANCH   4   7
ENDBRANCH   2   3
ENDBRANCH   1   2
BRANCH   1  28
ATOM     28  C   UNL     1      -5.712  -2.502  -2.080  1.00  0.00     0.023 C 
BRANCH  28  29
ATOM     29  C   UNL     1      -6.304  -2.597  -3.482  1.00  0.00     0.116 C 
BRANCH  29  30
ATOM     30  N   UNL     1      -6.530  -3.974  -3.929  1.00  0.00    -0.352 N 
ATOM     31  C   UNL     1      -6.773  -4.415  -5.217  1.00  0.00     0.251 C 
ATOM     32  H   UNL     1      -6.505  -4.667  -3.230  1.00  0.00     0.163 HD
ATOM     33  O   UNL     1      -7.323  -5.491  -5.437  1.00  0.00    -0.269 OA
BRANCH  31  34
ATOM     34  C   UNL     1      -6.331  -3.564  -6.331  1.00  0.00     0.039 A 
ATOM     35  C   UNL     1      -7.150  -3.251  -7.413  1.00  0.00     0.014 A 
ATOM     36  C   UNL     1      -5.069  -2.999  -6.208  1.00  0.00     0.014 A 
ATOM     37  C   UNL     1      -6.713  -2.278  -8.311  1.00  0.00     0.010 A 
ATOM     38  C   UNL     1      -4.738  -1.905  -6.963  1.00  0.00     0.010 A 
ATOM     39  C   UNL     1      -5.516  -1.575  -8.061  1.00  0.00    -0.014 A 
BRANCH  39  40
ATOM     40  C   UNL     1      -5.109  -0.449  -8.901  1.00  0.00     0.031 A 
ATOM     41  C   UNL     1      -6.207   0.492  -9.252  1.00  0.00     0.074 A 
ATOM     42  C   UNL     1      -3.831  -0.188  -9.262  1.00  0.00     0.049 A 
ATOM     43  N   UNL     1      -6.775   0.617 -10.405  1.00  0.00    -0.248 NA
ATOM     44  C   UNL     1      -6.844   1.282  -8.187  1.00  0.00     0.031 C 
ATOM     45  C   UNL     1      -2.584  -0.833  -8.825  1.00  0.00     0.029 A 
ATOM     46  N   UNL     1      -3.373   0.788 -10.096  1.00  0.00    -0.354 N 
ATOM     47  C   UNL     1      -7.729   1.618 -10.268  1.00  0.00     0.074 A 
ATOM     48  C   UNL     1      -7.823   1.897  -8.858  1.00  0.00     0.031 C 
ATOM     49  C   UNL     1      -1.518  -0.099  -9.217  1.00  0.00     0.029 A 
ATOM     50  C   UNL     1      -1.991   0.941 -10.107  1.00  0.00     0.049 A 
ATOM     51  H   UNL     1      -3.973   1.341 -10.647  1.00  0.00     0.167 HD
ATOM     52  C   UNL     1      -8.206   2.276 -11.361  1.00  0.00     0.037 A 
ATOM     53  C   UNL     1      -1.279   1.831 -10.838  1.00  0.00     0.037 A 
ATOM     54  C   UNL     1      -7.879   1.569 -12.573  1.00  0.00     0.049 A 
ATOM     55  C   UNL     1      -2.133   2.217 -11.981  1.00  0.00     0.074 A 
ATOM     56  C   UNL     1      -8.235   0.361 -13.135  1.00  0.00     0.029 A 
ATOM     57  N   UNL     1      -6.739   1.968 -13.221  1.00  0.00    -0.354 N 
ATOM     58  N   UNL     1      -2.454   1.412 -12.952  1.00  0.00    -0.248 NA
ATOM     59  C   UNL     1      -2.963   3.401 -11.841  1.00  0.00     0.031 C 
ATOM     60  C   UNL     1      -7.055  -0.112 -13.788  1.00  0.00     0.029 A 
ATOM     61  C   UNL     1      -6.061   0.856 -13.643  1.00  0.00     0.049 A 
ATOM     62  H   UNL     1      -6.456   2.901 -13.361  1.00  0.00     0.167 HD
ATOM     63  C   UNL     1      -3.763   1.744 -13.256  1.00  0.00     0.074 A 
ATOM     64  C   UNL     1      -3.974   3.051 -12.640  1.00  0.00     0.031 C 
ATOM     65  C   UNL     1      -4.620   0.798 -13.740  1.00  0.00     0.037 A 
BRANCH  52  66
ATOM     66  C   UNL     1      -8.598   3.734 -11.381  1.00  0.00     0.064 A 
ATOM     67  C   UNL     1      -9.216   4.268 -12.530  1.00  0.00     0.173 A 
ATOM     68  C   UNL     1      -8.105   4.681 -10.459  1.00  0.00     0.173 A 
ATOM     69  F   UNL     1      -9.696   3.458 -13.486  1.00  0.00    -0.203 F 
ATOM     70  C   UNL     1      -9.271   5.645 -12.768  1.00  0.00     0.198 A 
ATOM     71  C   UNL     1      -8.206   6.054 -10.675  1.00  0.00     0.198 A 
ATOM     72  F   UNL     1      -7.405   4.319  -9.377  1.00  0.00    -0.203 F 
ATOM     73  F   UNL     1      -9.757   6.102 -13.930  1.00  0.00    -0.200 F 
ATOM     74  C   UNL     1      -8.760   6.536 -11.842  1.00  0.00     0.200 A 
ATOM     75  F   UNL     1      -7.681   6.902  -9.779  1.00  0.00    -0.200 F 
ATOM     76  F   UNL     1      -8.754   7.852 -12.094  1.00  0.00    -0.200 F 
ENDBRANCH  52  66
BRANCH  53  77
ATOM     77  C   UNL     1      -0.079   2.618 -10.475  1.00  0.00     0.064 A 
ATOM     78  C   UNL     1       0.643   3.301 -11.469  1.00  0.00     0.173 A 
ATOM     79  C   UNL     1       0.151   3.010  -9.145  1.00  0.00     0.173 A 
ATOM     80  F   UNL     1       0.458   3.000 -12.763  1.00  0.00    -0.203 F 
ATOM     81  C   UNL     1       1.486   4.370 -11.157  1.00  0.00     0.198 A 
ATOM     82  C   UNL     1       0.997   4.076  -8.834  1.00  0.00     0.198 A 
ATOM     83  F   UNL     1      -0.529   2.443  -8.137  1.00  0.00    -0.203 F 
ATOM     84  F   UNL     1       2.081   5.061 -12.140  1.00  0.00    -0.200 F 
ATOM     85  C   UNL     1       1.645   4.771  -9.841  1.00  0.00     0.200 A 
ATOM     86  F   UNL     1       1.117   4.481  -7.562  1.00  0.00    -0.200 F 
ATOM     87  F   UNL     1       2.379   5.854  -9.549  1.00  0.00    -0.200 F 
ENDBRANCH  53  77
BRANCH  65  88
ATOM     88  C   UNL     1      -4.010  -0.481 -14.246  1.00  0.00     0.064 A 
ATOM     89  C   UNL     1      -3.311  -1.407 -13.451  1.00  0.00     0.173 A 
ATOM     90  C   UNL     1      -4.218  -0.817 -15.590  1.00  0.00     0.173 A 
ATOM     91  F   UNL     1      -3.143  -1.203 -12.139  1.00  0.00    -0.203 F 
ATOM     92  C   UNL     1      -2.805  -2.589 -13.993  1.00  0.00     0.198 A 
ATOM     93  C   UNL     1      -3.745  -2.014 -16.119  1.00  0.00     0.198 A 
ATOM     94  F   UNL     1      -4.917   0.007 -16.387  1.00  0.00    -0.203 F 
ATOM     95  F   UNL     1      -2.121  -3.446 -13.220  1.00  0.00    -0.200 F 
ATOM     96  C   UNL     1      -3.027  -2.893 -15.325  1.00  0.00     0.200 A 
ATOM     97  F   UNL     1      -4.001  -2.322 -17.398  1.00  0.00    -0.200 F 
ATOM     98  F   UNL     1      -2.569  -4.042 -15.841  1.00  0.00    -0.200 F 
ENDBRANCH  65  88
ENDBRANCH  39  40
ENDBRANCH  31  34
ENDBRANCH  29  30
ENDBRANCH  28  29
ENDBRANCH   1  28
TORSDOF 14
