REMARK SMILES Cc1ccoc1C(=O)N1CCO[C@H](CC(=O)NCCCCNC(=O)c2ccc(-c3c4nc(c(-c5c(F)c(F)c(F)c(F)c5F)c5ccc([nH]5)c(-c5c(F)c(F)c(F)c(F)c5F)c5nc(c(-c6c(F)c(F)c(F)c(F)c6F)c6ccc3[nH]6)C=C5)C=C4)cc2)C1
REMARK SMILES IDX 19 1 18 2 17 3 15 4 16 5 14 7 13 8 9 9 10 10 88 11 11 12
REMARK SMILES IDX 12 13 7 14 8 15 6 16 1 17 2 18 3 19 4 20 5 21 20 22 21 23
REMARK SMILES IDX 22 24 23 25 24 27 25 28 26 29 87 30 27 31 86 32 28 33 29 34
REMARK SMILES IDX 30 35 80 36 31 37 85 38 79 39 81 40 32 41 84 42 78 43 77 44
REMARK SMILES IDX 33 46 65 47 45 48 64 49 46 50 49 51 63 52 82 53 47 54 48 55
REMARK SMILES IDX 62 57 83 58 50 59 34 60 35 61 43 62 36 63 37 64 41 65 44 66
REMARK SMILES IDX 38 67 39 68 42 69 40 70 66 71 67 72 75 73 68 74 69 75 73 76
REMARK SMILES IDX 76 77 70 78 71 79 74 80 72 81 51 82 52 83 60 84 53 85 54 86
REMARK SMILES IDX 58 87 61 88 55 89 56 90 59 91 57 92
REMARK H PARENT 17 6 22 26 81 45 49 56
REMARK Flexibility Score: inf
ROOT
ATOM      1  C   UNL     1      -7.000  -1.893   2.362  1.00  0.00     0.023 C 
ENDROOT
BRANCH   1   2
ATOM      2  C   UNL     1      -5.895  -0.844   2.433  1.00  0.00     0.116 C 
BRANCH   2   3
ATOM      3  N   UNL     1      -5.063  -1.067   3.596  1.00  0.00    -0.356 N 
ATOM      4  C   UNL     1      -3.850  -1.682   3.650  1.00  0.00     0.222 C 
ATOM      5  O   UNL     1      -3.387  -2.000   4.745  1.00  0.00    -0.275 OA
ATOM      6  H   UNL     1      -5.417  -0.732   4.452  1.00  0.00     0.163 HD
BRANCH   4   7
ATOM      7  C   UNL     1      -3.075  -1.887   2.376  1.00  0.00     0.133 C 
BRANCH   7   8
ATOM      8  C   UNL     1      -3.361  -3.219   1.665  1.00  0.00     0.147 C 
ATOM      9  N   UNL     1      -1.665  -2.743   0.016  1.00  0.00    -0.331 N 
ATOM     10  C   UNL     1      -2.623  -2.586  -1.066  1.00  0.00     0.148 C 
ATOM     11  C   UNL     1      -2.073  -3.732   1.009  1.00  0.00     0.152 C 
ATOM     12  C   UNL     1      -4.058  -2.399  -0.536  1.00  0.00     0.182 C 
ATOM     13  O   UNL     1      -4.392  -3.142   0.652  1.00  0.00    -0.374 OA
BRANCH   9  14
ATOM     14  C   UNL     1      -0.324  -2.389  -0.046  1.00  0.00     0.289 C 
ATOM     15  O   UNL     1       0.518  -3.255   0.210  1.00  0.00    -0.265 OA
BRANCH  14  16
ATOM     16  C   UNL     1       0.053  -0.986  -0.238  1.00  0.00     0.194 A 
ATOM     17  C   UNL     1      -1.998   0.659  -0.277  1.00  0.00     0.049 C 
ATOM     18  C   UNL     1      -0.573   0.264  -0.295  1.00  0.00     0.000 A 
ATOM     19  C   UNL     1       0.473   1.239  -0.318  1.00  0.00     0.046 A 
ATOM     20  C   UNL     1       1.654   0.553  -0.288  1.00  0.00     0.196 A 
ATOM     21  O   UNL     1       1.417  -0.774  -0.261  1.00  0.00    -0.459 OA
ENDBRANCH  14  16
ENDBRANCH   9  14
ENDBRANCH   7   8
ENDBRANCH   4   7
ENDBRANCH   2   3
ENDBRANCH   1   2
BRANCH   1  22
ATOM     22  C   UNL     1      -8.048  -1.745   3.466  1.00  0.00     0.023 C 
BRANCH  22  23
ATOM     23  C   UNL     1      -8.750  -0.393   3.494  1.00  0.00     0.116 C 
BRANCH  23  24
ATOM     24  N   UNL     1      -9.459  -0.103   2.257  1.00  0.00    -0.352 N 
ATOM     25  C   UNL     1     -10.705   0.448   2.096  1.00  0.00     0.251 C 
ATOM     26  H   UNL     1      -8.982  -0.333   1.427  1.00  0.00     0.163 HD
ATOM     27  O   UNL     1     -11.228   0.494   0.986  1.00  0.00    -0.269 OA
BRANCH  25  28
ATOM     28  C   UNL     1     -11.429   0.955   3.279  1.00  0.00     0.039 A 
ATOM     29  C   UNL     1     -12.759   0.575   3.468  1.00  0.00     0.014 A 
ATOM     30  C   UNL     1     -10.786   1.771   4.213  1.00  0.00     0.014 A 
ATOM     31  C   UNL     1     -13.427   0.966   4.628  1.00  0.00     0.010 A 
ATOM     32  C   UNL     1     -11.428   2.094   5.404  1.00  0.00     0.010 A 
ATOM     33  C   UNL     1     -12.755   1.697   5.623  1.00  0.00    -0.014 A 
BRANCH  33  34
ATOM     34  C   UNL     1     -13.429   2.050   6.898  1.00  0.00     0.031 A 
ATOM     35  C   UNL     1     -13.668   3.490   7.254  1.00  0.00     0.074 A 
ATOM     36  C   UNL     1     -13.778   1.073   7.758  1.00  0.00     0.049 A 
ATOM     37  N   UNL     1     -14.203   3.998   8.336  1.00  0.00    -0.248 NA
ATOM     38  C   UNL     1     -13.224   4.496   6.277  1.00  0.00     0.031 C 
ATOM     39  C   UNL     1     -13.553  -0.358   7.549  1.00  0.00     0.029 A 
ATOM     40  N   UNL     1     -14.391   1.137   8.984  1.00  0.00    -0.354 N 
ATOM     41  C   UNL     1     -14.153   5.375   8.172  1.00  0.00     0.074 A 
ATOM     42  C   UNL     1     -13.479   5.628   6.918  1.00  0.00     0.031 C 
ATOM     43  C   UNL     1     -14.048  -1.038   8.594  1.00  0.00     0.029 A 
ATOM     44  C   UNL     1     -14.589  -0.092   9.565  1.00  0.00     0.049 A 
ATOM     45  H   UNL     1     -14.664   1.983   9.407  1.00  0.00     0.167 HD
ATOM     46  C   UNL     1     -14.648   6.342   8.982  1.00  0.00     0.037 A 
ATOM     47  C   UNL     1     -15.141  -0.417  10.749  1.00  0.00     0.037 A 
ATOM     48  C   UNL     1     -15.332   6.086  10.222  1.00  0.00     0.049 A 
ATOM     49  C   UNL     1     -15.668   0.678  11.638  1.00  0.00     0.074 A 
ATOM     50  C   UNL     1     -15.916   6.993  11.089  1.00  0.00     0.029 A 
ATOM     51  N   UNL     1     -15.520   4.827  10.776  1.00  0.00    -0.354 N 
ATOM     52  N   UNL     1     -15.680   1.973  11.439  1.00  0.00    -0.248 NA
ATOM     53  C   UNL     1     -16.267   0.262  12.914  1.00  0.00     0.031 C 
ATOM     54  C   UNL     1     -16.411   6.289  12.192  1.00  0.00     0.029 A 
ATOM     55  C   UNL     1     -16.189   4.937  11.985  1.00  0.00     0.049 A 
ATOM     56  H   UNL     1     -15.222   3.981  10.370  1.00  0.00     0.167 HD
ATOM     57  C   UNL     1     -16.312   2.524  12.545  1.00  0.00     0.074 A 
ATOM     58  C   UNL     1     -16.686   1.419  13.404  1.00  0.00     0.031 C 
ATOM     59  C   UNL     1     -16.561   3.827  12.826  1.00  0.00     0.037 A 
BRANCH  46  60
ATOM     60  C   UNL     1     -14.471   7.769   8.547  1.00  0.00     0.064 A 
ATOM     61  C   UNL     1     -15.153   8.290   7.436  1.00  0.00     0.173 A 
ATOM     62  C   UNL     1     -13.639   8.637   9.270  1.00  0.00     0.173 A 
ATOM     63  F   UNL     1     -15.952   7.500   6.702  1.00  0.00    -0.203 F 
ATOM     64  C   UNL     1     -14.984   9.616   7.047  1.00  0.00     0.198 A 
ATOM     65  C   UNL     1     -13.499   9.972   8.898  1.00  0.00     0.198 A 
ATOM     66  F   UNL     1     -12.968   8.194  10.344  1.00  0.00    -0.203 F 
ATOM     67  F   UNL     1     -15.603  10.075   5.951  1.00  0.00    -0.200 F 
ATOM     68  C   UNL     1     -14.164  10.458   7.783  1.00  0.00     0.200 A 
ATOM     69  F   UNL     1     -12.717  10.787   9.619  1.00  0.00    -0.200 F 
ATOM     70  F   UNL     1     -14.008  11.736   7.412  1.00  0.00    -0.200 F 
ENDBRANCH  46  60
BRANCH  47  71
ATOM     71  C   UNL     1     -15.250  -1.844  11.154  1.00  0.00     0.064 A 
ATOM     72  C   UNL     1     -16.500  -2.473  11.245  1.00  0.00     0.173 A 
ATOM     73  C   UNL     1     -14.114  -2.604  11.469  1.00  0.00     0.173 A 
ATOM     74  F   UNL     1     -17.617  -1.783  10.973  1.00  0.00    -0.203 F 
ATOM     75  C   UNL     1     -16.611  -3.799  11.660  1.00  0.00     0.198 A 
ATOM     76  C   UNL     1     -14.224  -3.938  11.853  1.00  0.00     0.198 A 
ATOM     77  F   UNL     1     -12.894  -2.052  11.393  1.00  0.00    -0.203 F 
ATOM     78  F   UNL     1     -17.822  -4.358  11.788  1.00  0.00    -0.200 F 
ATOM     79  C   UNL     1     -15.473  -4.532  11.958  1.00  0.00     0.200 A 
ATOM     80  F   UNL     1     -13.121  -4.648  12.126  1.00  0.00    -0.200 F 
ATOM     81  F   UNL     1     -15.580  -5.807  12.354  1.00  0.00    -0.200 F 
ENDBRANCH  47  71
BRANCH  59  82
ATOM     82  C   UNL     1     -17.306   4.128  14.095  1.00  0.00     0.064 A 
ATOM     83  C   UNL     1     -16.719   3.953  15.357  1.00  0.00     0.173 A 
ATOM     84  C   UNL     1     -18.617   4.628  14.045  1.00  0.00     0.173 A 
ATOM     85  F   UNL     1     -15.473   3.465  15.460  1.00  0.00    -0.203 F 
ATOM     86  C   UNL     1     -17.427   4.237  16.521  1.00  0.00     0.198 A 
ATOM     87  C   UNL     1     -19.309   4.943  15.211  1.00  0.00     0.198 A 
ATOM     88  F   UNL     1     -19.223   4.821  12.864  1.00  0.00    -0.203 F 
ATOM     89  F   UNL     1     -16.865   4.009  17.717  1.00  0.00    -0.200 F 
ATOM     90  C   UNL     1     -18.718   4.738  16.448  1.00  0.00     0.200 A 
ATOM     91  F   UNL     1     -20.551   5.443  15.136  1.00  0.00    -0.200 F 
ATOM     92  F   UNL     1     -19.395   5.016  17.570  1.00  0.00    -0.200 F 
ENDBRANCH  59  82
ENDBRANCH  33  34
ENDBRANCH  25  28
ENDBRANCH  23  24
ENDBRANCH  22  23
ENDBRANCH   1  22
TORSDOF 14
