REMARK SMILES O=C(NCCCCNC(=O)c1cccc2nc(Cl)c(Cl)nc12)c1ccc(-c2c3nc(c(-c4c(F)c(F)c(F)c(F)c4F)c4ccc([nH]4)c(-c4c(F)c(F)c(F)c(F)c4F)c4nc(c(-c5c(F)c(F)c(F)c(F)c5F)c5ccc2[nH]5)C=C4)C=C3)cc1
REMARK SMILES IDX 4 1 3 2 1 3 2 4 23 6 24 7 85 8 25 9 84 10 26 11 27 12 28 13
REMARK SMILES IDX 78 14 29 15 83 16 77 17 79 18 30 19 82 20 76 21 75 22 31 24
REMARK SMILES IDX 63 25 43 26 62 27 44 28 47 29 61 30 80 31 45 32 46 33 60 35
REMARK SMILES IDX 81 36 48 37 32 38 33 39 41 40 34 41 35 42 39 43 42 44 36 45
REMARK SMILES IDX 37 46 40 47 38 48 64 49 65 50 73 51 66 52 67 53 71 54 74 55
REMARK SMILES IDX 68 56 69 57 72 58 70 59 49 60 50 61 58 62 51 63 52 64 56 65
REMARK SMILES IDX 59 66 53 67 54 68 57 69 55 70 5 71 6 72 7 73 8 74 9 75 10 77
REMARK SMILES IDX 11 78 12 79 22 80 13 81 15 82 21 83 14 84 16 85 19 86 17 87
REMARK SMILES IDX 20 88 18 89
REMARK H PARENT 3 5 79 23 47 34 8 76
REMARK Flexibility Score: inf
ROOT
ATOM      1  C   UNL     1       4.615  -1.239  -0.678  1.00  0.00     0.116 C 
ENDROOT
BRANCH   1   2
ATOM      2  N   UNL     1       3.192  -0.958  -0.765  1.00  0.00    -0.352 N 
ATOM      3  O   UNL     1       1.184  -0.147  -0.172  1.00  0.00    -0.269 OA
ATOM      4  C   UNL     1       2.403  -0.119  -0.019  1.00  0.00     0.251 C 
ATOM      5  H   UNL     1       2.717  -1.448  -1.475  1.00  0.00     0.163 HD
BRANCH   4   6
ATOM      6  C   UNL     1       2.993   0.810   0.972  1.00  0.00     0.039 A 
ATOM      7  C   UNL     1       2.297   1.049   2.161  1.00  0.00     0.014 A 
ATOM      8  C   UNL     1       4.182   1.498   0.718  1.00  0.00     0.014 A 
ATOM      9  C   UNL     1       2.799   1.960   3.093  1.00  0.00     0.010 A 
ATOM     10  C   UNL     1       4.736   2.324   1.692  1.00  0.00     0.010 A 
ATOM     11  C   UNL     1       4.026   2.603   2.868  1.00  0.00    -0.014 A 
BRANCH  11  12
ATOM     12  C   UNL     1       4.518   3.654   3.795  1.00  0.00     0.031 A 
ATOM     13  C   UNL     1       4.639   5.074   3.308  1.00  0.00     0.074 A 
ATOM     14  C   UNL     1       4.858   3.344   5.060  1.00  0.00     0.049 A 
ATOM     15  N   UNL     1       5.043   6.140   3.952  1.00  0.00    -0.248 NA
ATOM     16  C   UNL     1       4.288   5.328   1.901  1.00  0.00     0.031 C 
ATOM     17  C   UNL     1       4.822   2.002   5.639  1.00  0.00     0.029 A 
ATOM     18  N   UNL     1       5.290   4.141   6.091  1.00  0.00    -0.354 N 
ATOM     19  C   UNL     1       5.006   7.175   3.027  1.00  0.00     0.074 A 
ATOM     20  C   UNL     1       4.618   6.601   1.760  1.00  0.00     0.031 C 
ATOM     21  C   UNL     1       5.170   2.074   6.934  1.00  0.00     0.029 A 
ATOM     22  C   UNL     1       5.483   3.462   7.269  1.00  0.00     0.049 A 
ATOM     23  H   UNL     1       5.447   5.108   5.995  1.00  0.00     0.167 HD
ATOM     24  C   UNL     1       5.229   8.495   3.223  1.00  0.00     0.037 A 
ATOM     25  C   UNL     1       5.857   3.912   8.482  1.00  0.00     0.037 A 
ATOM     26  C   UNL     1       5.560   9.073   4.495  1.00  0.00     0.049 A 
ATOM     27  C   UNL     1       6.121   5.381   8.676  1.00  0.00     0.074 A 
ATOM     28  C   UNL     1       5.724  10.408   4.817  1.00  0.00     0.029 A 
ATOM     29  N   UNL     1       5.774   8.347   5.657  1.00  0.00    -0.354 N 
ATOM     30  N   UNL     1       6.006   6.361   7.812  1.00  0.00    -0.248 NA
ATOM     31  C   UNL     1       6.569   5.808  10.010  1.00  0.00     0.031 C 
ATOM     32  C   UNL     1       6.082  10.486   6.166  1.00  0.00     0.029 A 
ATOM     33  C   UNL     1       6.103   9.204   6.692  1.00  0.00     0.049 A 
ATOM     34  H   UNL     1       5.703   7.368   5.733  1.00  0.00     0.167 HD
ATOM     35  C   UNL     1       6.355   7.517   8.496  1.00  0.00     0.074 A 
ATOM     36  C   UNL     1       6.669   7.122   9.853  1.00  0.00     0.031 C 
ATOM     37  C   UNL     1       6.415   8.791   8.037  1.00  0.00     0.037 A 
BRANCH  24  38
ATOM     38  C   UNL     1       5.094   9.406   2.038  1.00  0.00     0.064 A 
ATOM     39  C   UNL     1       3.845   9.669   1.454  1.00  0.00     0.173 A 
ATOM     40  C   UNL     1       6.218  10.045   1.496  1.00  0.00     0.173 A 
ATOM     41  F   UNL     1       2.739   9.073   1.927  1.00  0.00    -0.203 F 
ATOM     42  C   UNL     1       3.732  10.510   0.351  1.00  0.00     0.198 A 
ATOM     43  C   UNL     1       6.097  10.911   0.412  1.00  0.00     0.198 A 
ATOM     44  F   UNL     1       7.435   9.834   2.020  1.00  0.00    -0.203 F 
ATOM     45  F   UNL     1       2.536  10.701  -0.224  1.00  0.00    -0.200 F 
ATOM     46  C   UNL     1       4.856  11.136  -0.165  1.00  0.00     0.200 A 
ATOM     47  F   UNL     1       7.183  11.525  -0.077  1.00  0.00    -0.200 F 
ATOM     48  F   UNL     1       4.745  11.950  -1.224  1.00  0.00    -0.200 F 
ENDBRANCH  24  38
BRANCH  25  49
ATOM     49  C   UNL     1       5.953   2.958   9.618  1.00  0.00     0.064 A 
ATOM     50  C   UNL     1       5.000   2.974  10.646  1.00  0.00     0.173 A 
ATOM     51  C   UNL     1       6.965   1.989   9.679  1.00  0.00     0.173 A 
ATOM     52  F   UNL     1       4.025   3.894  10.641  1.00  0.00    -0.203 F 
ATOM     53  C   UNL     1       5.056   2.055  11.692  1.00  0.00     0.198 A 
ATOM     54  C   UNL     1       7.006   1.057  10.714  1.00  0.00     0.198 A 
ATOM     55  F   UNL     1       7.898   1.932   8.718  1.00  0.00    -0.203 F 
ATOM     56  F   UNL     1       4.145   2.105  12.674  1.00  0.00    -0.200 F 
ATOM     57  C   UNL     1       6.053   1.092  11.721  1.00  0.00     0.200 A 
ATOM     58  F   UNL     1       7.964   0.119  10.731  1.00  0.00    -0.200 F 
ATOM     59  F   UNL     1       6.096   0.198  12.718  1.00  0.00    -0.200 F 
ENDBRANCH  25  49
BRANCH  37  60
ATOM     60  C   UNL     1       6.847   9.863   8.992  1.00  0.00     0.064 A 
ATOM     61  C   UNL     1       8.195  10.012   9.348  1.00  0.00     0.173 A 
ATOM     62  C   UNL     1       5.932  10.822   9.451  1.00  0.00     0.173 A 
ATOM     63  F   UNL     1       9.103   9.113   8.941  1.00  0.00    -0.203 F 
ATOM     64  C   UNL     1       8.613  11.088  10.125  1.00  0.00     0.198 A 
ATOM     65  C   UNL     1       6.358  11.910  10.207  1.00  0.00     0.198 A 
ATOM     66  F   UNL     1       4.634  10.728   9.128  1.00  0.00    -0.203 F 
ATOM     67  F   UNL     1       9.904  11.206  10.463  1.00  0.00    -0.200 F 
ATOM     68  C   UNL     1       7.697  12.043  10.542  1.00  0.00     0.200 A 
ATOM     69  F   UNL     1       5.476  12.842  10.594  1.00  0.00    -0.200 F 
ATOM     70  F   UNL     1       8.107  13.095  11.264  1.00  0.00    -0.200 F 
ENDBRANCH  37  60
ENDBRANCH  11  12
ENDBRANCH   4   6
ENDBRANCH   1   2
BRANCH   1  71
ATOM     71  C   UNL     1       4.914  -2.707  -0.402  1.00  0.00     0.023 C 
BRANCH  71  72
ATOM     72  C   UNL     1       4.406  -3.690  -1.455  1.00  0.00     0.023 C 
BRANCH  72  73
ATOM     73  C   UNL     1       4.799  -3.369  -2.893  1.00  0.00     0.116 C 
BRANCH  73  74
ATOM     74  N   UNL     1       6.238  -3.302  -3.085  1.00  0.00    -0.352 N 
ATOM     75  C   UNL     1       7.016  -3.953  -4.010  1.00  0.00     0.253 C 
ATOM     76  H   UNL     1       6.721  -2.708  -2.467  1.00  0.00     0.163 HD
ATOM     77  O   UNL     1       8.227  -3.752  -4.055  1.00  0.00    -0.269 OA
BRANCH  75  78
ATOM     78  C   UNL     1       6.374  -4.837  -4.996  1.00  0.00     0.067 A 
ATOM     79  C   UNL     1       5.495  -4.254  -5.922  1.00  0.00     0.016 A 
ATOM     80  C   UNL     1       6.665  -6.206  -4.992  1.00  0.00     0.103 A 
ATOM     81  C   UNL     1       4.841  -5.060  -6.838  1.00  0.00     0.003 A 
ATOM     82  C   UNL     1       6.002  -7.009  -5.958  1.00  0.00     0.091 A 
ATOM     83  N   UNL     1       7.524  -6.777  -4.108  1.00  0.00    -0.230 NA
ATOM     84  C   UNL     1       5.100  -6.429  -6.842  1.00  0.00     0.031 A 
ATOM     85  N   UNL     1       6.212  -8.335  -6.051  1.00  0.00    -0.231 NA
ATOM     86  C   UNL     1       7.745  -8.106  -4.229  1.00  0.00     0.167 A 
ATOM     87  C   UNL     1       7.101  -8.870  -5.183  1.00  0.00     0.167 A 
ATOM     88  Cl  UNL     1       8.877  -8.727  -3.099  1.00  0.00    -0.059 Cl
ATOM     89  Cl  UNL     1       7.331 -10.558  -5.386  1.00  0.00    -0.059 Cl
ENDBRANCH  75  78
ENDBRANCH  73  74
ENDBRANCH  72  73
ENDBRANCH  71  72
ENDBRANCH   1  71
TORSDOF 11
