REMARK SMILES Cc1ccc(/C=C2/SC(=O)N(CC(=O)NCCCCNC(=O)c3ccc(-c4c5nc(c(-c6c(F)c(F)c(F)c(F)c6F)c6ccc([nH]6)c(-c6c(F)c(F)c(F)c(F)c6F)c6nc(c(-c7c(F)c(F)c(F)c(F)c7F)c7ccc4[nH]7)C=C6)C=C5)cc3)C2=O)cc1
REMARK SMILES IDX 17 1 16 2 15 3 13 4 14 5 12 7 11 8 6 9 7 10 8 11 86 12 9 13
REMARK SMILES IDX 87 14 10 15 5 16 1 17 2 18 3 19 89 20 4 21 88 22 18 23 19 24
REMARK SMILES IDX 20 25 21 26 22 28 23 29 24 30 85 31 25 32 84 33 26 34 27 35
REMARK SMILES IDX 28 36 78 37 29 38 83 39 77 40 79 41 30 42 82 43 76 44 75 45
REMARK SMILES IDX 31 47 63 48 43 49 62 50 44 51 47 52 61 53 80 54 45 55 46 56
REMARK SMILES IDX 60 58 81 59 48 60 32 61 33 62 41 63 34 64 35 65 39 66 42 67
REMARK SMILES IDX 36 68 37 69 40 70 38 71 64 72 65 73 73 74 66 75 67 76 71 77
REMARK SMILES IDX 74 78 68 79 69 80 72 81 70 82 49 83 50 84 58 85 51 86 52 87
REMARK SMILES IDX 56 88 59 89 53 90 54 91 57 92 55 93
REMARK H PARENT 15 6 20 27 79 46 47 57
REMARK Flexibility Score: inf
ROOT
ATOM      1  C   UNL     1      -5.022   4.346  -1.543  1.00  0.00     0.023 C 
ENDROOT
BRANCH   1   2
ATOM      2  C   UNL     1      -4.905   4.553  -3.056  1.00  0.00     0.116 C 
BRANCH   2   3
ATOM      3  N   UNL     1      -3.542   4.447  -3.538  1.00  0.00    -0.355 N 
ATOM      4  C   UNL     1      -2.940   3.454  -4.256  1.00  0.00     0.240 C 
ATOM      5  O   UNL     1      -1.859   3.726  -4.786  1.00  0.00    -0.273 OA
ATOM      6  H   UNL     1      -2.960   5.208  -3.312  1.00  0.00     0.163 HD
BRANCH   4   7
ATOM      7  C   UNL     1      -3.636   2.115  -4.522  1.00  0.00     0.229 C 
BRANCH   7   8
ATOM      8  N   UNL     1      -4.065   1.459  -3.301  1.00  0.00    -0.259 N 
ATOM      9  C   UNL     1      -3.217  -0.007  -0.083  1.00  0.00     0.029 C 
ATOM     10  C   UNL     1      -3.800   0.403  -1.219  1.00  0.00     0.083 C 
ATOM     11  S   UNL     1      -5.510   0.395  -1.465  1.00  0.00    -0.022 SA
ATOM     12  C   UNL     1      -3.127   0.952  -2.434  1.00  0.00     0.268 C 
ATOM     13  C   UNL     1      -5.370   1.189  -3.024  1.00  0.00     0.294 C 
ATOM     14  O   UNL     1      -1.925   0.958  -2.640  1.00  0.00    -0.268 OA
ATOM     15  O   UNL     1      -6.344   1.451  -3.720  1.00  0.00    -0.261 OA
BRANCH   9  16
ATOM     16  C   UNL     1      -1.767  -0.008   0.121  1.00  0.00    -0.024 A 
ATOM     17  C   UNL     1       2.536  -0.049   0.078  1.00  0.00     0.044 C 
ATOM     18  C   UNL     1       1.039  -0.030   0.162  1.00  0.00    -0.051 A 
ATOM     19  C   UNL     1       0.321  -1.230   0.099  1.00  0.00     0.004 A 
ATOM     20  C   UNL     1       0.340   1.178   0.264  1.00  0.00     0.004 A 
ATOM     21  C   UNL     1      -1.074  -1.221   0.078  1.00  0.00     0.008 A 
ATOM     22  C   UNL     1      -1.056   1.190   0.254  1.00  0.00     0.008 A 
ENDBRANCH   9  16
ENDBRANCH   7   8
ENDBRANCH   4   7
ENDBRANCH   2   3
ENDBRANCH   1   2
BRANCH   1  23
ATOM     23  C   UNL     1      -4.278   5.365  -0.683  1.00  0.00     0.023 C 
BRANCH  23  24
ATOM     24  C   UNL     1      -4.782   6.794  -0.801  1.00  0.00     0.116 C 
BRANCH  24  25
ATOM     25  N   UNL     1      -5.929   7.119   0.040  1.00  0.00    -0.352 N 
ATOM     26  C   UNL     1      -6.540   8.345   0.267  1.00  0.00     0.251 C 
ATOM     27  H   UNL     1      -6.329   6.356   0.516  1.00  0.00     0.163 HD
ATOM     28  O   UNL     1      -7.428   8.447   1.106  1.00  0.00    -0.269 OA
BRANCH  26  29
ATOM     29  C   UNL     1      -6.258   9.485  -0.643  1.00  0.00     0.039 A 
ATOM     30  C   UNL     1      -7.375  10.082  -1.244  1.00  0.00     0.014 A 
ATOM     31  C   UNL     1      -5.001   9.617  -1.211  1.00  0.00     0.014 A 
ATOM     32  C   UNL     1      -7.295  10.462  -2.575  1.00  0.00     0.010 A 
ATOM     33  C   UNL     1      -4.952   9.823  -2.565  1.00  0.00     0.010 A 
ATOM     34  C   UNL     1      -6.122  10.162  -3.251  1.00  0.00    -0.014 A 
BRANCH  34  35
ATOM     35  C   UNL     1      -5.973  10.198  -4.689  1.00  0.00     0.031 A 
ATOM     36  C   UNL     1      -5.331  11.386  -5.260  1.00  0.00     0.074 A 
ATOM     37  C   UNL     1      -6.222   9.070  -5.388  1.00  0.00     0.049 A 
ATOM     38  N   UNL     1      -5.333  11.689  -6.506  1.00  0.00    -0.248 NA
ATOM     39  C   UNL     1      -4.659  12.379  -4.426  1.00  0.00     0.031 C 
ATOM     40  C   UNL     1      -5.816   8.737  -6.749  1.00  0.00     0.029 A 
ATOM     41  N   UNL     1      -7.095   8.029  -5.030  1.00  0.00    -0.354 N 
ATOM     42  C   UNL     1      -4.423  12.708  -6.681  1.00  0.00     0.074 A 
ATOM     43  C   UNL     1      -4.139  13.184  -5.352  1.00  0.00     0.031 C 
ATOM     44  C   UNL     1      -6.650   7.797  -7.229  1.00  0.00     0.029 A 
ATOM     45  C   UNL     1      -7.706   7.626  -6.245  1.00  0.00     0.049 A 
ATOM     46  H   UNL     1      -7.249   7.659  -4.130  1.00  0.00     0.167 HD
ATOM     47  C   UNL     1      -3.921  12.897  -7.934  1.00  0.00     0.037 A 
ATOM     48  C   UNL     1      -9.030   7.905  -6.453  1.00  0.00     0.037 A 
ATOM     49  C   UNL     1      -4.659  12.064  -8.890  1.00  0.00     0.049 A 
ATOM     50  C   UNL     1      -9.269   8.914  -7.562  1.00  0.00     0.074 A 
ATOM     51  C   UNL     1      -4.434  10.824  -9.464  1.00  0.00     0.029 A 
ATOM     52  N   UNL     1      -6.003  12.331  -9.079  1.00  0.00    -0.354 N 
ATOM     53  N   UNL     1      -8.322   9.601  -8.141  1.00  0.00    -0.248 NA
ATOM     54  C   UNL     1     -10.597   9.282  -8.049  1.00  0.00     0.031 C 
ATOM     55  C   UNL     1      -5.691  10.321  -9.923  1.00  0.00     0.029 A 
ATOM     56  C   UNL     1      -6.667  11.266  -9.654  1.00  0.00     0.049 A 
ATOM     57  H   UNL     1      -6.435  13.181  -8.833  1.00  0.00     0.167 HD
ATOM     58  C   UNL     1      -8.868  10.480  -9.033  1.00  0.00     0.074 A 
ATOM     59  C   UNL     1     -10.301  10.264  -8.919  1.00  0.00     0.031 C 
ATOM     60  C   UNL     1      -8.115  11.331  -9.791  1.00  0.00     0.037 A 
BRANCH  47  61
ATOM     61  C   UNL     1      -2.646  13.634  -8.290  1.00  0.00     0.064 A 
ATOM     62  C   UNL     1      -2.083  13.462  -9.575  1.00  0.00     0.173 A 
ATOM     63  C   UNL     1      -1.880  14.449  -7.431  1.00  0.00     0.173 A 
ATOM     64  F   UNL     1      -2.720  12.769 -10.529  1.00  0.00    -0.203 F 
ATOM     65  C   UNL     1      -0.839  13.989  -9.935  1.00  0.00     0.198 A 
ATOM     66  C   UNL     1      -0.630  14.969  -7.787  1.00  0.00     0.198 A 
ATOM     67  F   UNL     1      -2.299  14.813  -6.220  1.00  0.00    -0.203 F 
ATOM     68  F   UNL     1      -0.354  13.763 -11.163  1.00  0.00    -0.200 F 
ATOM     69  C   UNL     1      -0.104  14.729  -9.035  1.00  0.00     0.200 A 
ATOM     70  F   UNL     1       0.056  15.703  -6.899  1.00  0.00    -0.200 F 
ATOM     71  F   UNL     1       1.095  15.222  -9.371  1.00  0.00    -0.200 F 
ENDBRANCH  47  61
BRANCH  48  72
ATOM     72  C   UNL     1      -9.812   7.814  -5.181  1.00  0.00     0.064 A 
ATOM     73  C   UNL     1      -9.753   6.596  -4.468  1.00  0.00     0.173 A 
ATOM     74  C   UNL     1     -10.173   8.961  -4.466  1.00  0.00     0.173 A 
ATOM     75  F   UNL     1      -9.431   5.460  -5.108  1.00  0.00    -0.203 F 
ATOM     76  C   UNL     1      -9.843   6.568  -3.078  1.00  0.00     0.198 A 
ATOM     77  C   UNL     1     -10.312   8.918  -3.077  1.00  0.00     0.198 A 
ATOM     78  F   UNL     1     -10.256  10.149  -5.081  1.00  0.00    -0.203 F 
ATOM     79  F   UNL     1      -9.586   5.431  -2.415  1.00  0.00    -0.200 F 
ATOM     80  C   UNL     1     -10.088   7.737  -2.382  1.00  0.00     0.200 A 
ATOM     81  F   UNL     1     -10.547  10.050  -2.398  1.00  0.00    -0.200 F 
ATOM     82  F   UNL     1     -10.059   7.739  -1.042  1.00  0.00    -0.200 F 
ENDBRANCH  48  72
BRANCH  60  83
ATOM     83  C   UNL     1      -8.726  12.307 -10.751  1.00  0.00     0.064 A 
ATOM     84  C   UNL     1      -9.713  11.923 -11.670  1.00  0.00     0.173 A 
ATOM     85  C   UNL     1      -8.271  13.639 -10.845  1.00  0.00     0.173 A 
ATOM     86  F   UNL     1     -10.157  10.657 -11.709  1.00  0.00    -0.203 F 
ATOM     87  C   UNL     1     -10.259  12.832 -12.576  1.00  0.00     0.198 A 
ATOM     88  C   UNL     1      -8.765  14.523 -11.799  1.00  0.00     0.198 A 
ATOM     89  F   UNL     1      -7.359  14.133  -9.995  1.00  0.00    -0.203 F 
ATOM     90  F   UNL     1     -11.259  12.446 -13.380  1.00  0.00    -0.200 F 
ATOM     91  C   UNL     1      -9.777  14.127 -12.649  1.00  0.00     0.200 A 
ATOM     92  F   UNL     1      -8.263  15.764 -11.878  1.00  0.00    -0.200 F 
ATOM     93  F   UNL     1     -10.293  14.994 -13.530  1.00  0.00    -0.200 F 
ENDBRANCH  60  83
ENDBRANCH  34  35
ENDBRANCH  26  29
ENDBRANCH  24  25
ENDBRANCH  23  24
ENDBRANCH   1  23
TORSDOF 13
