REMARK SMILES C[C@H](NC(=O)c1cccc(NC(=O)c2ccccc2C(=O)NCCCCNC(=O)c2ccc(-c3c4nc(c(-c5c(F)c(F)c(F)c(F)c5F)c5ccc([nH]5)c(-c5c(F)c(F)c(F)c(F)c5F)c5nc(c(-c6c(F)c(F)c(F)c(F)c6F)c6ccc3[nH]6)C=C5)C=C4)cc2)c1)c1ccccc1
REMARK SMILES IDX 23 1 22 2 20 3 21 4 19 6 14 7 15 8 16 9 18 10 17 11 12 12
REMARK SMILES IDX 11 13 13 15 10 16 6 17 7 18 93 19 8 20 9 21 4 22 3 23 5 25
REMARK SMILES IDX 2 26 1 27 94 28 95 29 99 30 96 31 98 32 97 33 24 34 25 35
REMARK SMILES IDX 26 36 27 37 28 38 29 40 30 41 31 42 92 43 32 44 91 45 33 46
REMARK SMILES IDX 34 47 35 48 85 49 36 50 90 51 84 52 86 53 37 54 89 55 83 56
REMARK SMILES IDX 82 57 38 59 70 60 50 61 69 62 51 63 54 64 68 65 87 66 52 67
REMARK SMILES IDX 53 68 67 70 88 71 55 72 39 73 40 74 48 75 41 76 42 77 46 78
REMARK SMILES IDX 49 79 43 80 44 81 47 82 45 83 71 84 72 85 80 86 73 87 74 88
REMARK SMILES IDX 78 89 81 90 75 91 76 92 79 93 77 94 56 95 57 96 65 97 58 98
REMARK SMILES IDX 59 99 63 100 66 101 60 102 61 103 64 104 62 105
REMARK H PARENT 22 5 11 14 3 24 27 39 86 58 54 69
REMARK Flexibility Score: inf
ROOT
ATOM      1  C   UNL     1       1.606  -4.821  -4.483  1.00  0.00     0.116 C 
ENDROOT
BRANCH   1   2
ATOM      2  N   UNL     1       0.522  -4.650  -3.536  1.00  0.00    -0.352 N 
ATOM      3  C   UNL     1       0.128  -5.446  -2.488  1.00  0.00     0.252 C 
ATOM      4  O   UNL     1      -0.847  -5.087  -1.826  1.00  0.00    -0.269 OA
ATOM      5  H   UNL     1      -0.016  -3.835  -3.664  1.00  0.00     0.163 HD
BRANCH   3   6
ATOM      6  C   UNL     1       0.763  -6.754  -2.175  1.00  0.00     0.052 A 
ATOM      7  C   UNL     1       2.138  -7.008  -2.061  1.00  0.00     0.052 A 
ATOM      8  C   UNL     1       2.591  -8.323  -1.834  1.00  0.00     0.014 A 
ATOM      9  C   UNL     1       1.689  -9.361  -1.607  1.00  0.00     0.001 A 
ATOM     10  C   UNL     1      -0.134  -7.806  -1.892  1.00  0.00     0.014 A 
ATOM     11  C   UNL     1       0.325  -9.094  -1.603  1.00  0.00     0.001 A 
BRANCH   7  12
ATOM     12  C   UNL     1       3.205  -5.995  -2.148  1.00  0.00     0.256 C 
ATOM     13  N   UNL     1       3.206  -4.831  -1.417  1.00  0.00    -0.322 N 
ATOM     14  H   UNL     1       3.908  -4.193  -1.683  1.00  0.00     0.170 HD
ATOM     15  O   UNL     1       4.106  -6.190  -2.967  1.00  0.00    -0.269 OA
BRANCH  13  16
ATOM     16  C   UNL     1       2.397  -4.379  -0.362  1.00  0.00     0.042 A 
ATOM     17  C   UNL     1       1.423  -2.467   0.765  1.00  0.00     0.041 A 
ATOM     18  C   UNL     1       0.652  -3.318   1.558  1.00  0.00     0.014 A 
ATOM     19  C   UNL     1       2.338  -2.995  -0.152  1.00  0.00     0.040 A 
ATOM     20  C   UNL     1       0.784  -4.697   1.419  1.00  0.00     0.003 A 
ATOM     21  C   UNL     1       1.661  -5.224   0.469  1.00  0.00     0.026 A 
BRANCH  17  22
ATOM     22  C   UNL     1       1.389  -1.030   1.069  1.00  0.00     0.251 C 
ATOM     23  N   UNL     1       0.895  -0.088   0.214  1.00  0.00    -0.346 N 
ATOM     24  H   UNL     1       1.027   0.825   0.556  1.00  0.00     0.164 HD
ATOM     25  O   UNL     1       1.835  -0.668   2.157  1.00  0.00    -0.269 OA
BRANCH  23  26
ATOM     26  C   UNL     1       0.221  -0.095  -1.077  1.00  0.00     0.109 C 
ATOM     27  C   UNL     1       0.789  -1.028  -2.130  1.00  0.00     0.036 C 
BRANCH  26  28
ATOM     28  C   UNL     1      -1.287  -0.168  -0.984  1.00  0.00    -0.026 A 
ATOM     29  C   UNL     1      -2.037   1.020  -1.058  1.00  0.00     0.006 A 
ATOM     30  C   UNL     1      -1.976  -1.388  -0.908  1.00  0.00     0.006 A 
ATOM     31  C   UNL     1      -3.431   0.988  -1.096  1.00  0.00     0.000 A 
ATOM     32  C   UNL     1      -3.372  -1.418  -0.951  1.00  0.00     0.000 A 
ATOM     33  C   UNL     1      -4.098  -0.233  -1.052  1.00  0.00     0.000 A 
ENDBRANCH  26  28
ENDBRANCH  23  26
ENDBRANCH  17  22
ENDBRANCH  13  16
ENDBRANCH   7  12
ENDBRANCH   3   6
ENDBRANCH   1   2
BRANCH   1  34
ATOM     34  C   UNL     1       1.418  -4.077  -5.803  1.00  0.00     0.023 C 
BRANCH  34  35
ATOM     35  C   UNL     1       1.317  -2.551  -5.718  1.00  0.00     0.023 C 
BRANCH  35  36
ATOM     36  C   UNL     1       2.371  -1.828  -4.884  1.00  0.00     0.116 C 
BRANCH  36  37
ATOM     37  N   UNL     1       3.716  -1.831  -5.421  1.00  0.00    -0.352 N 
ATOM     38  C   UNL     1       4.561  -0.772  -5.683  1.00  0.00     0.251 C 
ATOM     39  H   UNL     1       4.082  -2.721  -5.630  1.00  0.00     0.163 HD
ATOM     40  O   UNL     1       5.690  -0.981  -6.105  1.00  0.00    -0.269 OA
BRANCH  38  41
ATOM     41  C   UNL     1       4.094   0.629  -5.527  1.00  0.00     0.039 A 
ATOM     42  C   UNL     1       4.268   1.498  -6.607  1.00  0.00     0.014 A 
ATOM     43  C   UNL     1       3.487   1.095  -4.357  1.00  0.00     0.014 A 
ATOM     44  C   UNL     1       3.744   2.794  -6.555  1.00  0.00     0.010 A 
ATOM     45  C   UNL     1       2.903   2.366  -4.332  1.00  0.00     0.010 A 
ATOM     46  C   UNL     1       3.008   3.223  -5.439  1.00  0.00    -0.014 A 
BRANCH  46  47
ATOM     47  C   UNL     1       2.323   4.547  -5.448  1.00  0.00     0.031 A 
ATOM     48  C   UNL     1       2.733   5.636  -4.494  1.00  0.00     0.074 A 
ATOM     49  C   UNL     1       1.306   4.766  -6.308  1.00  0.00     0.049 A 
ATOM     50  N   UNL     1       2.235   6.839  -4.348  1.00  0.00    -0.248 NA
ATOM     51  C   UNL     1       3.837   5.329  -3.573  1.00  0.00     0.031 C 
ATOM     52  C   UNL     1       0.782   3.789  -7.264  1.00  0.00     0.029 A 
ATOM     53  N   UNL     1       0.531   5.882  -6.520  1.00  0.00    -0.354 N 
ATOM     54  C   UNL     1       2.965   7.432  -3.327  1.00  0.00     0.074 A 
ATOM     55  C   UNL     1       3.902   6.437  -2.848  1.00  0.00     0.031 C 
ATOM     56  C   UNL     1      -0.204   4.356  -7.979  1.00  0.00     0.029 A 
ATOM     57  C   UNL     1      -0.409   5.723  -7.510  1.00  0.00     0.049 A 
ATOM     58  H   UNL     1       0.639   6.717  -6.009  1.00  0.00     0.167 HD
ATOM     59  C   UNL     1       2.885   8.698  -2.850  1.00  0.00     0.037 A 
ATOM     60  C   UNL     1      -1.334   6.579  -7.986  1.00  0.00     0.037 A 
ATOM     61  C   UNL     1       1.967   9.698  -3.329  1.00  0.00     0.049 A 
ATOM     62  C   UNL     1      -1.420   7.969  -7.413  1.00  0.00     0.074 A 
ATOM     63  C   UNL     1       1.826  11.012  -2.913  1.00  0.00     0.029 A 
ATOM     64  N   UNL     1       1.034   9.498  -4.336  1.00  0.00    -0.354 N 
ATOM     65  N   UNL     1      -0.688   8.528  -6.481  1.00  0.00    -0.248 NA
ATOM     66  C   UNL     1      -2.462   8.850  -7.964  1.00  0.00     0.031 C 
ATOM     67  C   UNL     1       0.787  11.597  -3.646  1.00  0.00     0.029 A 
ATOM     68  C   UNL     1       0.310  10.661  -4.547  1.00  0.00     0.049 A 
ATOM     69  H   UNL     1       0.906   8.655  -4.827  1.00  0.00     0.167 HD
ATOM     70  C   UNL     1      -1.153   9.832  -6.363  1.00  0.00     0.074 A 
ATOM     71  C   UNL     1      -2.222   9.986  -7.326  1.00  0.00     0.031 C 
ATOM     72  C   UNL     1      -0.733  10.812  -5.527  1.00  0.00     0.037 A 
BRANCH  59  73
ATOM     73  C   UNL     1       3.838   9.089  -1.758  1.00  0.00     0.064 A 
ATOM     74  C   UNL     1       5.203   9.282  -2.019  1.00  0.00     0.173 A 
ATOM     75  C   UNL     1       3.377   9.336  -0.457  1.00  0.00     0.173 A 
ATOM     76  F   UNL     1       5.694   9.050  -3.246  1.00  0.00    -0.203 F 
ATOM     77  C   UNL     1       6.075   9.687  -1.013  1.00  0.00     0.198 A 
ATOM     78  C   UNL     1       4.247   9.767   0.541  1.00  0.00     0.198 A 
ATOM     79  F   UNL     1       2.079   9.175  -0.157  1.00  0.00    -0.203 F 
ATOM     80  F   UNL     1       7.381   9.829  -1.277  1.00  0.00    -0.200 F 
ATOM     81  C   UNL     1       5.595   9.938   0.264  1.00  0.00     0.200 A 
ATOM     82  F   UNL     1       3.780  10.024   1.771  1.00  0.00    -0.200 F 
ATOM     83  F   UNL     1       6.434  10.341   1.228  1.00  0.00    -0.200 F 
ENDBRANCH  59  73
BRANCH  60  84
ATOM     84  C   UNL     1      -2.252   6.166  -9.082  1.00  0.00     0.064 A 
ATOM     85  C   UNL     1      -2.167   6.753 -10.352  1.00  0.00     0.173 A 
ATOM     86  C   UNL     1      -3.262   5.216  -8.869  1.00  0.00     0.173 A 
ATOM     87  F   UNL     1      -1.234   7.685 -10.598  1.00  0.00    -0.203 F 
ATOM     88  C   UNL     1      -3.078   6.433 -11.357  1.00  0.00     0.198 A 
ATOM     89  C   UNL     1      -4.153   4.874  -9.884  1.00  0.00     0.198 A 
ATOM     90  F   UNL     1      -3.385   4.624  -7.673  1.00  0.00    -0.203 F 
ATOM     91  F   UNL     1      -3.013   7.057 -12.541  1.00  0.00    -0.200 F 
ATOM     92  C   UNL     1      -4.068   5.492 -11.123  1.00  0.00     0.200 A 
ATOM     93  F   UNL     1      -5.102   3.956  -9.657  1.00  0.00    -0.200 F 
ATOM     94  F   UNL     1      -4.949   5.190 -12.086  1.00  0.00    -0.200 F 
ENDBRANCH  60  84
BRANCH  72  95
ATOM     95  C   UNL     1      -1.392  12.155  -5.652  1.00  0.00     0.064 A 
ATOM     96  C   UNL     1      -2.707  12.374  -5.216  1.00  0.00     0.173 A 
ATOM     97  C   UNL     1      -0.685  13.244  -6.183  1.00  0.00     0.173 A 
ATOM     98  F   UNL     1      -3.430  11.361  -4.716  1.00  0.00    -0.203 F 
ATOM     99  C   UNL     1      -3.299  13.630  -5.333  1.00  0.00     0.198 A 
ATOM    100  C   UNL     1      -1.270  14.504  -6.272  1.00  0.00     0.198 A 
ATOM    101  F   UNL     1       0.578  13.088  -6.609  1.00  0.00    -0.203 F 
ATOM    102  F   UNL     1      -4.573  13.805  -4.956  1.00  0.00    -0.200 F 
ATOM    103  C   UNL     1      -2.578  14.694  -5.854  1.00  0.00     0.200 A 
ATOM    104  F   UNL     1      -0.568  15.534  -6.765  1.00  0.00    -0.200 F 
ATOM    105  F   UNL     1      -3.148  15.902  -5.961  1.00  0.00    -0.200 F 
ENDBRANCH  72  95
ENDBRANCH  46  47
ENDBRANCH  38  41
ENDBRANCH  36  37
ENDBRANCH  35  36
ENDBRANCH  34  35
ENDBRANCH   1  34
TORSDOF 16
