REMARK SMILES Cc1ccccc1Sc1cncc(C(=O)NCCCCNC(=O)c2ccc(-c3c4nc(c(-c5c(F)c(F)c(F)c(F)c5F)c5ccc([nH]5)c(-c5c(F)c(F)c(F)c(F)c5F)c5nc(c(-c6c(F)c(F)c(F)c(F)c6F)c6ccc3[nH]6)C=C5)C=C4)cc2)n1
REMARK SMILES IDX 18 1 17 2 16 3 14 4 15 5 13 7 9 8 10 9 87 10 11 11 12 12
REMARK SMILES IDX 8 13 7 14 1 15 2 16 3 17 4 18 6 19 5 20 19 21 20 22 21 23
REMARK SMILES IDX 22 24 23 26 24 27 25 28 86 29 26 30 85 31 27 32 28 33 29 34
REMARK SMILES IDX 79 35 30 36 84 37 78 38 80 39 31 40 83 41 77 42 76 43 32 45
REMARK SMILES IDX 64 46 44 47 63 48 45 49 48 50 62 51 81 52 46 53 47 54 61 56
REMARK SMILES IDX 82 57 49 58 33 59 34 60 42 61 35 62 36 63 40 64 43 65 37 66
REMARK SMILES IDX 38 67 41 68 39 69 65 70 66 71 74 72 67 73 68 74 72 75 75 76
REMARK SMILES IDX 69 77 70 78 73 79 71 80 50 81 51 82 59 83 52 84 53 85 57 86
REMARK SMILES IDX 60 87 54 88 55 89 58 90 56 91
REMARK H PARENT 16 6 21 25 80 44 48 55
REMARK Flexibility Score: inf
ROOT
ATOM      1  C   UNL     1       3.046   3.091   4.285  1.00  0.00     0.023 C 
ENDROOT
BRANCH   1   2
ATOM      2  C   UNL     1       3.726   4.039   3.287  1.00  0.00     0.116 C 
BRANCH   2   3
ATOM      3  N   UNL     1       5.103   3.658   2.998  1.00  0.00    -0.351 N 
ATOM      4  C   UNL     1       5.686   3.066   1.899  1.00  0.00     0.271 C 
ATOM      5  O   UNL     1       6.907   2.893   1.929  1.00  0.00    -0.267 OA
ATOM      6  H   UNL     1       5.735   3.863   3.724  1.00  0.00     0.163 HD
BRANCH   4   7
ATOM      7  C   UNL     1       4.928   2.645   0.686  1.00  0.00     0.147 A 
ATOM      8  C   UNL     1       2.948   2.392  -0.465  1.00  0.00     0.120 A 
ATOM      9  C   UNL     1       3.658   1.952  -1.576  1.00  0.00     0.146 A 
ATOM     10  N   UNL     1       3.579   2.749   0.678  1.00  0.00    -0.233 NA
ATOM     11  N   UNL     1       5.007   1.808  -1.575  1.00  0.00    -0.259 NA
ATOM     12  C   UNL     1       5.624   2.168  -0.418  1.00  0.00     0.145 A 
BRANCH   8  13
ATOM     13  S   UNL     1       1.207   2.618  -0.481  1.00  0.00    -0.068 SA
BRANCH  13  14
ATOM     14  C   UNL     1       0.411   1.039  -0.195  1.00  0.00     0.017 A 
ATOM     15  C   UNL     1       2.422  -0.506   0.326  1.00  0.00     0.045 C 
ATOM     16  C   UNL     1       0.963  -0.223   0.107  1.00  0.00    -0.037 A 
ATOM     17  C   UNL     1       0.101  -1.338   0.212  1.00  0.00     0.004 A 
ATOM     18  C   UNL     1      -1.280  -1.215   0.081  1.00  0.00     0.000 A 
ATOM     19  C   UNL     1      -0.996   1.138  -0.300  1.00  0.00     0.016 A 
ATOM     20  C   UNL     1      -1.832   0.031  -0.159  1.00  0.00     0.001 A 
ENDBRANCH  13  14
ENDBRANCH   8  13
ENDBRANCH   4   7
ENDBRANCH   2   3
ENDBRANCH   1   2
BRANCH   1  21
ATOM     21  C   UNL     1       3.699   3.024   5.674  1.00  0.00     0.023 C 
BRANCH  21  22
ATOM     22  C   UNL     1       3.702   4.342   6.442  1.00  0.00     0.116 C 
BRANCH  22  23
ATOM     23  N   UNL     1       2.542   4.584   7.287  1.00  0.00    -0.352 N 
ATOM     24  C   UNL     1       2.153   5.740   7.952  1.00  0.00     0.251 C 
ATOM     25  H   UNL     1       1.942   3.812   7.404  1.00  0.00     0.163 HD
ATOM     26  O   UNL     1       1.211   5.707   8.723  1.00  0.00    -0.269 OA
BRANCH  24  27
ATOM     27  C   UNL     1       2.793   7.046   7.623  1.00  0.00     0.039 A 
ATOM     28  C   UNL     1       1.967   8.175   7.514  1.00  0.00     0.014 A 
ATOM     29  C   UNL     1       4.128   7.134   7.246  1.00  0.00     0.014 A 
ATOM     30  C   UNL     1       2.408   9.285   6.794  1.00  0.00     0.010 A 
ATOM     31  C   UNL     1       4.529   8.177   6.438  1.00  0.00     0.010 A 
ATOM     32  C   UNL     1       3.646   9.222   6.157  1.00  0.00    -0.014 A 
BRANCH  32  33
ATOM     33  C   UNL     1       4.046  10.116   5.079  1.00  0.00     0.031 A 
ATOM     34  C   UNL     1       5.083  11.146   5.284  1.00  0.00     0.074 A 
ATOM     35  C   UNL     1       3.556   9.899   3.837  1.00  0.00     0.049 A 
ATOM     36  N   UNL     1       5.169  12.223   4.578  1.00  0.00    -0.248 NA
ATOM     37  C   UNL     1       6.108  11.049   6.317  1.00  0.00     0.031 C 
ATOM     38  C   UNL     1       4.043  10.465   2.581  1.00  0.00     0.029 A 
ATOM     39  N   UNL     1       2.372   9.232   3.481  1.00  0.00    -0.354 N 
ATOM     40  C   UNL     1       6.385  12.799   4.854  1.00  0.00     0.074 A 
ATOM     41  C   UNL     1       6.904  12.073   5.991  1.00  0.00     0.031 C 
ATOM     42  C   UNL     1       3.062  10.399   1.667  1.00  0.00     0.029 A 
ATOM     43  C   UNL     1       1.875   9.920   2.351  1.00  0.00     0.049 A 
ATOM     44  H   UNL     1       1.972   8.450   3.926  1.00  0.00     0.167 HD
ATOM     45  C   UNL     1       6.899  13.734   4.006  1.00  0.00     0.037 A 
ATOM     46  C   UNL     1       0.677  10.572   2.384  1.00  0.00     0.037 A 
ATOM     47  C   UNL     1       6.010  13.990   2.881  1.00  0.00     0.049 A 
ATOM     48  C   UNL     1       0.777  12.049   2.088  1.00  0.00     0.074 A 
ATOM     49  C   UNL     1       5.988  13.509   1.581  1.00  0.00     0.029 A 
ATOM     50  N   UNL     1       4.768  14.576   3.102  1.00  0.00    -0.354 N 
ATOM     51  N   UNL     1       1.879  12.737   2.193  1.00  0.00    -0.248 NA
ATOM     52  C   UNL     1      -0.356  12.871   1.675  1.00  0.00     0.031 C 
ATOM     53  C   UNL     1       4.717  13.786   1.026  1.00  0.00     0.029 A 
ATOM     54  C   UNL     1       3.967  14.445   1.983  1.00  0.00     0.049 A 
ATOM     55  H   UNL     1       4.498  15.022   3.937  1.00  0.00     0.167 HD
ATOM     56  C   UNL     1       1.632  14.052   1.889  1.00  0.00     0.074 A 
ATOM     57  C   UNL     1       0.221  14.080   1.554  1.00  0.00     0.031 C 
ATOM     58  C   UNL     1       2.621  14.995   1.948  1.00  0.00     0.037 A 
BRANCH  45  59
ATOM     59  C   UNL     1       8.341  14.167   4.066  1.00  0.00     0.064 A 
ATOM     60  C   UNL     1       9.104  14.359   2.895  1.00  0.00     0.173 A 
ATOM     61  C   UNL     1       9.037  14.361   5.273  1.00  0.00     0.173 A 
ATOM     62  F   UNL     1       8.553  14.286   1.678  1.00  0.00    -0.203 F 
ATOM     63  C   UNL     1      10.476  14.614   2.931  1.00  0.00     0.198 A 
ATOM     64  C   UNL     1      10.420  14.566   5.310  1.00  0.00     0.198 A 
ATOM     65  F   UNL     1       8.388  14.368   6.447  1.00  0.00    -0.203 F 
ATOM     66  F   UNL     1      11.153  14.772   1.785  1.00  0.00    -0.200 F 
ATOM     67  C   UNL     1      11.142  14.682   4.138  1.00  0.00     0.200 A 
ATOM     68  F   UNL     1      11.051  14.639   6.490  1.00  0.00    -0.200 F 
ATOM     69  F   UNL     1      12.468  14.871   4.171  1.00  0.00    -0.200 F 
ENDBRANCH  45  59
BRANCH  46  70
ATOM     70  C   UNL     1      -0.299   9.944   3.312  1.00  0.00     0.064 A 
ATOM     71  C   UNL     1      -0.731   8.633   3.031  1.00  0.00     0.173 A 
ATOM     72  C   UNL     1      -0.485  10.421   4.615  1.00  0.00     0.173 A 
ATOM     73  F   UNL     1      -0.573   8.127   1.797  1.00  0.00    -0.203 F 
ATOM     74  C   UNL     1      -1.208   7.795   4.036  1.00  0.00     0.198 A 
ATOM     75  C   UNL     1      -0.979   9.582   5.617  1.00  0.00     0.198 A 
ATOM     76  F   UNL     1      -0.079  11.654   4.950  1.00  0.00    -0.203 F 
ATOM     77  F   UNL     1      -1.496   6.515   3.759  1.00  0.00    -0.200 F 
ATOM     78  C   UNL     1      -1.304   8.262   5.335  1.00  0.00     0.200 A 
ATOM     79  F   UNL     1      -1.048  10.025   6.881  1.00  0.00    -0.200 F 
ATOM     80  F   UNL     1      -1.670   7.433   6.322  1.00  0.00    -0.200 F 
ENDBRANCH  46  70
BRANCH  58  81
ATOM     81  C   UNL     1       2.461  16.499   1.869  1.00  0.00     0.064 A 
ATOM     82  C   UNL     1       1.279  17.189   2.181  1.00  0.00     0.173 A 
ATOM     83  C   UNL     1       3.586  17.324   1.603  1.00  0.00     0.173 A 
ATOM     84  F   UNL     1       0.173  16.543   2.570  1.00  0.00    -0.203 F 
ATOM     85  C   UNL     1       1.210  18.587   2.168  1.00  0.00     0.198 A 
ATOM     86  C   UNL     1       3.529  18.716   1.652  1.00  0.00     0.198 A 
ATOM     87  F   UNL     1       4.789  16.807   1.313  1.00  0.00    -0.203 F 
ATOM     88  F   UNL     1       0.044  19.194   2.431  1.00  0.00    -0.200 F 
ATOM     89  C   UNL     1       2.335  19.349   1.918  1.00  0.00     0.200 A 
ATOM     90  F   UNL     1       4.644  19.435   1.461  1.00  0.00    -0.200 F 
ATOM     91  F   UNL     1       2.274  20.687   1.956  1.00  0.00    -0.200 F 
ENDBRANCH  58  81
ENDBRANCH  32  33
ENDBRANCH  24  27
ENDBRANCH  22  23
ENDBRANCH  21  22
ENDBRANCH   1  21
TORSDOF 13
