REMARK SMILES NS(=O)(=O)c1ccc(-c2cc(Cl)cc3c2O[C@H](C(F)(F)F)C(C(=O)NCCCCNC(=O)c2ccc(-c4c5nc(c(-c6c(F)c(F)c(F)c(F)c6F)c6ccc([nH]6)c(-c6c(F)c(F)c(F)c(F)c6F)c6nc(c(-c7c(F)c(F)c(F)c(F)c7F)c7ccc4[nH]7)C=C6)C=C5)cc2)=C3)cc1
REMARK SMILES IDX 27 1 26 2 25 3 23 4 24 5 22 7 9 8 10 9 15 10 11 11 14 12
REMARK SMILES IDX 16 13 12 14 13 15 96 16 17 17 8 18 5 19 6 20 98 21 7 22
REMARK SMILES IDX 97 23 2 24 3 25 4 26 1 27 18 30 19 31 20 32 21 33 28 34
REMARK SMILES IDX 29 35 30 36 31 37 32 39 33 40 34 41 95 42 35 43 94 44 36 45
REMARK SMILES IDX 37 46 38 47 88 48 39 49 93 50 87 51 89 52 40 53 92 54 86 55
REMARK SMILES IDX 85 56 41 58 73 59 53 60 72 61 54 62 57 63 71 64 90 65 55 66
REMARK SMILES IDX 56 67 70 69 91 70 58 71 42 72 43 73 51 74 44 75 45 76 49 77
REMARK SMILES IDX 52 78 46 79 47 80 50 81 48 82 74 83 75 84 83 85 76 86 77 87
REMARK SMILES IDX 81 88 84 89 78 90 79 91 82 92 80 93 59 94 60 95 68 96 61 97
REMARK SMILES IDX 62 98 66 99 69 100 63 101 64 102 67 103 65 104
REMARK H PARENT 25 6 1 28 1 29 30 38 89 57 57 68
REMARK Flexibility Score: inf
ROOT
ATOM      1  C   UNL     1       6.429   9.527  -9.996  1.00  0.00     0.023 C 
ENDROOT
BRANCH   1   2
ATOM      2  C   UNL     1       5.136   9.399  -9.178  1.00  0.00     0.116 C 
BRANCH   2   3
ATOM      3  N   UNL     1       4.418   8.214  -9.592  1.00  0.00    -0.352 N 
ATOM      4  C   UNL     1       3.869   7.231  -8.845  1.00  0.00     0.251 C 
ATOM      5  O   UNL     1       3.834   6.103  -9.328  1.00  0.00    -0.270 OA
ATOM      6  H   UNL     1       4.313   8.108 -10.566  1.00  0.00     0.163 HD
BRANCH   4   7
ATOM      7  C   UNL     1       3.212   7.589  -7.552  1.00  0.00     0.067 C 
ATOM      8  C   UNL     1       2.404   3.868  -6.098  1.00  0.00     0.026 A 
ATOM      9  C   UNL     1       1.947   3.114  -7.212  1.00  0.00     0.033 A 
ATOM     10  C   UNL     1       2.487   5.260  -6.286  1.00  0.00     0.135 A 
ATOM     11  C   UNL     1       1.391   3.711  -8.340  1.00  0.00     0.042 A 
ATOM     12  C   UNL     1       1.798   5.846  -7.374  1.00  0.00     0.019 A 
ATOM     13  O   UNL     1       3.271   6.098  -5.502  1.00  0.00    -0.475 OA
ATOM     14  Cl  UNL     1       0.874   2.736  -9.657  1.00  0.00    -0.084 Cl
ATOM     15  C   UNL     1       1.226   5.080  -8.385  1.00  0.00     0.032 A 
ATOM     16  C   UNL     1       1.893   7.313  -7.541  1.00  0.00     0.025 C 
ATOM     17  C   UNL     1       3.959   7.178  -6.287  1.00  0.00     0.314 C 
BRANCH   8  18
ATOM     18  C   UNL     1       2.431   3.108  -4.814  1.00  0.00    -0.015 A 
ATOM     19  C   UNL     1       1.500   1.189  -2.948  1.00  0.00     0.082 A 
ATOM     20  C   UNL     1       2.500   0.844  -3.857  1.00  0.00     0.022 A 
ATOM     21  C   UNL     1       1.034   2.503  -2.889  1.00  0.00     0.022 A 
ATOM     22  C   UNL     1       2.979   1.806  -4.761  1.00  0.00     0.010 A 
ATOM     23  C   UNL     1       1.511   3.458  -3.804  1.00  0.00     0.010 A 
BRANCH  19  24
ATOM     24  S   UNL     1       0.702  -0.076  -1.994  1.00  0.00     0.238 S 
ATOM     25  O   UNL     1       1.253  -1.362  -2.337  1.00  0.00    -0.207 OA
ATOM     26  O   UNL     1      -0.725   0.174  -1.987  1.00  0.00    -0.207 OA
BRANCH  24  27
ATOM     27  N   UNL     1       1.233   0.241  -0.435  1.00  0.00    -0.225 NA
ATOM     28  H   UNL     1       0.827  -0.439   0.207  1.00  0.00     0.137 HD
ATOM     29  H   UNL     1       0.944   1.181  -0.162  1.00  0.00     0.137 HD
ENDBRANCH  24  27
ENDBRANCH  19  24
ENDBRANCH   8  18
BRANCH  17  30
ATOM     30  C   UNL     1       4.188   8.452  -5.438  1.00  0.00     0.429 C 
ATOM     31  F   UNL     1       3.465   8.460  -4.297  1.00  0.00    -0.167 F 
ATOM     32  F   UNL     1       5.493   8.589  -5.102  1.00  0.00    -0.167 F 
ATOM     33  F   UNL     1       3.856   9.588  -6.111  1.00  0.00    -0.167 F 
ENDBRANCH  17  30
ENDBRANCH   4   7
ENDBRANCH   2   3
ENDBRANCH   1   2
BRANCH   1  34
ATOM     34  C   UNL     1       6.237   9.605 -11.518  1.00  0.00     0.023 C 
BRANCH  34  35
ATOM     35  C   UNL     1       5.290  10.702 -11.986  1.00  0.00     0.116 C 
BRANCH  35  36
ATOM     36  N   UNL     1       5.811  12.028 -11.696  1.00  0.00    -0.352 N 
ATOM     37  C   UNL     1       6.100  13.054 -12.561  1.00  0.00     0.251 C 
ATOM     38  H   UNL     1       5.981  12.216 -10.745  1.00  0.00     0.163 HD
ATOM     39  O   UNL     1       6.726  14.034 -12.172  1.00  0.00    -0.269 OA
BRANCH  37  40
ATOM     40  C   UNL     1       5.675  12.962 -13.974  1.00  0.00     0.039 A 
ATOM     41  C   UNL     1       6.589  13.283 -14.980  1.00  0.00     0.014 A 
ATOM     42  C   UNL     1       4.382  12.545 -14.304  1.00  0.00     0.014 A 
ATOM     43  C   UNL     1       6.229  13.117 -16.319  1.00  0.00     0.010 A 
ATOM     44  C   UNL     1       4.054  12.303 -15.634  1.00  0.00     0.010 A 
ATOM     45  C   UNL     1       4.974  12.585 -16.656  1.00  0.00    -0.014 A 
BRANCH  45  46
ATOM     46  C   UNL     1       4.604  12.307 -18.069  1.00  0.00     0.031 A 
ATOM     47  C   UNL     1       3.444  13.025 -18.700  1.00  0.00     0.074 A 
ATOM     48  C   UNL     1       5.264  11.356 -18.758  1.00  0.00     0.049 A 
ATOM     49  N   UNL     1       2.908  12.857 -19.883  1.00  0.00    -0.248 NA
ATOM     50  C   UNL     1       2.779  14.052 -17.882  1.00  0.00     0.031 C 
ATOM     51  C   UNL     1       6.380  10.561 -18.245  1.00  0.00     0.029 A 
ATOM     52  N   UNL     1       5.082  10.884 -20.035  1.00  0.00    -0.354 N 
ATOM     53  C   UNL     1       1.840  13.742 -19.944  1.00  0.00     0.074 A 
ATOM     54  C   UNL     1       1.767  14.405 -18.660  1.00  0.00     0.031 C 
ATOM     55  C   UNL     1       6.796   9.716 -19.202  1.00  0.00     0.029 A 
ATOM     56  C   UNL     1       5.947   9.873 -20.378  1.00  0.00     0.049 A 
ATOM     57  H   UNL     1       4.396  11.238 -20.647  1.00  0.00     0.167 HD
ATOM     58  C   UNL     1       1.010  13.995 -20.984  1.00  0.00     0.037 A 
ATOM     59  C   UNL     1       6.034   9.143 -21.507  1.00  0.00     0.037 A 
ATOM     60  C   UNL     1       1.098  13.343 -22.265  1.00  0.00     0.049 A 
ATOM     61  C   UNL     1       5.078   9.422 -22.637  1.00  0.00     0.074 A 
ATOM     62  C   UNL     1       0.341  13.569 -23.401  1.00  0.00     0.029 A 
ATOM     63  N   UNL     1       1.993  12.329 -22.576  1.00  0.00    -0.354 N 
ATOM     64  N   UNL     1       4.117  10.311 -22.709  1.00  0.00    -0.248 NA
ATOM     65  C   UNL     1       5.221   8.597 -23.845  1.00  0.00     0.031 C 
ATOM     66  C   UNL     1       0.734  12.650 -24.378  1.00  0.00     0.029 A 
ATOM     67  C   UNL     1       1.784  11.899 -23.877  1.00  0.00     0.049 A 
ATOM     68  H   UNL     1       2.675  11.969 -21.964  1.00  0.00     0.167 HD
ATOM     69  C   UNL     1       3.566  10.177 -23.977  1.00  0.00     0.074 A 
ATOM     70  C   UNL     1       4.308   9.129 -24.645  1.00  0.00     0.031 C 
ATOM     71  C   UNL     1       2.539  10.862 -24.536  1.00  0.00     0.037 A 
BRANCH  58  72
ATOM     72  C   UNL     1      -0.071  15.018 -20.781  1.00  0.00     0.064 A 
ATOM     73  C   UNL     1       0.221  16.381 -20.621  1.00  0.00     0.173 A 
ATOM     74  C   UNL     1      -1.422  14.635 -20.786  1.00  0.00     0.173 A 
ATOM     75  F   UNL     1       1.495  16.801 -20.599  1.00  0.00    -0.203 F 
ATOM     76  C   UNL     1      -0.794  17.317 -20.441  1.00  0.00     0.198 A 
ATOM     77  C   UNL     1      -2.436  15.579 -20.642  1.00  0.00     0.198 A 
ATOM     78  F   UNL     1      -1.760  13.347 -20.942  1.00  0.00    -0.203 F 
ATOM     79  F   UNL     1      -0.487  18.605 -20.236  1.00  0.00    -0.200 F 
ATOM     80  C   UNL     1      -2.122  16.917 -20.460  1.00  0.00     0.200 A 
ATOM     81  F   UNL     1      -3.719  15.192 -20.677  1.00  0.00    -0.200 F 
ATOM     82  F   UNL     1      -3.098  17.820 -20.297  1.00  0.00    -0.200 F 
ENDBRANCH  58  72
BRANCH  59  83
ATOM     83  C   UNL     1       7.070   8.083 -21.631  1.00  0.00     0.064 A 
ATOM     84  C   UNL     1       8.128   8.211 -22.543  1.00  0.00     0.173 A 
ATOM     85  C   UNL     1       7.020   6.916 -20.853  1.00  0.00     0.173 A 
ATOM     86  F   UNL     1       8.210   9.298 -23.324  1.00  0.00    -0.203 F 
ATOM     87  C   UNL     1       9.079   7.203 -22.690  1.00  0.00     0.198 A 
ATOM     88  C   UNL     1       7.991   5.925 -20.977  1.00  0.00     0.198 A 
ATOM     89  F   UNL     1       6.033   6.745 -19.962  1.00  0.00    -0.203 F 
ATOM     90  F   UNL     1      10.048   7.329 -23.607  1.00  0.00    -0.200 F 
ATOM     91  C   UNL     1       9.014   6.064 -21.903  1.00  0.00     0.200 A 
ATOM     92  F   UNL     1       7.934   4.833 -20.202  1.00  0.00    -0.200 F 
ATOM     93  F   UNL     1       9.931   5.097 -22.042  1.00  0.00    -0.200 F 
ENDBRANCH  59  83
BRANCH  71  94
ATOM     94  C   UNL     1       2.181  10.539 -25.959  1.00  0.00     0.064 A 
ATOM     95  C   UNL     1       1.565   9.330 -26.312  1.00  0.00     0.173 A 
ATOM     96  C   UNL     1       2.406  11.482 -26.975  1.00  0.00     0.173 A 
ATOM     97  F   UNL     1       1.340   8.389 -25.382  1.00  0.00    -0.203 F 
ATOM     98  C   UNL     1       1.209   9.067 -27.633  1.00  0.00     0.198 A 
ATOM     99  C   UNL     1       2.017  11.230 -28.287  1.00  0.00     0.198 A 
ATOM    100  F   UNL     1       2.986  12.658 -26.691  1.00  0.00    -0.203 F 
ATOM    101  F   UNL     1       0.665   7.885 -27.955  1.00  0.00    -0.200 F 
ATOM    102  C   UNL     1       1.426  10.020 -28.616  1.00  0.00     0.200 A 
ATOM    103  F   UNL     1       2.211  12.160 -29.232  1.00  0.00    -0.200 F 
ATOM    104  F   UNL     1       1.068   9.771 -29.884  1.00  0.00    -0.200 F 
ENDBRANCH  71  94
ENDBRANCH  45  46
ENDBRANCH  37  40
ENDBRANCH  35  36
ENDBRANCH  34  35
ENDBRANCH   1  34
TORSDOF 15
