REMARK SMILES C[C@H](Nc1ncccc1C(=O)NCCCCNC(=O)c1ccc(-c2c3nc(c(-c4c(F)c(F)c(F)c(F)c4F)c4ccc([nH]4)c(-c4c(F)c(F)c(F)c(F)c4F)c4nc(c(-c5c(F)c(F)c(F)c(F)c5F)c5ccc2[nH]5)C=C4)C=C3)cc1)c1ccc(Cl)cc1
REMARK SMILES IDX 14 1 13 2 12 3 10 4 11 5 9 7 4 8 5 9 6 10 8 11 7 12 3 13
REMARK SMILES IDX 2 15 1 16 83 17 84 18 89 19 85 20 88 21 86 22 87 23 15 24
REMARK SMILES IDX 16 25 17 26 18 27 19 29 20 30 21 31 82 32 22 33 81 34 23 35
REMARK SMILES IDX 24 36 25 37 75 38 26 39 80 40 74 41 76 42 27 43 79 44 73 45
REMARK SMILES IDX 72 46 28 48 60 49 40 50 59 51 41 52 44 53 58 54 77 55 42 56
REMARK SMILES IDX 43 57 57 59 78 60 45 61 29 62 30 63 38 64 31 65 32 66 36 67
REMARK SMILES IDX 39 68 33 69 34 70 37 71 35 72 61 73 62 74 70 75 63 76 64 77
REMARK SMILES IDX 68 78 71 79 65 80 66 81 69 82 67 83 46 84 47 85 55 86 48 87
REMARK SMILES IDX 49 88 53 89 56 90 50 91 51 92 54 93 52 94
REMARK H PARENT 12 6 3 14 17 28 76 47 44 58
REMARK Flexibility Score: inf
ROOT
ATOM      1  C   UNL     1       6.284   2.836   1.367  1.00  0.00     0.023 C 
ENDROOT
BRANCH   1   2
ATOM      2  C   UNL     1       6.121   1.338   1.604  1.00  0.00     0.116 C 
BRANCH   2   3
ATOM      3  N   UNL     1       4.768   0.980   1.974  1.00  0.00    -0.352 N 
ATOM      4  C   UNL     1       3.646   0.497   1.345  1.00  0.00     0.255 C 
ATOM      5  O   UNL     1       2.760   0.171   2.137  1.00  0.00    -0.269 OA
ATOM      6  H   UNL     1       4.608   1.121   2.936  1.00  0.00     0.163 HD
BRANCH   4   7
ATOM      7  C   UNL     1       3.453   0.304  -0.132  1.00  0.00     0.082 A 
ATOM      8  C   UNL     1       2.189  -0.010  -0.670  1.00  0.00     0.139 A 
ATOM      9  N   UNL     1       2.038  -0.444  -1.953  1.00  0.00    -0.239 NA
ATOM     10  C   UNL     1       3.105  -0.482  -2.767  1.00  0.00     0.113 A 
ATOM     11  C   UNL     1       4.517   0.325  -1.045  1.00  0.00     0.019 A 
ATOM     12  C   UNL     1       4.351  -0.068  -2.372  1.00  0.00     0.021 A 
BRANCH   8  13
ATOM     13  N   UNL     1       0.947   0.129  -0.108  1.00  0.00    -0.363 N 
ATOM     14  H   UNL     1       0.316  -0.613  -0.249  1.00  0.00     0.162 HD
BRANCH  13  15
ATOM     15  C   UNL     1       0.457   1.262   0.678  1.00  0.00     0.108 C 
ATOM     16  C   UNL     1       0.960   2.582   0.068  1.00  0.00     0.036 C 
BRANCH  15  17
ATOM     17  C   UNL     1      -1.079   1.176   0.781  1.00  0.00    -0.026 A 
ATOM     18  C   UNL     1      -1.901   2.317   0.812  1.00  0.00     0.007 A 
ATOM     19  C   UNL     1      -1.709  -0.078   0.932  1.00  0.00     0.007 A 
ATOM     20  C   UNL     1      -3.290   2.211   0.947  1.00  0.00     0.021 A 
ATOM     21  C   UNL     1      -3.099  -0.188   1.050  1.00  0.00     0.021 A 
ATOM     22  C   UNL     1      -3.884   0.959   1.056  1.00  0.00     0.041 A 
ATOM     23  Cl  UNL     1      -5.592   0.833   1.215  1.00  0.00    -0.084 Cl
ENDBRANCH  15  17
ENDBRANCH  13  15
ENDBRANCH   8  13
ENDBRANCH   4   7
ENDBRANCH   2   3
ENDBRANCH   1   2
BRANCH   1  24
ATOM     24  C   UNL     1       6.337   3.677   2.651  1.00  0.00     0.023 C 
BRANCH  24  25
ATOM     25  C   UNL     1       7.337   3.212   3.710  1.00  0.00     0.116 C 
BRANCH  25  26
ATOM     26  N   UNL     1       8.675   2.986   3.188  1.00  0.00    -0.352 N 
ATOM     27  C   UNL     1       9.887   3.104   3.823  1.00  0.00     0.251 C 
ATOM     28  H   UNL     1       8.718   2.709   2.244  1.00  0.00     0.163 HD
ATOM     29  O   UNL     1      10.926   2.946   3.198  1.00  0.00    -0.269 OA
BRANCH  27  30
ATOM     30  C   UNL     1       9.933   3.464   5.256  1.00  0.00     0.039 A 
ATOM     31  C   UNL     1      10.817   4.469   5.658  1.00  0.00     0.014 A 
ATOM     32  C   UNL     1       9.119   2.824   6.193  1.00  0.00     0.014 A 
ATOM     33  C   UNL     1      10.844   4.871   6.994  1.00  0.00     0.010 A 
ATOM     34  C   UNL     1       9.098   3.272   7.511  1.00  0.00     0.010 A 
ATOM     35  C   UNL     1       9.964   4.295   7.925  1.00  0.00    -0.014 A 
BRANCH  35  36
ATOM     36  C   UNL     1       9.945   4.761   9.333  1.00  0.00     0.031 A 
ATOM     37  C   UNL     1      10.364   3.842  10.444  1.00  0.00     0.074 A 
ATOM     38  C   UNL     1       9.494   5.999   9.612  1.00  0.00     0.049 A 
ATOM     39  N   UNL     1      10.412   4.070  11.732  1.00  0.00    -0.248 NA
ATOM     40  C   UNL     1      10.747   2.475  10.061  1.00  0.00     0.031 C 
ATOM     41  C   UNL     1       8.983   6.953   8.627  1.00  0.00     0.029 A 
ATOM     42  N   UNL     1       9.383   6.662  10.808  1.00  0.00    -0.354 N 
ATOM     43  C   UNL     1      10.813   2.874  12.312  1.00  0.00     0.074 A 
ATOM     44  C   UNL     1      10.941   1.908  11.242  1.00  0.00     0.031 C 
ATOM     45  C   UNL     1       8.630   8.085   9.255  1.00  0.00     0.029 A 
ATOM     46  C   UNL     1       8.871   7.930  10.687  1.00  0.00     0.049 A 
ATOM     47  H   UNL     1       9.645   6.266  11.670  1.00  0.00     0.167 HD
ATOM     48  C   UNL     1      11.075   2.613  13.616  1.00  0.00     0.037 A 
ATOM     49  C   UNL     1       8.630   8.864  11.625  1.00  0.00     0.037 A 
ATOM     50  C   UNL     1      10.972   3.587  14.671  1.00  0.00     0.049 A 
ATOM     51  C   UNL     1       8.982   8.572  13.057  1.00  0.00     0.074 A 
ATOM     52  C   UNL     1      11.298   3.450  16.009  1.00  0.00     0.029 A 
ATOM     53  N   UNL     1      10.501   4.881  14.505  1.00  0.00    -0.354 N 
ATOM     54  N   UNL     1       9.461   7.470  13.582  1.00  0.00    -0.248 NA
ATOM     55  C   UNL     1       8.782   9.660  14.023  1.00  0.00     0.031 C 
ATOM     56  C   UNL     1      10.980   4.647  16.661  1.00  0.00     0.029 A 
ATOM     57  C   UNL     1      10.505   5.548  15.720  1.00  0.00     0.049 A 
ATOM     58  H   UNL     1      10.207   5.270  13.649  1.00  0.00     0.167 HD
ATOM     59  C   UNL     1       9.638   7.736  14.933  1.00  0.00     0.074 A 
ATOM     60  C   UNL     1       9.235   9.112  15.141  1.00  0.00     0.031 C 
ATOM     61  C   UNL     1      10.092   6.915  15.912  1.00  0.00     0.037 A 
BRANCH  48  62
ATOM     62  C   UNL     1      11.494   1.214  13.967  1.00  0.00     0.064 A 
ATOM     63  C   UNL     1      12.731   0.689  13.563  1.00  0.00     0.173 A 
ATOM     64  C   UNL     1      10.650   0.388  14.725  1.00  0.00     0.173 A 
ATOM     65  F   UNL     1      13.572   1.432  12.826  1.00  0.00    -0.203 F 
ATOM     66  C   UNL     1      13.089  -0.622  13.867  1.00  0.00     0.198 A 
ATOM     67  C   UNL     1      11.025  -0.912  15.056  1.00  0.00     0.198 A 
ATOM     68  F   UNL     1       9.458   0.839  15.143  1.00  0.00    -0.203 F 
ATOM     69  F   UNL     1      14.249  -1.120  13.415  1.00  0.00    -0.200 F 
ATOM     70  C   UNL     1      12.239  -1.420  14.617  1.00  0.00     0.200 A 
ATOM     71  F   UNL     1      10.207  -1.678  15.791  1.00  0.00    -0.200 F 
ATOM     72  F   UNL     1      12.584  -2.681  14.908  1.00  0.00    -0.200 F 
ENDBRANCH  48  62
BRANCH  49  73
ATOM     73  C   UNL     1       8.064  10.177  11.223  1.00  0.00     0.064 A 
ATOM     74  C   UNL     1       8.851  11.336  11.232  1.00  0.00     0.173 A 
ATOM     75  C   UNL     1       6.733  10.293  10.795  1.00  0.00     0.173 A 
ATOM     76  F   UNL     1      10.124  11.277  11.649  1.00  0.00    -0.203 F 
ATOM     77  C   UNL     1       8.325  12.566  10.842  1.00  0.00     0.198 A 
ATOM     78  C   UNL     1       6.216  11.518  10.380  1.00  0.00     0.198 A 
ATOM     79  F   UNL     1       5.943   9.211  10.758  1.00  0.00    -0.203 F 
ATOM     80  F   UNL     1       9.089  13.665  10.893  1.00  0.00    -0.200 F 
ATOM     81  C   UNL     1       7.010  12.655  10.410  1.00  0.00     0.200 A 
ATOM     82  F   UNL     1       4.950  11.597   9.947  1.00  0.00    -0.200 F 
ATOM     83  F   UNL     1       6.508  13.836  10.024  1.00  0.00    -0.200 F 
ENDBRANCH  49  73
BRANCH  61  84
ATOM     84  C   UNL     1      10.194   7.493  17.294  1.00  0.00     0.064 A 
ATOM     85  C   UNL     1       9.053   7.787  18.055  1.00  0.00     0.173 A 
ATOM     86  C   UNL     1      11.450   7.738  17.871  1.00  0.00     0.173 A 
ATOM     87  F   UNL     1       7.830   7.586  17.543  1.00  0.00    -0.203 F 
ATOM     88  C   UNL     1       9.165   8.337  19.330  1.00  0.00     0.198 A 
ATOM     89  C   UNL     1      11.558   8.258  19.158  1.00  0.00     0.198 A 
ATOM     90  F   UNL     1      12.572   7.468  17.189  1.00  0.00    -0.203 F 
ATOM     91  F   UNL     1       8.061   8.662  20.016  1.00  0.00    -0.200 F 
ATOM     92  C   UNL     1      10.416   8.566  19.882  1.00  0.00     0.200 A 
ATOM     93  F   UNL     1      12.768   8.467  19.695  1.00  0.00    -0.200 F 
ATOM     94  F   UNL     1      10.522   9.094  21.109  1.00  0.00    -0.200 F 
ENDBRANCH  61  84
ENDBRANCH  35  36
ENDBRANCH  27  30
ENDBRANCH  25  26
ENDBRANCH  24  25
ENDBRANCH   1  24
TORSDOF 14
