REMARK SMILES CC(C)N1C(=O)C[C@@H]([N@@H+]2CC[C@H](C(=O)NCCCCNC(=O)c3ccc(-c4c5nc(c(-c6c(F)c(F)c(F)c(F)c6F)c6ccc([nH]6)c(-c6c(F)c(F)c(F)c(F)c6F)c6nc(c(-c7c(F)c(F)c(F)c(F)c7F)c7ccc4[nH]7)C=C6)C=C5)cc3)[C@@H]2C)C1=O
REMARK SMILES IDX 17 1 16 2 15 3 13 4 14 5 12 7 9 8 10 9 86 10 11 12 87 13
REMARK SMILES IDX 8 14 4 15 5 16 88 17 6 18 7 19 89 20 2 21 1 22 3 23 18 24
REMARK SMILES IDX 19 25 20 26 21 27 22 29 23 30 24 31 85 32 25 33 84 34 26 35
REMARK SMILES IDX 27 36 28 37 78 38 29 39 83 40 77 41 79 42 30 43 82 44 76 45
REMARK SMILES IDX 75 46 31 48 63 49 43 50 62 51 44 52 47 53 61 54 80 55 45 56
REMARK SMILES IDX 46 57 60 59 81 60 48 61 32 62 33 63 41 64 34 65 35 66 39 67
REMARK SMILES IDX 42 68 36 69 37 70 40 71 38 72 64 73 65 74 73 75 66 76 67 77
REMARK SMILES IDX 71 78 74 79 68 80 69 81 72 82 70 83 49 84 50 85 58 86 51 87
REMARK SMILES IDX 52 88 56 89 59 90 53 91 54 92 57 93 55 94
REMARK H PARENT 15 6 9 11 20 28 79 47 47 58
REMARK Flexibility Score: inf
ROOT
ATOM      1  C   UNL     1      -9.178   1.009  -4.356  1.00  0.00     0.023 C 
ENDROOT
BRANCH   1   2
ATOM      2  C   UNL     1      -7.979   0.734  -5.259  1.00  0.00     0.116 C 
BRANCH   2   3
ATOM      3  N   UNL     1      -6.800   1.476  -4.854  1.00  0.00    -0.356 N 
ATOM      4  C   UNL     1      -5.558   1.039  -4.503  1.00  0.00     0.229 C 
ATOM      5  O   UNL     1      -4.693   1.890  -4.287  1.00  0.00    -0.275 OA
ATOM      6  H   UNL     1      -6.915   2.454  -4.830  1.00  0.00     0.163 HD
BRANCH   4   7
ATOM      7  C   UNL     1      -5.285  -0.451  -4.356  1.00  0.00     0.142 C 
ATOM      8  N   UNL     1      -3.674  -1.097  -2.680  1.00  0.00    -0.321 N 
ATOM      9  C   UNL     1      -2.946  -0.714  -3.891  1.00  0.00     0.264 C 
ATOM     10  C   UNL     1      -5.119  -0.904  -2.894  1.00  0.00     0.194 C 
ATOM     11  H   UNL     1      -3.560  -2.098  -2.523  1.00  0.00     0.349 HD
ATOM     12  C   UNL     1      -3.960  -0.823  -5.011  1.00  0.00     0.081 C 
ATOM     13  C   UNL     1      -5.931  -0.109  -1.869  1.00  0.00     0.076 C 
BRANCH   8  14
ATOM     14  C   UNL     1      -3.080  -0.652  -1.410  1.00  0.00     0.284 C 
ATOM     15  N   UNL     1      -0.789  -0.112  -1.339  1.00  0.00    -0.275 N 
ATOM     16  C   UNL     1      -1.446   1.084  -1.252  1.00  0.00     0.236 C 
ATOM     17  C   UNL     1      -1.652  -1.172  -1.264  1.00  0.00     0.288 C 
ATOM     18  O   UNL     1      -0.931   2.189  -1.149  1.00  0.00    -0.274 OA
ATOM     19  C   UNL     1      -2.923   0.852  -1.220  1.00  0.00     0.176 C 
ATOM     20  O   UNL     1      -1.352  -2.349  -1.104  1.00  0.00    -0.267 OA
BRANCH  15  21
ATOM     21  C   UNL     1       0.670  -0.189  -1.296  1.00  0.00     0.087 C 
ATOM     22  C   UNL     1       1.168  -0.242   0.147  1.00  0.00     0.031 C 
ATOM     23  C   UNL     1       1.251  -1.339  -2.120  1.00  0.00     0.031 C 
ENDBRANCH  15  21
ENDBRANCH   8  14
ENDBRANCH   4   7
ENDBRANCH   2   3
ENDBRANCH   1   2
BRANCH   1  24
ATOM     24  C   UNL     1      -9.659   2.461  -4.339  1.00  0.00     0.023 C 
BRANCH  24  25
ATOM     25  C   UNL     1      -9.934   3.077  -5.707  1.00  0.00     0.116 C 
BRANCH  25  26
ATOM     26  N   UNL     1     -10.930   2.343  -6.472  1.00  0.00    -0.352 N 
ATOM     27  C   UNL     1     -12.062   2.801  -7.103  1.00  0.00     0.251 C 
ATOM     28  H   UNL     1     -10.770   1.375  -6.550  1.00  0.00     0.163 HD
ATOM     29  O   UNL     1     -12.858   2.005  -7.590  1.00  0.00    -0.269 OA
BRANCH  27  30
ATOM     30  C   UNL     1     -12.342   4.252  -7.160  1.00  0.00     0.039 A 
ATOM     31  C   UNL     1     -13.628   4.698  -6.844  1.00  0.00     0.014 A 
ATOM     32  C   UNL     1     -11.345   5.169  -7.500  1.00  0.00     0.014 A 
ATOM     33  C   UNL     1     -13.889   6.068  -6.781  1.00  0.00     0.010 A 
ATOM     34  C   UNL     1     -11.585   6.534  -7.363  1.00  0.00     0.010 A 
ATOM     35  C   UNL     1     -12.856   6.997  -6.989  1.00  0.00    -0.014 A 
BRANCH  35  36
ATOM     36  C   UNL     1     -13.076   8.448  -6.763  1.00  0.00     0.031 A 
ATOM     37  C   UNL     1     -12.939   9.431  -7.890  1.00  0.00     0.074 A 
ATOM     38  C   UNL     1     -13.321   8.889  -5.513  1.00  0.00     0.049 A 
ATOM     39  N   UNL     1     -13.033  10.737  -7.865  1.00  0.00    -0.248 NA
ATOM     40  C   UNL     1     -12.628   8.876  -9.215  1.00  0.00     0.031 C 
ATOM     41  C   UNL     1     -13.417   8.040  -4.324  1.00  0.00     0.029 A 
ATOM     42  N   UNL     1     -13.517  10.159  -5.030  1.00  0.00    -0.354 N 
ATOM     43  C   UNL     1     -12.781  11.159  -9.163  1.00  0.00     0.074 A 
ATOM     44  C   UNL     1     -12.481   9.976  -9.940  1.00  0.00     0.031 C 
ATOM     45  C   UNL     1     -13.670   8.808  -3.254  1.00  0.00     0.029 A 
ATOM     46  C   UNL     1     -13.709  10.206  -3.671  1.00  0.00     0.049 A 
ATOM     47  H   UNL     1     -13.519  10.959  -5.603  1.00  0.00     0.167 HD
ATOM     48  C   UNL     1     -12.815  12.419  -9.662  1.00  0.00     0.037 A 
ATOM     49  C   UNL     1     -13.880  11.258  -2.847  1.00  0.00     0.037 A 
ATOM     50  C   UNL     1     -13.127  13.591  -8.885  1.00  0.00     0.049 A 
ATOM     51  C   UNL     1     -13.903  12.646  -3.424  1.00  0.00     0.074 A 
ATOM     52  C   UNL     1     -13.272  14.898  -9.316  1.00  0.00     0.029 A 
ATOM     53  N   UNL     1     -13.326  13.601  -7.511  1.00  0.00    -0.354 N 
ATOM     54  N   UNL     1     -13.759  13.026  -4.670  1.00  0.00    -0.248 NA
ATOM     55  C   UNL     1     -14.118  13.752  -2.480  1.00  0.00     0.031 C 
ATOM     56  C   UNL     1     -13.489  15.707  -8.196  1.00  0.00     0.029 A 
ATOM     57  C   UNL     1     -13.547  14.898  -7.073  1.00  0.00     0.049 A 
ATOM     58  H   UNL     1     -13.311  12.804  -6.933  1.00  0.00     0.167 HD
ATOM     59  C   UNL     1     -13.878  14.409  -4.664  1.00  0.00     0.074 A 
ATOM     60  C   UNL     1     -14.132  14.799  -3.292  1.00  0.00     0.031 C 
ATOM     61  C   UNL     1     -13.782  15.277  -5.702  1.00  0.00     0.037 A 
BRANCH  48  62
ATOM     62  C   UNL     1     -12.490  12.598 -11.119  1.00  0.00     0.064 A 
ATOM     63  C   UNL     1     -13.336  12.122 -12.132  1.00  0.00     0.173 A 
ATOM     64  C   UNL     1     -11.329  13.284 -11.507  1.00  0.00     0.173 A 
ATOM     65  F   UNL     1     -14.456  11.452 -11.818  1.00  0.00    -0.203 F 
ATOM     66  C   UNL     1     -13.014  12.292 -13.476  1.00  0.00     0.198 A 
ATOM     67  C   UNL     1     -11.027  13.484 -12.852  1.00  0.00     0.198 A 
ATOM     68  F   UNL     1     -10.487  13.768 -10.581  1.00  0.00    -0.203 F 
ATOM     69  F   UNL     1     -13.809  11.777 -14.425  1.00  0.00    -0.200 F 
ATOM     70  C   UNL     1     -11.864  12.979 -13.835  1.00  0.00     0.200 A 
ATOM     71  F   UNL     1      -9.923  14.161 -13.196  1.00  0.00    -0.200 F 
ATOM     72  F   UNL     1     -11.558  13.146 -15.129  1.00  0.00    -0.200 F 
ENDBRANCH  48  62
BRANCH  49  73
ATOM     73  C   UNL     1     -14.047  11.028  -1.388  1.00  0.00     0.064 A 
ATOM     74  C   UNL     1     -15.276  11.257  -0.755  1.00  0.00     0.173 A 
ATOM     75  C   UNL     1     -12.986  10.554  -0.601  1.00  0.00     0.173 A 
ATOM     76  F   UNL     1     -16.314  11.729  -1.461  1.00  0.00    -0.203 F 
ATOM     77  C   UNL     1     -15.435  11.031   0.611  1.00  0.00     0.198 A 
ATOM     78  C   UNL     1     -13.155  10.299   0.758  1.00  0.00     0.198 A 
ATOM     79  F   UNL     1     -11.791  10.313  -1.160  1.00  0.00    -0.203 F 
ATOM     80  F   UNL     1     -16.610  11.294   1.198  1.00  0.00    -0.200 F 
ATOM     81  C   UNL     1     -14.377  10.544   1.364  1.00  0.00     0.200 A 
ATOM     82  F   UNL     1     -12.136   9.811   1.478  1.00  0.00    -0.200 F 
ATOM     83  F   UNL     1     -14.535  10.314   2.675  1.00  0.00    -0.200 F 
ENDBRANCH  49  73
BRANCH  61  84
ATOM     84  C   UNL     1     -13.960  16.737  -5.396  1.00  0.00     0.064 A 
ATOM     85  C   UNL     1     -12.997  17.461  -4.676  1.00  0.00     0.173 A 
ATOM     86  C   UNL     1     -15.090  17.431  -5.857  1.00  0.00     0.173 A 
ATOM     87  F   UNL     1     -11.906  16.843  -4.199  1.00  0.00    -0.203 F 
ATOM     88  C   UNL     1     -13.171  18.816  -4.408  1.00  0.00     0.198 A 
ATOM     89  C   UNL     1     -15.244  18.793  -5.616  1.00  0.00     0.198 A 
ATOM     90  F   UNL     1     -16.039  16.789  -6.555  1.00  0.00    -0.203 F 
ATOM     91  F   UNL     1     -12.262  19.474  -3.674  1.00  0.00    -0.200 F 
ATOM     92  C   UNL     1     -14.289  19.483  -4.885  1.00  0.00     0.200 A 
ATOM     93  F   UNL     1     -16.318  19.439  -6.092  1.00  0.00    -0.200 F 
ATOM     94  F   UNL     1     -14.451  20.789  -4.633  1.00  0.00    -0.200 F 
ENDBRANCH  61  84
ENDBRANCH  35  36
ENDBRANCH  27  30
ENDBRANCH  25  26
ENDBRANCH  24  25
ENDBRANCH   1  24
TORSDOF 13
