REMARK SMILES O=C(C[C@H](C(=O)OC[C@@H]1CCCO1)[NH+]1CCOCC1)NCCCCNC(=O)c1ccc(-c2c3nc(c(-c4c(F)c(F)c(F)c(F)c4F)c4ccc([nH]4)c(-c4c(F)c(F)c(F)c(F)c4F)c4nc(c(-c5c(F)c(F)c(F)c(F)c5F)c5ccc2[nH]5)C=C4)C=C3)cc1
REMARK SMILES IDX 21 1 20 2 1 3 2 4 3 6 4 7 14 8 15 9 19 10 16 12 18 13 17 14
REMARK SMILES IDX 5 15 6 16 7 17 8 18 9 19 10 20 13 21 11 22 12 23 22 24 23 25
REMARK SMILES IDX 24 26 25 27 26 28 27 30 28 31 29 32 90 33 30 34 89 35 31 36
REMARK SMILES IDX 32 37 33 38 83 39 34 40 88 41 82 42 84 43 35 44 87 45 81 46
REMARK SMILES IDX 80 47 36 49 68 50 48 51 67 52 49 53 52 54 66 55 85 56 50 57
REMARK SMILES IDX 51 58 65 60 86 61 53 62 37 63 38 64 46 65 39 66 40 67 44 68
REMARK SMILES IDX 47 69 41 70 42 71 45 72 43 73 69 74 70 75 78 76 71 77 72 78
REMARK SMILES IDX 76 79 79 80 73 81 74 82 77 83 75 84 54 85 55 86 63 87 56 88
REMARK SMILES IDX 57 89 61 90 64 91 58 92 59 93 62 94 60 95
REMARK H PARENT 20 5 14 11 25 29 84 48 52 59
REMARK Flexibility Score: inf
ROOT
ATOM      1  C   UNL     1       3.935  -0.460   4.605  1.00  0.00     0.116 C 
ENDROOT
BRANCH   1   2
ATOM      2  N   UNL     1       4.214   0.257   3.375  1.00  0.00    -0.356 N 
ATOM      3  O   UNL     1       4.231  -1.603   2.037  1.00  0.00    -0.275 OA
ATOM      4  C   UNL     1       4.361  -0.391   2.167  1.00  0.00     0.226 C 
ATOM      5  H   UNL     1       4.301   1.238   3.404  1.00  0.00     0.163 HD
BRANCH   4   6
ATOM      6  C   UNL     1       4.833   0.496   1.035  1.00  0.00     0.177 C 
BRANCH   6   7
ATOM      7  C   UNL     1       3.861   1.664   0.702  1.00  0.00     0.304 C 
BRANCH   7   8
ATOM      8  N   UNL     1       4.725   2.838   0.308  1.00  0.00    -0.319 N 
ATOM      9  C   UNL     1       5.354   3.466   1.510  1.00  0.00     0.291 C 
ATOM     10  C   UNL     1       4.127   3.965  -0.446  1.00  0.00     0.291 C 
ATOM     11  H   UNL     1       5.365   2.372  -0.336  1.00  0.00     0.348 HD
ATOM     12  C   UNL     1       4.401   4.367   2.319  1.00  0.00     0.221 C 
ATOM     13  C   UNL     1       3.166   4.841   0.367  1.00  0.00     0.221 C 
ATOM     14  O   UNL     1       3.827   5.394   1.511  1.00  0.00    -0.370 OA
ENDBRANCH   7   8
BRANCH   7  15
ATOM     15  C   UNL     1       2.901   1.085  -0.367  1.00  0.00     0.365 C 
ATOM     16  O   UNL     1       2.653  -0.110  -0.485  1.00  0.00    -0.245 OA
BRANCH  15  17
ATOM     17  O   UNL     1       2.294   2.025  -1.132  1.00  0.00    -0.459 OA
BRANCH  17  18
ATOM     18  C   UNL     1       1.568   1.522  -2.268  1.00  0.00     0.265 C 
BRANCH  18  19
ATOM     19  C   UNL     1       2.466   0.984  -3.401  1.00  0.00     0.156 C 
ATOM     20  C   UNL     1       3.975   1.101  -3.228  1.00  0.00     0.038 C 
ATOM     21  O   UNL     1       2.159   1.685  -4.630  1.00  0.00    -0.375 OA
ATOM     22  C   UNL     1       4.464   1.148  -4.652  1.00  0.00     0.031 C 
ATOM     23  C   UNL     1       3.385   1.970  -5.318  1.00  0.00     0.161 C 
ENDBRANCH  18  19
ENDBRANCH  17  18
ENDBRANCH  15  17
ENDBRANCH   7  15
ENDBRANCH   6   7
ENDBRANCH   4   6
ENDBRANCH   1   2
BRANCH   1  24
ATOM     24  C   UNL     1       4.951  -0.121   5.696  1.00  0.00     0.023 C 
BRANCH  24  25
ATOM     25  C   UNL     1       4.965   1.346   6.135  1.00  0.00     0.023 C 
BRANCH  25  26
ATOM     26  C   UNL     1       3.635   1.887   6.650  1.00  0.00     0.116 C 
BRANCH  26  27
ATOM     27  N   UNL     1       3.180   1.220   7.859  1.00  0.00    -0.352 N 
ATOM     28  C   UNL     1       2.753   1.759   9.048  1.00  0.00     0.251 C 
ATOM     29  H   UNL     1       3.178   0.237   7.819  1.00  0.00     0.163 HD
ATOM     30  O   UNL     1       2.537   1.027  10.011  1.00  0.00    -0.269 OA
BRANCH  28  31
ATOM     31  C   UNL     1       2.584   3.223   9.191  1.00  0.00     0.039 A 
ATOM     32  C   UNL     1       3.053   3.843  10.352  1.00  0.00     0.014 A 
ATOM     33  C   UNL     1       1.969   3.985   8.194  1.00  0.00     0.014 A 
ATOM     34  C   UNL     1       2.973   5.232  10.481  1.00  0.00     0.010 A 
ATOM     35  C   UNL     1       1.962   5.376   8.288  1.00  0.00     0.010 A 
ATOM     36  C   UNL     1       2.466   6.016   9.431  1.00  0.00    -0.014 A 
BRANCH  36  37
ATOM     37  C   UNL     1       2.469   7.501   9.507  1.00  0.00     0.031 A 
ATOM     38  C   UNL     1       1.175   8.268   9.482  1.00  0.00     0.074 A 
ATOM     39  C   UNL     1       3.641   8.165   9.534  1.00  0.00     0.049 A 
ATOM     40  N   UNL     1       0.979   9.563   9.470  1.00  0.00    -0.248 NA
ATOM     41  C   UNL     1      -0.062   7.474   9.439  1.00  0.00     0.031 C 
ATOM     42  C   UNL     1       4.965   7.542   9.518  1.00  0.00     0.029 A 
ATOM     43  N   UNL     1       3.909   9.512   9.570  1.00  0.00    -0.354 N 
ATOM     44  C   UNL     1      -0.397   9.737   9.409  1.00  0.00     0.074 A 
ATOM     45  C   UNL     1      -0.985   8.418   9.325  1.00  0.00     0.031 C 
ATOM     46  C   UNL     1       5.903   8.501   9.565  1.00  0.00     0.029 A 
ATOM     47  C   UNL     1       5.251   9.807   9.569  1.00  0.00     0.049 A 
ATOM     48  H   UNL     1       3.206  10.200   9.593  1.00  0.00     0.167 HD
ATOM     49  C   UNL     1      -1.107  10.891   9.443  1.00  0.00     0.037 A 
ATOM     50  C   UNL     1       5.886  10.995   9.560  1.00  0.00     0.037 A 
ATOM     51  C   UNL     1      -0.520  12.203   9.539  1.00  0.00     0.049 A 
ATOM     52  C   UNL     1       5.074  12.263   9.573  1.00  0.00     0.074 A 
ATOM     53  C   UNL     1      -1.156  13.428   9.633  1.00  0.00     0.029 A 
ATOM     54  N   UNL     1       0.844  12.460   9.544  1.00  0.00    -0.354 N 
ATOM     55  N   UNL     1       3.772  12.413   9.585  1.00  0.00    -0.248 NA
ATOM     56  C   UNL     1       5.823  13.528   9.579  1.00  0.00     0.031 C 
ATOM     57  C   UNL     1      -0.180  14.430   9.636  1.00  0.00     0.029 A 
ATOM     58  C   UNL     1       1.067  13.827   9.611  1.00  0.00     0.049 A 
ATOM     59  H   UNL     1       1.548  11.774   9.507  1.00  0.00     0.167 HD
ATOM     60  C   UNL     1       3.545  13.782   9.630  1.00  0.00     0.074 A 
ATOM     61  C   UNL     1       4.845  14.419   9.661  1.00  0.00     0.031 C 
ATOM     62  C   UNL     1       2.366  14.451   9.646  1.00  0.00     0.037 A 
BRANCH  49  63
ATOM     63  C   UNL     1      -2.606  10.786   9.374  1.00  0.00     0.064 A 
ATOM     64  C   UNL     1      -3.355  10.232  10.424  1.00  0.00     0.173 A 
ATOM     65  C   UNL     1      -3.304  11.276   8.260  1.00  0.00     0.173 A 
ATOM     66  F   UNL     1      -2.738   9.740  11.509  1.00  0.00    -0.203 F 
ATOM     67  C   UNL     1      -4.743  10.140  10.345  1.00  0.00     0.198 A 
ATOM     68  C   UNL     1      -4.694  11.215   8.200  1.00  0.00     0.198 A 
ATOM     69  F   UNL     1      -2.640  11.824   7.232  1.00  0.00    -0.203 F 
ATOM     70  F   UNL     1      -5.431   9.554  11.334  1.00  0.00    -0.200 F 
ATOM     71  C   UNL     1      -5.411  10.638   9.237  1.00  0.00     0.200 A 
ATOM     72  F   UNL     1      -5.340  11.712   7.136  1.00  0.00    -0.200 F 
ATOM     73  F   UNL     1      -6.747  10.554   9.165  1.00  0.00    -0.200 F 
ENDBRANCH  49  63
BRANCH  50  74
ATOM     74  C   UNL     1       7.372  11.042   9.553  1.00  0.00     0.064 A 
ATOM     75  C   UNL     1       8.085  11.517  10.663  1.00  0.00     0.173 A 
ATOM     76  C   UNL     1       8.111  10.620   8.438  1.00  0.00     0.173 A 
ATOM     77  F   UNL     1       7.424  11.951  11.747  1.00  0.00    -0.203 F 
ATOM     78  C   UNL     1       9.476  11.589  10.650  1.00  0.00     0.198 A 
ATOM     79  C   UNL     1       9.503  10.662   8.437  1.00  0.00     0.198 A 
ATOM     80  F   UNL     1       7.479  10.151   7.351  1.00  0.00    -0.203 F 
ATOM     81  F   UNL     1      10.129  12.094  11.705  1.00  0.00    -0.200 F 
ATOM     82  C   UNL     1      10.185  11.155   9.539  1.00  0.00     0.200 A 
ATOM     83  F   UNL     1      10.184  10.225   7.369  1.00  0.00    -0.200 F 
ATOM     84  F   UNL     1      11.523  11.219   9.529  1.00  0.00    -0.200 F 
ENDBRANCH  50  74
BRANCH  62  85
ATOM     85  C   UNL     1       2.422  15.950   9.739  1.00  0.00     0.064 A 
ATOM     86  C   UNL     1       2.872  16.742   8.673  1.00  0.00     0.173 A 
ATOM     87  C   UNL     1       1.982  16.604  10.901  1.00  0.00     0.173 A 
ATOM     88  F   UNL     1       3.318  16.167   7.545  1.00  0.00    -0.203 F 
ATOM     89  C   UNL     1       2.906  18.131   8.776  1.00  0.00     0.198 A 
ATOM     90  C   UNL     1       1.984  17.994  10.987  1.00  0.00     0.198 A 
ATOM     91  F   UNL     1       1.534  15.896  11.948  1.00  0.00    -0.203 F 
ATOM     92  F   UNL     1       3.391  18.864   7.764  1.00  0.00    -0.200 F 
ATOM     93  C   UNL     1       2.455  18.755   9.929  1.00  0.00     0.200 A 
ATOM     94  F   UNL     1       1.532  18.595  12.096  1.00  0.00    -0.200 F 
ATOM     95  F   UNL     1       2.480  20.092  10.023  1.00  0.00    -0.200 F 
ENDBRANCH  62  85
ENDBRANCH  36  37
ENDBRANCH  28  31
ENDBRANCH  26  27
ENDBRANCH  25  26
ENDBRANCH  24  25
ENDBRANCH   1  24
TORSDOF 17
