REMARK SMILES O=C(NCCCCNC(=O)[C@H]1CC[C@@H](CNc2ncccn2)O1)c1ccc(-c2c3nc(c(-c4c(F)c(F)c(F)c(F)c4F)c4ccc([nH]4)c(-c4c(F)c(F)c(F)c(F)c4F)c4nc(c(-c5c(F)c(F)c(F)c(F)c5F)c5ccc2[nH]5)C=C4)C=C3)cc1
REMARK SMILES IDX 6 1 5 2 4 3 3 4 1 5 2 6 24 8 25 9 86 10 26 11 85 12 27 13
REMARK SMILES IDX 28 14 29 15 79 16 30 17 84 18 78 19 80 20 31 21 83 22 77 23
REMARK SMILES IDX 76 24 32 26 64 27 44 28 63 29 45 30 48 31 62 32 81 33 46 34
REMARK SMILES IDX 47 35 61 37 82 38 49 39 33 40 34 41 42 42 35 43 36 44 40 45
REMARK SMILES IDX 43 46 37 47 38 48 41 49 39 50 65 51 66 52 74 53 67 54 68 55
REMARK SMILES IDX 72 56 75 57 69 58 70 59 73 60 71 61 50 62 51 63 59 64 52 65
REMARK SMILES IDX 53 66 57 67 60 68 54 69 55 70 58 71 56 72 7 73 8 74 9 75
REMARK SMILES IDX 10 77 11 78 12 79 23 80 13 81 14 82 15 83 16 84 17 86 18 87
REMARK SMILES IDX 22 88 19 89 21 90 20 91
REMARK H PARENT 3 7 80 25 48 36 8 76 16 85
REMARK Flexibility Score: inf
ROOT
ATOM      1  C   UNL     1       7.496  -1.713   5.077  1.00  0.00     0.023 C 
ENDROOT
BRANCH   1   2
ATOM      2  C   UNL     1       7.811  -1.231   6.495  1.00  0.00     0.023 C 
BRANCH   2   3
ATOM      3  C   UNL     1       9.290  -1.238   6.868  1.00  0.00     0.116 C 
BRANCH   3   4
ATOM      4  N   UNL     1      10.092  -0.399   5.992  1.00  0.00    -0.352 N 
ATOM      5  O   UNL     1      11.392   1.350   5.414  1.00  0.00    -0.269 OA
ATOM      6  C   UNL     1      10.915   0.653   6.305  1.00  0.00     0.251 C 
ATOM      7  H   UNL     1      10.036  -0.617   5.033  1.00  0.00     0.163 HD
BRANCH   6   8
ATOM      8  C   UNL     1      11.208   0.964   7.719  1.00  0.00     0.039 A 
ATOM      9  C   UNL     1      11.561  -0.046   8.619  1.00  0.00     0.014 A 
ATOM     10  C   UNL     1      11.136   2.293   8.143  1.00  0.00     0.014 A 
ATOM     11  C   UNL     1      11.716   0.254   9.969  1.00  0.00     0.010 A 
ATOM     12  C   UNL     1      11.366   2.602   9.484  1.00  0.00     0.010 A 
ATOM     13  C   UNL     1      11.629   1.581  10.413  1.00  0.00    -0.014 A 
BRANCH  13  14
ATOM     14  C   UNL     1      11.852   1.912  11.841  1.00  0.00     0.031 A 
ATOM     15  C   UNL     1      10.747   2.494  12.674  1.00  0.00     0.074 A 
ATOM     16  C   UNL     1      13.072   1.720  12.375  1.00  0.00     0.049 A 
ATOM     17  N   UNL     1      10.783   2.942  13.903  1.00  0.00    -0.248 NA
ATOM     18  C   UNL     1       9.427   2.597  12.035  1.00  0.00     0.031 C 
ATOM     19  C   UNL     1      14.222   1.159  11.665  1.00  0.00     0.029 A 
ATOM     20  N   UNL     1      13.554   1.992  13.630  1.00  0.00    -0.354 N 
ATOM     21  C   UNL     1       9.502   3.402  14.178  1.00  0.00     0.074 A 
ATOM     22  C   UNL     1       8.718   3.204  12.976  1.00  0.00     0.031 C 
ATOM     23  C   UNL     1      15.274   1.124  12.494  1.00  0.00     0.029 A 
ATOM     24  C   UNL     1      14.892   1.720  13.770  1.00  0.00     0.049 A 
ATOM     25  H   UNL     1      12.995   2.348  14.359  1.00  0.00     0.167 HD
ATOM     26  C   UNL     1       9.027   3.937  15.329  1.00  0.00     0.037 A 
ATOM     27  C   UNL     1      15.729   1.959  14.796  1.00  0.00     0.037 A 
ATOM     28  C   UNL     1       9.820   4.128  16.517  1.00  0.00     0.049 A 
ATOM     29  C   UNL     1      15.195   2.600  16.045  1.00  0.00     0.074 A 
ATOM     30  C   UNL     1       9.426   4.627  17.747  1.00  0.00     0.029 A 
ATOM     31  N   UNL     1      11.175   3.842  16.620  1.00  0.00    -0.354 N 
ATOM     32  N   UNL     1      13.975   3.002  16.309  1.00  0.00    -0.248 NA
ATOM     33  C   UNL     1      16.150   2.820  17.138  1.00  0.00     0.031 C 
ATOM     34  C   UNL     1      10.554   4.704  18.570  1.00  0.00     0.029 A 
ATOM     35  C   UNL     1      11.638   4.183  17.881  1.00  0.00     0.049 A 
ATOM     36  H   UNL     1      11.726   3.454  15.902  1.00  0.00     0.167 HD
ATOM     37  C   UNL     1      14.007   3.490  17.607  1.00  0.00     0.074 A 
ATOM     38  C   UNL     1      15.368   3.335  18.078  1.00  0.00     0.031 C 
ATOM     39  C   UNL     1      12.994   4.011  18.343  1.00  0.00     0.037 A 
BRANCH  26  40
ATOM     40  C   UNL     1       7.594   4.393  15.343  1.00  0.00     0.064 A 
ATOM     41  C   UNL     1       6.525   3.487  15.268  1.00  0.00     0.173 A 
ATOM     42  C   UNL     1       7.286   5.758  15.447  1.00  0.00     0.173 A 
ATOM     43  F   UNL     1       6.761   2.170  15.161  1.00  0.00    -0.203 F 
ATOM     44  C   UNL     1       5.205   3.934  15.250  1.00  0.00     0.198 A 
ATOM     45  C   UNL     1       5.965   6.199  15.465  1.00  0.00     0.198 A 
ATOM     46  F   UNL     1       8.267   6.669  15.534  1.00  0.00    -0.203 F 
ATOM     47  F   UNL     1       4.204   3.054  15.111  1.00  0.00    -0.200 F 
ATOM     48  C   UNL     1       4.926   5.288  15.353  1.00  0.00     0.200 A 
ATOM     49  F   UNL     1       5.698   7.507  15.582  1.00  0.00    -0.200 F 
ATOM     50  F   UNL     1       3.657   5.716  15.334  1.00  0.00    -0.200 F 
ENDBRANCH  26  40
BRANCH  27  51
ATOM     51  C   UNL     1      17.161   1.591  14.662  1.00  0.00     0.064 A 
ATOM     52  C   UNL     1      17.701   0.520  15.385  1.00  0.00     0.173 A 
ATOM     53  C   UNL     1      18.005   2.270  13.769  1.00  0.00     0.173 A 
ATOM     54  F   UNL     1      16.938  -0.149  16.261  1.00  0.00    -0.203 F 
ATOM     55  C   UNL     1      19.033   0.144  15.224  1.00  0.00     0.198 A 
ATOM     56  C   UNL     1      19.328   1.875  13.587  1.00  0.00     0.198 A 
ATOM     57  F   UNL     1      17.532   3.296  13.047  1.00  0.00    -0.203 F 
ATOM     58  F   UNL     1      19.534  -0.867  15.948  1.00  0.00    -0.200 F 
ATOM     59  C   UNL     1      19.842   0.815  14.319  1.00  0.00     0.200 A 
ATOM     60  F   UNL     1      20.099   2.512  12.696  1.00  0.00    -0.200 F 
ATOM     61  F   UNL     1      21.118   0.440  14.151  1.00  0.00    -0.200 F 
ENDBRANCH  27  51
BRANCH  39  62
ATOM     62  C   UNL     1      13.295   4.403  19.761  1.00  0.00     0.064 A 
ATOM     63  C   UNL     1      14.056   5.538  20.073  1.00  0.00     0.173 A 
ATOM     64  C   UNL     1      12.749   3.665  20.823  1.00  0.00     0.173 A 
ATOM     65  F   UNL     1      14.615   6.267  19.095  1.00  0.00    -0.203 F 
ATOM     66  C   UNL     1      14.269   5.913  21.397  1.00  0.00     0.198 A 
ATOM     67  C   UNL     1      12.938   4.061  22.143  1.00  0.00     0.198 A 
ATOM     68  F   UNL     1      12.010   2.572  20.578  1.00  0.00    -0.203 F 
ATOM     69  F   UNL     1      15.029   6.982  21.675  1.00  0.00    -0.200 F 
ATOM     70  C   UNL     1      13.701   5.182  22.430  1.00  0.00     0.200 A 
ATOM     71  F   UNL     1      12.374   3.361  23.138  1.00  0.00    -0.200 F 
ATOM     72  F   UNL     1      13.890   5.557  23.703  1.00  0.00    -0.200 F 
ENDBRANCH  39  62
ENDBRANCH  13  14
ENDBRANCH   6   8
ENDBRANCH   3   4
ENDBRANCH   2   3
ENDBRANCH   1   2
BRANCH   1  73
ATOM     73  C   UNL     1       8.070  -3.083   4.726  1.00  0.00     0.116 C 
BRANCH  73  74
ATOM     74  N   UNL     1       7.510  -4.124   5.562  1.00  0.00    -0.354 N 
ATOM     75  C   UNL     1       6.746  -5.204   5.235  1.00  0.00     0.249 C 
ATOM     76  H   UNL     1       7.715  -4.038   6.522  1.00  0.00     0.163 HD
ATOM     77  O   UNL     1       6.350  -5.912   6.166  1.00  0.00    -0.272 OA
BRANCH  75  78
ATOM     78  C   UNL     1       6.420  -5.521   3.761  1.00  0.00     0.207 C 
ATOM     79  C   UNL     1       6.842  -6.941   3.424  1.00  0.00     0.045 C 
ATOM     80  O   UNL     1       5.011  -5.434   3.504  1.00  0.00    -0.363 OA
ATOM     81  C   UNL     1       5.591  -7.729   3.714  1.00  0.00     0.037 C 
ATOM     82  C   UNL     1       4.490  -6.766   3.290  1.00  0.00     0.138 C 
BRANCH  82  83
ATOM     83  C   UNL     1       3.143  -6.929   4.018  1.00  0.00     0.148 C 
BRANCH  83  84
ATOM     84  N   UNL     1       2.827  -8.319   4.295  1.00  0.00    -0.352 N 
ATOM     85  H   UNL     1       2.708  -8.979   3.575  1.00  0.00     0.163 HD
BRANCH  84  86
ATOM     86  C   UNL     1       2.701  -8.659   5.625  1.00  0.00     0.222 A 
ATOM     87  N   UNL     1       3.348  -9.770   6.004  1.00  0.00    -0.222 NA
ATOM     88  N   UNL     1       2.003  -7.875   6.458  1.00  0.00    -0.222 NA
ATOM     89  C   UNL     1       3.322 -10.066   7.317  1.00  0.00     0.117 A 
ATOM     90  C   UNL     1       1.979  -8.230   7.754  1.00  0.00     0.117 A 
ATOM     91  C   UNL     1       2.642  -9.324   8.250  1.00  0.00     0.040 A 
ENDBRANCH  84  86
ENDBRANCH  83  84
ENDBRANCH  82  83
ENDBRANCH  75  78
ENDBRANCH  73  74
ENDBRANCH   1  73
TORSDOF 14
