REMARK SMILES CC(C)=CC(=O)Nc1ccc(C(=O)NCCCCNC(=O)c2ccc(-c3c4nc(c(-c5c(F)c(F)c(F)c(F)c5F)c5ccc([nH]5)c(-c5c(F)c(F)c(F)c(F)c5F)c5nc(c(-c6c(F)c(F)c(F)c(F)c6F)c6ccc3[nH]6)C=C5)C=C4)cc2)cc1
REMARK SMILES IDX 16 1 15 2 14 3 12 4 13 5 11 7 8 8 9 9 86 10 10 11 85 12 7 13
REMARK SMILES IDX 5 14 6 15 4 17 1 18 2 19 3 20 17 21 18 22 19 23 20 24 21 26
REMARK SMILES IDX 22 27 23 28 84 29 24 30 83 31 25 32 26 33 27 34 77 35 28 36
REMARK SMILES IDX 82 37 76 38 78 39 29 40 81 41 75 42 74 43 30 45 62 46 42 47
REMARK SMILES IDX 61 48 43 49 46 50 60 51 79 52 44 53 45 54 59 56 80 57 47 58
REMARK SMILES IDX 31 59 32 60 40 61 33 62 34 63 38 64 41 65 35 66 36 67 39 68
REMARK SMILES IDX 37 69 63 70 64 71 72 72 65 73 66 74 70 75 73 76 67 77 68 78
REMARK SMILES IDX 71 79 69 80 48 81 49 82 57 83 50 84 51 85 55 86 58 87 52 88
REMARK SMILES IDX 53 89 56 90 54 91
REMARK H PARENT 14 6 7 16 19 25 78 44 46 55
REMARK Flexibility Score: inf
ROOT
ATOM      1  C   UNL     1       1.996   4.710  -1.069  1.00  0.00     0.023 C 
ENDROOT
BRANCH   1   2
ATOM      2  C   UNL     1       0.803   3.789  -1.329  1.00  0.00     0.116 C 
BRANCH   2   3
ATOM      3  N   UNL     1       0.803   3.337  -2.709  1.00  0.00    -0.352 N 
ATOM      4  C   UNL     1       1.220   2.163  -3.287  1.00  0.00     0.251 C 
ATOM      5  O   UNL     1       1.095   2.034  -4.504  1.00  0.00    -0.269 OA
ATOM      6  H   UNL     1       0.436   3.992  -3.347  1.00  0.00     0.163 HD
BRANCH   4   7
ATOM      7  C   UNL     1       1.708   1.017  -2.478  1.00  0.00     0.039 A 
ATOM      8  C   UNL     1       2.096  -1.176  -0.803  1.00  0.00     0.041 A 
ATOM      9  C   UNL     1       1.564  -1.371  -2.078  1.00  0.00     0.027 A 
ATOM     10  C   UNL     1       2.615   0.067  -0.448  1.00  0.00     0.027 A 
ATOM     11  C   UNL     1       1.333  -0.266  -2.898  1.00  0.00     0.016 A 
ATOM     12  C   UNL     1       2.457   1.154  -1.308  1.00  0.00     0.016 A 
BRANCH   8  13
ATOM     13  N   UNL     1       2.021  -2.241   0.098  1.00  0.00    -0.323 N 
ATOM     14  C   UNL     1       1.733  -2.235   1.431  1.00  0.00     0.248 C 
ATOM     15  O   UNL     1       1.917  -3.255   2.098  1.00  0.00    -0.270 OA
ATOM     16  H   UNL     1       2.204  -3.129  -0.287  1.00  0.00     0.170 HD
BRANCH  14  17
ATOM     17  C   UNL     1       1.149  -1.046   2.118  1.00  0.00     0.070 C 
ATOM     18  C   UNL     1      -0.704  -0.362   0.501  1.00  0.00     0.039 C 
ATOM     19  C   UNL     1       0.108  -0.262   1.763  1.00  0.00    -0.071 C 
ATOM     20  C   UNL     1      -0.388   0.808   2.704  1.00  0.00     0.039 C 
ENDBRANCH  14  17
ENDBRANCH   8  13
ENDBRANCH   4   7
ENDBRANCH   2   3
ENDBRANCH   1   2
BRANCH   1  21
ATOM     21  C   UNL     1       1.859   6.093  -1.710  1.00  0.00     0.023 C 
BRANCH  21  22
ATOM     22  C   UNL     1       0.737   6.954  -1.139  1.00  0.00     0.116 C 
BRANCH  22  23
ATOM     23  N   UNL     1       0.913   7.245   0.277  1.00  0.00    -0.352 N 
ATOM     24  C   UNL     1       0.798   8.446   0.934  1.00  0.00     0.251 C 
ATOM     25  H   UNL     1       1.148   6.474   0.842  1.00  0.00     0.163 HD
ATOM     26  O   UNL     1       1.108   8.540   2.118  1.00  0.00    -0.269 OA
BRANCH  24  27
ATOM     27  C   UNL     1       0.336   9.637   0.195  1.00  0.00     0.039 A 
ATOM     28  C   UNL     1       1.088  10.812   0.272  1.00  0.00     0.014 A 
ATOM     29  C   UNL     1      -0.807   9.578  -0.607  1.00  0.00     0.014 A 
ATOM     30  C   UNL     1       0.748  11.901  -0.531  1.00  0.00     0.010 A 
ATOM     31  C   UNL     1      -1.110  10.643  -1.450  1.00  0.00     0.010 A 
ATOM     32  C   UNL     1      -0.322  11.804  -1.435  1.00  0.00    -0.014 A 
BRANCH  32  33
ATOM     33  C   UNL     1      -0.603  12.879  -2.419  1.00  0.00     0.031 A 
ATOM     34  C   UNL     1      -1.887  13.650  -2.353  1.00  0.00     0.074 A 
ATOM     35  C   UNL     1       0.261  13.085  -3.432  1.00  0.00     0.049 A 
ATOM     36  N   UNL     1      -2.365  14.534  -3.193  1.00  0.00    -0.248 NA
ATOM     37  C   UNL     1      -2.762  13.377  -1.203  1.00  0.00     0.031 C 
ATOM     38  C   UNL     1       1.524  12.369  -3.625  1.00  0.00     0.029 A 
ATOM     39  N   UNL     1       0.198  13.940  -4.504  1.00  0.00    -0.354 N 
ATOM     40  C   UNL     1      -3.598  14.911  -2.682  1.00  0.00     0.074 A 
ATOM     41  C   UNL     1      -3.815  14.132  -1.481  1.00  0.00     0.031 C 
ATOM     42  C   UNL     1       2.119  12.819  -4.740  1.00  0.00     0.029 A 
ATOM     43  C   UNL     1       1.261  13.821  -5.365  1.00  0.00     0.049 A 
ATOM     44  H   UNL     1      -0.539  14.578  -4.642  1.00  0.00     0.167 HD
ATOM     45  C   UNL     1      -4.460  15.838  -3.163  1.00  0.00     0.037 A 
ATOM     46  C   UNL     1       1.506  14.433  -6.539  1.00  0.00     0.037 A 
ATOM     47  C   UNL     1      -4.229  16.624  -4.346  1.00  0.00     0.049 A 
ATOM     48  C   UNL     1       0.512  15.428  -7.071  1.00  0.00     0.074 A 
ATOM     49  C   UNL     1      -5.004  17.645  -4.868  1.00  0.00     0.029 A 
ATOM     50  N   UNL     1      -3.145  16.470  -5.197  1.00  0.00    -0.354 N 
ATOM     51  N   UNL     1      -0.617  15.830  -6.542  1.00  0.00    -0.248 NA
ATOM     52  C   UNL     1       0.823  16.048  -8.367  1.00  0.00     0.031 C 
ATOM     53  C   UNL     1      -4.414  18.076  -6.061  1.00  0.00     0.029 A 
ATOM     54  C   UNL     1      -3.249  17.353  -6.260  1.00  0.00     0.049 A 
ATOM     55  H   UNL     1      -2.409  15.829  -5.065  1.00  0.00     0.167 HD
ATOM     56  C   UNL     1      -1.145  16.758  -7.429  1.00  0.00     0.074 A 
ATOM     57  C   UNL     1      -0.203  16.873  -8.524  1.00  0.00     0.031 C 
ATOM     58  C   UNL     1      -2.308  17.449  -7.346  1.00  0.00     0.037 A 
BRANCH  45  59
ATOM     59  C   UNL     1      -5.738  16.053  -2.408  1.00  0.00     0.064 A 
ATOM     60  C   UNL     1      -5.754  16.692  -1.159  1.00  0.00     0.173 A 
ATOM     61  C   UNL     1      -6.966  15.656  -2.959  1.00  0.00     0.173 A 
ATOM     62  F   UNL     1      -4.606  17.081  -0.586  1.00  0.00    -0.203 F 
ATOM     63  C   UNL     1      -6.950  16.902  -0.478  1.00  0.00     0.198 A 
ATOM     64  C   UNL     1      -8.162  15.892  -2.287  1.00  0.00     0.198 A 
ATOM     65  F   UNL     1      -7.006  15.046  -4.154  1.00  0.00    -0.203 F 
ATOM     66  F   UNL     1      -6.937  17.475   0.733  1.00  0.00    -0.200 F 
ATOM     67  C   UNL     1      -8.153  16.508  -1.045  1.00  0.00     0.200 A 
ATOM     68  F   UNL     1      -9.325  15.520  -2.841  1.00  0.00    -0.200 F 
ATOM     69  F   UNL     1      -9.304  16.717  -0.391  1.00  0.00    -0.200 F 
ENDBRANCH  45  59
BRANCH  46  70
ATOM     70  C   UNL     1       2.747  14.119  -7.293  1.00  0.00     0.064 A 
ATOM     71  C   UNL     1       3.780  15.061  -7.398  1.00  0.00     0.173 A 
ATOM     72  C   UNL     1       2.928  12.877  -7.917  1.00  0.00     0.173 A 
ATOM     73  F   UNL     1       3.641  16.271  -6.837  1.00  0.00    -0.203 F 
ATOM     74  C   UNL     1       4.942  14.776  -8.111  1.00  0.00     0.198 A 
ATOM     75  C   UNL     1       4.102  12.584  -8.608  1.00  0.00     0.198 A 
ATOM     76  F   UNL     1       1.970  11.941  -7.843  1.00  0.00    -0.203 F 
ATOM     77  F   UNL     1       5.898  15.707  -8.229  1.00  0.00    -0.200 F 
ATOM     78  C   UNL     1       5.105  13.536  -8.710  1.00  0.00     0.200 A 
ATOM     79  F   UNL     1       4.261  11.380  -9.175  1.00  0.00    -0.200 F 
ATOM     80  F   UNL     1       6.226  13.260  -9.391  1.00  0.00    -0.200 F 
ENDBRANCH  46  70
BRANCH  58  81
ATOM     81  C   UNL     1      -2.626  18.395  -8.465  1.00  0.00     0.064 A 
ATOM     82  C   UNL     1      -3.047  17.927  -9.717  1.00  0.00     0.173 A 
ATOM     83  C   UNL     1      -2.560  19.782  -8.268  1.00  0.00     0.173 A 
ATOM     84  F   UNL     1      -3.109  16.609  -9.959  1.00  0.00    -0.203 F 
ATOM     85  C   UNL     1      -3.378  18.814 -10.738  1.00  0.00     0.198 A 
ATOM     86  C   UNL     1      -2.916  20.667  -9.281  1.00  0.00     0.198 A 
ATOM     87  F   UNL     1      -2.166  20.279  -7.085  1.00  0.00    -0.203 F 
ATOM     88  F   UNL     1      -3.745  18.345 -11.938  1.00  0.00    -0.200 F 
ATOM     89  C   UNL     1      -3.321  20.183 -10.516  1.00  0.00     0.200 A 
ATOM     90  F   UNL     1      -2.871  21.988  -9.063  1.00  0.00    -0.200 F 
ATOM     91  F   UNL     1      -3.651  21.035 -11.496  1.00  0.00    -0.200 F 
ENDBRANCH  58  81
ENDBRANCH  32  33
ENDBRANCH  24  27
ENDBRANCH  22  23
ENDBRANCH  21  22
ENDBRANCH   1  21
TORSDOF 13
