REMARK SMILES CCCCOC(=O)[C@@H]1[C@H]2c3ccccc3[C@H](c3ccccc32)[C@@H]1C(=O)NCCCCNC(=O)c1ccc(-c2c3nc(c(-c4c(F)c(F)c(F)c(F)c4F)c4ccc([nH]4)c(-c4c(F)c(F)c(F)c(F)c4F)c4nc(c(-c5c(F)c(F)c(F)c(F)c5F)c5ccc2[nH]5)C=C4)C=C3)cc1
REMARK SMILES IDX 27 1 26 2 24 3 25 4 23 6 8 7 9 8 22 9 10 10 16 11 21 12
REMARK SMILES IDX 17 13 15 14 11 15 20 16 18 17 14 18 12 19 19 20 13 21 6 22
REMARK SMILES IDX 7 23 5 24 4 25 3 26 2 27 1 28 28 29 29 30 30 31 31 32 32 33
REMARK SMILES IDX 33 35 34 36 35 37 96 38 36 39 95 40 37 41 38 42 39 43 89 44
REMARK SMILES IDX 40 45 94 46 88 47 90 48 41 49 93 50 87 51 86 52 42 54 74 55
REMARK SMILES IDX 54 56 73 57 55 58 58 59 72 60 91 61 56 62 57 63 71 65 92 66
REMARK SMILES IDX 59 67 43 68 44 69 52 70 45 71 46 72 50 73 53 74 47 75 48 76
REMARK SMILES IDX 51 77 49 78 75 79 76 80 84 81 77 82 78 83 82 84 85 85 79 86
REMARK SMILES IDX 80 87 83 88 81 89 60 90 61 91 69 92 62 93 63 94 67 95 70 96
REMARK SMILES IDX 64 97 65 98 68 99 66 100
REMARK H PARENT 26 5 31 34 90 53 58 64
REMARK Flexibility Score: inf
ROOT
ATOM      1  C   UNL     1      -6.676   1.619   2.008  1.00  0.00     0.116 C 
ENDROOT
BRANCH   1   2
ATOM      2  N   UNL     1      -5.830   1.877   3.147  1.00  0.00    -0.356 N 
ATOM      3  C   UNL     1      -4.562   1.499   3.425  1.00  0.00     0.224 C 
ATOM      4  O   UNL     1      -4.014   2.119   4.346  1.00  0.00    -0.275 OA
ATOM      5  H   UNL     1      -6.251   2.425   3.847  1.00  0.00     0.163 HD
BRANCH   3   6
ATOM      6  C   UNL     1      -3.815   0.348   2.763  1.00  0.00     0.105 C 
ATOM      7  C   UNL     1      -3.309   0.399   1.279  1.00  0.00     0.124 C 
ATOM      8  C   UNL     1      -3.481  -1.020   0.645  1.00  0.00     0.065 C 
ATOM      9  C   UNL     1      -4.969  -1.371   0.723  1.00  0.00    -0.036 A 
ATOM     10  C   UNL     1      -2.770  -2.025   1.566  1.00  0.00    -0.036 A 
ATOM     11  C   UNL     1      -4.432  -1.054   3.106  1.00  0.00     0.063 C 
ATOM     12  C   UNL     1      -5.784  -1.677  -0.358  1.00  0.00     0.004 A 
ATOM     13  C   UNL     1      -5.465  -1.435   2.051  1.00  0.00    -0.036 A 
ATOM     14  C   UNL     1      -3.286  -2.047   2.892  1.00  0.00    -0.036 A 
ATOM     15  C   UNL     1      -1.810  -2.945   1.172  1.00  0.00     0.004 A 
ATOM     16  C   UNL     1      -7.087  -2.106  -0.109  1.00  0.00     0.000 A 
ATOM     17  C   UNL     1      -6.742  -1.920   2.296  1.00  0.00     0.004 A 
ATOM     18  C   UNL     1      -2.838  -2.977   3.818  1.00  0.00     0.004 A 
ATOM     19  C   UNL     1      -1.364  -3.884   2.106  1.00  0.00     0.000 A 
ATOM     20  C   UNL     1      -7.552  -2.254   1.207  1.00  0.00     0.000 A 
ATOM     21  C   UNL     1      -1.872  -3.899   3.416  1.00  0.00     0.000 A 
BRANCH   7  22
ATOM     22  C   UNL     1      -3.842   1.442   0.313  1.00  0.00     0.310 C 
ATOM     23  O   UNL     1      -4.056   1.218  -0.873  1.00  0.00    -0.252 OA
BRANCH  22  24
ATOM     24  O   UNL     1      -3.963   2.670   0.877  1.00  0.00    -0.465 OA
BRANCH  24  25
ATOM     25  C   UNL     1      -4.465   3.705   0.011  1.00  0.00     0.233 C 
BRANCH  25  26
ATOM     26  C   UNL     1      -3.853   5.039   0.420  1.00  0.00     0.041 C 
BRANCH  26  27
ATOM     27  C   UNL     1      -2.335   5.084   0.238  1.00  0.00     0.000 C 
ATOM     28  C   UNL     1      -1.905   4.990  -1.219  1.00  0.00     0.004 C 
ENDBRANCH  26  27
ENDBRANCH  25  26
ENDBRANCH  24  25
ENDBRANCH  22  24
ENDBRANCH   7  22
ENDBRANCH   3   6
ENDBRANCH   1   2
BRANCH   1  29
ATOM     29  C   UNL     1      -8.051   1.100   2.404  1.00  0.00     0.023 C 
BRANCH  29  30
ATOM     30  C   UNL     1      -9.176   2.106   2.208  1.00  0.00     0.023 C 
BRANCH  30  31
ATOM     31  C   UNL     1      -9.304   2.661   0.794  1.00  0.00     0.116 C 
BRANCH  31  32
ATOM     32  N   UNL     1      -9.451   1.660  -0.259  1.00  0.00    -0.352 N 
ATOM     33  C   UNL     1     -10.257   1.735  -1.379  1.00  0.00     0.251 C 
ATOM     34  H   UNL     1      -8.917   0.840  -0.159  1.00  0.00     0.163 HD
ATOM     35  O   UNL     1     -10.326   0.820  -2.189  1.00  0.00    -0.269 OA
BRANCH  33  36
ATOM     36  C   UNL     1     -11.093   2.943  -1.532  1.00  0.00     0.039 A 
ATOM     37  C   UNL     1     -10.486   4.197  -1.475  1.00  0.00     0.014 A 
ATOM     38  C   UNL     1     -12.482   2.814  -1.484  1.00  0.00     0.014 A 
ATOM     39  C   UNL     1     -11.256   5.294  -1.118  1.00  0.00     0.010 A 
ATOM     40  C   UNL     1     -13.265   3.945  -1.236  1.00  0.00     0.010 A 
ATOM     41  C   UNL     1     -12.651   5.178  -0.965  1.00  0.00    -0.014 A 
BRANCH  41  42
ATOM     42  C   UNL     1     -13.423   6.347  -0.456  1.00  0.00     0.031 A 
ATOM     43  C   UNL     1     -14.161   6.279   0.859  1.00  0.00     0.074 A 
ATOM     44  C   UNL     1     -13.361   7.513  -1.128  1.00  0.00     0.049 A 
ATOM     45  N   UNL     1     -14.866   7.209   1.458  1.00  0.00    -0.248 NA
ATOM     46  C   UNL     1     -14.108   5.009   1.604  1.00  0.00     0.031 C 
ATOM     47  C   UNL     1     -12.649   7.716  -2.391  1.00  0.00     0.029 A 
ATOM     48  N   UNL     1     -13.853   8.756  -0.822  1.00  0.00    -0.354 N 
ATOM     49  C   UNL     1     -15.364   6.629   2.619  1.00  0.00     0.074 A 
ATOM     50  C   UNL     1     -14.892   5.263   2.644  1.00  0.00     0.031 C 
ATOM     51  C   UNL     1     -12.665   9.020  -2.700  1.00  0.00     0.029 A 
ATOM     52  C   UNL     1     -13.461   9.732  -1.706  1.00  0.00     0.049 A 
ATOM     53  H   UNL     1     -14.430   8.932  -0.044  1.00  0.00     0.167 HD
ATOM     54  C   UNL     1     -16.139   7.190   3.578  1.00  0.00     0.037 A 
ATOM     55  C   UNL     1     -13.720  11.052  -1.723  1.00  0.00     0.037 A 
ATOM     56  C   UNL     1     -16.569   8.564   3.578  1.00  0.00     0.049 A 
ATOM     57  C   UNL     1     -14.595  11.640  -0.656  1.00  0.00     0.074 A 
ATOM     58  C   UNL     1     -17.376   9.216   4.495  1.00  0.00     0.029 A 
ATOM     59  N   UNL     1     -16.206   9.504   2.626  1.00  0.00    -0.354 N 
ATOM     60  N   UNL     1     -15.111  11.060   0.399  1.00  0.00    -0.248 NA
ATOM     61  C   UNL     1     -14.947  13.060  -0.797  1.00  0.00     0.031 C 
ATOM     62  C   UNL     1     -17.517  10.546   4.089  1.00  0.00     0.029 A 
ATOM     63  C   UNL     1     -16.772  10.729   2.936  1.00  0.00     0.049 A 
ATOM     64  H   UNL     1     -15.632   9.327   1.847  1.00  0.00     0.167 HD
ATOM     65  C   UNL     1     -15.844  12.041   1.049  1.00  0.00     0.074 A 
ATOM     66  C   UNL     1     -15.687  13.261   0.285  1.00  0.00     0.031 C 
ATOM     67  C   UNL     1     -16.593  11.935   2.172  1.00  0.00     0.037 A 
BRANCH  54  68
ATOM     68  C   UNL     1     -16.586   6.332   4.725  1.00  0.00     0.064 A 
ATOM     69  C   UNL     1     -15.721   6.012   5.780  1.00  0.00     0.173 A 
ATOM     70  C   UNL     1     -17.926   5.925   4.825  1.00  0.00     0.173 A 
ATOM     71  F   UNL     1     -14.430   6.370   5.726  1.00  0.00    -0.203 F 
ATOM     72  C   UNL     1     -16.182   5.318   6.897  1.00  0.00     0.198 A 
ATOM     73  C   UNL     1     -18.388   5.249   5.952  1.00  0.00     0.198 A 
ATOM     74  F   UNL     1     -18.795   6.215   3.845  1.00  0.00    -0.203 F 
ATOM     75  F   UNL     1     -15.336   5.013   7.891  1.00  0.00    -0.200 F 
ATOM     76  C   UNL     1     -17.516   4.948   6.987  1.00  0.00     0.200 A 
ATOM     77  F   UNL     1     -19.680   4.905   6.043  1.00  0.00    -0.200 F 
ATOM     78  F   UNL     1     -17.963   4.303   8.074  1.00  0.00    -0.200 F 
ENDBRANCH  54  68
BRANCH  55  79
ATOM     79  C   UNL     1     -13.137  11.903  -2.792  1.00  0.00     0.064 A 
ATOM     80  C   UNL     1     -12.146  12.848  -2.494  1.00  0.00     0.173 A 
ATOM     81  C   UNL     1     -13.536  11.773  -4.130  1.00  0.00     0.173 A 
ATOM     82  F   UNL     1     -11.746  13.022  -1.225  1.00  0.00    -0.203 F 
ATOM     83  C   UNL     1     -11.578  13.632  -3.495  1.00  0.00     0.198 A 
ATOM     84  C   UNL     1     -12.947  12.537  -5.133  1.00  0.00     0.198 A 
ATOM     85  F   UNL     1     -14.480  10.881  -4.465  1.00  0.00    -0.203 F 
ATOM     86  F   UNL     1     -10.653  14.549  -3.180  1.00  0.00    -0.200 F 
ATOM     87  C   UNL     1     -11.972  13.470  -4.815  1.00  0.00     0.200 A 
ATOM     88  F   UNL     1     -13.318  12.363  -6.409  1.00  0.00    -0.200 F 
ATOM     89  F   UNL     1     -11.414  14.214  -5.779  1.00  0.00    -0.200 F 
ENDBRANCH  55  79
BRANCH  67  90
ATOM     90  C   UNL     1     -17.284  13.171   2.658  1.00  0.00     0.064 A 
ATOM     91  C   UNL     1     -18.449  13.642   2.037  1.00  0.00     0.173 A 
ATOM     92  C   UNL     1     -16.815  13.850   3.791  1.00  0.00     0.173 A 
ATOM     93  F   UNL     1     -18.926  13.029   0.943  1.00  0.00    -0.203 F 
ATOM     94  C   UNL     1     -19.115  14.761   2.528  1.00  0.00     0.198 A 
ATOM     95  C   UNL     1     -17.495  14.957   4.291  1.00  0.00     0.198 A 
ATOM     96  F   UNL     1     -15.707  13.430   4.420  1.00  0.00    -0.203 F 
ATOM     97  F   UNL     1     -20.212  15.212   1.905  1.00  0.00    -0.200 F 
ATOM     98  C   UNL     1     -18.642  15.412   3.658  1.00  0.00     0.200 A 
ATOM     99  F   UNL     1     -17.042  15.580   5.388  1.00  0.00    -0.200 F 
ATOM    100  F   UNL     1     -19.291  16.483   4.136  1.00  0.00    -0.200 F 
ENDBRANCH  67  90
ENDBRANCH  41  42
ENDBRANCH  33  36
ENDBRANCH  31  32
ENDBRANCH  30  31
ENDBRANCH  29  30
ENDBRANCH   1  29
TORSDOF 16
