REMARK SMILES COC(=O)CNC(=O)N[C@H]1CCCCC[C@@H]1C(=O)NCCCCNC(=O)c1ccc(-c2c3nc(c(-c4c(F)c(F)c(F)c(F)c4F)c4ccc([nH]4)c(-c4c(F)c(F)c(F)c(F)c4F)c4nc(c(-c5c(F)c(F)c(F)c(F)c5F)c5ccc2[nH]5)C=C4)C=C3)cc1
REMARK SMILES IDX 20 1 19 2 17 3 18 4 16 6 10 7 9 8 6 9 7 10 8 12 5 14 3 15
REMARK SMILES IDX 4 16 2 17 1 18 11 19 15 21 14 22 13 23 12 24 21 26 22 27
REMARK SMILES IDX 23 28 24 29 25 30 26 32 27 33 28 34 89 35 29 36 88 37 30 38
REMARK SMILES IDX 31 39 32 40 82 41 33 42 87 43 81 44 83 45 34 46 86 47 80 48
REMARK SMILES IDX 79 49 35 51 67 52 47 53 66 54 48 55 51 56 65 57 84 58 49 59
REMARK SMILES IDX 50 60 64 62 85 63 52 64 36 65 37 66 45 67 38 68 39 69 43 70
REMARK SMILES IDX 46 71 40 72 41 73 44 74 42 75 68 76 69 77 77 78 70 79 71 80
REMARK SMILES IDX 75 81 78 82 72 83 73 84 76 85 74 86 53 87 54 88 62 89 55 90
REMARK SMILES IDX 56 91 60 92 63 93 57 94 58 95 61 96 59 97
REMARK H PARENT 19 5 6 11 9 13 24 31 83 50 51 61
REMARK Flexibility Score: 100.00
ROOT
ATOM      1  C   UNL     1      -1.985   2.457  -1.085  1.00  0.00     0.116 C 
ENDROOT
BRANCH   1   2
ATOM      2  N   UNL     1      -2.677   3.263  -0.103  1.00  0.00    -0.356 N 
ATOM      3  C   UNL     1      -3.333   2.906   1.033  1.00  0.00     0.225 C 
ATOM      4  O   UNL     1      -4.248   3.662   1.376  1.00  0.00    -0.275 OA
ATOM      5  H   UNL     1      -2.673   4.230  -0.288  1.00  0.00     0.163 HD
BRANCH   3   6
ATOM      6  C   UNL     1      -2.915   1.747   1.955  1.00  0.00     0.101 C 
BRANCH   6   7
ATOM      7  C   UNL     1      -1.976   2.340   3.040  1.00  0.00     0.096 C 
BRANCH   7   8
ATOM      8  N   UNL     1      -2.769   3.037   4.067  1.00  0.00    -0.335 N 
ATOM      9  N   UNL     1      -2.420   5.383   3.990  1.00  0.00    -0.327 N 
ATOM     10  C   UNL     1      -2.973   4.283   4.491  1.00  0.00     0.315 C 
ATOM     11  H   UNL     1      -2.620   6.177   4.536  1.00  0.00     0.166 HD
ATOM     12  O   UNL     1      -3.731   4.425   5.455  1.00  0.00    -0.249 OA
ATOM     13  H   UNL     1      -3.302   2.397   4.592  1.00  0.00     0.165 HD
BRANCH   9  14
ATOM     14  C   UNL     1      -1.596   5.710   2.839  1.00  0.00     0.240 C 
BRANCH  14  15
ATOM     15  C   UNL     1      -2.361   6.204   1.612  1.00  0.00     0.325 C 
ATOM     16  O   UNL     1      -1.838   6.332   0.508  1.00  0.00    -0.250 OA
BRANCH  15  17
ATOM     17  O   UNL     1      -3.635   6.570   1.913  1.00  0.00    -0.468 OA
ATOM     18  C   UNL     1      -4.457   6.933   0.801  1.00  0.00     0.282 C 
ENDBRANCH  15  17
ENDBRANCH  14  15
ENDBRANCH   9  14
ENDBRANCH   7   8
BRANCH   7  19
ATOM     19  C   UNL     1      -1.055   1.338   3.763  1.00  0.00     0.026 CG0
ATOM     20  G   UNL     1      -1.728   0.053   4.251  1.00  0.00     0.000 G0
ENDBRANCH   7  19
ENDBRANCH   6   7
BRANCH   6  21
ATOM     21  C   UNL     1      -2.396   0.480   1.265  1.00  0.00     0.015 C 
BRANCH  21  22
ATOM     22  C   UNL     1      -2.656  -0.814   2.033  1.00  0.00     0.001 C 
BRANCH  22  23
ATOM     23  C   UNL     1      -1.714  -1.054   3.203  1.00  0.00     0.000 C 
BRANCH  23  24
ATOM     24  C   UNL     1      -1.728   0.053   4.251  1.00  0.00     0.002 CG0
ATOM     25  G   UNL     1      -1.055   1.338   3.763  1.00  0.00     0.000 G0
ENDBRANCH  23  24
ENDBRANCH  22  23
ENDBRANCH  21  22
ENDBRANCH   6  21
ENDBRANCH   3   6
ENDBRANCH   1   2
BRANCH   1  26
ATOM     26  C   UNL     1      -2.997   1.713  -1.966  1.00  0.00     0.023 C 
BRANCH  26  27
ATOM     27  C   UNL     1      -3.530   2.533  -3.143  1.00  0.00     0.023 C 
BRANCH  27  28
ATOM     28  C   UNL     1      -2.482   2.902  -4.186  1.00  0.00     0.116 C 
BRANCH  28  29
ATOM     29  N   UNL     1      -1.787   1.750  -4.740  1.00  0.00    -0.352 N 
ATOM     30  C   UNL     1      -1.193   1.625  -5.971  1.00  0.00     0.251 C 
ATOM     31  H   UNL     1      -1.735   0.959  -4.157  1.00  0.00     0.163 HD
ATOM     32  O   UNL     1      -0.718   0.552  -6.329  1.00  0.00    -0.269 OA
BRANCH  30  33
ATOM     33  C   UNL     1      -1.179   2.785  -6.882  1.00  0.00     0.039 A 
ATOM     34  C   UNL     1      -1.631   2.612  -8.192  1.00  0.00     0.014 A 
ATOM     35  C   UNL     1      -0.761   4.041  -6.434  1.00  0.00     0.014 A 
ATOM     36  C   UNL     1      -1.727   3.717  -9.038  1.00  0.00     0.010 A 
ATOM     37  C   UNL     1      -0.922   5.151  -7.255  1.00  0.00     0.010 A 
ATOM     38  C   UNL     1      -1.406   5.000  -8.563  1.00  0.00    -0.014 A 
BRANCH  38  39
ATOM     39  C   UNL     1      -1.560   6.197  -9.424  1.00  0.00     0.031 A 
ATOM     40  C   UNL     1      -0.349   6.985  -9.832  1.00  0.00     0.074 A 
ATOM     41  C   UNL     1      -2.792   6.609  -9.779  1.00  0.00     0.049 A 
ATOM     42  N   UNL     1      -0.278   8.105 -10.505  1.00  0.00    -0.248 NA
ATOM     43  C   UNL     1       0.956   6.458  -9.402  1.00  0.00     0.031 C 
ATOM     44  C   UNL     1      -4.046   5.955  -9.398  1.00  0.00     0.029 A 
ATOM     45  N   UNL     1      -3.193   7.686 -10.528  1.00  0.00    -0.354 N 
ATOM     46  C   UNL     1       1.073   8.419 -10.569  1.00  0.00     0.074 A 
ATOM     47  C   UNL     1       1.782   7.406  -9.819  1.00  0.00     0.031 C 
ATOM     48  C   UNL     1      -5.075   6.639  -9.923  1.00  0.00     0.029 A 
ATOM     49  C   UNL     1      -4.557   7.793 -10.652  1.00  0.00     0.049 A 
ATOM     50  H   UNL     1      -2.563   8.322 -10.937  1.00  0.00     0.167 HD
ATOM     51  C   UNL     1       1.670   9.446 -11.220  1.00  0.00     0.037 A 
ATOM     52  C   UNL     1      -5.303   8.724 -11.277  1.00  0.00     0.037 A 
ATOM     53  C   UNL     1       0.963  10.440 -11.983  1.00  0.00     0.049 A 
ATOM     54  C   UNL     1      -4.613   9.847 -12.004  1.00  0.00     0.074 A 
ATOM     55  C   UNL     1       1.477  11.503 -12.704  1.00  0.00     0.029 A 
ATOM     56  N   UNL     1      -0.416  10.486 -12.128  1.00  0.00    -0.354 N 
ATOM     57  N   UNL     1      -3.331  10.104 -12.103  1.00  0.00    -0.248 NA
ATOM     58  C   UNL     1      -5.473  10.801 -12.718  1.00  0.00     0.031 C 
ATOM     59  C   UNL     1       0.407  12.211 -13.261  1.00  0.00     0.029 A 
ATOM     60  C   UNL     1      -0.771  11.563 -12.924  1.00  0.00     0.049 A 
ATOM     61  H   UNL     1      -1.048   9.849 -11.725  1.00  0.00     0.167 HD
ATOM     62  C   UNL     1      -3.229  11.229 -12.910  1.00  0.00     0.074 A 
ATOM     63  C   UNL     1      -4.578  11.596 -13.287  1.00  0.00     0.031 C 
ATOM     64  C   UNL     1      -2.119  11.900 -13.301  1.00  0.00     0.037 A 
BRANCH  51  65
ATOM     65  C   UNL     1       3.166   9.532 -11.149  1.00  0.00     0.064 A 
ATOM     66  C   UNL     1       3.982   8.607 -11.819  1.00  0.00     0.173 A 
ATOM     67  C   UNL     1       3.792  10.564 -10.436  1.00  0.00     0.173 A 
ATOM     68  F   UNL     1       3.432   7.592 -12.502  1.00  0.00    -0.203 F 
ATOM     69  C   UNL     1       5.370   8.698 -11.755  1.00  0.00     0.198 A 
ATOM     70  C   UNL     1       5.180  10.669 -10.399  1.00  0.00     0.198 A 
ATOM     71  F   UNL     1       3.058  11.476  -9.781  1.00  0.00    -0.203 F 
ATOM     72  F   UNL     1       6.128   7.776 -12.364  1.00  0.00    -0.200 F 
ATOM     73  C   UNL     1       5.968   9.733 -11.052  1.00  0.00     0.200 A 
ATOM     74  F   UNL     1       5.757  11.676  -9.728  1.00  0.00    -0.200 F 
ATOM     75  F   UNL     1       7.303   9.823 -10.999  1.00  0.00    -0.200 F 
ENDBRANCH  51  65
BRANCH  52  76
ATOM     76  C   UNL     1      -6.785   8.623 -11.262  1.00  0.00     0.064 A 
ATOM     77  C   UNL     1      -7.498   8.309 -12.427  1.00  0.00     0.173 A 
ATOM     78  C   UNL     1      -7.519   8.852 -10.089  1.00  0.00     0.173 A 
ATOM     79  F   UNL     1      -6.841   8.101 -13.578  1.00  0.00    -0.203 F 
ATOM     80  C   UNL     1      -8.890   8.254 -12.426  1.00  0.00     0.198 A 
ATOM     81  C   UNL     1      -8.910   8.769 -10.083  1.00  0.00     0.198 A 
ATOM     82  F   UNL     1      -6.883   9.148  -8.946  1.00  0.00    -0.203 F 
ATOM     83  F   UNL     1      -9.549   8.002 -13.566  1.00  0.00    -0.200 F 
ATOM     84  C   UNL     1      -9.595   8.480 -11.254  1.00  0.00     0.200 A 
ATOM     85  F   UNL     1      -9.586   8.974  -8.945  1.00  0.00    -0.200 F 
ATOM     86  F   UNL     1     -10.934   8.427 -11.253  1.00  0.00    -0.200 F 
ENDBRANCH  52  76
BRANCH  64  87
ATOM     87  C   UNL     1      -2.312  13.073 -14.216  1.00  0.00     0.064 A 
ATOM     88  C   UNL     1      -2.845  14.285 -13.755  1.00  0.00     0.173 A 
ATOM     89  C   UNL     1      -1.918  12.994 -15.560  1.00  0.00     0.173 A 
ATOM     90  F   UNL     1      -3.250  14.404 -12.482  1.00  0.00    -0.203 F 
ATOM     91  C   UNL     1      -3.000  15.369 -14.615  1.00  0.00     0.198 A 
ATOM     92  C   UNL     1      -2.048  14.088 -16.409  1.00  0.00     0.198 A 
ATOM     93  F   UNL     1      -1.396  11.858 -16.046  1.00  0.00    -0.203 F 
ATOM     94  F   UNL     1      -3.553  16.504 -14.165  1.00  0.00    -0.200 F 
ATOM     95  C   UNL     1      -2.595  15.273 -15.938  1.00  0.00     0.200 A 
ATOM     96  F   UNL     1      -1.645  13.998 -17.684  1.00  0.00    -0.200 F 
ATOM     97  F   UNL     1      -2.738  16.320 -16.762  1.00  0.00    -0.200 F 
ENDBRANCH  64  87
ENDBRANCH  38  39
ENDBRANCH  30  33
ENDBRANCH  28  29
ENDBRANCH  27  28
ENDBRANCH  26  27
ENDBRANCH   1  26
TORSDOF 15
