REMARK SMILES Cc1cccc(-c2cc(C[C@]3(C(=O)NCCCCNC(=O)c4ccc(-c5c6nc(c(-c7c(F)c(F)c(F)c(F)c7F)c7ccc([nH]7)c(-c7c(F)c(F)c(F)c(F)c7F)c7nc(c(-c8c(F)c(F)c(F)c(F)c8F)c8ccc5[nH]8)C=C7)C=C6)cc4)CCCN(C(=O)C(C)C)C3)on2)c1
REMARK SMILES IDX 16 1 15 2 14 3 12 4 13 5 11 7 85 8 94 9 86 10 88 11 87 12
REMARK SMILES IDX 10 13 9 14 7 15 8 16 96 17 95 18 6 19 1 20 2 21 3 22 97 23
REMARK SMILES IDX 4 24 5 25 89 26 90 27 91 28 92 29 93 30 17 31 18 32 19 33
REMARK SMILES IDX 20 34 21 36 22 37 23 38 84 39 24 40 83 41 25 42 26 43 27 44
REMARK SMILES IDX 77 45 28 46 82 47 76 48 78 49 29 50 81 51 75 52 74 53 30 55
REMARK SMILES IDX 62 56 42 57 61 58 43 59 46 60 60 61 79 62 44 63 45 64 59 66
REMARK SMILES IDX 80 67 47 68 31 69 32 70 40 71 33 72 34 73 38 74 41 75 35 76
REMARK SMILES IDX 36 77 39 78 37 79 63 80 64 81 72 82 65 83 66 84 70 85 73 86
REMARK SMILES IDX 67 87 68 88 71 89 69 90 48 91 49 92 57 93 50 94 51 95 55 96
REMARK SMILES IDX 58 97 52 98 53 99 56 100 54 101
REMARK H PARENT 14 6 19 35 78 54 46 65
REMARK Flexibility Score: inf
ROOT
ATOM      1  C   UNL     1      -7.978   7.390  -1.407  1.00  0.00     0.023 C 
ENDROOT
BRANCH   1   2
ATOM      2  C   UNL     1      -7.011   6.855  -2.475  1.00  0.00     0.116 C 
BRANCH   2   3
ATOM      3  N   UNL     1      -5.707   7.505  -2.510  1.00  0.00    -0.356 N 
ATOM      4  C   UNL     1      -4.439   7.099  -2.199  1.00  0.00     0.228 C 
ATOM      5  O   UNL     1      -3.550   7.905  -2.497  1.00  0.00    -0.274 OA
ATOM      6  H   UNL     1      -5.748   8.436  -2.825  1.00  0.00     0.163 HD
BRANCH   4   7
ATOM      7  C   UNL     1      -4.099   5.745  -1.507  1.00  0.00     0.074 C 
ATOM      8  C   UNL     1      -4.853   5.708  -0.146  1.00  0.00     0.021 C 
ATOM      9  C   UNL     1      -4.437   4.596  -2.494  1.00  0.00     0.136 C 
ATOM     10  C   UNL     1      -5.399   4.353   0.301  1.00  0.00     0.023 C 
ATOM     11  N   UNL     1      -4.851   3.357  -1.828  1.00  0.00    -0.341 N 
ATOM     12  C   UNL     1      -5.917   3.528  -0.861  1.00  0.00     0.119 C 
BRANCH   7  13
ATOM     13  C   UNL     1      -2.547   5.758  -1.251  1.00  0.00     0.097 C 
BRANCH  13  14
ATOM     14  C   UNL     1      -1.952   4.540  -0.627  1.00  0.00     0.138 A 
ATOM     15  C   UNL     1      -0.931   2.686   0.034  1.00  0.00     0.114 A 
ATOM     16  C   UNL     1      -1.215   3.482  -1.106  1.00  0.00     0.077 A 
ATOM     17  N   UNL     1      -1.450   3.248   1.137  1.00  0.00    -0.080 NA
ATOM     18  O   UNL     1      -2.062   4.418   0.723  1.00  0.00    -0.361 OA
BRANCH  15  19
ATOM     19  C   UNL     1      -0.228   1.411   0.078  1.00  0.00     0.004 A 
ATOM     20  C   UNL     1       3.316   0.013  -0.128  1.00  0.00     0.044 C 
ATOM     21  C   UNL     1       1.823   0.104  -0.019  1.00  0.00    -0.050 A 
ATOM     22  C   UNL     1       1.073  -1.073   0.112  1.00  0.00     0.003 A 
ATOM     23  C   UNL     1       1.164   1.345  -0.049  1.00  0.00     0.014 A 
ATOM     24  C   UNL     1      -0.310  -1.014   0.243  1.00  0.00     0.001 A 
ATOM     25  C   UNL     1      -0.950   0.224   0.239  1.00  0.00     0.010 A 
ENDBRANCH  15  19
ENDBRANCH  13  14
ENDBRANCH   7  13
BRANCH  11  26
ATOM     26  C   UNL     1      -4.197   2.174  -2.129  1.00  0.00     0.225 C 
ATOM     27  O   UNL     1      -3.367   2.132  -3.046  1.00  0.00    -0.275 OA
BRANCH  26  28
ATOM     28  C   UNL     1      -4.507   0.868  -1.384  1.00  0.00     0.072 C 
ATOM     29  C   UNL     1      -4.527   0.926   0.141  1.00  0.00     0.018 C 
ATOM     30  C   UNL     1      -5.740   0.180  -1.953  1.00  0.00     0.018 C 
ENDBRANCH  26  28
ENDBRANCH  11  26
ENDBRANCH   4   7
ENDBRANCH   2   3
ENDBRANCH   1   2
BRANCH   1  31
ATOM     31  C   UNL     1      -8.382   8.857  -1.556  1.00  0.00     0.023 C 
BRANCH  31  32
ATOM     32  C   UNL     1      -9.306   9.130  -2.736  1.00  0.00     0.116 C 
BRANCH  32  33
ATOM     33  N   UNL     1     -10.731   9.089  -2.428  1.00  0.00    -0.352 N 
ATOM     34  C   UNL     1     -11.813   9.129  -3.299  1.00  0.00     0.251 C 
ATOM     35  H   UNL     1     -10.958   9.025  -1.472  1.00  0.00     0.163 HD
ATOM     36  O   UNL     1     -12.955   9.139  -2.872  1.00  0.00    -0.269 OA
BRANCH  34  37
ATOM     37  C   UNL     1     -11.564   9.029  -4.760  1.00  0.00     0.039 A 
ATOM     38  C   UNL     1     -12.287   8.081  -5.493  1.00  0.00     0.014 A 
ATOM     39  C   UNL     1     -10.495   9.699  -5.346  1.00  0.00     0.014 A 
ATOM     40  C   UNL     1     -11.774   7.624  -6.707  1.00  0.00     0.010 A 
ATOM     41  C   UNL     1      -9.925   9.170  -6.486  1.00  0.00     0.010 A 
ATOM     42  C   UNL     1     -10.526   8.083  -7.129  1.00  0.00    -0.014 A 
BRANCH  42  43
ATOM     43  C   UNL     1      -9.714   7.399  -8.131  1.00  0.00     0.031 A 
ATOM     44  C   UNL     1      -9.457   8.001  -9.455  1.00  0.00     0.074 A 
ATOM     45  C   UNL     1      -9.079   6.253  -7.796  1.00  0.00     0.049 A 
ATOM     46  N   UNL     1      -9.070   7.331 -10.489  1.00  0.00    -0.248 NA
ATOM     47  C   UNL     1      -9.636   9.422  -9.724  1.00  0.00     0.031 C 
ATOM     48  C   UNL     1      -8.005   5.582  -8.527  1.00  0.00     0.029 A 
ATOM     49  N   UNL     1      -9.443   5.331  -6.799  1.00  0.00    -0.354 N 
ATOM     50  C   UNL     1      -8.693   8.231 -11.454  1.00  0.00     0.074 A 
ATOM     51  C   UNL     1      -9.108   9.521 -10.948  1.00  0.00     0.031 C 
ATOM     52  C   UNL     1      -8.009   4.281  -8.199  1.00  0.00     0.029 A 
ATOM     53  C   UNL     1      -9.170   4.057  -7.359  1.00  0.00     0.049 A 
ATOM     54  H   UNL     1      -9.808   5.527  -5.906  1.00  0.00     0.167 HD
ATOM     55  C   UNL     1      -7.963   7.808 -12.526  1.00  0.00     0.037 A 
ATOM     56  C   UNL     1     -10.182   3.181  -7.625  1.00  0.00     0.037 A 
ATOM     57  C   UNL     1      -7.757   6.363 -12.523  1.00  0.00     0.049 A 
ATOM     58  C   UNL     1     -10.319   2.784  -9.081  1.00  0.00     0.074 A 
ATOM     59  C   UNL     1      -6.706   5.527 -12.182  1.00  0.00     0.029 A 
ATOM     60  N   UNL     1      -8.863   5.542 -12.652  1.00  0.00    -0.354 N 
ATOM     61  N   UNL     1      -9.603   3.273 -10.055  1.00  0.00    -0.248 NA
ATOM     62  C   UNL     1     -11.369   1.883  -9.561  1.00  0.00     0.031 C 
ATOM     63  C   UNL     1      -7.197   4.191 -12.121  1.00  0.00     0.029 A 
ATOM     64  C   UNL     1      -8.546   4.219 -12.418  1.00  0.00     0.049 A 
ATOM     65  H   UNL     1      -9.765   5.862 -12.883  1.00  0.00     0.167 HD
ATOM     66  C   UNL     1     -10.101   2.826 -11.250  1.00  0.00     0.074 A 
ATOM     67  C   UNL     1     -11.208   1.961 -10.892  1.00  0.00     0.031 C 
ATOM     68  C   UNL     1      -9.607   3.231 -12.455  1.00  0.00     0.037 A 
BRANCH  55  69
ATOM     69  C   UNL     1      -7.251   8.764 -13.448  1.00  0.00     0.064 A 
ATOM     70  C   UNL     1      -5.981   8.458 -13.978  1.00  0.00     0.173 A 
ATOM     71  C   UNL     1      -7.754  10.030 -13.800  1.00  0.00     0.173 A 
ATOM     72  F   UNL     1      -5.425   7.251 -13.813  1.00  0.00    -0.203 F 
ATOM     73  C   UNL     1      -5.224   9.391 -14.690  1.00  0.00     0.198 A 
ATOM     74  C   UNL     1      -6.973  10.986 -14.456  1.00  0.00     0.198 A 
ATOM     75  F   UNL     1      -9.028  10.361 -13.545  1.00  0.00    -0.203 F 
ATOM     76  F   UNL     1      -4.018   9.047 -15.162  1.00  0.00    -0.200 F 
ATOM     77  C   UNL     1      -5.701  10.671 -14.889  1.00  0.00     0.200 A 
ATOM     78  F   UNL     1      -7.461  12.219 -14.656  1.00  0.00    -0.200 F 
ATOM     79  F   UNL     1      -4.948  11.587 -15.512  1.00  0.00    -0.200 F 
ENDBRANCH  55  69
BRANCH  56  80
ATOM     80  C   UNL     1     -11.317   3.306  -6.670  1.00  0.00     0.064 A 
ATOM     81  C   UNL     1     -11.067   3.107  -5.297  1.00  0.00     0.173 A 
ATOM     82  C   UNL     1     -12.506   3.951  -7.024  1.00  0.00     0.173 A 
ATOM     83  F   UNL     1      -9.936   2.500  -4.900  1.00  0.00    -0.203 F 
ATOM     84  C   UNL     1     -11.908   3.640  -4.324  1.00  0.00     0.198 A 
ATOM     85  C   UNL     1     -13.360   4.461  -6.045  1.00  0.00     0.198 A 
ATOM     86  F   UNL     1     -12.790   4.198  -8.311  1.00  0.00    -0.203 F 
ATOM     87  F   UNL     1     -11.574   3.548  -3.029  1.00  0.00    -0.200 F 
ATOM     88  C   UNL     1     -13.042   4.339  -4.701  1.00  0.00     0.200 A 
ATOM     89  F   UNL     1     -14.441   5.165  -6.411  1.00  0.00    -0.200 F 
ATOM     90  F   UNL     1     -13.803   4.935  -3.773  1.00  0.00    -0.200 F 
ENDBRANCH  56  80
BRANCH  68  91
ATOM     91  C   UNL     1     -10.116   2.728 -13.775  1.00  0.00     0.064 A 
ATOM     92  C   UNL     1     -10.381   1.369 -14.010  1.00  0.00     0.173 A 
ATOM     93  C   UNL     1     -10.249   3.587 -14.888  1.00  0.00     0.173 A 
ATOM     94  F   UNL     1     -10.210   0.459 -13.040  1.00  0.00    -0.203 F 
ATOM     95  C   UNL     1     -10.809   0.910 -15.258  1.00  0.00     0.198 A 
ATOM     96  C   UNL     1     -10.626   3.118 -16.145  1.00  0.00     0.198 A 
ATOM     97  F   UNL     1     -10.041   4.907 -14.781  1.00  0.00    -0.203 F 
ATOM     98  F   UNL     1     -11.107  -0.386 -15.422  1.00  0.00    -0.200 F 
ATOM     99  C   UNL     1     -10.922   1.782 -16.326  1.00  0.00     0.200 A 
ATOM    100  F   UNL     1     -10.707   3.971 -17.175  1.00  0.00    -0.200 F 
ATOM    101  F   UNL     1     -11.316   1.337 -17.526  1.00  0.00    -0.200 F 
ENDBRANCH  68  91
ENDBRANCH  42  43
ENDBRANCH  34  37
ENDBRANCH  32  33
ENDBRANCH  31  32
ENDBRANCH   1  31
TORSDOF 16
