REMARK SMILES C[C@H](Oc1ccnc2c(F)cc(F)cc12)C(=O)NCCCCNC(=O)c1ccc(-c2c3nc(c(-c4c(F)c(F)c(F)c(F)c4F)c4ccc([nH]4)c(-c4c(F)c(F)c(F)c(F)c4F)c4nc(c(-c5c(F)c(F)c(F)c(F)c5F)c5ccc2[nH]5)C=C4)C=C3)cc1
REMARK SMILES IDX 20 1 19 2 18 3 16 4 17 5 2 7 1 8 3 9 4 10 5 11 15 12 6 13
REMARK SMILES IDX 8 14 14 15 7 16 9 17 12 18 10 19 11 20 13 21 21 22 22 23
REMARK SMILES IDX 23 24 24 25 25 27 26 28 27 29 88 30 28 31 87 32 29 33 30 34
REMARK SMILES IDX 31 35 81 36 32 37 86 38 80 39 82 40 33 41 85 42 79 43 78 44
REMARK SMILES IDX 34 46 66 47 46 48 65 49 47 50 50 51 64 52 83 53 48 54 49 55
REMARK SMILES IDX 63 57 84 58 51 59 35 60 36 61 44 62 37 63 38 64 42 65 45 66
REMARK SMILES IDX 39 67 40 68 43 69 41 70 67 71 68 72 76 73 69 74 70 75 74 76
REMARK SMILES IDX 77 77 71 78 72 79 75 80 73 81 52 82 53 83 61 84 54 85 55 86
REMARK SMILES IDX 59 87 62 88 56 89 57 90 60 91 58 92
REMARK H PARENT 18 6 23 26 82 45 50 56
REMARK Flexibility Score: inf
ROOT
ATOM      1  C   UNL     1      -1.224  -0.356  -2.622  1.00  0.00     0.023 C 
ENDROOT
BRANCH   1   2
ATOM      2  C   UNL     1      -0.719   0.982  -2.088  1.00  0.00     0.116 C 
BRANCH   2   3
ATOM      3  N   UNL     1      -1.404   1.399  -0.880  1.00  0.00    -0.353 N 
ATOM      4  C   UNL     1      -0.921   1.592   0.379  1.00  0.00     0.260 C 
ATOM      5  O   UNL     1      -1.714   1.961   1.250  1.00  0.00    -0.271 OA
ATOM      6  H   UNL     1      -2.368   1.568  -0.986  1.00  0.00     0.163 HD
BRANCH   4   7
ATOM      7  C   UNL     1       0.569   1.380   0.712  1.00  0.00     0.258 C 
ATOM      8  C   UNL     1       1.399   2.511   0.106  1.00  0.00     0.064 C 
BRANCH   7   9
ATOM      9  O   UNL     1       1.122   0.135   0.294  1.00  0.00    -0.480 OA
BRANCH   9  10
ATOM     10  C   UNL     1       0.603  -1.024   0.824  1.00  0.00     0.131 A 
ATOM     11  C   UNL     1      -0.209  -1.074   1.952  1.00  0.00     0.067 A 
ATOM     12  C   UNL     1       0.939  -2.223   0.153  1.00  0.00     0.048 A 
ATOM     13  C   UNL     1      -0.683  -2.304   2.358  1.00  0.00     0.115 A 
ATOM     14  C   UNL     1       0.399  -3.432   0.647  1.00  0.00     0.110 A 
ATOM     15  C   UNL     1       1.770  -2.255  -0.991  1.00  0.00     0.053 A 
ATOM     16  N   UNL     1      -0.401  -3.462   1.731  1.00  0.00    -0.253 NA
ATOM     17  C   UNL     1       0.714  -4.614  -0.030  1.00  0.00     0.152 A 
ATOM     18  C   UNL     1       2.051  -3.456  -1.629  1.00  0.00     0.127 A 
ATOM     19  F   UNL     1       0.215  -5.783   0.405  1.00  0.00    -0.204 F 
ATOM     20  C   UNL     1       1.528  -4.643  -1.159  1.00  0.00     0.080 A 
ATOM     21  F   UNL     1       2.832  -3.460  -2.716  1.00  0.00    -0.207 F 
ENDBRANCH   9  10
ENDBRANCH   7   9
ENDBRANCH   4   7
ENDBRANCH   2   3
ENDBRANCH   1   2
BRANCH   1  22
ATOM     22  C   UNL     1      -2.724  -0.426  -2.910  1.00  0.00     0.023 C 
BRANCH  22  23
ATOM     23  C   UNL     1      -3.282   0.711  -3.758  1.00  0.00     0.116 C 
BRANCH  23  24
ATOM     24  N   UNL     1      -2.681   0.778  -5.080  1.00  0.00    -0.352 N 
ATOM     25  C   UNL     1      -3.297   0.753  -6.307  1.00  0.00     0.251 C 
ATOM     26  H   UNL     1      -1.700   0.851  -5.098  1.00  0.00     0.163 HD
ATOM     27  O   UNL     1      -2.638   0.698  -7.339  1.00  0.00    -0.269 OA
BRANCH  25  28
ATOM     28  C   UNL     1      -4.771   0.762  -6.373  1.00  0.00     0.039 A 
ATOM     29  C   UNL     1      -5.420  -0.240  -7.099  1.00  0.00     0.014 A 
ATOM     30  C   UNL     1      -5.505   1.740  -5.696  1.00  0.00     0.014 A 
ATOM     31  C   UNL     1      -6.813  -0.299  -7.094  1.00  0.00     0.010 A 
ATOM     32  C   UNL     1      -6.893   1.648  -5.647  1.00  0.00     0.010 A 
ATOM     33  C   UNL     1      -7.556   0.628  -6.347  1.00  0.00    -0.014 A 
BRANCH  33  34
ATOM     34  C   UNL     1      -9.036   0.565  -6.308  1.00  0.00     0.031 A 
ATOM     35  C   UNL     1      -9.842   1.625  -7.000  1.00  0.00     0.074 A 
ATOM     36  C   UNL     1      -9.648  -0.415  -5.618  1.00  0.00     0.049 A 
ATOM     37  N   UNL     1     -11.140   1.777  -7.048  1.00  0.00    -0.248 NA
ATOM     38  C   UNL     1      -9.086   2.662  -7.720  1.00  0.00     0.031 C 
ATOM     39  C   UNL     1      -8.969  -1.483  -4.885  1.00  0.00     0.029 A 
ATOM     40  N   UNL     1     -10.982  -0.666  -5.416  1.00  0.00    -0.354 N 
ATOM     41  C   UNL     1     -11.356   2.921  -7.801  1.00  0.00     0.074 A 
ATOM     42  C   UNL     1     -10.057   3.457  -8.144  1.00  0.00     0.031 C 
ATOM     43  C   UNL     1      -9.891  -2.287  -4.329  1.00  0.00     0.029 A 
ATOM     44  C   UNL     1     -11.223  -1.775  -4.644  1.00  0.00     0.049 A 
ATOM     45  H   UNL     1     -11.699  -0.103  -5.790  1.00  0.00     0.167 HD
ATOM     46  C   UNL     1     -12.533   3.461  -8.195  1.00  0.00     0.037 A 
ATOM     47  C   UNL     1     -12.387  -2.315  -4.237  1.00  0.00     0.037 A 
ATOM     48  C   UNL     1     -13.823   2.918  -7.865  1.00  0.00     0.049 A 
ATOM     49  C   UNL     1     -13.682  -1.674  -4.657  1.00  0.00     0.074 A 
ATOM     50  C   UNL     1     -15.072   3.370  -8.250  1.00  0.00     0.029 A 
ATOM     51  N   UNL     1     -14.027   1.802  -7.068  1.00  0.00    -0.354 N 
ATOM     52  N   UNL     1     -13.876  -0.620  -5.411  1.00  0.00    -0.248 NA
ATOM     53  C   UNL     1     -14.921  -2.299  -4.170  1.00  0.00     0.031 C 
ATOM     54  C   UNL     1     -16.035   2.547  -7.657  1.00  0.00     0.029 A 
ATOM     55  C   UNL     1     -15.384   1.560  -6.934  1.00  0.00     0.049 A 
ATOM     56  H   UNL     1     -13.313   1.261  -6.659  1.00  0.00     0.167 HD
ATOM     57  C   UNL     1     -15.252  -0.467  -5.508  1.00  0.00     0.074 A 
ATOM     58  C   UNL     1     -15.848  -1.543  -4.743  1.00  0.00     0.031 C 
ATOM     59  C   UNL     1     -15.958   0.481  -6.172  1.00  0.00     0.037 A 
BRANCH  46  60
ATOM     60  C   UNL     1     -12.476   4.696  -9.042  1.00  0.00     0.064 A 
ATOM     61  C   UNL     1     -12.064   4.641 -10.382  1.00  0.00     0.173 A 
ATOM     62  C   UNL     1     -12.872   5.937  -8.524  1.00  0.00     0.173 A 
ATOM     63  F   UNL     1     -11.662   3.478 -10.917  1.00  0.00    -0.203 F 
ATOM     64  C   UNL     1     -12.030   5.789 -11.167  1.00  0.00     0.198 A 
ATOM     65  C   UNL     1     -12.860   7.080  -9.320  1.00  0.00     0.198 A 
ATOM     66  F   UNL     1     -13.276   6.042  -7.250  1.00  0.00    -0.203 F 
ATOM     67  F   UNL     1     -11.595   5.720 -12.433  1.00  0.00    -0.200 F 
ATOM     68  C   UNL     1     -12.435   7.005 -10.639  1.00  0.00     0.200 A 
ATOM     69  F   UNL     1     -13.260   8.253  -8.812  1.00  0.00    -0.200 F 
ATOM     70  F   UNL     1     -12.409   8.109 -11.399  1.00  0.00    -0.200 F 
ENDBRANCH  46  60
BRANCH  47  71
ATOM     71  C   UNL     1     -12.380  -3.552  -3.417  1.00  0.00     0.064 A 
ATOM     72  C   UNL     1     -12.772  -4.778  -3.971  1.00  0.00     0.173 A 
ATOM     73  C   UNL     1     -11.969  -3.540  -2.077  1.00  0.00     0.173 A 
ATOM     74  F   UNL     1     -13.193  -4.833  -5.243  1.00  0.00    -0.203 F 
ATOM     75  C   UNL     1     -12.761  -5.946  -3.212  1.00  0.00     0.198 A 
ATOM     76  C   UNL     1     -11.938  -4.713  -1.325  1.00  0.00     0.198 A 
ATOM     77  F   UNL     1     -11.583  -2.391  -1.502  1.00  0.00    -0.203 F 
ATOM     78  F   UNL     1     -13.169  -7.100  -3.757  1.00  0.00    -0.200 F 
ATOM     79  C   UNL     1     -12.338  -5.914  -1.891  1.00  0.00     0.200 A 
ATOM     80  F   UNL     1     -11.521  -4.680  -0.052  1.00  0.00    -0.200 F 
ATOM     81  F   UNL     1     -12.321  -7.039  -1.164  1.00  0.00    -0.200 F 
ENDBRANCH  47  71
BRANCH  59  82
ATOM     82  C   UNL     1     -17.453   0.395  -6.120  1.00  0.00     0.064 A 
ATOM     83  C   UNL     1     -18.166   0.768  -4.972  1.00  0.00     0.173 A 
ATOM     84  C   UNL     1     -18.183   0.011  -7.256  1.00  0.00     0.173 A 
ATOM     85  F   UNL     1     -17.512   1.129  -3.859  1.00  0.00    -0.203 F 
ATOM     86  C   UNL     1     -19.558   0.752  -4.961  1.00  0.00     0.198 A 
ATOM     87  C   UNL     1     -19.574   0.020  -7.248  1.00  0.00     0.198 A 
ATOM     88  F   UNL     1     -17.545  -0.348  -8.380  1.00  0.00    -0.203 F 
ATOM     89  F   UNL     1     -20.221   1.088  -3.845  1.00  0.00    -0.200 F 
ATOM     90  C   UNL     1     -20.261   0.388  -6.101  1.00  0.00     0.200 A 
ATOM     91  F   UNL     1     -20.252  -0.319  -8.354  1.00  0.00    -0.200 F 
ATOM     92  F   UNL     1     -21.601   0.391  -6.092  1.00  0.00    -0.200 F 
ENDBRANCH  59  82
ENDBRANCH  33  34
ENDBRANCH  25  28
ENDBRANCH  23  24
ENDBRANCH  22  23
ENDBRANCH   1  22
TORSDOF 13
