REMARK SMILES O=C(NCCCCNC(=O)[C@@H]1CCN(C(=O)c2c(F)cc(Br)cc2F)C1)c1ccc(-c2c3nc(c(-c4c(F)c(F)c(F)c(F)c4F)c4ccc([nH]4)c(-c4c(F)c(F)c(F)c(F)c4F)c4nc(c(-c5c(F)c(F)c(F)c(F)c5F)c5ccc2[nH]5)C=C4)C=C3)cc1
REMARK SMILES IDX 5 1 4 2 3 3 1 4 2 5 27 7 28 8 89 9 29 10 88 11 30 12 31 13
REMARK SMILES IDX 32 14 82 15 33 16 87 17 81 18 83 19 34 20 86 21 80 22 79 23
REMARK SMILES IDX 35 25 67 26 47 27 66 28 48 29 51 30 65 31 84 32 49 33 50 34
REMARK SMILES IDX 64 36 85 37 52 38 36 39 37 40 45 41 38 42 39 43 43 44 46 45
REMARK SMILES IDX 40 46 41 47 44 48 42 49 68 50 69 51 77 52 70 53 71 54 75 55
REMARK SMILES IDX 78 56 72 57 73 58 76 59 74 60 53 61 54 62 62 63 55 64 56 65
REMARK SMILES IDX 60 66 63 67 57 68 58 69 61 70 59 71 6 72 7 73 8 74 9 75
REMARK SMILES IDX 10 77 11 78 12 79 26 80 13 81 14 82 15 83 16 84 17 85 18 86
REMARK SMILES IDX 24 87 19 88 20 89 23 90 25 91 21 92 22 93
REMARK H PARENT 3 6 83 24 51 35 8 76
REMARK Flexibility Score: inf
ROOT
ATOM      1  C   UNL     1       4.745  -2.650  -0.639  1.00  0.00     0.023 C 
ENDROOT
BRANCH   1   2
ATOM      2  C   UNL     1       4.473  -1.156  -0.733  1.00  0.00     0.116 C 
BRANCH   2   3
ATOM      3  N   UNL     1       3.055  -0.837  -0.823  1.00  0.00    -0.352 N 
ATOM      4  O   UNL     1       1.098   0.115  -0.224  1.00  0.00    -0.269 OA
ATOM      5  C   UNL     1       2.317   0.067  -0.095  1.00  0.00     0.251 C 
ATOM      6  H   UNL     1       2.552  -1.340  -1.503  1.00  0.00     0.163 HD
BRANCH   5   7
ATOM      7  C   UNL     1       2.995   0.953   0.875  1.00  0.00     0.039 A 
ATOM      8  C   UNL     1       4.188   1.593   0.540  1.00  0.00     0.014 A 
ATOM      9  C   UNL     1       2.444   1.116   2.150  1.00  0.00     0.014 A 
ATOM     10  C   UNL     1       4.922   2.238   1.526  1.00  0.00     0.010 A 
ATOM     11  C   UNL     1       3.138   1.850   3.116  1.00  0.00     0.010 A 
ATOM     12  C   UNL     1       4.407   2.373   2.827  1.00  0.00    -0.014 A 
BRANCH  12  13
ATOM     13  C   UNL     1       5.220   3.077   3.852  1.00  0.00     0.031 A 
ATOM     14  C   UNL     1       5.745   2.351   5.061  1.00  0.00     0.074 A 
ATOM     15  C   UNL     1       5.534   4.371   3.653  1.00  0.00     0.049 A 
ATOM     16  N   UNL     1       6.522   2.796   6.017  1.00  0.00    -0.248 NA
ATOM     17  C   UNL     1       5.342   0.946   5.226  1.00  0.00     0.031 C 
ATOM     18  C   UNL     1       5.073   5.184   2.526  1.00  0.00     0.029 A 
ATOM     19  N   UNL     1       6.338   5.221   4.369  1.00  0.00    -0.354 N 
ATOM     20  C   UNL     1       6.676   1.742   6.908  1.00  0.00     0.074 A 
ATOM     21  C   UNL     1       5.896   0.637   6.391  1.00  0.00     0.031 C 
ATOM     22  C   UNL     1       5.650   6.392   2.590  1.00  0.00     0.029 A 
ATOM     23  C   UNL     1       6.476   6.458   3.791  1.00  0.00     0.049 A 
ATOM     24  H   UNL     1       6.774   4.968   5.215  1.00  0.00     0.167 HD
ATOM     25  C   UNL     1       7.407   1.698   8.048  1.00  0.00     0.037 A 
ATOM     26  C   UNL     1       7.188   7.530   4.183  1.00  0.00     0.037 A 
ATOM     27  C   UNL     1       8.211   2.787   8.541  1.00  0.00     0.049 A 
ATOM     28  C   UNL     1       8.001   7.446   5.442  1.00  0.00     0.074 A 
ATOM     29  C   UNL     1       9.022   2.823   9.663  1.00  0.00     0.029 A 
ATOM     30  N   UNL     1       8.308   4.032   7.939  1.00  0.00    -0.354 N 
ATOM     31  N   UNL     1       8.163   6.432   6.256  1.00  0.00    -0.248 NA
ATOM     32  C   UNL     1       8.729   8.659   5.838  1.00  0.00     0.031 C 
ATOM     33  C   UNL     1       9.580   4.103   9.760  1.00  0.00     0.029 A 
ATOM     34  C   UNL     1       9.152   4.850   8.675  1.00  0.00     0.049 A 
ATOM     35  H   UNL     1       7.846   4.297   7.111  1.00  0.00     0.167 HD
ATOM     36  C   UNL     1       9.024   6.875   7.248  1.00  0.00     0.074 A 
ATOM     37  C   UNL     1       9.366   8.245   6.924  1.00  0.00     0.031 C 
ATOM     38  C   UNL     1       9.486   6.208   8.334  1.00  0.00     0.037 A 
BRANCH  25  39
ATOM     39  C   UNL     1       7.363   0.434   8.857  1.00  0.00     0.064 A 
ATOM     40  C   UNL     1       8.013  -0.736   8.438  1.00  0.00     0.173 A 
ATOM     41  C   UNL     1       6.699   0.409  10.094  1.00  0.00     0.173 A 
ATOM     42  F   UNL     1       8.650  -0.769   7.259  1.00  0.00    -0.203 F 
ATOM     43  C   UNL     1       7.982  -1.891   9.218  1.00  0.00     0.198 A 
ATOM     44  C   UNL     1       6.693  -0.739  10.882  1.00  0.00     0.198 A 
ATOM     45  F   UNL     1       6.067   1.503  10.544  1.00  0.00    -0.203 F 
ATOM     46  F   UNL     1       8.577  -3.009   8.779  1.00  0.00    -0.200 F 
ATOM     47  C   UNL     1       7.329  -1.889  10.441  1.00  0.00     0.200 A 
ATOM     48  F   UNL     1       6.070  -0.732  12.069  1.00  0.00    -0.200 F 
ATOM     49  F   UNL     1       7.307  -2.999  11.193  1.00  0.00    -0.200 F 
ENDBRANCH  25  39
BRANCH  26  50
ATOM     50  C   UNL     1       7.175   8.764   3.358  1.00  0.00     0.064 A 
ATOM     51  C   UNL     1       8.312   9.164   2.645  1.00  0.00     0.173 A 
ATOM     52  C   UNL     1       6.022   9.556   3.252  1.00  0.00     0.173 A 
ATOM     53  F   UNL     1       9.443   8.447   2.730  1.00  0.00    -0.203 F 
ATOM     54  C   UNL     1       8.302  10.318   1.865  1.00  0.00     0.198 A 
ATOM     55  C   UNL     1       6.004  10.694   2.450  1.00  0.00     0.198 A 
ATOM     56  F   UNL     1       4.907   9.210   3.910  1.00  0.00    -0.203 F 
ATOM     57  F   UNL     1       9.414  10.699   1.222  1.00  0.00    -0.200 F 
ATOM     58  C   UNL     1       7.146  11.078   1.762  1.00  0.00     0.200 A 
ATOM     59  F   UNL     1       4.881  11.415   2.340  1.00  0.00    -0.200 F 
ATOM     60  F   UNL     1       7.133  12.183   1.005  1.00  0.00    -0.200 F 
ENDBRANCH  26  50
BRANCH  38  61
ATOM     61  C   UNL     1      10.438   6.944   9.229  1.00  0.00     0.064 A 
ATOM     62  C   UNL     1      10.002   7.974  10.076  1.00  0.00     0.173 A 
ATOM     63  C   UNL     1      11.799   6.605   9.249  1.00  0.00     0.173 A 
ATOM     64  F   UNL     1       8.713   8.346  10.078  1.00  0.00    -0.203 F 
ATOM     65  C   UNL     1      10.901   8.657  10.890  1.00  0.00     0.198 A 
ATOM     66  C   UNL     1      12.690   7.272  10.085  1.00  0.00     0.198 A 
ATOM     67  F   UNL     1      12.263   5.624   8.461  1.00  0.00    -0.203 F 
ATOM     68  F   UNL     1      10.473   9.671  11.654  1.00  0.00    -0.200 F 
ATOM     69  C   UNL     1      12.242   8.302  10.898  1.00  0.00     0.200 A 
ATOM     70  F   UNL     1      13.983   6.922  10.098  1.00  0.00    -0.200 F 
ATOM     71  F   UNL     1      13.106   8.961  11.682  1.00  0.00    -0.200 F 
ENDBRANCH  38  61
ENDBRANCH  12  13
ENDBRANCH   5   7
ENDBRANCH   2   3
ENDBRANCH   1   2
BRANCH   1  72
ATOM     72  C   UNL     1       4.241  -3.471  -1.823  1.00  0.00     0.023 C 
BRANCH  72  73
ATOM     73  C   UNL     1       4.801  -3.057  -3.185  1.00  0.00     0.116 C 
BRANCH  73  74
ATOM     74  N   UNL     1       6.246  -3.200  -3.268  1.00  0.00    -0.356 N 
ATOM     75  C   UNL     1       6.991  -4.093  -3.992  1.00  0.00     0.224 C 
ATOM     76  H   UNL     1       6.763  -2.563  -2.726  1.00  0.00     0.163 HD
ATOM     77  O   UNL     1       8.215  -3.999  -3.943  1.00  0.00    -0.275 OA
BRANCH  75  78
ATOM     78  C   UNL     1       6.266  -5.156  -4.801  1.00  0.00     0.099 C 
ATOM     79  C   UNL     1       5.632  -6.199  -3.871  1.00  0.00     0.037 C 
ATOM     80  C   UNL     1       7.179  -5.982  -5.721  1.00  0.00     0.133 C 
ATOM     81  C   UNL     1       6.667  -7.303  -3.815  1.00  0.00     0.120 C 
ATOM     82  N   UNL     1       7.147  -7.334  -5.177  1.00  0.00    -0.338 N 
BRANCH  82  83
ATOM     83  C   UNL     1       7.483  -8.429  -5.947  1.00  0.00     0.259 C 
ATOM     84  O   UNL     1       7.912  -8.347  -7.094  1.00  0.00    -0.269 OA
BRANCH  83  85
ATOM     85  C   UNL     1       7.284  -9.768  -5.381  1.00  0.00     0.111 A 
ATOM     86  C   UNL     1       6.004 -10.231  -5.080  1.00  0.00     0.140 A 
ATOM     87  C   UNL     1       8.376 -10.604  -5.181  1.00  0.00     0.140 A 
ATOM     88  F   UNL     1       4.929  -9.454  -5.276  1.00  0.00    -0.206 F 
ATOM     89  C   UNL     1       5.815 -11.498  -4.534  1.00  0.00     0.056 A 
ATOM     90  C   UNL     1       8.203 -11.880  -4.648  1.00  0.00     0.056 A 
ATOM     91  F   UNL     1       9.620 -10.193  -5.465  1.00  0.00    -0.206 F 
ATOM     92  C   UNL     1       6.921 -12.318  -4.319  1.00  0.00     0.023 A 
ATOM     93  Br  UNL     1       6.679 -14.034  -3.568  1.00  0.00    -0.051 Br
ENDBRANCH  83  85
ENDBRANCH  82  83
ENDBRANCH  75  78
ENDBRANCH  73  74
ENDBRANCH  72  73
ENDBRANCH   1  72
TORSDOF 13
