REMARK SMILES O=C(Cn1c(O)c(/N=N/C(=O)c2ccc(Cl)cc2Cl)c2ccccc21)NCCCCNC(=O)c1ccc(-c2c3nc(c(-c4c(F)c(F)c(F)c(F)c4F)c4ccc([nH]4)c(-c4c(F)c(F)c(F)c(F)c4F)c4nc(c(-c5c(F)c(F)c(F)c(F)c5F)c5ccc2[nH]5)C=C4)C=C3)cc1
REMARK SMILES IDX 27 1 26 2 1 3 2 4 3 6 4 7 5 8 25 9 7 10 20 11 24 12 21 13
REMARK SMILES IDX 23 14 22 15 6 16 8 18 9 19 10 20 11 21 12 22 13 23 18 24
REMARK SMILES IDX 14 25 17 26 19 27 15 28 16 29 28 30 29 31 30 32 31 33 32 34
REMARK SMILES IDX 33 36 34 37 35 38 96 39 36 40 95 41 37 42 38 43 39 44 89 45
REMARK SMILES IDX 40 46 94 47 88 48 90 49 41 50 93 51 87 52 86 53 42 55 74 56
REMARK SMILES IDX 54 57 73 58 55 59 58 60 72 61 91 62 56 63 57 64 71 66 92 67
REMARK SMILES IDX 59 68 43 69 44 70 52 71 45 72 46 73 50 74 53 75 47 76 48 77
REMARK SMILES IDX 51 78 49 79 75 80 76 81 84 82 77 83 78 84 82 85 85 86 79 87
REMARK SMILES IDX 80 88 83 89 81 90 60 91 61 92 69 93 62 94 63 95 67 96 70 97
REMARK SMILES IDX 64 98 65 99 68 100 66 101
REMARK H PARENT 26 5 6 17 31 35 90 54 58 65
REMARK Flexibility Score: inf
ROOT
ATOM      1  C   UNL     1       2.378  -0.061  -2.481  1.00  0.00     0.116 C 
ENDROOT
BRANCH   1   2
ATOM      2  N   UNL     1       3.000  -0.085  -1.168  1.00  0.00    -0.355 N 
ATOM      3  O   UNL     1       1.036   0.071   0.014  1.00  0.00    -0.273 OA
ATOM      4  C   UNL     1       2.259  -0.057  -0.003  1.00  0.00     0.240 C 
ATOM      5  H   UNL     1       3.982  -0.123  -1.107  1.00  0.00     0.163 HD
BRANCH   4   6
ATOM      6  C   UNL     1       3.054  -0.094   1.287  1.00  0.00     0.225 C 
BRANCH   6   7
ATOM      7  N   UNL     1       3.978  -1.218   1.377  1.00  0.00    -0.301 N 
ATOM      8  C   UNL     1       5.357  -1.140   1.455  1.00  0.00     0.221 A 
ATOM      9  C   UNL     1       3.571  -2.545   1.389  1.00  0.00     0.054 A 
ATOM     10  C   UNL     1       5.827  -2.440   1.510  1.00  0.00     0.155 A 
ATOM     11  C   UNL     1       4.723  -3.331   1.466  1.00  0.00     0.031 A 
ATOM     12  C   UNL     1       2.288  -3.119   1.327  1.00  0.00     0.027 A 
ATOM     13  C   UNL     1       4.592  -4.737   1.486  1.00  0.00     0.013 A 
ATOM     14  C   UNL     1       2.186  -4.513   1.336  1.00  0.00     0.002 A 
ATOM     15  C   UNL     1       3.321  -5.314   1.415  1.00  0.00     0.001 A 
BRANCH   8  16
ATOM     16  O   UNL     1       6.031   0.011   1.441  1.00  0.00    -0.493 OA
ATOM     17  H   UNL     1       5.568   0.824   1.401  1.00  0.00     0.295 HD
ENDBRANCH   8  16
BRANCH  10  18
ATOM     18  N   UNL     1       7.151  -2.905   1.599  1.00  0.00    -0.141 NA
ATOM     19  N   UNL     1       7.993  -2.012   1.813  1.00  0.00    -0.106 NA
BRANCH  19  20
ATOM     20  C   UNL     1       9.276  -2.512   1.915  1.00  0.00     0.296 C 
ATOM     21  O   UNL     1       9.603  -3.682   2.054  1.00  0.00    -0.265 OA
BRANCH  20  22
ATOM     22  C   UNL     1      10.324  -1.454   1.910  1.00  0.00     0.062 A 
ATOM     23  C   UNL     1      10.104  -0.292   2.673  1.00  0.00     0.017 A 
ATOM     24  C   UNL     1      11.511  -1.585   1.177  1.00  0.00     0.055 A 
ATOM     25  C   UNL     1      11.061   0.724   2.701  1.00  0.00     0.021 A 
ATOM     26  C   UNL     1      12.467  -0.561   1.210  1.00  0.00     0.041 A 
ATOM     27  Cl  UNL     1      11.845  -2.933   0.151  1.00  0.00    -0.083 Cl
ATOM     28  C   UNL     1      12.238   0.585   1.969  1.00  0.00     0.042 A 
ATOM     29  Cl  UNL     1      13.409   1.843   1.991  1.00  0.00    -0.084 Cl
ENDBRANCH  20  22
ENDBRANCH  19  20
ENDBRANCH  10  18
ENDBRANCH   6   7
ENDBRANCH   4   6
ENDBRANCH   1   2
BRANCH   1  30
ATOM     30  C   UNL     1       2.788   1.156  -3.312  1.00  0.00     0.023 C 
BRANCH  30  31
ATOM     31  C   UNL     1       4.276   1.248  -3.687  1.00  0.00     0.023 C 
BRANCH  31  32
ATOM     32  C   UNL     1       4.837   0.067  -4.483  1.00  0.00     0.116 C 
BRANCH  32  33
ATOM     33  N   UNL     1       4.110  -0.214  -5.704  1.00  0.00    -0.352 N 
ATOM     34  C   UNL     1       4.303   0.003  -7.040  1.00  0.00     0.251 C 
ATOM     35  H   UNL     1       3.261  -0.680  -5.527  1.00  0.00     0.163 HD
ATOM     36  O   UNL     1       3.538  -0.618  -7.786  1.00  0.00    -0.269 OA
BRANCH  34  37
ATOM     37  C   UNL     1       5.277   0.944  -7.664  1.00  0.00     0.039 A 
ATOM     38  C   UNL     1       6.167   1.779  -6.993  1.00  0.00     0.014 A 
ATOM     39  C   UNL     1       5.207   1.045  -9.072  1.00  0.00     0.014 A 
ATOM     40  C   UNL     1       6.891   2.744  -7.706  1.00  0.00     0.010 A 
ATOM     41  C   UNL     1       5.928   2.002  -9.784  1.00  0.00     0.010 A 
ATOM     42  C   UNL     1       6.736   2.894  -9.097  1.00  0.00    -0.014 A 
BRANCH  42  43
ATOM     43  C   UNL     1       7.522   3.925  -9.790  1.00  0.00     0.031 A 
ATOM     44  C   UNL     1       8.991   3.825  -9.552  1.00  0.00     0.074 A 
ATOM     45  C   UNL     1       7.040   4.872 -10.629  1.00  0.00     0.049 A 
ATOM     46  N   UNL     1       9.731   4.644  -8.879  1.00  0.00    -0.248 NA
ATOM     47  C   UNL     1       9.693   2.614 -10.000  1.00  0.00     0.031 C 
ATOM     48  C   UNL     1       5.697   4.993 -11.201  1.00  0.00     0.029 A 
ATOM     49  N   UNL     1       7.699   5.933 -11.196  1.00  0.00    -0.354 N 
ATOM     50  C   UNL     1      11.028   4.143  -8.945  1.00  0.00     0.074 A 
ATOM     51  C   UNL     1      10.928   2.836  -9.541  1.00  0.00     0.031 C 
ATOM     52  C   UNL     1       5.698   5.930 -12.181  1.00  0.00     0.029 A 
ATOM     53  C   UNL     1       6.993   6.589 -12.203  1.00  0.00     0.049 A 
ATOM     54  H   UNL     1       8.600   6.210 -10.914  1.00  0.00     0.167 HD
ATOM     55  C   UNL     1      12.101   4.937  -8.676  1.00  0.00     0.037 A 
ATOM     56  C   UNL     1       7.438   7.597 -13.001  1.00  0.00     0.037 A 
ATOM     57  C   UNL     1      11.706   6.115  -7.950  1.00  0.00     0.049 A 
ATOM     58  C   UNL     1       8.571   8.244 -12.302  1.00  0.00     0.074 A 
ATOM     59  C   UNL     1      11.152   6.361  -6.710  1.00  0.00     0.029 A 
ATOM     60  N   UNL     1      11.551   7.273  -8.667  1.00  0.00    -0.354 N 
ATOM     61  N   UNL     1       8.452   8.942 -11.209  1.00  0.00    -0.248 NA
ATOM     62  C   UNL     1       9.908   7.761 -12.601  1.00  0.00     0.031 C 
ATOM     63  C   UNL     1      10.280   7.472  -6.909  1.00  0.00     0.029 A 
ATOM     64  C   UNL     1      10.400   7.877  -8.239  1.00  0.00     0.049 A 
ATOM     65  H   UNL     1      12.159   7.610  -9.364  1.00  0.00     0.167 HD
ATOM     66  C   UNL     1       9.570   8.607 -10.466  1.00  0.00     0.074 A 
ATOM     67  C   UNL     1      10.475   7.953 -11.408  1.00  0.00     0.031 C 
ATOM     68  C   UNL     1       9.536   8.644  -9.104  1.00  0.00     0.037 A 
BRANCH  55  69
ATOM     69  C   UNL     1      13.431   4.859  -9.387  1.00  0.00     0.064 A 
ATOM     70  C   UNL     1      14.490   5.686  -8.955  1.00  0.00     0.173 A 
ATOM     71  C   UNL     1      13.599   4.270 -10.657  1.00  0.00     0.173 A 
ATOM     72  F   UNL     1      14.430   6.312  -7.769  1.00  0.00    -0.203 F 
ATOM     73  C   UNL     1      15.586   5.972  -9.773  1.00  0.00     0.198 A 
ATOM     74  C   UNL     1      14.718   4.520 -11.451  1.00  0.00     0.198 A 
ATOM     75  F   UNL     1      12.643   3.530 -11.230  1.00  0.00    -0.203 F 
ATOM     76  F   UNL     1      16.498   6.869  -9.375  1.00  0.00    -0.200 F 
ATOM     77  C   UNL     1      15.694   5.396 -11.025  1.00  0.00     0.200 A 
ATOM     78  F   UNL     1      14.794   3.970 -12.671  1.00  0.00    -0.200 F 
ATOM     79  F   UNL     1      16.705   5.722 -11.840  1.00  0.00    -0.200 F 
ENDBRANCH  55  69
BRANCH  56  80
ATOM     80  C   UNL     1       7.186   7.847 -14.446  1.00  0.00     0.064 A 
ATOM     81  C   UNL     1       7.529   9.073 -15.048  1.00  0.00     0.173 A 
ATOM     82  C   UNL     1       6.914   6.781 -15.323  1.00  0.00     0.173 A 
ATOM     83  F   UNL     1       7.853  10.131 -14.290  1.00  0.00    -0.203 F 
ATOM     84  C   UNL     1       7.628   9.212 -16.439  1.00  0.00     0.198 A 
ATOM     85  C   UNL     1       7.011   6.921 -16.710  1.00  0.00     0.198 A 
ATOM     86  F   UNL     1       6.651   5.556 -14.847  1.00  0.00    -0.203 F 
ATOM     87  F   UNL     1       8.027  10.376 -16.971  1.00  0.00    -0.200 F 
ATOM     88  C   UNL     1       7.383   8.130 -17.268  1.00  0.00     0.200 A 
ATOM     89  F   UNL     1       6.813   5.856 -17.500  1.00  0.00    -0.200 F 
ATOM     90  F   UNL     1       7.547   8.240 -18.594  1.00  0.00    -0.200 F 
ENDBRANCH  56  80
BRANCH  68  91
ATOM     91  C   UNL     1       8.384   9.343  -8.441  1.00  0.00     0.064 A 
ATOM     92  C   UNL     1       7.050   8.904  -8.504  1.00  0.00     0.173 A 
ATOM     93  C   UNL     1       8.682  10.389  -7.557  1.00  0.00     0.173 A 
ATOM     94  F   UNL     1       6.700   7.859  -9.264  1.00  0.00    -0.203 F 
ATOM     95  C   UNL     1       6.062   9.499  -7.719  1.00  0.00     0.198 A 
ATOM     96  C   UNL     1       7.702  10.954  -6.750  1.00  0.00     0.198 A 
ATOM     97  F   UNL     1       9.948  10.817  -7.427  1.00  0.00    -0.203 F 
ATOM     98  F   UNL     1       4.796   9.059  -7.784  1.00  0.00    -0.200 F 
ATOM     99  C   UNL     1       6.392  10.511  -6.832  1.00  0.00     0.200 A 
ATOM    100  F   UNL     1       8.036  11.899  -5.859  1.00  0.00    -0.200 F 
ATOM    101  F   UNL     1       5.454  11.039  -6.032  1.00  0.00    -0.200 F 
ENDBRANCH  68  91
ENDBRANCH  42  43
ENDBRANCH  34  37
ENDBRANCH  32  33
ENDBRANCH  31  32
ENDBRANCH  30  31
ENDBRANCH   1  30
TORSDOF 16
