REMARK SMILES O=C(NCCCCNC(=O)[C@@H]1[C@H](C(=O)Nc2ccccc2OC(F)F)[C@@H]2C=C[C@H]1C2)c1ccc(-c2c3nc(c(-c4c(F)c(F)c(F)c(F)c4F)c4ccc([nH]4)c(-c4c(F)c(F)c(F)c(F)c4F)c4nc(c(-c5c(F)c(F)c(F)c(F)c5F)c5ccc2[nH]5)C=C4)C=C3)cc1
REMARK SMILES IDX 6 1 5 2 4 3 3 4 1 5 2 6 31 8 32 9 93 10 33 11 92 12 34 13
REMARK SMILES IDX 35 14 36 15 86 16 37 17 91 18 85 19 87 20 38 21 90 22 84 23
REMARK SMILES IDX 83 24 39 26 71 27 51 28 70 29 52 30 55 31 69 32 88 33 53 34
REMARK SMILES IDX 54 35 68 37 89 38 56 39 40 40 41 41 49 42 42 43 43 44 47 45
REMARK SMILES IDX 50 46 44 47 45 48 48 49 46 50 72 51 73 52 81 53 74 54 75 55
REMARK SMILES IDX 79 56 82 57 76 58 77 59 80 60 78 61 57 62 58 63 66 64 59 65
REMARK SMILES IDX 60 66 64 67 67 68 61 69 62 70 65 71 63 72 7 73 8 74 9 75
REMARK SMILES IDX 10 77 11 78 12 79 29 80 26 81 28 82 30 83 27 84 13 85 14 86
REMARK SMILES IDX 15 87 16 89 17 90 21 91 18 92 20 93 19 94 22 95 23 96 24 97
REMARK SMILES IDX 25 98
REMARK H PARENT 3 7 87 25 55 36 8 76 15 88
REMARK Flexibility Score: inf
ROOT
ATOM      1  C   UNL     1       3.775  -2.363   2.763  1.00  0.00     0.023 C 
ENDROOT
BRANCH   1   2
ATOM      2  C   UNL     1       3.956  -1.179   1.800  1.00  0.00     0.023 C 
BRANCH   2   3
ATOM      3  C   UNL     1       3.683  -1.378   0.313  1.00  0.00     0.116 C 
BRANCH   3   4
ATOM      4  N   UNL     1       2.309  -1.077  -0.040  1.00  0.00    -0.352 N 
ATOM      5  O   UNL     1       0.522   0.182  -0.550  1.00  0.00    -0.269 OA
ATOM      6  C   UNL     1       1.739   0.080  -0.525  1.00  0.00     0.251 C 
ATOM      7  H   UNL     1       1.679  -1.823   0.087  1.00  0.00     0.163 HD
BRANCH   6   8
ATOM      8  C   UNL     1       2.570   1.216  -1.004  1.00  0.00     0.039 A 
ATOM      9  C   UNL     1       3.691   1.027  -1.816  1.00  0.00     0.014 A 
ATOM     10  C   UNL     1       2.145   2.519  -0.718  1.00  0.00     0.014 A 
ATOM     11  C   UNL     1       4.446   2.123  -2.241  1.00  0.00     0.010 A 
ATOM     12  C   UNL     1       2.853   3.619  -1.215  1.00  0.00     0.010 A 
ATOM     13  C   UNL     1       4.020   3.432  -1.972  1.00  0.00    -0.014 A 
BRANCH  13  14
ATOM     14  C   UNL     1       4.734   4.601  -2.556  1.00  0.00     0.031 A 
ATOM     15  C   UNL     1       5.356   5.647  -1.675  1.00  0.00     0.074 A 
ATOM     16  C   UNL     1       4.774   4.745  -3.895  1.00  0.00     0.049 A 
ATOM     17  N   UNL     1       5.896   6.795  -2.002  1.00  0.00    -0.248 NA
ATOM     18  C   UNL     1       5.363   5.373  -0.231  1.00  0.00     0.031 C 
ATOM     19  C   UNL     1       4.205   3.802  -4.859  1.00  0.00     0.029 A 
ATOM     20  N   UNL     1       5.302   5.741  -4.680  1.00  0.00    -0.354 N 
ATOM     21  C   UNL     1       6.274   7.395  -0.808  1.00  0.00     0.074 A 
ATOM     22  C   UNL     1       5.889   6.489   0.255  1.00  0.00     0.031 C 
ATOM     23  C   UNL     1       4.426   4.253  -6.102  1.00  0.00     0.029 A 
ATOM     24  C   UNL     1       5.081   5.553  -6.022  1.00  0.00     0.049 A 
ATOM     25  H   UNL     1       5.790   6.514  -4.315  1.00  0.00     0.167 HD
ATOM     26  C   UNL     1       6.884   8.591  -0.619  1.00  0.00     0.037 A 
ATOM     27  C   UNL     1       5.335   6.353  -7.075  1.00  0.00     0.037 A 
ATOM     28  C   UNL     1       7.272   9.480  -1.687  1.00  0.00     0.049 A 
ATOM     29  C   UNL     1       5.979   7.688  -6.840  1.00  0.00     0.074 A 
ATOM     30  C   UNL     1       7.927  10.697  -1.603  1.00  0.00     0.029 A 
ATOM     31  N   UNL     1       7.032   9.250  -3.035  1.00  0.00    -0.354 N 
ATOM     32  N   UNL     1       6.347   8.238  -5.709  1.00  0.00    -0.248 NA
ATOM     33  C   UNL     1       6.237   8.517  -8.025  1.00  0.00     0.031 C 
ATOM     34  C   UNL     1       8.036  11.227  -2.893  1.00  0.00     0.029 A 
ATOM     35  C   UNL     1       7.505  10.313  -3.789  1.00  0.00     0.049 A 
ATOM     36  H   UNL     1       6.590   8.450  -3.401  1.00  0.00     0.167 HD
ATOM     37  C   UNL     1       6.904   9.463  -6.044  1.00  0.00     0.074 A 
ATOM     38  C   UNL     1       6.830   9.575  -7.487  1.00  0.00     0.031 C 
ATOM     39  C   UNL     1       7.433  10.406  -5.227  1.00  0.00     0.037 A 
BRANCH  26  40
ATOM     40  C   UNL     1       7.138   9.028   0.797  1.00  0.00     0.064 A 
ATOM     41  C   UNL     1       8.085   8.392   1.614  1.00  0.00     0.173 A 
ATOM     42  C   UNL     1       6.436  10.118   1.339  1.00  0.00     0.173 A 
ATOM     43  F   UNL     1       8.778   7.341   1.151  1.00  0.00    -0.203 F 
ATOM     44  C   UNL     1       8.292   8.804   2.929  1.00  0.00     0.198 A 
ATOM     45  C   UNL     1       6.668  10.547   2.643  1.00  0.00     0.198 A 
ATOM     46  F   UNL     1       5.526  10.771   0.601  1.00  0.00    -0.203 F 
ATOM     47  F   UNL     1       9.160   8.143   3.707  1.00  0.00    -0.200 F 
ATOM     48  C   UNL     1       7.588   9.883   3.441  1.00  0.00     0.200 A 
ATOM     49  F   UNL     1       5.997  11.600   3.131  1.00  0.00    -0.200 F 
ATOM     50  F   UNL     1       7.788  10.278   4.706  1.00  0.00    -0.200 F 
ENDBRANCH  26  40
BRANCH  27  51
ATOM     51  C   UNL     1       4.956   5.902  -8.439  1.00  0.00     0.064 A 
ATOM     52  C   UNL     1       5.932   5.531  -9.372  1.00  0.00     0.173 A 
ATOM     53  C   UNL     1       3.610   5.780  -8.816  1.00  0.00     0.173 A 
ATOM     54  F   UNL     1       7.232   5.647  -9.063  1.00  0.00    -0.203 F 
ATOM     55  C   UNL     1       5.576   5.055 -10.633  1.00  0.00     0.198 A 
ATOM     56  C   UNL     1       3.255   5.277 -10.065  1.00  0.00     0.198 A 
ATOM     57  F   UNL     1       2.638   6.115  -7.955  1.00  0.00    -0.203 F 
ATOM     58  F   UNL     1       6.529   4.729 -11.516  1.00  0.00    -0.200 F 
ATOM     59  C   UNL     1       4.238   4.918 -10.974  1.00  0.00     0.200 A 
ATOM     60  F   UNL     1       1.962   5.127 -10.383  1.00  0.00    -0.200 F 
ATOM     61  F   UNL     1       3.898   4.440 -12.178  1.00  0.00    -0.200 F 
ENDBRANCH  27  51
BRANCH  39  62
ATOM     62  C   UNL     1       8.024  11.624  -5.875  1.00  0.00     0.064 A 
ATOM     63  C   UNL     1       7.223  12.624  -6.442  1.00  0.00     0.173 A 
ATOM     64  C   UNL     1       9.415  11.813  -5.879  1.00  0.00     0.173 A 
ATOM     65  F   UNL     1       5.889  12.480  -6.479  1.00  0.00    -0.203 F 
ATOM     66  C   UNL     1       7.793  13.763  -7.005  1.00  0.00     0.198 A 
ATOM     67  C   UNL     1       9.980  12.966  -6.416  1.00  0.00     0.198 A 
ATOM     68  F   UNL     1      10.225  10.886  -5.345  1.00  0.00    -0.203 F 
ATOM     69  F   UNL     1       7.011  14.689  -7.577  1.00  0.00    -0.200 F 
ATOM     70  C   UNL     1       9.169  13.937  -6.983  1.00  0.00     0.200 A 
ATOM     71  F   UNL     1      11.308  13.138  -6.382  1.00  0.00    -0.200 F 
ATOM     72  F   UNL     1       9.715  15.040  -7.513  1.00  0.00    -0.200 F 
ENDBRANCH  39  62
ENDBRANCH  13  14
ENDBRANCH   6   8
ENDBRANCH   3   4
ENDBRANCH   2   3
ENDBRANCH   1   2
BRANCH   1  73
ATOM     73  C   UNL     1       4.298  -3.748   2.339  1.00  0.00     0.116 C 
BRANCH  73  74
ATOM     74  N   UNL     1       5.317  -4.283   3.309  1.00  0.00    -0.356 N 
ATOM     75  C   UNL     1       6.132  -5.318   3.701  1.00  0.00     0.224 C 
ATOM     76  H   UNL     1       5.470  -3.562   3.961  1.00  0.00     0.163 HD
ATOM     77  O   UNL     1       6.987  -5.199   4.587  1.00  0.00    -0.275 OA
BRANCH  75  78
ATOM     78  C   UNL     1       6.008  -6.671   3.182  1.00  0.00     0.098 C 
ATOM     79  C   UNL     1       5.588  -6.556   1.753  1.00  0.00     0.099 C 
ATOM     80  C   UNL     1       4.913  -7.426   3.964  1.00  0.00     0.025 C 
ATOM     81  C   UNL     1       4.088  -7.148   1.893  1.00  0.00     0.025 C 
ATOM     82  C   UNL     1       3.678  -6.584   4.122  1.00  0.00    -0.027 C 
ATOM     83  C   UNL     1       4.369  -8.341   2.871  1.00  0.00     0.017 C 
ATOM     84  C   UNL     1       3.148  -6.475   2.894  1.00  0.00    -0.027 C 
BRANCH  79  85
ATOM     85  C   UNL     1       6.287  -5.384   0.853  1.00  0.00     0.229 C 
ATOM     86  O   UNL     1       6.273  -5.689  -0.370  1.00  0.00    -0.274 OA
ATOM     87  N   UNL     1       6.873  -4.127   0.963  1.00  0.00    -0.323 N 
ATOM     88  H   UNL     1       7.270  -4.019   0.069  1.00  0.00     0.170 HD
BRANCH  87  89
ATOM     89  C   UNL     1       7.271  -2.827   1.625  1.00  0.00     0.084 A 
ATOM     90  C   UNL     1       7.544  -1.856   0.602  1.00  0.00     0.030 A 
ATOM     91  C   UNL     1       7.332  -2.239   2.955  1.00  0.00     0.149 A 
ATOM     92  C   UNL     1       7.759  -0.477   0.824  1.00  0.00     0.002 A 
ATOM     93  C   UNL     1       7.587  -0.853   3.149  1.00  0.00     0.049 A 
ATOM     94  C   UNL     1       7.759   0.030   2.102  1.00  0.00     0.004 A 
BRANCH  91  95
ATOM     95  O   UNL     1       7.324  -2.939   4.129  1.00  0.00    -0.433 OA
BRANCH  95  96
ATOM     96  C   UNL     1       6.658  -2.558   5.377  1.00  0.00     0.542 C 
ATOM     97  F   UNL     1       6.487  -1.227   5.522  1.00  0.00    -0.167 F 
ATOM     98  F   UNL     1       5.392  -3.065   5.371  1.00  0.00    -0.167 F 
ENDBRANCH  95  96
ENDBRANCH  91  95
ENDBRANCH  87  89
ENDBRANCH  79  85
ENDBRANCH  75  78
ENDBRANCH  73  74
ENDBRANCH   1  73
TORSDOF 15
