REMARK SMILES COc1ccc(F)c(NC(=O)N[C@H]2CCC[C@H]2C(=O)NCCCCNC(=O)c2ccc(-c3c4nc(c(-c5c(F)c(F)c(F)c(F)c5F)c5ccc([nH]5)c(-c5c(F)c(F)c(F)c(F)c5F)c5nc(c(-c6c(F)c(F)c(F)c(F)c6F)c6ccc3[nH]6)C=C5)C=C4)cc2)c1
REMARK SMILES IDX 22 1 21 2 20 3 18 4 19 5 17 7 13 8 14 9 15 10 16 11 12 12
REMARK SMILES IDX 9 13 10 14 11 16 8 18 3 19 4 20 91 21 5 22 6 23 7 24 2 25
REMARK SMILES IDX 1 26 23 27 24 28 25 29 26 30 27 32 28 33 29 34 90 35 30 36
REMARK SMILES IDX 89 37 31 38 32 39 33 40 83 41 34 42 88 43 82 44 84 45 35 46
REMARK SMILES IDX 87 47 81 48 80 49 36 51 68 52 48 53 67 54 49 55 52 56 66 57
REMARK SMILES IDX 85 58 50 59 51 60 65 62 86 63 53 64 37 65 38 66 46 67 39 68
REMARK SMILES IDX 40 69 44 70 47 71 41 72 42 73 45 74 43 75 69 76 70 77 78 78
REMARK SMILES IDX 71 79 72 80 76 81 79 82 73 83 74 84 77 85 75 86 54 87 55 88
REMARK SMILES IDX 63 89 56 90 57 91 61 92 64 93 58 94 59 95 62 96 60 97
REMARK H PARENT 20 6 9 15 12 17 25 31 84 50 52 61
REMARK Flexibility Score: inf
ROOT
ATOM      1  C   UNL     1       0.244   2.978   3.846  1.00  0.00     0.023 C 
ENDROOT
BRANCH   1   2
ATOM      2  C   UNL     1      -0.792   1.960   3.344  1.00  0.00     0.116 C 
BRANCH   2   3
ATOM      3  N   UNL     1      -1.991   2.470   2.579  1.00  0.00    -0.356 N 
ATOM      4  C   UNL     1      -2.524   2.889   1.389  1.00  0.00     0.225 C 
ATOM      5  O   UNL     1      -3.772   2.929   1.462  1.00  0.00    -0.275 OA
ATOM      6  H   UNL     1      -2.723   2.529   3.235  1.00  0.00     0.163 HD
BRANCH   4   7
ATOM      7  C   UNL     1      -1.915   3.423  -0.016  1.00  0.00     0.101 C 
ATOM      8  C   UNL     1      -0.627   4.051   0.289  1.00  0.00     0.096 C 
ATOM      9  C   UNL     1      -0.418   4.899  -0.990  1.00  0.00     0.026 C 
ATOM     10  C   UNL     1      -0.551   3.906  -2.118  1.00  0.00     0.003 C 
ATOM     11  C   UNL     1      -1.474   2.860  -1.501  1.00  0.00     0.016 C 
BRANCH   8  12
ATOM     12  N   UNL     1       0.311   2.926   0.465  1.00  0.00    -0.334 N 
ATOM     13  N   UNL     1      -0.779   0.676   0.481  1.00  0.00    -0.305 N 
ATOM     14  C   UNL     1       0.241   1.579   0.575  1.00  0.00     0.319 C 
ATOM     15  H   UNL     1      -0.404  -0.124   0.914  1.00  0.00     0.171 HD
ATOM     16  O   UNL     1       1.325   1.083   0.937  1.00  0.00    -0.248 OA
ATOM     17  H   UNL     1       1.242   3.242   0.517  1.00  0.00     0.165 HD
BRANCH  13  18
ATOM     18  C   UNL     1      -2.129   0.236   0.089  1.00  0.00     0.082 A 
ATOM     19  C   UNL     1      -4.312   0.179  -1.159  1.00  0.00     0.121 A 
ATOM     20  C   UNL     1      -4.527  -1.129  -0.785  1.00  0.00     0.049 A 
ATOM     21  C   UNL     1      -3.171   0.832  -0.658  1.00  0.00     0.075 A 
ATOM     22  C   UNL     1      -3.631  -1.731   0.095  1.00  0.00     0.045 A 
ATOM     23  C   UNL     1      -2.460  -1.064   0.498  1.00  0.00     0.147 A 
ATOM     24  F   UNL     1      -1.631  -1.704   1.340  1.00  0.00    -0.205 F 
BRANCH  19  25
ATOM     25  O   UNL     1      -5.258   0.725  -1.991  1.00  0.00    -0.497 OA
ATOM     26  C   UNL     1      -5.197   2.116  -2.312  1.00  0.00     0.278 C 
ENDBRANCH  19  25
ENDBRANCH  13  18
ENDBRANCH   8  12
ENDBRANCH   4   7
ENDBRANCH   2   3
ENDBRANCH   1   2
BRANCH   1  27
ATOM     27  C   UNL     1       0.727   2.753   5.300  1.00  0.00     0.023 C 
BRANCH  27  28
ATOM     28  C   UNL     1       1.597   1.528   5.593  1.00  0.00     0.116 C 
BRANCH  28  29
ATOM     29  N   UNL     1       2.929   1.573   5.001  1.00  0.00    -0.352 N 
ATOM     30  C   UNL     1       4.141   1.223   5.584  1.00  0.00     0.251 C 
ATOM     31  H   UNL     1       2.976   1.892   4.071  1.00  0.00     0.163 HD
ATOM     32  O   UNL     1       5.200   1.401   5.030  1.00  0.00    -0.269 OA
BRANCH  30  33
ATOM     33  C   UNL     1       4.098   0.632   6.942  1.00  0.00     0.039 A 
ATOM     34  C   UNL     1       4.798   1.236   7.989  1.00  0.00     0.014 A 
ATOM     35  C   UNL     1       3.259  -0.458   7.175  1.00  0.00     0.014 A 
ATOM     36  C   UNL     1       4.585   0.789   9.295  1.00  0.00     0.010 A 
ATOM     37  C   UNL     1       2.966  -0.824   8.480  1.00  0.00     0.010 A 
ATOM     38  C   UNL     1       3.640  -0.219   9.552  1.00  0.00    -0.014 A 
BRANCH  38  39
ATOM     39  C   UNL     1       3.389  -0.707  10.931  1.00  0.00     0.031 A 
ATOM     40  C   UNL     1       3.696  -2.142  11.263  1.00  0.00     0.074 A 
ATOM     41  C   UNL     1       2.869   0.121  11.858  1.00  0.00     0.049 A 
ATOM     42  N   UNL     1       3.542  -2.781  12.394  1.00  0.00    -0.248 NA
ATOM     43  C   UNL     1       4.212  -2.986  10.170  1.00  0.00     0.031 C 
ATOM     44  C   UNL     1       2.481   1.514  11.628  1.00  0.00     0.029 A 
ATOM     45  N   UNL     1       2.592  -0.082  13.187  1.00  0.00    -0.354 N 
ATOM     46  C   UNL     1       3.941  -4.087  12.140  1.00  0.00     0.074 A 
ATOM     47  C   UNL     1       4.247  -4.181  10.734  1.00  0.00     0.031 C 
ATOM     48  C   UNL     1       2.076   2.058  12.788  1.00  0.00     0.029 A 
ATOM     49  C   UNL     1       2.144   1.045  13.837  1.00  0.00     0.049 A 
ATOM     50  H   UNL     1       2.703  -0.952  13.634  1.00  0.00     0.167 HD
ATOM     51  C   UNL     1       4.095  -5.105  13.016  1.00  0.00     0.037 A 
ATOM     52  C   UNL     1       1.845   1.235  15.137  1.00  0.00     0.037 A 
ATOM     53  C   UNL     1       3.832  -4.988  14.422  1.00  0.00     0.049 A 
ATOM     54  C   UNL     1       2.014   0.079  16.090  1.00  0.00     0.074 A 
ATOM     55  C   UNL     1       3.981  -5.944  15.409  1.00  0.00     0.029 A 
ATOM     56  N   UNL     1       3.377  -3.832  15.040  1.00  0.00    -0.354 N 
ATOM     57  N   UNL     1       2.444  -1.136  15.848  1.00  0.00    -0.248 NA
ATOM     58  C   UNL     1       1.665   0.322  17.496  1.00  0.00     0.031 C 
ATOM     59  C   UNL     1       3.576  -5.379  16.620  1.00  0.00     0.029 A 
ATOM     60  C   UNL     1       3.229  -4.055  16.397  1.00  0.00     0.049 A 
ATOM     61  H   UNL     1       3.187  -2.982  14.582  1.00  0.00     0.167 HD
ATOM     62  C   UNL     1       2.450  -1.791  17.072  1.00  0.00     0.074 A 
ATOM     63  C   UNL     1       1.995  -0.833  18.058  1.00  0.00     0.031 C 
ATOM     64  C   UNL     1       2.796  -3.071  17.356  1.00  0.00     0.037 A 
BRANCH  51  65
ATOM     65  C   UNL     1       4.615  -6.410  12.490  1.00  0.00     0.064 A 
ATOM     66  C   UNL     1       3.804  -7.554  12.481  1.00  0.00     0.173 A 
ATOM     67  C   UNL     1       5.941  -6.542  12.050  1.00  0.00     0.173 A 
ATOM     68  F   UNL     1       2.528  -7.482  12.888  1.00  0.00    -0.203 F 
ATOM     69  C   UNL     1       4.308  -8.785  12.071  1.00  0.00     0.198 A 
ATOM     70  C   UNL     1       6.433  -7.768  11.611  1.00  0.00     0.198 A 
ATOM     71  F   UNL     1       6.753  -5.474  12.019  1.00  0.00    -0.203 F 
ATOM     72  F   UNL     1       3.526  -9.873  12.104  1.00  0.00    -0.200 F 
ATOM     73  C   UNL     1       5.620  -8.891  11.634  1.00  0.00     0.200 A 
ATOM     74  F   UNL     1       7.692  -7.860  11.160  1.00  0.00    -0.200 F 
ATOM     75  F   UNL     1       6.102 -10.075  11.232  1.00  0.00    -0.200 F 
ENDBRANCH  51  65
BRANCH  52  76
ATOM     76  C   UNL     1       1.427   2.578  15.624  1.00  0.00     0.064 A 
ATOM     77  C   UNL     1       0.204   3.151  15.248  1.00  0.00     0.173 A 
ATOM     78  C   UNL     1       2.254   3.321  16.480  1.00  0.00     0.173 A 
ATOM     79  F   UNL     1      -0.625   2.489  14.428  1.00  0.00    -0.203 F 
ATOM     80  C   UNL     1      -0.170   4.417  15.698  1.00  0.00     0.198 A 
ATOM     81  C   UNL     1       1.866   4.574  16.954  1.00  0.00     0.198 A 
ATOM     82  F   UNL     1       3.428   2.813  16.885  1.00  0.00    -0.203 F 
ATOM     83  F   UNL     1      -1.332   4.952  15.299  1.00  0.00    -0.200 F 
ATOM     84  C   UNL     1       0.658   5.124  16.557  1.00  0.00     0.200 A 
ATOM     85  F   UNL     1       2.658   5.241  17.805  1.00  0.00    -0.200 F 
ATOM     86  F   UNL     1       0.288   6.331  17.006  1.00  0.00    -0.200 F 
ENDBRANCH  52  76
BRANCH  64  87
ATOM     87  C   UNL     1       2.735  -3.506  18.790  1.00  0.00     0.064 A 
ATOM     88  C   UNL     1       3.915  -3.811  19.487  1.00  0.00     0.173 A 
ATOM     89  C   UNL     1       1.511  -3.713  19.441  1.00  0.00     0.173 A 
ATOM     90  F   UNL     1       5.110  -3.643  18.900  1.00  0.00    -0.203 F 
ATOM     91  C   UNL     1       3.869  -4.325  20.778  1.00  0.00     0.198 A 
ATOM     92  C   UNL     1       1.471  -4.195  20.746  1.00  0.00     0.198 A 
ATOM     93  F   UNL     1       0.358  -3.429  18.818  1.00  0.00    -0.203 F 
ATOM     94  F   UNL     1       5.006  -4.652  21.407  1.00  0.00    -0.200 F 
ATOM     95  C   UNL     1       2.649  -4.512  21.408  1.00  0.00     0.200 A 
ATOM     96  F   UNL     1       0.292  -4.352  21.363  1.00  0.00    -0.200 F 
ATOM     97  F   UNL     1       2.606  -4.998  22.656  1.00  0.00    -0.200 F 
ENDBRANCH  64  87
ENDBRANCH  38  39
ENDBRANCH  30  33
ENDBRANCH  28  29
ENDBRANCH  27  28
ENDBRANCH   1  27
TORSDOF 14
