REMARK SMILES C/C(=N\[NH+]=C1/NC(=O)[C@@H](CC(=O)NCCCCNC(=O)c2ccc(-c3c4nc(c(-c5c(F)c(F)c(F)c(F)c5F)c5ccc([nH]5)c(-c5c(F)c(F)c(F)c(F)c5F)c5nc(c(-c6c(F)c(F)c(F)c(F)c6F)c6ccc3[nH]6)C=C5)C=C4)cc2)S1)c1ccc(Br)cc1
REMARK SMILES IDX 15 1 14 2 13 3 11 4 12 5 10 7 9 8 4 9 5 10 6 12 84 13 7 14
REMARK SMILES IDX 8 16 3 17 1 18 2 19 85 20 86 21 91 22 87 23 90 24 88 25
REMARK SMILES IDX 89 26 16 27 17 28 18 29 19 30 20 32 21 33 22 34 83 35 23 36
REMARK SMILES IDX 82 37 24 38 25 39 26 40 76 41 27 42 81 43 75 44 77 45 28 46
REMARK SMILES IDX 80 47 74 48 73 49 29 51 61 52 41 53 60 54 42 55 45 56 59 57
REMARK SMILES IDX 78 58 43 59 44 60 58 62 79 63 46 64 30 65 31 66 39 67 32 68
REMARK SMILES IDX 33 69 37 70 40 71 34 72 35 73 38 74 36 75 62 76 63 77 71 78
REMARK SMILES IDX 64 79 65 80 69 81 72 82 66 83 67 84 70 85 68 86 47 87 48 88
REMARK SMILES IDX 56 89 49 90 50 91 54 92 57 93 51 94 52 95 55 96 53 97
REMARK H PARENT 13 6 4 11 6 15 18 31 77 50 45 61
REMARK Flexibility Score: inf
ROOT
ATOM      1  C   UNL     1      -0.934  -4.887   3.604  1.00  0.00     0.023 C 
ENDROOT
BRANCH   1   2
ATOM      2  C   UNL     1      -2.324  -5.150   3.021  1.00  0.00     0.116 C 
BRANCH   2   3
ATOM      3  N   UNL     1      -3.265  -4.107   3.384  1.00  0.00    -0.356 N 
ATOM      4  C   UNL     1      -3.864  -3.168   2.600  1.00  0.00     0.221 C 
ATOM      5  O   UNL     1      -4.688  -2.409   3.108  1.00  0.00    -0.275 OA
ATOM      6  H   UNL     1      -3.507  -4.074   4.338  1.00  0.00     0.163 HD
BRANCH   4   7
ATOM      7  C   UNL     1      -3.539  -3.100   1.127  1.00  0.00     0.127 C 
BRANCH   7   8
ATOM      8  C   UNL     1      -2.121  -2.621   0.899  1.00  0.00     0.183 C 
ATOM      9  N   UNL     1      -0.522  -0.662  -1.960  1.00  0.00    -0.142 N 
ATOM     10  C   UNL     1      -1.213  -1.141  -0.984  1.00  0.00     0.337 C 
ATOM     11  H   UNL     1      -0.196  -1.217  -2.705  1.00  0.00     0.343 HD
ATOM     12  N   UNL     1      -1.618  -0.439   0.096  1.00  0.00    -0.202 N 
ATOM     13  S   UNL     1      -1.634  -2.814  -0.850  1.00  0.00    -0.020 SA
ATOM     14  C   UNL     1      -1.978  -1.144   1.198  1.00  0.00     0.322 C 
ATOM     15  H   UNL     1      -1.650   0.545   0.084  1.00  0.00     0.316 HD
ATOM     16  O   UNL     1      -2.059  -0.648   2.312  1.00  0.00    -0.246 OA
BRANCH   9  17
ATOM     17  N   UNL     1      -0.273   0.710  -1.874  1.00  0.00    -0.090 NA
ATOM     18  C   UNL     1       1.655   0.152  -0.385  1.00  0.00     0.071 C 
ATOM     19  C   UNL     1       0.786   1.086  -1.212  1.00  0.00     0.088 C 
BRANCH  19  20
ATOM     20  C   UNL     1       1.094   2.552  -1.183  1.00  0.00    -0.000 A 
ATOM     21  C   UNL     1       0.077   3.461  -1.518  1.00  0.00     0.011 A 
ATOM     22  C   UNL     1       2.366   3.039  -0.864  1.00  0.00     0.011 A 
ATOM     23  C   UNL     1       0.330   4.834  -1.541  1.00  0.00     0.016 A 
ATOM     24  C   UNL     1       2.621   4.414  -0.895  1.00  0.00     0.016 A 
ATOM     25  C   UNL     1       1.604   5.304  -1.235  1.00  0.00     0.018 A 
ATOM     26  Br  UNL     1       1.961   7.158  -1.296  1.00  0.00    -0.051 Br
ENDBRANCH  19  20
ENDBRANCH   9  17
ENDBRANCH   7   8
ENDBRANCH   4   7
ENDBRANCH   2   3
ENDBRANCH   1   2
BRANCH   1  27
ATOM     27  C   UNL     1      -0.859  -4.936   5.130  1.00  0.00     0.023 C 
BRANCH  27  28
ATOM     28  C   UNL     1      -1.364  -6.228   5.754  1.00  0.00     0.116 C 
BRANCH  28  29
ATOM     29  N   UNL     1      -0.659  -7.403   5.271  1.00  0.00    -0.352 N 
ATOM     30  C   UNL     1      -0.232  -8.502   5.973  1.00  0.00     0.251 C 
ATOM     31  H   UNL     1      -0.460  -7.412   4.306  1.00  0.00     0.163 HD
ATOM     32  O   UNL     1       0.473  -9.345   5.426  1.00  0.00    -0.269 OA
BRANCH  30  33
ATOM     33  C   UNL     1      -0.600  -8.655   7.396  1.00  0.00     0.039 A 
ATOM     34  C   UNL     1       0.374  -9.089   8.298  1.00  0.00     0.014 A 
ATOM     35  C   UNL     1      -1.897  -8.383   7.839  1.00  0.00     0.014 A 
ATOM     36  C   UNL     1       0.055  -9.217   9.651  1.00  0.00     0.010 A 
ATOM     37  C   UNL     1      -2.190  -8.428   9.198  1.00  0.00     0.010 A 
ATOM     38  C   UNL     1      -1.224  -8.869  10.114  1.00  0.00    -0.014 A 
BRANCH  38  39
ATOM     39  C   UNL     1      -1.586  -9.015  11.546  1.00  0.00     0.031 A 
ATOM     40  C   UNL     1      -2.652  -9.997  11.950  1.00  0.00     0.074 A 
ATOM     41  C   UNL     1      -0.990  -8.242  12.473  1.00  0.00     0.049 A 
ATOM     42  N   UNL     1      -3.143 -10.247  13.138  1.00  0.00    -0.248 NA
ATOM     43  C   UNL     1      -3.272 -10.783  10.870  1.00  0.00     0.031 C 
ATOM     44  C   UNL     1       0.024  -7.223  12.201  1.00  0.00     0.029 A 
ATOM     45  N   UNL     1      -1.154  -8.192  13.835  1.00  0.00    -0.354 N 
ATOM     46  C   UNL     1      -4.133 -11.202  12.944  1.00  0.00     0.074 A 
ATOM     47  C   UNL     1      -4.220 -11.440  11.520  1.00  0.00     0.031 C 
ATOM     48  C   UNL     1       0.411  -6.668  13.360  1.00  0.00     0.029 A 
ATOM     49  C   UNL     1      -0.350  -7.266  14.453  1.00  0.00     0.049 A 
ATOM     50  H   UNL     1      -1.789  -8.766  14.322  1.00  0.00     0.167 HD
ATOM     51  C   UNL     1      -4.880 -11.847  13.870  1.00  0.00     0.037 A 
ATOM     52  C   UNL     1      -0.242  -6.940  15.755  1.00  0.00     0.037 A 
ATOM     53  C   UNL     1      -4.770 -11.629  15.288  1.00  0.00     0.049 A 
ATOM     54  C   UNL     1      -1.084  -7.672  16.766  1.00  0.00     0.074 A 
ATOM     55  C   UNL     1      -5.444 -12.265  16.315  1.00  0.00     0.029 A 
ATOM     56  N   UNL     1      -3.927 -10.698  15.878  1.00  0.00    -0.354 N 
ATOM     57  N   UNL     1      -1.967  -8.623  16.578  1.00  0.00    -0.248 NA
ATOM     58  C   UNL     1      -0.904  -7.293  18.174  1.00  0.00     0.031 C 
ATOM     59  C   UNL     1      -5.044 -11.687  17.524  1.00  0.00     0.029 A 
ATOM     60  C   UNL     1      -4.077 -10.732  17.255  1.00  0.00     0.049 A 
ATOM     61  H   UNL     1      -3.313 -10.102  15.391  1.00  0.00     0.167 HD
ATOM     62  C   UNL     1      -2.419  -8.982  17.841  1.00  0.00     0.074 A 
ATOM     63  C   UNL     1      -1.703  -8.154  18.789  1.00  0.00     0.031 C 
ATOM     64  C   UNL     1      -3.341  -9.913  18.186  1.00  0.00     0.037 A 
BRANCH  51  65
ATOM     65  C   UNL     1      -5.879 -12.855  13.377  1.00  0.00     0.064 A 
ATOM     66  C   UNL     1      -5.477 -14.065  12.791  1.00  0.00     0.173 A 
ATOM     67  C   UNL     1      -7.256 -12.621  13.516  1.00  0.00     0.173 A 
ATOM     68  F   UNL     1      -4.174 -14.334  12.622  1.00  0.00    -0.203 F 
ATOM     69  C   UNL     1      -6.415 -14.987  12.332  1.00  0.00     0.198 A 
ATOM     70  C   UNL     1      -8.190 -13.560  13.087  1.00  0.00     0.198 A 
ATOM     71  F   UNL     1      -7.696 -11.483  14.073  1.00  0.00    -0.203 F 
ATOM     72  F   UNL     1      -6.006 -16.109  11.724  1.00  0.00    -0.200 F 
ATOM     73  C   UNL     1      -7.769 -14.737  12.487  1.00  0.00     0.200 A 
ATOM     74  F   UNL     1      -9.499 -13.323  13.250  1.00  0.00    -0.200 F 
ATOM     75  F   UNL     1      -8.671 -15.628  12.051  1.00  0.00    -0.200 F 
ENDBRANCH  51  65
BRANCH  52  76
ATOM     76  C   UNL     1       0.725  -5.895  16.183  1.00  0.00     0.064 A 
ATOM     77  C   UNL     1       1.860  -6.230  16.936  1.00  0.00     0.173 A 
ATOM     78  C   UNL     1       0.530  -4.544  15.865  1.00  0.00     0.173 A 
ATOM     79  F   UNL     1       2.081  -7.507  17.282  1.00  0.00    -0.203 F 
ATOM     80  C   UNL     1       2.748  -5.250  17.375  1.00  0.00     0.198 A 
ATOM     81  C   UNL     1       1.435  -3.568  16.279  1.00  0.00     0.198 A 
ATOM     82  F   UNL     1      -0.536  -4.171  15.142  1.00  0.00    -0.203 F 
ATOM     83  F   UNL     1       3.796  -5.593  18.137  1.00  0.00    -0.200 F 
ATOM     84  C   UNL     1       2.538  -3.921  17.043  1.00  0.00     0.200 A 
ATOM     85  F   UNL     1       1.237  -2.287  15.942  1.00  0.00    -0.200 F 
ATOM     86  F   UNL     1       3.392  -2.979  17.465  1.00  0.00    -0.200 F 
ENDBRANCH  52  76
BRANCH  64  87
ATOM     87  C   UNL     1      -3.590 -10.129  19.651  1.00  0.00     0.064 A 
ATOM     88  C   UNL     1      -4.253  -9.177  20.439  1.00  0.00     0.173 A 
ATOM     89  C   UNL     1      -3.191 -11.327  20.265  1.00  0.00     0.173 A 
ATOM     90  F   UNL     1      -4.643  -8.011  19.902  1.00  0.00    -0.203 F 
ATOM     91  C   UNL     1      -4.479  -9.402  21.794  1.00  0.00     0.198 A 
ATOM     92  C   UNL     1      -3.449 -11.563  21.612  1.00  0.00     0.198 A 
ATOM     93  F   UNL     1      -2.561 -12.274  19.555  1.00  0.00    -0.203 F 
ATOM     94  F   UNL     1      -5.067  -8.456  22.539  1.00  0.00    -0.200 F 
ATOM     95  C   UNL     1      -4.085 -10.597  22.377  1.00  0.00     0.200 A 
ATOM     96  F   UNL     1      -3.082 -12.725  22.169  1.00  0.00    -0.200 F 
ATOM     97  F   UNL     1      -4.310 -10.815  23.680  1.00  0.00    -0.200 F 
ENDBRANCH  64  87
ENDBRANCH  38  39
ENDBRANCH  30  33
ENDBRANCH  28  29
ENDBRANCH  27  28
ENDBRANCH   1  27
TORSDOF 14
