REMARK SMILES CC1=C(C#N)C(=O)N(C)C(=O)/C1=C\Nc1ccc(C(=O)NCCCCNC(=O)c2ccc(-c3c4nc(c(-c5c(F)c(F)c(F)c(F)c5F)c5ccc([nH]5)c(-c5c(F)c(F)c(F)c(F)c5F)c5nc(c(-c6c(F)c(F)c(F)c(F)c6F)c6ccc3[nH]6)C=C5)C=C4)cc2)c(O)c1
REMARK SMILES IDX 23 1 22 2 21 3 19 4 20 5 18 7 15 8 16 9 94 10 17 11 92 12
REMARK SMILES IDX 14 13 13 15 1 16 2 17 3 18 12 19 6 20 10 21 7 22 8 23 11 24
REMARK SMILES IDX 9 25 4 26 5 27 93 28 24 30 25 31 26 32 27 33 28 35 29 36
REMARK SMILES IDX 30 37 91 38 31 39 90 40 32 41 33 42 34 43 84 44 35 45 89 46
REMARK SMILES IDX 83 47 85 48 36 49 88 50 82 51 81 52 37 54 69 55 49 56 68 57
REMARK SMILES IDX 50 58 53 59 67 60 86 61 51 62 52 63 66 65 87 66 54 67 38 68
REMARK SMILES IDX 39 69 47 70 40 71 41 72 45 73 48 74 42 75 43 76 46 77 44 78
REMARK SMILES IDX 70 79 71 80 79 81 72 82 73 83 77 84 80 85 74 86 75 87 78 88
REMARK SMILES IDX 76 89 55 90 56 91 64 92 57 93 58 94 62 95 65 96 59 97 60 98
REMARK SMILES IDX 63 99 61 100
REMARK H PARENT 21 6 14 14 93 29 26 34 85 53 53 64
REMARK Flexibility Score: inf
ROOT
ATOM      1  C   UNL     1      -1.397   9.245   3.149  1.00  0.00     0.023 C 
ENDROOT
BRANCH   1   2
ATOM      2  C   UNL     1      -0.385   8.990   2.038  1.00  0.00     0.116 C 
BRANCH   2   3
ATOM      3  N   UNL     1       1.008   9.059   2.457  1.00  0.00    -0.352 N 
ATOM      4  C   UNL     1       2.095   8.348   2.002  1.00  0.00     0.255 C 
ATOM      5  O   UNL     1       3.198   8.554   2.502  1.00  0.00    -0.269 OA
ATOM      6  H   UNL     1       1.200   9.711   3.169  1.00  0.00     0.163 HD
BRANCH   4   7
ATOM      7  C   UNL     1       1.948   7.299   0.966  1.00  0.00     0.081 A 
ATOM      8  C   UNL     1       1.529   5.100  -0.748  1.00  0.00     0.042 A 
ATOM      9  C   UNL     1       2.371   4.984   0.362  1.00  0.00     0.027 A 
ATOM     10  C   UNL     1       0.968   6.352  -1.030  1.00  0.00     0.073 A 
ATOM     11  C   UNL     1       2.581   6.074   1.214  1.00  0.00     0.020 A 
ATOM     12  C   UNL     1       1.212   7.450  -0.209  1.00  0.00     0.130 A 
BRANCH   8  13
ATOM     13  N   UNL     1       1.152   4.015  -1.548  1.00  0.00    -0.361 N 
ATOM     14  H   UNL     1       0.903   4.238  -2.474  1.00  0.00     0.166 HD
BRANCH  13  15
ATOM     15  C   UNL     1       1.079   2.684  -1.220  1.00  0.00     0.097 C 
ATOM     16  C   UNL     1       0.910  -0.004  -0.058  1.00  0.00     0.047 C 
ATOM     17  C   UNL     1       0.470   0.296  -1.476  1.00  0.00    -0.013 C 
ATOM     18  C   UNL     1      -0.005  -0.657  -2.299  1.00  0.00     0.121 C 
ATOM     19  C   UNL     1       0.559   1.676  -1.952  1.00  0.00     0.060 C 
ATOM     20  C   UNL     1      -0.428  -0.370  -3.692  1.00  0.00     0.271 C 
ATOM     21  C   UNL     1       0.023   2.023  -3.321  1.00  0.00     0.262 C 
ATOM     22  O   UNL     1      -0.806  -1.284  -4.421  1.00  0.00    -0.268 OA
ATOM     23  N   UNL     1      -0.380   0.953  -4.104  1.00  0.00    -0.277 N 
ATOM     24  O   UNL     1      -0.045   3.192  -3.704  1.00  0.00    -0.269 OA
ATOM     25  C   UNL     1      -0.818   1.220  -5.464  1.00  0.00     0.157 C 
BRANCH  18  26
ATOM     26  C   UNL     1      -0.073  -2.113  -1.866  1.00  0.00     0.105 C 
ATOM     27  N   UNL     1      -0.130  -3.320  -1.507  1.00  0.00    -0.192 NA
ENDBRANCH  18  26
ENDBRANCH  13  15
ENDBRANCH   8  13
BRANCH  12  28
ATOM     28  O   UNL     1       0.700   8.641  -0.643  1.00  0.00    -0.507 OA
ATOM     29  H   UNL     1       0.829   9.418  -0.137  1.00  0.00     0.293 HD
ENDBRANCH  12  28
ENDBRANCH   4   7
ENDBRANCH   2   3
ENDBRANCH   1   2
BRANCH   1  30
ATOM     30  C   UNL     1      -1.269  10.576   3.884  1.00  0.00     0.023 C 
BRANCH  30  31
ATOM     31  C   UNL     1      -1.100  11.811   3.009  1.00  0.00     0.116 C 
BRANCH  31  32
ATOM     32  N   UNL     1      -2.219  12.048   2.110  1.00  0.00    -0.352 N 
ATOM     33  C   UNL     1      -3.053  13.135   2.005  1.00  0.00     0.251 C 
ATOM     34  H   UNL     1      -2.407  11.317   1.479  1.00  0.00     0.163 HD
ATOM     35  O   UNL     1      -4.020  13.095   1.246  1.00  0.00    -0.269 OA
BRANCH  33  36
ATOM     36  C   UNL     1      -2.817  14.345   2.824  1.00  0.00     0.039 A 
ATOM     37  C   UNL     1      -3.908  14.980   3.424  1.00  0.00     0.014 A 
ATOM     38  C   UNL     1      -1.531  14.857   3.002  1.00  0.00     0.014 A 
ATOM     39  C   UNL     1      -3.699  16.089   4.248  1.00  0.00     0.010 A 
ATOM     40  C   UNL     1      -1.313  15.886   3.911  1.00  0.00     0.010 A 
ATOM     41  C   UNL     1      -2.396  16.533   4.523  1.00  0.00    -0.014 A 
BRANCH  41  42
ATOM     42  C   UNL     1      -2.150  17.705   5.404  1.00  0.00     0.031 A 
ATOM     43  C   UNL     1      -1.463  18.927   4.857  1.00  0.00     0.074 A 
ATOM     44  C   UNL     1      -2.491  17.654   6.706  1.00  0.00     0.049 A 
ATOM     45  N   UNL     1      -1.131  20.038   5.466  1.00  0.00    -0.248 NA
ATOM     46  C   UNL     1      -1.056  18.879   3.444  1.00  0.00     0.031 C 
ATOM     47  C   UNL     1      -3.097  16.504   7.378  1.00  0.00     0.029 A 
ATOM     48  N   UNL     1      -2.370  18.593   7.700  1.00  0.00    -0.354 N 
ATOM     49  C   UNL     1      -0.461  20.802   4.519  1.00  0.00     0.074 A 
ATOM     50  C   UNL     1      -0.364  20.000   3.321  1.00  0.00     0.031 C 
ATOM     51  C   UNL     1      -3.322  16.815   8.664  1.00  0.00     0.029 A 
ATOM     52  C   UNL     1      -2.849  18.173   8.916  1.00  0.00     0.049 A 
ATOM     53  H   UNL     1      -1.978  19.484   7.554  1.00  0.00     0.167 HD
ATOM     54  C   UNL     1       0.003  22.071   4.623  1.00  0.00     0.037 A 
ATOM     55  C   UNL     1      -2.903  18.812  10.100  1.00  0.00     0.037 A 
ATOM     56  C   UNL     1      -0.120  22.875   5.811  1.00  0.00     0.049 A 
ATOM     57  C   UNL     1      -2.412  20.232  10.190  1.00  0.00     0.074 A 
ATOM     58  C   UNL     1       0.249  24.194   6.003  1.00  0.00     0.029 A 
ATOM     59  N   UNL     1      -0.649  22.429   7.014  1.00  0.00    -0.354 N 
ATOM     60  N   UNL     1      -1.861  20.979   9.264  1.00  0.00    -0.248 NA
ATOM     61  C   UNL     1      -2.571  20.904  11.486  1.00  0.00     0.031 C 
ATOM     62  C   UNL     1      -0.000  24.527   7.339  1.00  0.00     0.029 A 
ATOM     63  C   UNL     1      -0.594  23.439   7.961  1.00  0.00     0.049 A 
ATOM     64  H   UNL     1      -1.011  21.527   7.171  1.00  0.00     0.167 HD
ATOM     65  C   UNL     1      -1.637  22.217   9.853  1.00  0.00     0.074 A 
ATOM     66  C   UNL     1      -2.126  22.122  11.213  1.00  0.00     0.031 C 
ATOM     67  C   UNL     1      -1.084  23.332   9.313  1.00  0.00     0.037 A 
BRANCH  54  68
ATOM     68  C   UNL     1       0.694  22.653   3.420  1.00  0.00     0.064 A 
ATOM     69  C   UNL     1       0.011  22.900   2.217  1.00  0.00     0.173 A 
ATOM     70  C   UNL     1       2.063  22.956   3.465  1.00  0.00     0.173 A 
ATOM     71  F   UNL     1      -1.297  22.619   2.113  1.00  0.00    -0.203 F 
ATOM     72  C   UNL     1       0.683  23.373   1.093  1.00  0.00     0.198 A 
ATOM     73  C   UNL     1       2.723  23.469   2.351  1.00  0.00     0.198 A 
ATOM     74  F   UNL     1       2.766  22.749   4.588  1.00  0.00    -0.203 F 
ATOM     75  F   UNL     1       0.025  23.521  -0.065  1.00  0.00    -0.200 F 
ATOM     76  C   UNL     1       2.037  23.662   1.162  1.00  0.00     0.200 A 
ATOM     77  F   UNL     1       4.029  23.762   2.424  1.00  0.00    -0.200 F 
ATOM     78  F   UNL     1       2.683  24.113   0.078  1.00  0.00    -0.200 F 
ENDBRANCH  54  68
BRANCH  55  79
ATOM     79  C   UNL     1      -3.489  18.123  11.280  1.00  0.00     0.064 A 
ATOM     80  C   UNL     1      -4.732  18.511  11.800  1.00  0.00     0.173 A 
ATOM     81  C   UNL     1      -2.833  17.046  11.893  1.00  0.00     0.173 A 
ATOM     82  F   UNL     1      -5.390  19.547  11.260  1.00  0.00    -0.203 F 
ATOM     83  C   UNL     1      -5.289  17.857  12.898  1.00  0.00     0.198 A 
ATOM     84  C   UNL     1      -3.405  16.374  12.972  1.00  0.00     0.198 A 
ATOM     85  F   UNL     1      -1.646  16.630  11.428  1.00  0.00    -0.203 F 
ATOM     86  F   UNL     1      -6.461  18.273  13.398  1.00  0.00    -0.200 F 
ATOM     87  C   UNL     1      -4.629  16.784  13.477  1.00  0.00     0.200 A 
ATOM     88  F   UNL     1      -2.772  15.326  13.517  1.00  0.00    -0.200 F 
ATOM     89  F   UNL     1      -5.172  16.147  14.523  1.00  0.00    -0.200 F 
ENDBRANCH  55  79
BRANCH  67  90
ATOM     90  C   UNL     1      -1.022  24.559  10.180  1.00  0.00     0.064 A 
ATOM     91  C   UNL     1      -0.178  24.639  11.298  1.00  0.00     0.173 A 
ATOM     92  C   UNL     1      -1.807  25.681   9.871  1.00  0.00     0.173 A 
ATOM     93  F   UNL     1       0.586  23.592  11.645  1.00  0.00    -0.203 F 
ATOM     94  C   UNL     1      -0.154  25.780  12.096  1.00  0.00     0.198 A 
ATOM     95  C   UNL     1      -1.752  26.834  10.649  1.00  0.00     0.198 A 
ATOM     96  F   UNL     1      -2.624  25.663   8.807  1.00  0.00    -0.203 F 
ATOM     97  F   UNL     1       0.612  25.809  13.196  1.00  0.00    -0.200 F 
ATOM     98  C   UNL     1      -0.935  26.878  11.768  1.00  0.00     0.200 A 
ATOM     99  F   UNL     1      -2.494  27.899  10.318  1.00  0.00    -0.200 F 
ATOM    100  F   UNL     1      -0.908  27.976  12.536  1.00  0.00    -0.200 F 
ENDBRANCH  67  90
ENDBRANCH  41  42
ENDBRANCH  33  36
ENDBRANCH  31  32
ENDBRANCH  30  31
ENDBRANCH   1  30
TORSDOF 15
