REMARK SMILES COC(=O)c1cc(F)cc(-c2ccc(C(=O)NCCCCNC(=O)c3ccc(-c4c5nc(c(-c6c(F)c(F)c(F)c(F)c6F)c6ccc([nH]6)c(-c6c(F)c(F)c(F)c(F)c6F)c6nc(c(-c7c(F)c(F)c(F)c(F)c7F)c7ccc4[nH]7)C=C6)C=C5)cc3)cc2C)c1
REMARK SMILES IDX 19 1 18 2 17 3 15 4 16 5 14 7 11 8 12 9 89 10 13 11 88 12
REMARK SMILES IDX 90 13 10 14 5 15 6 16 91 17 7 18 8 19 9 20 3 21 4 22 2 23
REMARK SMILES IDX 1 24 20 25 21 26 22 27 23 28 24 30 25 31 26 32 87 33 27 34
REMARK SMILES IDX 86 35 28 36 29 37 30 38 80 39 31 40 85 41 79 42 81 43 32 44
REMARK SMILES IDX 84 45 78 46 77 47 33 49 65 50 45 51 64 52 46 53 49 54 63 55
REMARK SMILES IDX 82 56 47 57 48 58 62 60 83 61 50 62 34 63 35 64 43 65 36 66
REMARK SMILES IDX 37 67 41 68 44 69 38 70 39 71 42 72 40 73 66 74 67 75 75 76
REMARK SMILES IDX 68 77 69 78 73 79 76 80 70 81 71 82 74 83 72 84 51 85 52 86
REMARK SMILES IDX 60 87 53 88 54 89 58 90 61 91 55 92 56 93 59 94 57 95
REMARK H PARENT 17 6 22 29 81 48 49 59
REMARK Flexibility Score: inf
ROOT
ATOM      1  C   UNL     1       5.491 -10.911  -2.832  1.00  0.00     0.023 C 
ENDROOT
BRANCH   1   2
ATOM      2  C   UNL     1       5.572  -9.540  -3.496  1.00  0.00     0.116 C 
BRANCH   2   3
ATOM      3  N   UNL     1       5.046  -9.529  -4.849  1.00  0.00    -0.352 N 
ATOM      4  C   UNL     1       3.998  -8.892  -5.469  1.00  0.00     0.251 C 
ATOM      5  O   UNL     1       3.812  -9.179  -6.654  1.00  0.00    -0.269 OA
ATOM      6  H   UNL     1       5.555 -10.109  -5.460  1.00  0.00     0.163 HD
BRANCH   4   7
ATOM      7  C   UNL     1       3.073  -7.910  -4.821  1.00  0.00     0.040 A 
ATOM      8  C   UNL     1       1.179  -6.053  -3.752  1.00  0.00    -0.015 A 
ATOM      9  C   UNL     1       2.385  -6.357  -3.095  1.00  0.00     0.010 A 
ATOM     10  C   UNL     1       0.943  -6.660  -4.998  1.00  0.00    -0.042 A 
ATOM     11  C   UNL     1       3.337  -7.213  -3.651  1.00  0.00     0.014 A 
ATOM     12  C   UNL     1       1.873  -7.607  -5.493  1.00  0.00     0.018 A 
ATOM     13  C   UNL     1      -0.223  -6.310  -5.885  1.00  0.00     0.045 C 
BRANCH   8  14
ATOM     14  C   UNL     1       0.294  -5.067  -3.112  1.00  0.00    -0.014 A 
ATOM     15  C   UNL     1       0.045  -2.876  -2.050  1.00  0.00     0.063 A 
ATOM     16  C   UNL     1      -1.263  -3.190  -1.684  1.00  0.00     0.055 A 
ATOM     17  C   UNL     1       0.803  -3.799  -2.778  1.00  0.00     0.024 A 
ATOM     18  C   UNL     1      -1.782  -4.430  -2.039  1.00  0.00     0.124 A 
ATOM     19  F   UNL     1      -3.037  -4.738  -1.687  1.00  0.00    -0.207 F 
ATOM     20  C   UNL     1      -1.019  -5.370  -2.733  1.00  0.00     0.048 A 
BRANCH  15  21
ATOM     21  C   UNL     1       0.702  -1.601  -1.674  1.00  0.00     0.337 C 
ATOM     22  O   UNL     1       1.649  -1.133  -2.275  1.00  0.00    -0.246 OA
BRANCH  21  23
ATOM     23  O   UNL     1       0.153  -1.119  -0.531  1.00  0.00    -0.465 OA
ATOM     24  C   UNL     1       0.820   0.037  -0.022  1.00  0.00     0.282 C 
ENDBRANCH  21  23
ENDBRANCH  15  21
ENDBRANCH   8  14
ENDBRANCH   4   7
ENDBRANCH   2   3
ENDBRANCH   1   2
BRANCH   1  25
ATOM     25  C   UNL     1       6.594 -11.903  -3.208  1.00  0.00     0.023 C 
BRANCH  25  26
ATOM     26  C   UNL     1       8.023 -11.391  -3.030  1.00  0.00     0.116 C 
BRANCH  26  27
ATOM     27  N   UNL     1       8.296 -10.892  -1.693  1.00  0.00    -0.352 N 
ATOM     28  C   UNL     1       9.499 -10.655  -1.076  1.00  0.00     0.251 C 
ATOM     29  H   UNL     1       7.500 -10.694  -1.149  1.00  0.00     0.163 HD
ATOM     30  O   UNL     1       9.512 -10.377   0.121  1.00  0.00    -0.269 OA
BRANCH  28  31
ATOM     31  C   UNL     1      10.781 -10.750  -1.815  1.00  0.00     0.039 A 
ATOM     32  C   UNL     1      11.902 -11.241  -1.136  1.00  0.00     0.014 A 
ATOM     33  C   UNL     1      10.919 -10.296  -3.128  1.00  0.00     0.014 A 
ATOM     34  C   UNL     1      13.144 -11.293  -1.774  1.00  0.00     0.010 A 
ATOM     35  C   UNL     1      12.139 -10.418  -3.791  1.00  0.00     0.010 A 
ATOM     36  C   UNL     1      13.269 -10.893  -3.113  1.00  0.00    -0.014 A 
BRANCH  36  37
ATOM     37  C   UNL     1      14.579 -10.920  -3.809  1.00  0.00     0.031 A 
ATOM     38  C   UNL     1      15.219  -9.634  -4.258  1.00  0.00     0.074 A 
ATOM     39  C   UNL     1      15.166 -12.101  -4.078  1.00  0.00     0.049 A 
ATOM     40  N   UNL     1      16.325  -9.453  -4.935  1.00  0.00    -0.248 NA
ATOM     41  C   UNL     1      14.514  -8.387  -3.921  1.00  0.00     0.031 C 
ATOM     42  C   UNL     1      14.624 -13.411  -3.718  1.00  0.00     0.029 A 
ATOM     43  N   UNL     1      16.342 -12.392  -4.723  1.00  0.00    -0.354 N 
ATOM     44  C   UNL     1      16.440  -8.080  -5.111  1.00  0.00     0.074 A 
ATOM     45  C   UNL     1      15.267  -7.476  -4.520  1.00  0.00     0.031 C 
ATOM     46  C   UNL     1      15.477 -14.365  -4.123  1.00  0.00     0.029 A 
ATOM     47  C   UNL     1      16.604 -13.737  -4.809  1.00  0.00     0.049 A 
ATOM     48  H   UNL     1      16.941 -11.701  -5.089  1.00  0.00     0.167 HD
ATOM     49  C   UNL     1      17.448  -7.387  -5.690  1.00  0.00     0.037 A 
ATOM     50  C   UNL     1      17.632 -14.390  -5.383  1.00  0.00     0.037 A 
ATOM     51  C   UNL     1      18.625  -7.995  -6.252  1.00  0.00     0.049 A 
ATOM     52  C   UNL     1      18.727 -13.598  -6.044  1.00  0.00     0.074 A 
ATOM     53  C   UNL     1      19.728  -7.377  -6.813  1.00  0.00     0.029 A 
ATOM     54  N   UNL     1      18.851  -9.362  -6.325  1.00  0.00    -0.354 N 
ATOM     55  N   UNL     1      18.852 -12.297  -6.157  1.00  0.00    -0.248 NA
ATOM     56  C   UNL     1      19.825 -14.360  -6.654  1.00  0.00     0.031 C 
ATOM     57  C   UNL     1      20.595  -8.369  -7.278  1.00  0.00     0.029 A 
ATOM     58  C   UNL     1      20.064  -9.606  -6.948  1.00  0.00     0.049 A 
ATOM     59  H   UNL     1      18.240 -10.056  -5.985  1.00  0.00     0.167 HD
ATOM     60  C   UNL     1      20.051 -12.084  -6.823  1.00  0.00     0.074 A 
ATOM     61  C   UNL     1      20.623 -13.390  -7.080  1.00  0.00     0.031 C 
ATOM     62  C   UNL     1      20.625 -10.912  -7.188  1.00  0.00     0.037 A 
BRANCH  49  63
ATOM     63  C   UNL     1      17.342  -5.889  -5.739  1.00  0.00     0.064 A 
ATOM     64  C   UNL     1      17.212  -5.223  -6.967  1.00  0.00     0.173 A 
ATOM     65  C   UNL     1      17.458  -5.107  -4.580  1.00  0.00     0.173 A 
ATOM     66  F   UNL     1      17.103  -5.922  -8.107  1.00  0.00    -0.203 F 
ATOM     67  C   UNL     1      17.222  -3.833  -7.035  1.00  0.00     0.198 A 
ATOM     68  C   UNL     1      17.436  -3.716  -4.647  1.00  0.00     0.198 A 
ATOM     69  F   UNL     1      17.574  -5.693  -3.378  1.00  0.00    -0.203 F 
ATOM     70  F   UNL     1      17.137  -3.220  -8.224  1.00  0.00    -0.200 F 
ATOM     71  C   UNL     1      17.330  -3.080  -5.875  1.00  0.00     0.200 A 
ATOM     72  F   UNL     1      17.516  -2.991  -3.523  1.00  0.00    -0.200 F 
ATOM     73  F   UNL     1      17.334  -1.742  -5.941  1.00  0.00    -0.200 F 
ENDBRANCH  49  63
BRANCH  50  74
ATOM     74  C   UNL     1      17.684 -15.874  -5.320  1.00  0.00     0.064 A 
ATOM     75  C   UNL     1      16.762 -16.671  -6.016  1.00  0.00     0.173 A 
ATOM     76  C   UNL     1      18.640 -16.526  -4.528  1.00  0.00     0.173 A 
ATOM     77  F   UNL     1      15.823 -16.097  -6.783  1.00  0.00    -0.203 F 
ATOM     78  C   UNL     1      16.779 -18.059  -5.902  1.00  0.00     0.198 A 
ATOM     79  C   UNL     1      18.675 -17.916  -4.439  1.00  0.00     0.198 A 
ATOM     80  F   UNL     1      19.555 -15.809  -3.860  1.00  0.00    -0.203 F 
ATOM     81  F   UNL     1      15.861 -18.794  -6.545  1.00  0.00    -0.200 F 
ATOM     82  C   UNL     1      17.739 -18.681  -5.118  1.00  0.00     0.200 A 
ATOM     83  F   UNL     1      19.619 -18.513  -3.699  1.00  0.00    -0.200 F 
ATOM     84  F   UNL     1      17.762 -20.017  -5.018  1.00  0.00    -0.200 F 
ENDBRANCH  50  74
BRANCH  62  85
ATOM     85  C   UNL     1      21.954 -10.969  -7.884  1.00  0.00     0.064 A 
ATOM     86  C   UNL     1      23.108 -10.488  -7.246  1.00  0.00     0.173 A 
ATOM     87  C   UNL     1      22.071 -11.410  -9.210  1.00  0.00     0.173 A 
ATOM     88  F   UNL     1      23.048 -10.045  -5.981  1.00  0.00    -0.203 F 
ATOM     89  C   UNL     1      24.325 -10.427  -7.918  1.00  0.00     0.198 A 
ATOM     90  C   UNL     1      23.297 -11.378  -9.868  1.00  0.00     0.198 A 
ATOM     91  F   UNL     1      20.999 -11.890  -9.859  1.00  0.00    -0.203 F 
ATOM     92  F   UNL     1      25.404  -9.921  -7.304  1.00  0.00    -0.200 F 
ATOM     93  C   UNL     1      24.420 -10.874  -9.227  1.00  0.00     0.200 A 
ATOM     94  F   UNL     1      23.392 -11.834 -11.124  1.00  0.00    -0.200 F 
ATOM     95  F   UNL     1      25.593 -10.821  -9.871  1.00  0.00    -0.200 F 
ENDBRANCH  62  85
ENDBRANCH  36  37
ENDBRANCH  28  31
ENDBRANCH  26  27
ENDBRANCH  25  26
ENDBRANCH   1  25
TORSDOF 14
