REMARK SMILES CC[C@@H](Oc1ccccc1)C(=O)NCCCCNC(=O)c1ccc(-c2c3nc(c(-c4c(F)c(F)c(F)c(F)c4F)c4ccc([nH]4)c(-c4c(F)c(F)c(F)c(F)c4F)c4nc(c(-c5c(F)c(F)c(F)c(F)c5F)c5ccc2[nH]5)C=C4)C=C3)cc1
REMARK SMILES IDX 15 1 14 2 13 3 11 4 12 5 3 7 2 8 1 9 4 10 5 11 6 12 10 13
REMARK SMILES IDX 7 14 9 15 8 16 16 17 17 18 18 19 19 20 20 22 21 23 22 24
REMARK SMILES IDX 83 25 23 26 82 27 24 28 25 29 26 30 76 31 27 32 81 33 75 34
REMARK SMILES IDX 77 35 28 36 80 37 74 38 73 39 29 41 61 42 41 43 60 44 42 45
REMARK SMILES IDX 45 46 59 47 78 48 43 49 44 50 58 52 79 53 46 54 30 55 31 56
REMARK SMILES IDX 39 57 32 58 33 59 37 60 40 61 34 62 35 63 38 64 36 65 62 66
REMARK SMILES IDX 63 67 71 68 64 69 65 70 69 71 72 72 66 73 67 74 70 75 68 76
REMARK SMILES IDX 47 77 48 78 56 79 49 80 50 81 54 82 57 83 51 84 52 85 55 86
REMARK SMILES IDX 53 87
REMARK H PARENT 13 6 18 21 77 40 45 51
REMARK Flexibility Score: inf
ROOT
ATOM      1  C   UNL     1      -2.841   2.643  -0.880  1.00  0.00     0.023 C 
ENDROOT
BRANCH   1   2
ATOM      2  C   UNL     1      -2.049   2.125  -2.075  1.00  0.00     0.116 C 
BRANCH   2   3
ATOM      3  N   UNL     1      -0.907   2.967  -2.393  1.00  0.00    -0.353 N 
ATOM      4  C   UNL     1       0.429   2.657  -2.367  1.00  0.00     0.261 C 
ATOM      5  O   UNL     1       1.231   3.523  -2.729  1.00  0.00    -0.271 OA
ATOM      6  H   UNL     1      -1.123   3.888  -2.664  1.00  0.00     0.163 HD
BRANCH   4   7
ATOM      7  C   UNL     1       0.907   1.296  -1.827  1.00  0.00     0.261 C 
BRANCH   7   8
ATOM      8  C   UNL     1       0.666   1.286  -0.305  1.00  0.00     0.052 C 
ATOM      9  C   UNL     1       1.767   0.572   0.469  1.00  0.00     0.008 C 
ENDBRANCH   7   8
BRANCH   7  10
ATOM     10  O   UNL     1       0.163   0.325  -2.579  1.00  0.00    -0.481 OA
BRANCH  10  11
ATOM     11  C   UNL     1       0.570  -0.967  -2.460  1.00  0.00     0.120 A 
ATOM     12  C   UNL     1       1.317  -1.533  -3.488  1.00  0.00     0.046 A 
ATOM     13  C   UNL     1       0.069  -1.763  -1.431  1.00  0.00     0.046 A 
ATOM     14  C   UNL     1       1.613  -2.896  -3.454  1.00  0.00     0.004 A 
ATOM     15  C   UNL     1       0.384  -3.119  -1.385  1.00  0.00     0.004 A 
ATOM     16  C   UNL     1       1.157  -3.686  -2.397  1.00  0.00     0.000 A 
ENDBRANCH  10  11
ENDBRANCH   7  10
ENDBRANCH   4   7
ENDBRANCH   2   3
ENDBRANCH   1   2
BRANCH   1  17
ATOM     17  C   UNL     1      -3.634   3.920  -1.147  1.00  0.00     0.023 C 
BRANCH  17  18
ATOM     18  C   UNL     1      -4.598   3.855  -2.328  1.00  0.00     0.116 C 
BRANCH  18  19
ATOM     19  N   UNL     1      -5.567   2.774  -2.225  1.00  0.00    -0.352 N 
ATOM     20  C   UNL     1      -6.927   2.798  -2.430  1.00  0.00     0.251 C 
ATOM     21  H   UNL     1      -5.195   1.898  -1.972  1.00  0.00     0.163 HD
ATOM     22  O   UNL     1      -7.607   1.810  -2.187  1.00  0.00    -0.269 OA
BRANCH  20  23
ATOM     23  C   UNL     1      -7.573   4.041  -2.904  1.00  0.00     0.039 A 
ATOM     24  C   UNL     1      -8.714   4.498  -2.239  1.00  0.00     0.014 A 
ATOM     25  C   UNL     1      -7.042   4.768  -3.972  1.00  0.00     0.014 A 
ATOM     26  C   UNL     1      -9.268   5.731  -2.586  1.00  0.00     0.010 A 
ATOM     27  C   UNL     1      -7.553   6.029  -4.271  1.00  0.00     0.010 A 
ATOM     28  C   UNL     1      -8.660   6.530  -3.569  1.00  0.00    -0.014 A 
BRANCH  28  29
ATOM     29  C   UNL     1      -9.139   7.909  -3.840  1.00  0.00     0.031 A 
ATOM     30  C   UNL     1      -9.711   8.269  -5.181  1.00  0.00     0.074 A 
ATOM     31  C   UNL     1      -8.984   8.858  -2.895  1.00  0.00     0.049 A 
ATOM     32  N   UNL     1     -10.110   9.435  -5.623  1.00  0.00    -0.248 NA
ATOM     33  C   UNL     1      -9.831   7.181  -6.165  1.00  0.00     0.031 C 
ATOM     34  C   UNL     1      -8.393   8.645  -1.572  1.00  0.00     0.029 A 
ATOM     35  N   UNL     1      -9.296  10.195  -2.905  1.00  0.00    -0.354 N 
ATOM     36  C   UNL     1     -10.515   9.225  -6.934  1.00  0.00     0.074 A 
ATOM     37  C   UNL     1     -10.273   7.829  -7.233  1.00  0.00     0.031 C 
ATOM     38  C   UNL     1      -8.399   9.804  -0.895  1.00  0.00     0.029 A 
ATOM     39  C   UNL     1      -8.957  10.849  -1.746  1.00  0.00     0.049 A 
ATOM     40  H   UNL     1      -9.723  10.642  -3.671  1.00  0.00     0.167 HD
ATOM     41  C   UNL     1     -11.057  10.112  -7.802  1.00  0.00     0.037 A 
ATOM     42  C   UNL     1      -9.069  12.149  -1.412  1.00  0.00     0.037 A 
ATOM     43  C   UNL     1     -11.320  11.493  -7.493  1.00  0.00     0.049 A 
ATOM     44  C   UNL     1      -9.668  13.112  -2.401  1.00  0.00     0.074 A 
ATOM     45  C   UNL     1     -11.936  12.450  -8.282  1.00  0.00     0.029 A 
ATOM     46  N   UNL     1     -10.979  12.117  -6.302  1.00  0.00    -0.354 N 
ATOM     47  N   UNL     1     -10.123  12.883  -3.608  1.00  0.00    -0.248 NA
ATOM     48  C   UNL     1      -9.774  14.516  -1.977  1.00  0.00     0.031 C 
ATOM     49  C   UNL     1     -11.923  13.664  -7.588  1.00  0.00     0.029 A 
ATOM     50  C   UNL     1     -11.345  13.453  -6.347  1.00  0.00     0.049 A 
ATOM     51  H   UNL     1     -10.541  11.676  -5.539  1.00  0.00     0.167 HD
ATOM     52  C   UNL     1     -10.590  14.102  -4.078  1.00  0.00     0.074 A 
ATOM     53  C   UNL     1     -10.383  15.066  -3.018  1.00  0.00     0.031 C 
ATOM     54  C   UNL     1     -11.137  14.399  -5.282  1.00  0.00     0.037 A 
BRANCH  41  55
ATOM     55  C   UNL     1     -11.414   9.621  -9.174  1.00  0.00     0.064 A 
ATOM     56  C   UNL     1     -12.505   8.765  -9.386  1.00  0.00     0.173 A 
ATOM     57  C   UNL     1     -10.702  10.069 -10.297  1.00  0.00     0.173 A 
ATOM     58  F   UNL     1     -13.212   8.302  -8.345  1.00  0.00    -0.203 F 
ATOM     59  C   UNL     1     -12.860   8.363 -10.671  1.00  0.00     0.198 A 
ATOM     60  C   UNL     1     -11.077   9.686 -11.582  1.00  0.00     0.198 A 
ATOM     61  F   UNL     1      -9.655  10.893 -10.150  1.00  0.00    -0.203 F 
ATOM     62  F   UNL     1     -13.886   7.518 -10.847  1.00  0.00    -0.200 F 
ATOM     63  C   UNL     1     -12.153   8.831 -11.768  1.00  0.00     0.200 A 
ATOM     64  F   UNL     1     -10.401  10.150 -12.642  1.00  0.00    -0.200 F 
ATOM     65  F   UNL     1     -12.507   8.456 -13.005  1.00  0.00    -0.200 F 
ENDBRANCH  41  55
BRANCH  42  66
ATOM     66  C   UNL     1      -8.610  12.621  -0.079  1.00  0.00     0.064 A 
ATOM     67  C   UNL     1      -9.527  13.074   0.880  1.00  0.00     0.173 A 
ATOM     68  C   UNL     1      -7.248  12.654   0.255  1.00  0.00     0.173 A 
ATOM     69  F   UNL     1     -10.838  13.083   0.600  1.00  0.00    -0.203 F 
ATOM     70  C   UNL     1      -9.097  13.569   2.110  1.00  0.00     0.198 A 
ATOM     71  C   UNL     1      -6.822  13.120   1.496  1.00  0.00     0.198 A 
ATOM     72  F   UNL     1      -6.330  12.227  -0.625  1.00  0.00    -0.203 F 
ATOM     73  F   UNL     1      -9.991  14.048   2.986  1.00  0.00    -0.200 F 
ATOM     74  C   UNL     1      -7.746  13.587   2.419  1.00  0.00     0.200 A 
ATOM     75  F   UNL     1      -5.516  13.123   1.796  1.00  0.00    -0.200 F 
ATOM     76  F   UNL     1      -7.333  14.065   3.601  1.00  0.00    -0.200 F 
ENDBRANCH  42  66
BRANCH  54  77
ATOM     77  C   UNL     1     -11.577  15.816  -5.506  1.00  0.00     0.064 A 
ATOM     78  C   UNL     1     -10.649  16.854  -5.679  1.00  0.00     0.173 A 
ATOM     79  C   UNL     1     -12.941  16.135  -5.582  1.00  0.00     0.173 A 
ATOM     80  F   UNL     1      -9.333  16.604  -5.598  1.00  0.00    -0.203 F 
ATOM     81  C   UNL     1     -11.072  18.163  -5.894  1.00  0.00     0.198 A 
ATOM     82  C   UNL     1     -13.360  17.439  -5.828  1.00  0.00     0.198 A 
ATOM     83  F   UNL     1     -13.869  15.177  -5.430  1.00  0.00    -0.203 F 
ATOM     84  F   UNL     1     -10.169  19.147  -6.006  1.00  0.00    -0.200 F 
ATOM     85  C   UNL     1     -12.426  18.453  -5.976  1.00  0.00     0.200 A 
ATOM     86  F   UNL     1     -14.668  17.715  -5.920  1.00  0.00    -0.200 F 
ATOM     87  F   UNL     1     -12.831  19.713  -6.189  1.00  0.00    -0.200 F 
ENDBRANCH  54  77
ENDBRANCH  28  29
ENDBRANCH  20  23
ENDBRANCH  18  19
ENDBRANCH  17  18
ENDBRANCH   1  17
TORSDOF 14
