REMARK SMILES O=C(NCCCCNC(=O)[C@@H]1CS[C@H](c2ncc(-c3ccccc3)s2)[NH2+]1)c1ccc(-c2c3nc(c(-c4c(F)c(F)c(F)c(F)c4F)c4ccc([nH]4)c(-c4c(F)c(F)c(F)c(F)c4F)c4nc(c(-c5c(F)c(F)c(F)c(F)c5F)c5ccc2[nH]5)C=C4)C=C3)cc1
REMARK SMILES IDX 5 1 4 2 3 3 1 4 2 5 27 7 28 8 89 9 29 10 88 11 30 12 31 13
REMARK SMILES IDX 32 14 82 15 33 16 87 17 81 18 83 19 34 20 86 21 80 22 79 23
REMARK SMILES IDX 35 25 67 26 47 27 66 28 48 29 51 30 65 31 84 32 49 33 50 34
REMARK SMILES IDX 64 36 85 37 52 38 36 39 37 40 45 41 38 42 39 43 43 44 46 45
REMARK SMILES IDX 40 46 41 47 44 48 42 49 68 50 69 51 77 52 70 53 71 54 75 55
REMARK SMILES IDX 78 56 72 57 73 58 76 59 74 60 53 61 54 62 62 63 55 64 56 65
REMARK SMILES IDX 60 66 63 67 57 68 58 69 61 70 59 71 6 72 7 73 8 74 9 75
REMARK SMILES IDX 10 77 11 78 12 79 26 80 13 81 14 82 15 85 16 86 25 87 17 88
REMARK SMILES IDX 18 89 19 90 20 91 24 92 21 93 23 94 22 95
REMARK H PARENT 3 6 83 24 51 35 8 76 26 83 26 84
REMARK Flexibility Score: inf
ROOT
ATOM      1  C   UNL     1       4.497  -8.372   8.407  1.00  0.00     0.023 C 
ENDROOT
BRANCH   1   2
ATOM      2  C   UNL     1       3.497  -9.232   9.214  1.00  0.00     0.116 C 
BRANCH   2   3
ATOM      3  N   UNL     1       2.770 -10.225   8.463  1.00  0.00    -0.352 N 
ATOM      4  O   UNL     1       1.060 -11.390   7.596  1.00  0.00    -0.269 OA
ATOM      5  C   UNL     1       1.438 -10.548   8.406  1.00  0.00     0.251 C 
ATOM      6  H   UNL     1       3.339 -10.778   7.880  1.00  0.00     0.163 HD
BRANCH   5   7
ATOM      7  C   UNL     1       0.422  -9.871   9.241  1.00  0.00     0.039 A 
ATOM      8  C   UNL     1      -0.530  -9.073   8.607  1.00  0.00     0.014 A 
ATOM      9  C   UNL     1       0.328 -10.082  10.615  1.00  0.00     0.014 A 
ATOM     10  C   UNL     1      -1.463  -8.350   9.366  1.00  0.00     0.010 A 
ATOM     11  C   UNL     1      -0.680  -9.434  11.355  1.00  0.00     0.010 A 
ATOM     12  C   UNL     1      -1.552  -8.499  10.760  1.00  0.00    -0.014 A 
BRANCH  12  13
ATOM     13  C   UNL     1      -2.481  -7.660  11.605  1.00  0.00     0.031 A 
ATOM     14  C   UNL     1      -1.963  -6.951  12.846  1.00  0.00     0.074 A 
ATOM     15  C   UNL     1      -3.788  -7.495  11.302  1.00  0.00     0.049 A 
ATOM     16  N   UNL     1      -2.623  -6.384  13.830  1.00  0.00    -0.248 NA
ATOM     17  C   UNL     1      -0.503  -6.873  13.000  1.00  0.00     0.031 C 
ATOM     18  C   UNL     1      -4.463  -8.017  10.117  1.00  0.00     0.029 A 
ATOM     19  N   UNL     1      -4.795  -6.845  11.990  1.00  0.00    -0.354 N 
ATOM     20  C   UNL     1      -1.665  -5.945  14.741  1.00  0.00     0.074 A 
ATOM     21  C   UNL     1      -0.377  -6.315  14.195  1.00  0.00     0.031 C 
ATOM     22  C   UNL     1      -5.754  -7.658  10.146  1.00  0.00     0.029 A 
ATOM     23  C   UNL     1      -6.035  -6.992  11.413  1.00  0.00     0.049 A 
ATOM     24  H   UNL     1      -4.640  -6.327  12.812  1.00  0.00     0.167 HD
ATOM     25  C   UNL     1      -1.836  -5.301  15.924  1.00  0.00     0.037 A 
ATOM     26  C   UNL     1      -7.274  -6.711  11.866  1.00  0.00     0.037 A 
ATOM     27  C   UNL     1      -3.112  -4.892  16.459  1.00  0.00     0.049 A 
ATOM     28  C   UNL     1      -7.463  -6.098  13.224  1.00  0.00     0.074 A 
ATOM     29  C   UNL     1      -3.375  -4.213  17.638  1.00  0.00     0.029 A 
ATOM     30  N   UNL     1      -4.339  -5.124  15.856  1.00  0.00    -0.354 N 
ATOM     31  N   UNL     1      -6.558  -5.748  14.104  1.00  0.00    -0.248 NA
ATOM     32  C   UNL     1      -8.846  -5.855  13.660  1.00  0.00     0.031 C 
ATOM     33  C   UNL     1      -4.761  -4.109  17.789  1.00  0.00     0.029 A 
ATOM     34  C   UNL     1      -5.362  -4.638  16.659  1.00  0.00     0.049 A 
ATOM     35  H   UNL     1      -4.466  -5.569  14.987  1.00  0.00     0.167 HD
ATOM     36  C   UNL     1      -7.256  -5.215  15.179  1.00  0.00     0.074 A 
ATOM     37  C   UNL     1      -8.662  -5.289  14.845  1.00  0.00     0.031 C 
ATOM     38  C   UNL     1      -6.764  -4.700  16.332  1.00  0.00     0.037 A 
BRANCH  25  39
ATOM     39  C   UNL     1      -0.615  -5.046  16.772  1.00  0.00     0.064 A 
ATOM     40  C   UNL     1       0.388  -4.139  16.401  1.00  0.00     0.173 A 
ATOM     41  C   UNL     1      -0.473  -5.701  18.009  1.00  0.00     0.173 A 
ATOM     42  F   UNL     1       0.311  -3.487  15.232  1.00  0.00    -0.203 F 
ATOM     43  C   UNL     1       1.504  -3.929  17.212  1.00  0.00     0.198 A 
ATOM     44  C   UNL     1       0.621  -5.458  18.835  1.00  0.00     0.198 A 
ATOM     45  F   UNL     1      -1.407  -6.569  18.426  1.00  0.00    -0.203 F 
ATOM     46  F   UNL     1       2.480  -3.105  16.806  1.00  0.00    -0.200 F 
ATOM     47  C   UNL     1       1.615  -4.582  18.431  1.00  0.00     0.200 A 
ATOM     48  F   UNL     1       0.713  -6.074  20.022  1.00  0.00    -0.200 F 
ATOM     49  F   UNL     1       2.685  -4.374  19.210  1.00  0.00    -0.200 F 
ENDBRANCH  25  39
BRANCH  26  50
ATOM     50  C   UNL     1      -8.447  -7.087  11.029  1.00  0.00     0.064 A 
ATOM     51  C   UNL     1      -9.252  -6.115  10.422  1.00  0.00     0.173 A 
ATOM     52  C   UNL     1      -8.750  -8.435  10.778  1.00  0.00     0.173 A 
ATOM     53  F   UNL     1      -9.024  -4.814  10.658  1.00  0.00    -0.203 F 
ATOM     54  C   UNL     1     -10.306  -6.477   9.585  1.00  0.00     0.198 A 
ATOM     55  C   UNL     1      -9.779  -8.795   9.912  1.00  0.00     0.198 A 
ATOM     56  F   UNL     1      -8.013  -9.405  11.340  1.00  0.00    -0.203 F 
ATOM     57  F   UNL     1     -11.078  -5.529   9.036  1.00  0.00    -0.200 F 
ATOM     58  C   UNL     1     -10.558  -7.815   9.318  1.00  0.00     0.200 A 
ATOM     59  F   UNL     1     -10.002 -10.087   9.640  1.00  0.00    -0.200 F 
ATOM     60  F   UNL     1     -11.551  -8.159   8.487  1.00  0.00    -0.200 F 
ENDBRANCH  26  50
BRANCH  38  61
ATOM     61  C   UNL     1      -7.740  -4.101  17.307  1.00  0.00     0.064 A 
ATOM     62  C   UNL     1      -8.626  -4.886  18.058  1.00  0.00     0.173 A 
ATOM     63  C   UNL     1      -7.747  -2.714  17.529  1.00  0.00     0.173 A 
ATOM     64  F   UNL     1      -8.673  -6.215  17.875  1.00  0.00    -0.203 F 
ATOM     65  C   UNL     1      -9.495  -4.305  18.979  1.00  0.00     0.198 A 
ATOM     66  C   UNL     1      -8.593  -2.140  18.474  1.00  0.00     0.198 A 
ATOM     67  F   UNL     1      -6.918  -1.915  16.841  1.00  0.00    -0.203 F 
ATOM     68  F   UNL     1     -10.365  -5.070  19.654  1.00  0.00    -0.200 F 
ATOM     69  C   UNL     1      -9.471  -2.934  19.194  1.00  0.00     0.200 A 
ATOM     70  F   UNL     1      -8.555  -0.818  18.690  1.00  0.00    -0.200 F 
ATOM     71  F   UNL     1     -10.298  -2.379  20.091  1.00  0.00    -0.200 F 
ENDBRANCH  38  61
ENDBRANCH  12  13
ENDBRANCH   5   7
ENDBRANCH   2   3
ENDBRANCH   1   2
BRANCH   1  72
ATOM     72  C   UNL     1       4.670  -8.403   6.667  1.00  0.00     0.023 C 
BRANCH  72  73
ATOM     73  C   UNL     1       3.957  -7.219   4.912  1.00  0.00     0.116 C 
BRANCH  73  74
ATOM     74  N   UNL     1       4.219  -5.727   4.375  1.00  0.00    -0.351 N 
ATOM     75  C   UNL     1       5.163  -5.044   3.677  1.00  0.00     0.279 C 
ATOM     76  H   UNL     1       3.475  -5.132   4.627  1.00  0.00     0.163 HD
ATOM     77  O   UNL     1       4.896  -3.863   3.417  1.00  0.00    -0.268 OA
BRANCH  75  78
ATOM     78  C   UNL     1       6.508  -5.628   3.224  1.00  0.00     0.284 C 
ATOM     79  C   UNL     1       6.386  -6.708   2.153  1.00  0.00     0.151 C 
ATOM     80  N   UNL     1       7.344  -6.068   4.379  1.00  0.00    -0.319 N 
ATOM     81  S   UNL     1       7.241  -8.149   2.841  1.00  0.00    -0.085 SA
ATOM     82  C   UNL     1       7.133  -7.506   4.529  1.00  0.00     0.303 C 
ATOM     83  H   UNL     1       7.056  -5.580   5.228  1.00  0.00     0.348 HD
ATOM     84  H   UNL     1       8.329  -5.857   4.219  1.00  0.00     0.348 HD
BRANCH  82  85
ATOM     85  C   UNL     1       5.796  -7.815   5.135  1.00  0.00     0.162 A 
ATOM     86  N   UNL     1       4.665  -9.008   4.853  1.00  0.00    -0.242 NA
ATOM     87  S   UNL     1       4.985  -6.255   6.647  1.00  0.00    -0.112 S 
ATOM     88  C   UNL     1       2.991  -8.771   5.699  1.00  0.00     0.132 A 
ATOM     89  C   UNL     1       2.940  -7.315   6.663  1.00  0.00     0.055 A 
BRANCH  89  90
ATOM     90  C   UNL     1       1.840  -6.460   7.181  1.00  0.00    -0.007 A 
ATOM     91  C   UNL     1       1.192  -5.516   6.375  1.00  0.00     0.009 A 
ATOM     92  C   UNL     1       1.413  -6.550   8.501  1.00  0.00     0.009 A 
ATOM     93  C   UNL     1       0.196  -4.675   6.900  1.00  0.00     0.001 A 
ATOM     94  C   UNL     1       0.428  -5.718   9.036  1.00  0.00     0.001 A 
ATOM     95  C   UNL     1      -0.180  -4.770   8.235  1.00  0.00     0.000 A 
ENDBRANCH  89  90
ENDBRANCH  82  85
ENDBRANCH  75  78
ENDBRANCH  73  74
ENDBRANCH  72  73
ENDBRANCH   1  72
TORSDOF 13
