REMARK SMILES C[C@H]1[C@H](C(=O)NCCCCNC(=O)c2ccc(-c3c4nc(c(-c5c(F)c(F)c(F)c(F)c5F)c5ccc([nH]5)c(-c5c(F)c(F)c(F)c(F)c5F)c5nc(c(-c6c(F)c(F)c(F)c(F)c6F)c6ccc3[nH]6)C=C5)C=C4)cc2)CC[N@@H+]1Cc1cnn(-c2ccccc2)c1
REMARK SMILES IDX 8 1 7 2 6 3 4 4 5 5 3 7 1 8 2 9 79 10 77 11 78 12 80 14
REMARK SMILES IDX 81 15 82 16 91 17 83 18 84 19 85 20 86 21 90 22 87 23 89 24
REMARK SMILES IDX 88 25 9 26 10 27 11 28 12 29 13 31 14 32 15 33 76 34 16 35
REMARK SMILES IDX 75 36 17 37 18 38 19 39 69 40 20 41 74 42 68 43 70 44 21 45
REMARK SMILES IDX 73 46 67 47 66 48 22 50 54 51 34 52 53 53 35 54 38 55 52 56
REMARK SMILES IDX 71 57 36 58 37 59 51 61 72 62 39 63 23 64 24 65 32 66 25 67
REMARK SMILES IDX 26 68 30 69 33 70 27 71 28 72 31 73 29 74 55 75 56 76 64 77
REMARK SMILES IDX 57 78 58 79 62 80 65 81 59 82 60 83 63 84 61 85 40 86 41 87
REMARK SMILES IDX 49 88 42 89 43 90 47 91 50 92 44 93 45 94 48 95 46 96
REMARK H PARENT 6 6 79 13 11 30 70 49 38 60
REMARK Flexibility Score: inf
ROOT
ATOM      1  C   UNL     1       1.654  -0.212   4.516  1.00  0.00     0.023 C 
ENDROOT
BRANCH   1   2
ATOM      2  C   UNL     1       0.839   0.569   3.489  1.00  0.00     0.116 C 
BRANCH   2   3
ATOM      3  N   UNL     1       1.485   1.541   2.638  1.00  0.00    -0.356 N 
ATOM      4  C   UNL     1       1.058   1.976   1.410  1.00  0.00     0.229 C 
ATOM      5  O   UNL     1       1.216   3.181   1.176  1.00  0.00    -0.275 OA
ATOM      6  H   UNL     1       2.323   1.933   2.976  1.00  0.00     0.163 HD
BRANCH   4   7
ATOM      7  C   UNL     1       0.468   1.081   0.312  1.00  0.00     0.142 C 
ATOM      8  C   UNL     1       1.501  -0.937  -0.748  1.00  0.00     0.076 C 
ATOM      9  C   UNL     1       0.599  -0.445   0.406  1.00  0.00     0.193 C 
ATOM     10  N   UNL     1      -0.769  -0.990   0.242  1.00  0.00    -0.328 N 
ATOM     11  C   UNL     1      -1.000   1.340  -0.037  1.00  0.00     0.081 C 
ATOM     12  C   UNL     1      -1.490  -0.005  -0.561  1.00  0.00     0.263 C 
ATOM     13  H   UNL     1      -0.701  -1.892  -0.229  1.00  0.00     0.348 HD
BRANCH  10  14
ATOM     14  C   UNL     1      -1.486  -1.484   1.443  1.00  0.00     0.302 C 
BRANCH  14  15
ATOM     15  C   UNL     1      -2.327  -0.498   2.229  1.00  0.00     0.045 A 
ATOM     16  C   UNL     1      -3.614   0.019   1.924  1.00  0.00     0.145 A 
ATOM     17  C   UNL     1      -2.147  -0.003   3.508  1.00  0.00     0.124 A 
ATOM     18  N   UNL     1      -4.098   0.858   2.849  1.00  0.00    -0.176 NA
ATOM     19  N   UNL     1      -3.083   0.990   3.728  1.00  0.00    -0.240 N 
BRANCH  19  20
ATOM     20  C   UNL     1      -3.074   1.994   4.740  1.00  0.00     0.065 A 
ATOM     21  C   UNL     1      -4.263   2.371   5.364  1.00  0.00     0.028 A 
ATOM     22  C   UNL     1      -1.886   2.635   5.124  1.00  0.00     0.028 A 
ATOM     23  C   UNL     1      -4.235   3.295   6.419  1.00  0.00     0.002 A 
ATOM     24  C   UNL     1      -1.852   3.539   6.189  1.00  0.00     0.002 A 
ATOM     25  C   UNL     1      -3.030   3.863   6.843  1.00  0.00     0.000 A 
ENDBRANCH  19  20
ENDBRANCH  14  15
ENDBRANCH  10  14
ENDBRANCH   4   7
ENDBRANCH   2   3
ENDBRANCH   1   2
BRANCH   1  26
ATOM     26  C   UNL     1       1.450   0.160   6.007  1.00  0.00     0.023 C 
BRANCH  26  27
ATOM     27  C   UNL     1       0.061   0.105   6.683  1.00  0.00     0.116 C 
BRANCH  27  28
ATOM     28  N   UNL     1      -0.565  -1.194   6.857  1.00  0.00    -0.352 N 
ATOM     29  C   UNL     1      -1.554  -1.535   7.772  1.00  0.00     0.251 C 
ATOM     30  H   UNL     1      -0.253  -1.913   6.261  1.00  0.00     0.163 HD
ATOM     31  O   UNL     1      -2.060  -2.650   7.754  1.00  0.00    -0.269 OA
BRANCH  29  32
ATOM     32  C   UNL     1      -1.977  -0.565   8.819  1.00  0.00     0.039 A 
ATOM     33  C   UNL     1      -1.609  -0.786  10.147  1.00  0.00     0.014 A 
ATOM     34  C   UNL     1      -2.751   0.551   8.509  1.00  0.00     0.014 A 
ATOM     35  C   UNL     1      -1.911   0.172  11.132  1.00  0.00     0.010 A 
ATOM     36  C   UNL     1      -3.011   1.529   9.489  1.00  0.00     0.010 A 
ATOM     37  C   UNL     1      -2.547   1.387  10.804  1.00  0.00    -0.014 A 
BRANCH  37  38
ATOM     38  C   UNL     1      -2.565   2.534  11.782  1.00  0.00     0.031 A 
ATOM     39  C   UNL     1      -3.822   3.254  12.219  1.00  0.00     0.074 A 
ATOM     40  C   UNL     1      -1.385   3.017  12.235  1.00  0.00     0.049 A 
ATOM     41  N   UNL     1      -3.951   4.247  13.073  1.00  0.00    -0.248 NA
ATOM     42  C   UNL     1      -5.087   2.846  11.597  1.00  0.00     0.031 C 
ATOM     43  C   UNL     1      -0.065   2.545  11.816  1.00  0.00     0.029 A 
ATOM     44  N   UNL     1      -1.100   4.008  13.149  1.00  0.00    -0.354 N 
ATOM     45  C   UNL     1      -5.297   4.597  13.071  1.00  0.00     0.074 A 
ATOM     46  C   UNL     1      -5.938   3.735  12.096  1.00  0.00     0.031 C 
ATOM     47  C   UNL     1       0.880   3.189  12.516  1.00  0.00     0.029 A 
ATOM     48  C   UNL     1       0.243   4.153  13.408  1.00  0.00     0.049 A 
ATOM     49  H   UNL     1      -1.793   4.561  13.578  1.00  0.00     0.167 HD
ATOM     50  C   UNL     1      -5.948   5.526  13.820  1.00  0.00     0.037 A 
ATOM     51  C   UNL     1       0.905   4.952  14.268  1.00  0.00     0.037 A 
ATOM     52  C   UNL     1      -5.342   6.356  14.836  1.00  0.00     0.049 A 
ATOM     53  C   UNL     1       0.154   5.904  15.155  1.00  0.00     0.074 A 
ATOM     54  C   UNL     1      -5.962   7.227  15.720  1.00  0.00     0.029 A 
ATOM     55  N   UNL     1      -3.985   6.426  15.106  1.00  0.00    -0.354 N 
ATOM     56  N   UNL     1      -1.134   6.124  15.229  1.00  0.00    -0.248 NA
ATOM     57  C   UNL     1       0.954   6.716  16.087  1.00  0.00     0.031 C 
ATOM     58  C   UNL     1      -4.979   7.852  16.497  1.00  0.00     0.029 A 
ATOM     59  C   UNL     1      -3.750   7.336  16.129  1.00  0.00     0.049 A 
ATOM     60  H   UNL     1      -3.290   5.907  14.642  1.00  0.00     0.167 HD
ATOM     61  C   UNL     1      -1.300   7.076  16.226  1.00  0.00     0.074 A 
ATOM     62  C   UNL     1       0.015   7.380  16.745  1.00  0.00     0.031 C 
ATOM     63  C   UNL     1      -2.449   7.644  16.664  1.00  0.00     0.037 A 
BRANCH  50  64
ATOM     64  C   UNL     1      -7.429   5.693  13.605  1.00  0.00     0.064 A 
ATOM     65  C   UNL     1      -8.342   4.709  14.011  1.00  0.00     0.173 A 
ATOM     66  C   UNL     1      -7.946   6.886  13.076  1.00  0.00     0.173 A 
ATOM     67  F   UNL     1      -7.902   3.554  14.533  1.00  0.00    -0.203 F 
ATOM     68  C   UNL     1      -9.715   4.898  13.864  1.00  0.00     0.198 A 
ATOM     69  C   UNL     1      -9.321   7.085  12.960  1.00  0.00     0.198 A 
ATOM     70  F   UNL     1      -7.120   7.873  12.695  1.00  0.00    -0.203 F 
ATOM     71  F   UNL     1     -10.565   3.926  14.223  1.00  0.00    -0.200 F 
ATOM     72  C   UNL     1     -10.203   6.088  13.346  1.00  0.00     0.200 A 
ATOM     73  F   UNL     1      -9.792   8.245  12.482  1.00  0.00    -0.200 F 
ATOM     74  F   UNL     1     -11.524   6.273  13.220  1.00  0.00    -0.200 F 
ENDBRANCH  50  64
BRANCH  51  75
ATOM     75  C   UNL     1       2.383   4.846  14.379  1.00  0.00     0.064 A 
ATOM     76  C   UNL     1       2.972   4.269  15.513  1.00  0.00     0.173 A 
ATOM     77  C   UNL     1       3.230   5.317  13.367  1.00  0.00     0.173 A 
ATOM     78  F   UNL     1       2.200   3.825  16.515  1.00  0.00    -0.203 F 
ATOM     79  C   UNL     1       4.356   4.188  15.641  1.00  0.00     0.198 A 
ATOM     80  C   UNL     1       4.614   5.209  13.484  1.00  0.00     0.198 A 
ATOM     81  F   UNL     1       2.713   5.867  12.259  1.00  0.00    -0.203 F 
ATOM     82  F   UNL     1       4.895   3.676  16.756  1.00  0.00    -0.200 F 
ATOM     83  C   UNL     1       5.176   4.653  14.624  1.00  0.00     0.200 A 
ATOM     84  F   UNL     1       5.403   5.644  12.492  1.00  0.00    -0.200 F 
ATOM     85  F   UNL     1       6.508   4.571  14.745  1.00  0.00    -0.200 F 
ENDBRANCH  51  75
BRANCH  63  86
ATOM     86  C   UNL     1      -2.351   8.636  17.788  1.00  0.00     0.064 A 
ATOM     87  C   UNL     1      -1.802   9.914  17.600  1.00  0.00     0.173 A 
ATOM     88  C   UNL     1      -2.833   8.314  19.066  1.00  0.00     0.173 A 
ATOM     89  F   UNL     1      -1.310  10.267  16.403  1.00  0.00    -0.203 F 
ATOM     90  C   UNL     1      -1.720  10.823  18.653  1.00  0.00     0.198 A 
ATOM     91  C   UNL     1      -2.774   9.234  20.111  1.00  0.00     0.198 A 
ATOM     92  F   UNL     1      -3.369   7.107  19.302  1.00  0.00    -0.203 F 
ATOM     93  F   UNL     1      -1.151  12.021  18.460  1.00  0.00    -0.200 F 
ATOM     94  C   UNL     1      -2.211  10.485  19.905  1.00  0.00     0.200 A 
ATOM     95  F   UNL     1      -3.257   8.909  21.318  1.00  0.00    -0.200 F 
ATOM     96  F   UNL     1      -2.135  11.361  20.916  1.00  0.00    -0.200 F 
ENDBRANCH  63  86
ENDBRANCH  37  38
ENDBRANCH  29  32
ENDBRANCH  27  28
ENDBRANCH  26  27
ENDBRANCH   1  26
TORSDOF 14
