REMARK SMILES CC1(C)CCC[C@H]1NS(=O)(=O)c1cccc(C(=O)NCCCCNC(=O)c2ccc(-c3c4nc(c(-c5c(F)c(F)c(F)c(F)c5F)c5ccc([nH]5)c(-c5c(F)c(F)c(F)c(F)c5F)c5nc(c(-c6c(F)c(F)c(F)c(F)c6F)c6ccc3[nH]6)C=C5)C=C4)cc2)c1
REMARK SMILES IDX 21 1 20 2 19 3 17 4 18 5 16 7 12 8 13 9 90 10 14 11 15 12
REMARK SMILES IDX 9 13 10 14 11 15 8 16 7 18 1 19 2 20 3 21 4 22 5 23 6 24
REMARK SMILES IDX 22 25 23 26 24 27 25 28 26 30 27 31 28 32 89 33 29 34 88 35
REMARK SMILES IDX 30 36 31 37 32 38 82 39 33 40 87 41 81 42 83 43 34 44 86 45
REMARK SMILES IDX 80 46 79 47 35 49 67 50 47 51 66 52 48 53 51 54 65 55 84 56
REMARK SMILES IDX 49 57 50 58 64 60 85 61 52 62 36 63 37 64 45 65 38 66 39 67
REMARK SMILES IDX 43 68 46 69 40 70 41 71 44 72 42 73 68 74 69 75 77 76 70 77
REMARK SMILES IDX 71 78 75 79 78 80 72 81 73 82 76 83 74 84 53 85 54 86 62 87
REMARK SMILES IDX 55 88 56 89 60 90 63 91 57 92 58 93 61 94 59 95
REMARK H PARENT 19 6 8 17 24 29 83 48 51 59
REMARK Flexibility Score: inf
ROOT
ATOM      1  C   UNL     1      -2.194   7.529   4.474  1.00  0.00     0.023 C 
ENDROOT
BRANCH   1   2
ATOM      2  C   UNL     1      -2.487   6.956   3.095  1.00  0.00     0.116 C 
BRANCH   2   3
ATOM      3  N   UNL     1      -2.463   7.922   2.001  1.00  0.00    -0.352 N 
ATOM      4  C   UNL     1      -1.911   7.814   0.738  1.00  0.00     0.251 C 
ATOM      5  O   UNL     1      -1.986   8.753  -0.048  1.00  0.00    -0.269 OA
ATOM      6  H   UNL     1      -2.907   8.780   2.191  1.00  0.00     0.163 HD
BRANCH   4   7
ATOM      7  C   UNL     1      -1.165   6.591   0.352  1.00  0.00     0.041 A 
ATOM      8  C   UNL     1      -0.749   4.254   0.725  1.00  0.00     0.083 A 
ATOM      9  C   UNL     1       0.514   4.358   0.147  1.00  0.00     0.022 A 
ATOM     10  C   UNL     1      -1.630   5.336   0.721  1.00  0.00     0.035 A 
ATOM     11  C   UNL     1       0.903   5.582  -0.408  1.00  0.00     0.002 A 
ATOM     12  C   UNL     1       0.077   6.707  -0.279  1.00  0.00     0.014 A 
BRANCH   8  13
ATOM     13  S   UNL     1      -1.276   2.867   1.684  1.00  0.00     0.240 S 
ATOM     14  O   UNL     1      -2.646   2.595   1.314  1.00  0.00    -0.207 OA
ATOM     15  O   UNL     1      -0.921   3.176   3.052  1.00  0.00    -0.207 OA
BRANCH  13  16
ATOM     16  N   UNL     1      -0.315   1.575   1.250  1.00  0.00    -0.208 NA
ATOM     17  H   UNL     1       0.648   1.910   1.293  1.00  0.00     0.141 HD
BRANCH  16  18
ATOM     18  C   UNL     1      -0.452   0.893  -0.042  1.00  0.00     0.075 C 
ATOM     19  C   UNL     1       1.955   0.045   0.554  1.00  0.00     0.013 C 
ATOM     20  C   UNL     1       0.641  -0.204  -0.204  1.00  0.00    -0.019 C 
ATOM     21  C   UNL     1       0.987  -0.367  -1.698  1.00  0.00     0.013 C 
ATOM     22  C   UNL     1      -0.060  -1.461   0.336  1.00  0.00     0.008 C 
ATOM     23  C   UNL     1      -1.484  -1.348  -0.180  1.00  0.00     0.002 C 
ATOM     24  C   UNL     1      -1.793   0.144  -0.147  1.00  0.00     0.020 C 
ENDBRANCH  16  18
ENDBRANCH  13  16
ENDBRANCH   8  13
ENDBRANCH   4   7
ENDBRANCH   2   3
ENDBRANCH   1   2
BRANCH   1  25
ATOM     25  C   UNL     1      -3.150   8.598   4.984  1.00  0.00     0.023 C 
BRANCH  25  26
ATOM     26  C   UNL     1      -4.637   8.285   4.868  1.00  0.00     0.116 C 
BRANCH  26  27
ATOM     27  N   UNL     1      -5.048   7.066   5.548  1.00  0.00    -0.352 N 
ATOM     28  C   UNL     1      -6.048   6.857   6.470  1.00  0.00     0.251 C 
ATOM     29  H   UNL     1      -4.528   6.264   5.312  1.00  0.00     0.163 HD
ATOM     30  O   UNL     1      -6.202   5.745   6.966  1.00  0.00    -0.269 OA
BRANCH  28  31
ATOM     31  C   UNL     1      -6.906   7.978   6.917  1.00  0.00     0.039 A 
ATOM     32  C   UNL     1      -7.141   8.130   8.287  1.00  0.00     0.014 A 
ATOM     33  C   UNL     1      -7.455   8.888   6.011  1.00  0.00     0.014 A 
ATOM     34  C   UNL     1      -7.831   9.250   8.754  1.00  0.00     0.010 A 
ATOM     35  C   UNL     1      -8.074  10.045   6.481  1.00  0.00     0.010 A 
ATOM     36  C   UNL     1      -8.253  10.246   7.858  1.00  0.00    -0.014 A 
BRANCH  36  37
ATOM     37  C   UNL     1      -8.839  11.519   8.348  1.00  0.00     0.031 A 
ATOM     38  C   UNL     1     -10.256  11.889   8.014  1.00  0.00     0.074 A 
ATOM     39  C   UNL     1      -8.063  12.382   9.034  1.00  0.00     0.049 A 
ATOM     40  N   UNL     1     -10.915  12.984   8.300  1.00  0.00    -0.248 NA
ATOM     41  C   UNL     1     -11.026  10.912   7.229  1.00  0.00     0.031 C 
ATOM     42  C   UNL     1      -6.652  12.173   9.365  1.00  0.00     0.029 A 
ATOM     43  N   UNL     1      -8.349  13.615   9.566  1.00  0.00    -0.354 N 
ATOM     44  C   UNL     1     -12.165  12.836   7.716  1.00  0.00     0.074 A 
ATOM     45  C   UNL     1     -12.161  11.566   7.023  1.00  0.00     0.031 C 
ATOM     46  C   UNL     1      -6.202  13.228  10.063  1.00  0.00     0.029 A 
ATOM     47  C   UNL     1      -7.282  14.200  10.204  1.00  0.00     0.049 A 
ATOM     48  H   UNL     1      -9.234  14.040   9.498  1.00  0.00     0.167 HD
ATOM     49  C   UNL     1     -13.227  13.675   7.770  1.00  0.00     0.037 A 
ATOM     50  C   UNL     1      -7.184  15.387  10.831  1.00  0.00     0.037 A 
ATOM     51  C   UNL     1     -13.245  14.921   8.490  1.00  0.00     0.049 A 
ATOM     52  C   UNL     1      -8.390  16.281  10.909  1.00  0.00     0.074 A 
ATOM     53  C   UNL     1     -14.298  15.803   8.665  1.00  0.00     0.029 A 
ATOM     54  N   UNL     1     -12.156  15.463   9.156  1.00  0.00    -0.354 N 
ATOM     55  N   UNL     1      -9.588  16.097  10.413  1.00  0.00    -0.248 NA
ATOM     56  C   UNL     1      -8.229  17.546  11.640  1.00  0.00     0.031 C 
ATOM     57  C   UNL     1     -13.838  16.893   9.413  1.00  0.00     0.029 A 
ATOM     58  C   UNL     1     -12.508  16.674   9.732  1.00  0.00     0.049 A 
ATOM     59  H   UNL     1     -11.265  15.049   9.212  1.00  0.00     0.167 HD
ATOM     60  C   UNL     1     -10.329  17.209  10.786  1.00  0.00     0.074 A 
ATOM     61  C   UNL     1      -9.450  18.056  11.566  1.00  0.00     0.031 C 
ATOM     62  C   UNL     1     -11.622  17.504  10.504  1.00  0.00     0.037 A 
BRANCH  49  63
ATOM     63  C   UNL     1     -14.469  13.264   7.037  1.00  0.00     0.064 A 
ATOM     64  C   UNL     1     -15.284  12.222   7.504  1.00  0.00     0.173 A 
ATOM     65  C   UNL     1     -14.867  13.940   5.875  1.00  0.00     0.173 A 
ATOM     66  F   UNL     1     -14.938  11.537   8.605  1.00  0.00    -0.203 F 
ATOM     67  C   UNL     1     -16.440  11.856   6.820  1.00  0.00     0.198 A 
ATOM     68  C   UNL     1     -16.037  13.588   5.207  1.00  0.00     0.198 A 
ATOM     69  F   UNL     1     -14.125  14.947   5.389  1.00  0.00    -0.203 F 
ATOM     70  F   UNL     1     -17.180  10.829   7.261  1.00  0.00    -0.200 F 
ATOM     71  C   UNL     1     -16.819  12.542   5.676  1.00  0.00     0.200 A 
ATOM     72  F   UNL     1     -16.408  14.258   4.107  1.00  0.00    -0.200 F 
ATOM     73  F   UNL     1     -17.934  12.192   5.022  1.00  0.00    -0.200 F 
ENDBRANCH  49  63
BRANCH  50  74
ATOM     74  C   UNL     1      -5.904  15.783  11.469  1.00  0.00     0.064 A 
ATOM     75  C   UNL     1      -5.771  15.789  12.864  1.00  0.00     0.173 A 
ATOM     76  C   UNL     1      -4.793  16.163  10.703  1.00  0.00     0.173 A 
ATOM     77  F   UNL     1      -6.814  15.453  13.637  1.00  0.00    -0.203 F 
ATOM     78  C   UNL     1      -4.578  16.176  13.471  1.00  0.00     0.198 A 
ATOM     79  C   UNL     1      -3.594  16.529  11.310  1.00  0.00     0.198 A 
ATOM     80  F   UNL     1      -4.871  16.170   9.364  1.00  0.00    -0.203 F 
ATOM     81  F   UNL     1      -4.490  16.210  14.807  1.00  0.00    -0.200 F 
ATOM     82  C   UNL     1      -3.489  16.541  12.694  1.00  0.00     0.200 A 
ATOM     83  F   UNL     1      -2.540  16.871  10.557  1.00  0.00    -0.200 F 
ATOM     84  F   UNL     1      -2.342  16.912  13.277  1.00  0.00    -0.200 F 
ENDBRANCH  50  74
BRANCH  62  85
ATOM     85  C   UNL     1     -12.164  18.787  11.059  1.00  0.00     0.064 A 
ATOM     86  C   UNL     1     -11.804  20.028  10.516  1.00  0.00     0.173 A 
ATOM     87  C   UNL     1     -13.071  18.772  12.129  1.00  0.00     0.173 A 
ATOM     88  F   UNL     1     -10.926  20.093   9.503  1.00  0.00    -0.203 F 
ATOM     89  C   UNL     1     -12.314  21.212  11.041  1.00  0.00     0.198 A 
ATOM     90  C   UNL     1     -13.597  19.957  12.635  1.00  0.00     0.198 A 
ATOM     91  F   UNL     1     -13.448  17.609  12.680  1.00  0.00    -0.203 F 
ATOM     92  F   UNL     1     -11.921  22.390  10.536  1.00  0.00    -0.200 F 
ATOM     93  C   UNL     1     -13.213  21.176  12.096  1.00  0.00     0.200 A 
ATOM     94  F   UNL     1     -14.472  19.920  13.650  1.00  0.00    -0.200 F 
ATOM     95  F   UNL     1     -13.704  22.317  12.599  1.00  0.00    -0.200 F 
ENDBRANCH  62  85
ENDBRANCH  36  37
ENDBRANCH  28  31
ENDBRANCH  26  27
ENDBRANCH  25  26
ENDBRANCH   1  25
TORSDOF 14
