REMARK SMILES C[C@H](Oc1ccccc1[N+](=O)[O-])C(=O)N1CCC[C@H](C(=O)NCCCCNC(=O)c2ccc(-c3c4nc(c(-c5c(F)c(F)c(F)c(F)c5F)c5ccc([nH]5)c(-c5c(F)c(F)c(F)c(F)c5F)c5nc(c(-c6c(F)c(F)c(F)c(F)c6F)c6ccc3[nH]6)C=C5)C=C4)cc2)C1
REMARK SMILES IDX 23 1 22 2 20 3 21 4 19 6 15 7 16 8 93 9 17 10 18 11 13 12
REMARK SMILES IDX 14 13 2 14 1 15 3 16 4 17 5 18 9 19 6 20 8 21 7 22 10 23
REMARK SMILES IDX 11 24 12 25 24 26 25 27 26 28 27 29 28 30 29 32 30 33 31 34
REMARK SMILES IDX 92 35 32 36 91 37 33 38 34 39 35 40 85 41 36 42 90 43 84 44
REMARK SMILES IDX 86 45 37 46 89 47 83 48 82 49 38 51 70 52 50 53 69 54 51 55
REMARK SMILES IDX 54 56 68 57 87 58 52 59 53 60 67 62 88 63 55 64 39 65 40 66
REMARK SMILES IDX 48 67 41 68 42 69 46 70 49 71 43 72 44 73 47 74 45 75 71 76
REMARK SMILES IDX 72 77 80 78 73 79 74 80 78 81 81 82 75 83 76 84 79 85 77 86
REMARK SMILES IDX 56 87 57 88 65 89 58 90 59 91 63 92 66 93 60 94 61 95 64 96
REMARK SMILES IDX 62 97
REMARK H PARENT 22 5 27 31 86 50 54 61
REMARK Flexibility Score: inf
ROOT
ATOM      1  C   UNL     1      -3.615  -0.064  -1.078  1.00  0.00     0.116 C 
ENDROOT
BRANCH   1   2
ATOM      2  N   UNL     1      -3.605   1.294  -0.590  1.00  0.00    -0.356 N 
ATOM      3  C   UNL     1      -3.159   1.819   0.579  1.00  0.00     0.224 C 
ATOM      4  O   UNL     1      -3.195   3.052   0.672  1.00  0.00    -0.275 OA
ATOM      5  H   UNL     1      -3.988   1.953  -1.213  1.00  0.00     0.163 HD
BRANCH   3   6
ATOM      6  C   UNL     1      -2.665   0.990   1.773  1.00  0.00     0.098 C 
ATOM      7  N   UNL     1      -1.592  -1.226   1.238  1.00  0.00    -0.339 N 
ATOM      8  C   UNL     1      -2.563  -1.943   2.056  1.00  0.00     0.119 C 
ATOM      9  C   UNL     1      -1.383   0.189   1.526  1.00  0.00     0.133 C 
ATOM     10  C   UNL     1      -3.906  -1.235   2.165  1.00  0.00     0.022 C 
ATOM     11  C   UNL     1      -3.773   0.241   2.516  1.00  0.00     0.017 C 
BRANCH   7  12
ATOM     12  C   UNL     1      -0.950  -1.888   0.192  1.00  0.00     0.263 C 
ATOM     13  O   UNL     1      -1.564  -2.684  -0.526  1.00  0.00    -0.271 OA
BRANCH  12  14
ATOM     14  C   UNL     1       0.606  -1.837   0.153  1.00  0.00     0.259 C 
ATOM     15  C   UNL     1       1.015  -2.898   1.181  1.00  0.00     0.064 C 
BRANCH  14  16
ATOM     16  O   UNL     1       1.096  -0.510   0.315  1.00  0.00    -0.474 OA
BRANCH  16  17
ATOM     17  C   UNL     1       2.311  -0.126   0.786  1.00  0.00     0.197 A 
ATOM     18  C   UNL     1       3.360  -0.977   1.124  1.00  0.00     0.054 A 
ATOM     19  C   UNL     1       2.509   1.250   1.018  1.00  0.00     0.310 A 
ATOM     20  C   UNL     1       4.484  -0.503   1.817  1.00  0.00     0.004 A 
ATOM     21  C   UNL     1       3.632   1.738   1.706  1.00  0.00     0.090 A 
ATOM     22  C   UNL     1       4.607   0.846   2.135  1.00  0.00     0.007 A 
BRANCH  19  23
ATOM     23  N   UNL     1       1.557   2.235   0.515  1.00  0.00     0.066 N 
ATOM     24  O   UNL     1       1.279   3.182   1.264  1.00  0.00    -0.258 OA
ATOM     25  O   UNL     1       1.122   2.089  -0.636  1.00  0.00    -0.258 OA
ENDBRANCH  19  23
ENDBRANCH  16  17
ENDBRANCH  14  16
ENDBRANCH  12  14
ENDBRANCH   7  12
ENDBRANCH   3   6
ENDBRANCH   1   2
BRANCH   1  26
ATOM     26  C   UNL     1      -5.017  -0.600  -1.347  1.00  0.00     0.023 C 
BRANCH  26  27
ATOM     27  C   UNL     1      -5.409  -0.613  -2.818  1.00  0.00     0.023 C 
BRANCH  27  28
ATOM     28  C   UNL     1      -4.495  -1.429  -3.729  1.00  0.00     0.116 C 
BRANCH  28  29
ATOM     29  N   UNL     1      -4.386  -2.840  -3.378  1.00  0.00    -0.352 N 
ATOM     30  C   UNL     1      -4.386  -3.929  -4.231  1.00  0.00     0.251 C 
ATOM     31  H   UNL     1      -4.302  -3.042  -2.418  1.00  0.00     0.163 HD
ATOM     32  O   UNL     1      -4.354  -5.072  -3.820  1.00  0.00    -0.269 OA
BRANCH  30  33
ATOM     33  C   UNL     1      -4.479  -3.660  -5.683  1.00  0.00     0.039 A 
ATOM     34  C   UNL     1      -5.563  -4.173  -6.397  1.00  0.00     0.014 A 
ATOM     35  C   UNL     1      -3.574  -2.782  -6.285  1.00  0.00     0.014 A 
ATOM     36  C   UNL     1      -5.810  -3.707  -7.689  1.00  0.00     0.010 A 
ATOM     37  C   UNL     1      -3.866  -2.263  -7.540  1.00  0.00     0.010 A 
ATOM     38  C   UNL     1      -5.003  -2.698  -8.241  1.00  0.00    -0.014 A 
BRANCH  38  39
ATOM     39  C   UNL     1      -5.349  -2.038  -9.525  1.00  0.00     0.031 A 
ATOM     40  C   UNL     1      -4.405  -2.123 -10.689  1.00  0.00     0.074 A 
ATOM     41  C   UNL     1      -6.453  -1.269  -9.604  1.00  0.00     0.049 A 
ATOM     42  N   UNL     1      -4.447  -1.496 -11.837  1.00  0.00    -0.248 NA
ATOM     43  C   UNL     1      -3.240  -3.006 -10.527  1.00  0.00     0.031 C 
ATOM     44  C   UNL     1      -7.423  -1.061  -8.527  1.00  0.00     0.029 A 
ATOM     45  N   UNL     1      -6.936  -0.499 -10.635  1.00  0.00    -0.354 N 
ATOM     46  C   UNL     1      -3.305  -1.887 -12.520  1.00  0.00     0.074 A 
ATOM     47  C   UNL     1      -2.568  -2.772 -11.644  1.00  0.00     0.031 C 
ATOM     48  C   UNL     1      -8.390  -0.235  -8.957  1.00  0.00     0.029 A 
ATOM     49  C   UNL     1      -8.089   0.179 -10.323  1.00  0.00     0.049 A 
ATOM     50  H   UNL     1      -6.496  -0.439 -11.514  1.00  0.00     0.167 HD
ATOM     51  C   UNL     1      -2.918  -1.555 -13.774  1.00  0.00     0.037 A 
ATOM     52  C   UNL     1      -8.813   1.051 -11.052  1.00  0.00     0.037 A 
ATOM     53  C   UNL     1      -3.672  -0.709 -14.659  1.00  0.00     0.049 A 
ATOM     54  C   UNL     1      -8.358   1.404 -12.441  1.00  0.00     0.074 A 
ATOM     55  C   UNL     1      -3.405  -0.382 -15.976  1.00  0.00     0.029 A 
ATOM     56  N   UNL     1      -4.846  -0.056 -14.313  1.00  0.00    -0.354 N 
ATOM     57  N   UNL     1      -7.310   0.978 -13.101  1.00  0.00    -0.248 NA
ATOM     58  C   UNL     1      -9.185   2.366 -13.185  1.00  0.00     0.031 C 
ATOM     59  C   UNL     1      -4.399   0.496 -16.419  1.00  0.00     0.029 A 
ATOM     60  C   UNL     1      -5.304   0.690 -15.387  1.00  0.00     0.049 A 
ATOM     61  H   UNL     1      -5.288  -0.114 -13.436  1.00  0.00     0.167 HD
ATOM     62  C   UNL     1      -7.359   1.601 -14.340  1.00  0.00     0.074 A 
ATOM     63  C   UNL     1      -8.549   2.426 -14.347  1.00  0.00     0.031 C 
ATOM     64  C   UNL     1      -6.493   1.501 -15.377  1.00  0.00     0.037 A 
BRANCH  51  65
ATOM     65  C   UNL     1      -1.621  -2.121 -14.268  1.00  0.00     0.064 A 
ATOM     66  C   UNL     1      -1.492  -3.479 -14.593  1.00  0.00     0.173 A 
ATOM     67  C   UNL     1      -0.504  -1.292 -14.447  1.00  0.00     0.173 A 
ATOM     68  F   UNL     1      -2.529  -4.314 -14.427  1.00  0.00    -0.203 F 
ATOM     69  C   UNL     1      -0.284  -3.993 -15.055  1.00  0.00     0.198 A 
ATOM     70  C   UNL     1       0.696  -1.804 -14.934  1.00  0.00     0.198 A 
ATOM     71  F   UNL     1      -0.577   0.015 -14.153  1.00  0.00    -0.203 F 
ATOM     72  F   UNL     1      -0.172  -5.303 -15.318  1.00  0.00    -0.200 F 
ATOM     73  C   UNL     1       0.806  -3.155 -15.231  1.00  0.00     0.200 A 
ATOM     74  F   UNL     1       1.746  -0.992 -15.113  1.00  0.00    -0.200 F 
ATOM     75  F   UNL     1       1.968  -3.650 -15.681  1.00  0.00    -0.200 F 
ENDBRANCH  51  65
BRANCH  52  76
ATOM     76  C   UNL     1     -10.052   1.644 -10.488  1.00  0.00     0.064 A 
ATOM     77  C   UNL     1     -11.311   1.264 -10.972  1.00  0.00     0.173 A 
ATOM     78  C   UNL     1     -10.007   2.604  -9.466  1.00  0.00     0.173 A 
ATOM     79  F   UNL     1     -11.403   0.367 -11.965  1.00  0.00    -0.203 F 
ATOM     80  C   UNL     1     -12.479   1.833 -10.467  1.00  0.00     0.198 A 
ATOM     81  C   UNL     1     -11.176   3.155  -8.946  1.00  0.00     0.198 A 
ATOM     82  F   UNL     1      -8.826   3.000  -8.969  1.00  0.00    -0.203 F 
ATOM     83  F   UNL     1     -13.667   1.481 -10.976  1.00  0.00    -0.200 F 
ATOM     84  C   UNL     1     -12.411   2.774  -9.451  1.00  0.00     0.200 A 
ATOM     85  F   UNL     1     -11.107   4.057  -7.958  1.00  0.00    -0.200 F 
ATOM     86  F   UNL     1     -13.533   3.320  -8.965  1.00  0.00    -0.200 F 
ENDBRANCH  52  76
BRANCH  64  87
ATOM     87  C   UNL     1      -6.809   2.287 -16.614  1.00  0.00     0.064 A 
ATOM     88  C   UNL     1      -6.605   3.673 -16.669  1.00  0.00     0.173 A 
ATOM     89  C   UNL     1      -7.265   1.639 -17.771  1.00  0.00     0.173 A 
ATOM     90  F   UNL     1      -6.186   4.337 -15.581  1.00  0.00    -0.203 F 
ATOM     91  C   UNL     1      -6.859   4.385 -17.837  1.00  0.00     0.198 A 
ATOM     92  C   UNL     1      -7.496   2.351 -18.944  1.00  0.00     0.198 A 
ATOM     93  F   UNL     1      -7.471   0.314 -17.767  1.00  0.00    -0.203 F 
ATOM     94  F   UNL     1      -6.688   5.714 -17.860  1.00  0.00    -0.200 F 
ATOM     95  C   UNL     1      -7.296   3.723 -18.976  1.00  0.00     0.200 A 
ATOM     96  F   UNL     1      -7.908   1.709 -20.046  1.00  0.00    -0.200 F 
ATOM     97  F   UNL     1      -7.529   4.409 -20.103  1.00  0.00    -0.200 F 
ENDBRANCH  64  87
ENDBRANCH  38  39
ENDBRANCH  30  33
ENDBRANCH  28  29
ENDBRANCH  27  28
ENDBRANCH  26  27
ENDBRANCH   1  26
TORSDOF 16
