REMARK SMILES C[C@H]1C[C@@H]1c1nc(-c2ccccc2)c(CC(=O)NCCCCNC(=O)c2ccc(-c3c4nc(c(-c5c(F)c(F)c(F)c(F)c5F)c5ccc([nH]5)c(-c5c(F)c(F)c(F)c(F)c5F)c5nc(c(-c6c(F)c(F)c(F)c(F)c6F)c6ccc3[nH]6)C=C5)C=C4)cc2)s1
REMARK SMILES IDX 20 1 19 2 18 3 16 4 17 5 15 7 14 8 5 9 6 10 89 11 7 12 4 13
REMARK SMILES IDX 1 14 2 15 3 16 8 17 9 18 13 19 10 20 12 21 11 22 21 23 22 24
REMARK SMILES IDX 23 25 24 26 25 28 26 29 27 30 88 31 28 32 87 33 29 34 30 35
REMARK SMILES IDX 31 36 81 37 32 38 86 39 80 40 82 41 33 42 85 43 79 44 78 45
REMARK SMILES IDX 34 47 66 48 46 49 65 50 47 51 50 52 64 53 83 54 48 55 49 56
REMARK SMILES IDX 63 58 84 59 51 60 35 61 36 62 44 63 37 64 38 65 42 66 45 67
REMARK SMILES IDX 39 68 40 69 43 70 41 71 67 72 68 73 76 74 69 75 70 76 74 77
REMARK SMILES IDX 77 78 71 79 72 80 75 81 73 82 52 83 53 84 61 85 54 86 55 87
REMARK SMILES IDX 59 88 62 89 56 90 57 91 60 92 58 93
REMARK H PARENT 18 6 23 27 82 46 50 57
REMARK Flexibility Score: inf
ROOT
ATOM      1  C   UNL     1      -0.040   4.402   5.260  1.00  0.00     0.023 C 
ENDROOT
BRANCH   1   2
ATOM      2  C   UNL     1       1.087   4.063   6.237  1.00  0.00     0.116 C 
BRANCH   2   3
ATOM      3  N   UNL     1       1.085   2.657   6.583  1.00  0.00    -0.356 N 
ATOM      4  C   UNL     1       1.879   1.659   6.093  1.00  0.00     0.225 C 
ATOM      5  O   UNL     1       1.675   0.510   6.491  1.00  0.00    -0.275 OA
ATOM      6  H   UNL     1       0.425   2.384   7.260  1.00  0.00     0.163 HD
BRANCH   4   7
ATOM      7  C   UNL     1       3.029   1.977   5.150  1.00  0.00     0.149 C 
BRANCH   7   8
ATOM      8  C   UNL     1       2.564   2.432   3.798  1.00  0.00     0.042 A 
ATOM      9  C   UNL     1       1.446   2.636   1.664  1.00  0.00     0.097 A 
ATOM     10  N   UNL     1       2.116   3.739   1.901  1.00  0.00    -0.241 NA
ATOM     11  S   UNL     1       1.553   1.411   2.848  1.00  0.00    -0.122 S 
ATOM     12  C   UNL     1       2.799   3.614   3.101  1.00  0.00     0.085 A 
BRANCH   9  13
ATOM     13  C   UNL     1       0.571   2.480   0.432  1.00  0.00     0.052 C 
ATOM     14  C   UNL     1      -0.329   0.625  -1.147  1.00  0.00     0.008 C 
ATOM     15  C   UNL     1       0.818   1.360  -0.541  1.00  0.00    -0.004 C 
ATOM     16  C   UNL     1       1.103   2.798  -0.934  1.00  0.00     0.015 C 
ENDBRANCH   9  13
BRANCH  12  17
ATOM     17  C   UNL     1       3.586   4.723   3.629  1.00  0.00     0.001 A 
ATOM     18  C   UNL     1       4.892   4.528   4.095  1.00  0.00     0.010 A 
ATOM     19  C   UNL     1       2.994   5.986   3.769  1.00  0.00     0.010 A 
ATOM     20  C   UNL     1       5.561   5.552   4.769  1.00  0.00     0.001 A 
ATOM     21  C   UNL     1       3.660   7.007   4.453  1.00  0.00     0.001 A 
ATOM     22  C   UNL     1       4.937   6.783   4.966  1.00  0.00     0.000 A 
ENDBRANCH  12  17
ENDBRANCH   7   8
ENDBRANCH   4   7
ENDBRANCH   2   3
ENDBRANCH   1   2
BRANCH   1  23
ATOM     23  C   UNL     1      -1.433   4.395   5.888  1.00  0.00     0.023 C 
BRANCH  23  24
ATOM     24  C   UNL     1      -1.615   5.383   7.031  1.00  0.00     0.116 C 
BRANCH  24  25
ATOM     25  N   UNL     1      -1.404   6.767   6.633  1.00  0.00    -0.352 N 
ATOM     26  C   UNL     1      -2.081   7.886   7.052  1.00  0.00     0.251 C 
ATOM     27  H   UNL     1      -0.684   6.921   5.979  1.00  0.00     0.163 HD
ATOM     28  O   UNL     1      -1.870   8.976   6.530  1.00  0.00    -0.269 OA
BRANCH  26  29
ATOM     29  C   UNL     1      -3.095   7.759   8.120  1.00  0.00     0.039 A 
ATOM     30  C   UNL     1      -4.338   8.371   7.949  1.00  0.00     0.014 A 
ATOM     31  C   UNL     1      -2.824   7.019   9.274  1.00  0.00     0.014 A 
ATOM     32  C   UNL     1      -5.327   8.202   8.920  1.00  0.00     0.010 A 
ATOM     33  C   UNL     1      -3.838   6.779  10.194  1.00  0.00     0.010 A 
ATOM     34  C   UNL     1      -5.094   7.385  10.038  1.00  0.00    -0.014 A 
BRANCH  34  35
ATOM     35  C   UNL     1      -6.131   7.191  11.081  1.00  0.00     0.031 A 
ATOM     36  C   UNL     1      -5.877   7.670  12.485  1.00  0.00     0.074 A 
ATOM     37  C   UNL     1      -7.275   6.545  10.784  1.00  0.00     0.049 A 
ATOM     38  N   UNL     1      -6.625   7.550  13.553  1.00  0.00    -0.248 NA
ATOM     39  C   UNL     1      -4.592   8.346  12.730  1.00  0.00     0.031 C 
ATOM     40  C   UNL     1      -7.619   5.991   9.474  1.00  0.00     0.029 A 
ATOM     41  N   UNL     1      -8.358   6.239  11.569  1.00  0.00    -0.354 N 
ATOM     42  C   UNL     1      -5.897   8.118  14.590  1.00  0.00     0.074 A 
ATOM     43  C   UNL     1      -4.622   8.521  14.041  1.00  0.00     0.031 C 
ATOM     44  C   UNL     1      -8.841   5.438   9.538  1.00  0.00     0.029 A 
ATOM     45  C   UNL     1      -9.350   5.565  10.900  1.00  0.00     0.049 A 
ATOM     46  H   UNL     1      -8.418   6.479  12.522  1.00  0.00     0.167 HD
ATOM     47  C   UNL     1      -6.269   8.315  15.877  1.00  0.00     0.037 A 
ATOM     48  C   UNL     1     -10.536   5.102  11.340  1.00  0.00     0.037 A 
ATOM     49  C   UNL     1      -7.549   7.935  16.413  1.00  0.00     0.049 A 
ATOM     50  C   UNL     1     -10.928   5.336  12.775  1.00  0.00     0.074 A 
ATOM     51  C   UNL     1      -8.043   8.130  17.691  1.00  0.00     0.029 A 
ATOM     52  N   UNL     1      -8.541   7.280  15.697  1.00  0.00    -0.354 N 
ATOM     53  N   UNL     1     -10.258   5.932  13.732  1.00  0.00    -0.248 NA
ATOM     54  C   UNL     1     -12.250   4.845  13.187  1.00  0.00     0.031 C 
ATOM     55  C   UNL     1      -9.314   7.549  17.761  1.00  0.00     0.029 A 
ATOM     56  C   UNL     1      -9.639   7.051  16.510  1.00  0.00     0.049 A 
ATOM     57  H   UNL     1      -8.474   7.017  14.750  1.00  0.00     0.167 HD
ATOM     58  C   UNL     1     -11.092   5.928  14.843  1.00  0.00     0.074 A 
ATOM     59  C   UNL     1     -12.320   5.278  14.437  1.00  0.00     0.031 C 
ATOM     60  C   UNL     1     -10.863   6.421  16.085  1.00  0.00     0.037 A 
BRANCH  47  61
ATOM     61  C   UNL     1      -5.276   8.974  16.792  1.00  0.00     0.064 A 
ATOM     62  C   UNL     1      -4.904  10.319  16.633  1.00  0.00     0.173 A 
ATOM     63  C   UNL     1      -4.704   8.261  17.856  1.00  0.00     0.173 A 
ATOM     64  F   UNL     1      -5.410  11.044  15.624  1.00  0.00    -0.203 F 
ATOM     65  C   UNL     1      -3.972  10.912  17.480  1.00  0.00     0.198 A 
ATOM     66  C   UNL     1      -3.799   8.868  18.724  1.00  0.00     0.198 A 
ATOM     67  F   UNL     1      -5.025   6.974  18.059  1.00  0.00    -0.203 F 
ATOM     68  F   UNL     1      -3.589  12.179  17.269  1.00  0.00    -0.200 F 
ATOM     69  C   UNL     1      -3.427  10.189  18.529  1.00  0.00     0.200 A 
ATOM     70  F   UNL     1      -3.284   8.171  19.746  1.00  0.00    -0.200 F 
ATOM     71  F   UNL     1      -2.534  10.763  19.348  1.00  0.00    -0.200 F 
ENDBRANCH  47  61
BRANCH  48  72
ATOM     72  C   UNL     1     -11.458   4.404  10.405  1.00  0.00     0.064 A 
ATOM     73  C   UNL     1     -12.672   4.990  10.019  1.00  0.00     0.173 A 
ATOM     74  C   UNL     1     -11.156   3.134   9.892  1.00  0.00     0.173 A 
ATOM     75  F   UNL     1     -13.016   6.195  10.497  1.00  0.00    -0.203 F 
ATOM     76  C   UNL     1     -13.562   4.321   9.181  1.00  0.00     0.198 A 
ATOM     77  C   UNL     1     -12.032   2.479   9.028  1.00  0.00     0.198 A 
ATOM     78  F   UNL     1     -10.005   2.532  10.223  1.00  0.00    -0.203 F 
ATOM     79  F   UNL     1     -14.740   4.881   8.874  1.00  0.00    -0.200 F 
ATOM     80  C   UNL     1     -13.239   3.068   8.682  1.00  0.00     0.200 A 
ATOM     81  F   UNL     1     -11.710   1.276   8.536  1.00  0.00    -0.200 F 
ATOM     82  F   UNL     1     -14.095   2.425   7.877  1.00  0.00    -0.200 F 
ENDBRANCH  48  72
BRANCH  60  83
ATOM     83  C   UNL     1     -11.989   6.340  17.077  1.00  0.00     0.064 A 
ATOM     84  C   UNL     1     -12.422   5.119  17.617  1.00  0.00     0.173 A 
ATOM     85  C   UNL     1     -12.630   7.512  17.511  1.00  0.00     0.173 A 
ATOM     86  F   UNL     1     -11.851   3.969  17.228  1.00  0.00    -0.203 F 
ATOM     87  C   UNL     1     -13.479   5.072  18.521  1.00  0.00     0.198 A 
ATOM     88  C   UNL     1     -13.662   7.463  18.443  1.00  0.00     0.198 A 
ATOM     89  F   UNL     1     -12.249   8.707  17.035  1.00  0.00    -0.203 F 
ATOM     90  F   UNL     1     -13.917   3.889  18.974  1.00  0.00    -0.200 F 
ATOM     91  C   UNL     1     -14.094   6.243  18.939  1.00  0.00     0.200 A 
ATOM     92  F   UNL     1     -14.241   8.598  18.858  1.00  0.00    -0.200 F 
ATOM     93  F   UNL     1     -15.109   6.195  19.811  1.00  0.00    -0.200 F 
ENDBRANCH  60  83
ENDBRANCH  34  35
ENDBRANCH  26  29
ENDBRANCH  24  25
ENDBRANCH  23  24
ENDBRANCH   1  23
TORSDOF 14
