REMARK SMILES COCC[C@@]1(C(=O)NCCCCNC(=O)c2ccc(-c3c4nc(c(-c5c(F)c(F)c(F)c(F)c5F)c5ccc([nH]5)c(-c5c(F)c(F)c(F)c(F)c5F)c5nc(c(-c6c(F)c(F)c(F)c(F)c6F)c6ccc3[nH]6)C=C5)C=C4)cc2)CCCN(C(=O)NCc2ccc(OC)cc2)C1
REMARK SMILES IDX 9 1 8 2 6 3 7 4 5 6 79 7 95 8 80 9 82 10 81 11 4 12 3 13
REMARK SMILES IDX 2 14 1 15 83 16 84 17 85 18 86 20 87 21 88 22 94 23 89 24
REMARK SMILES IDX 93 25 90 26 91 27 92 28 10 29 11 30 12 31 13 32 14 33 15 35
REMARK SMILES IDX 16 36 17 37 78 38 18 39 77 40 19 41 20 42 21 43 71 44 22 45
REMARK SMILES IDX 76 46 70 47 72 48 23 49 75 50 69 51 68 52 24 54 56 55 36 56
REMARK SMILES IDX 55 57 37 58 40 59 54 60 73 61 38 62 39 63 53 65 74 66 41 67
REMARK SMILES IDX 25 68 26 69 34 70 27 71 28 72 32 73 35 74 29 75 30 76 33 77
REMARK SMILES IDX 31 78 57 79 58 80 66 81 59 82 60 83 64 84 67 85 61 86 62 87
REMARK SMILES IDX 65 88 63 89 42 90 43 91 51 92 44 93 45 94 49 95 52 96 46 97
REMARK SMILES IDX 47 98 50 99 48 100
REMARK H PARENT 8 5 85 19 13 34 72 53 40 64
REMARK Flexibility Score: inf
ROOT
ATOM      1  C   UNL     1      -1.632   0.284   3.663  1.00  0.00     0.116 C 
ENDROOT
BRANCH   1   2
ATOM      2  N   UNL     1      -0.958   1.240   2.837  1.00  0.00    -0.356 N 
ATOM      3  C   UNL     1       0.108   1.015   2.019  1.00  0.00     0.228 C 
ATOM      4  O   UNL     1       0.201   1.806   1.069  1.00  0.00    -0.274 OA
ATOM      5  H   UNL     1      -1.304   2.161   2.862  1.00  0.00     0.163 HD
BRANCH   3   6
ATOM      6  C   UNL     1       1.279   0.016   2.333  1.00  0.00     0.069 C 
ATOM      7  C   UNL     1       1.986  -0.269   0.975  1.00  0.00     0.021 C 
ATOM      8  C   UNL     1       0.991  -1.391   2.919  1.00  0.00     0.138 C 
ATOM      9  C   UNL     1       1.099  -1.140   0.067  1.00  0.00     0.023 C 
ATOM     10  N   UNL     1       0.117  -2.216   2.071  1.00  0.00    -0.324 N 
ATOM     11  C   UNL     1       0.698  -2.451   0.750  1.00  0.00     0.121 C 
BRANCH   6  12
ATOM     12  C   UNL     1       2.179   0.854   3.300  1.00  0.00     0.047 C 
BRANCH  12  13
ATOM     13  C   UNL     1       3.374   0.170   3.974  1.00  0.00     0.161 C 
BRANCH  13  14
ATOM     14  O   UNL     1       4.612   0.804   3.657  1.00  0.00    -0.385 OA
ATOM     15  C   UNL     1       5.092   0.480   2.361  1.00  0.00     0.194 C 
ENDBRANCH  13  14
ENDBRANCH  12  13
ENDBRANCH   6  12
BRANCH  10  16
ATOM     16  C   UNL     1      -0.978  -2.781   2.660  1.00  0.00     0.317 C 
ATOM     17  O   UNL     1      -1.185  -2.680   3.877  1.00  0.00    -0.249 OA
ATOM     18  N   UNL     1      -1.945  -3.441   2.020  1.00  0.00    -0.334 N 
ATOM     19  H   UNL     1      -2.750  -3.514   2.583  1.00  0.00     0.165 HD
BRANCH  18  20
ATOM     20  C   UNL     1      -2.155  -4.081   0.741  1.00  0.00     0.153 C 
BRANCH  20  21
ATOM     21  C   UNL     1      -1.796  -5.550   0.780  1.00  0.00    -0.028 A 
ATOM     22  C   UNL     1      -2.261  -6.402  -0.229  1.00  0.00     0.009 A 
ATOM     23  C   UNL     1      -1.045  -6.113   1.825  1.00  0.00     0.009 A 
ATOM     24  C   UNL     1      -2.018  -7.779  -0.164  1.00  0.00     0.047 A 
ATOM     25  C   UNL     1      -0.807  -7.488   1.891  1.00  0.00     0.047 A 
ATOM     26  C   UNL     1      -1.305  -8.331   0.902  1.00  0.00     0.118 A 
BRANCH  26  27
ATOM     27  O   UNL     1      -1.163  -9.691   0.870  1.00  0.00    -0.497 OA
ATOM     28  C   UNL     1      -0.550 -10.290   2.006  1.00  0.00     0.278 C 
ENDBRANCH  26  27
ENDBRANCH  20  21
ENDBRANCH  18  20
ENDBRANCH  10  16
ENDBRANCH   3   6
ENDBRANCH   1   2
BRANCH   1  29
ATOM     29  C   UNL     1      -2.028   0.741   5.053  1.00  0.00     0.023 C 
BRANCH  29  30
ATOM     30  C   UNL     1      -3.515   0.978   5.268  1.00  0.00     0.023 C 
BRANCH  30  31
ATOM     31  C   UNL     1      -4.473  -0.005   4.603  1.00  0.00     0.116 C 
BRANCH  31  32
ATOM     32  N   UNL     1      -4.172  -1.424   4.759  1.00  0.00    -0.352 N 
ATOM     33  C   UNL     1      -5.069  -2.459   4.580  1.00  0.00     0.251 C 
ATOM     34  H   UNL     1      -3.252  -1.664   5.014  1.00  0.00     0.163 HD
ATOM     35  O   UNL     1      -4.741  -3.637   4.649  1.00  0.00    -0.269 OA
BRANCH  33  36
ATOM     36  C   UNL     1      -6.472  -2.091   4.307  1.00  0.00     0.039 A 
ATOM     37  C   UNL     1      -7.440  -2.313   5.287  1.00  0.00     0.014 A 
ATOM     38  C   UNL     1      -6.766  -1.357   3.155  1.00  0.00     0.014 A 
ATOM     39  C   UNL     1      -8.697  -1.722   5.146  1.00  0.00     0.010 A 
ATOM     40  C   UNL     1      -7.990  -0.706   3.059  1.00  0.00     0.010 A 
ATOM     41  C   UNL     1      -8.964  -0.876   4.056  1.00  0.00    -0.014 A 
BRANCH  41  42
ATOM     42  C   UNL     1     -10.257  -0.155   3.940  1.00  0.00     0.031 A 
ATOM     43  C   UNL     1     -11.176  -0.452   2.790  1.00  0.00     0.074 A 
ATOM     44  C   UNL     1     -10.567   0.818   4.820  1.00  0.00     0.049 A 
ATOM     45  N   UNL     1     -12.318   0.104   2.476  1.00  0.00    -0.248 NA
ATOM     46  C   UNL     1     -10.733  -1.488   1.843  1.00  0.00     0.031 C 
ATOM     47  C   UNL     1      -9.724   1.255   5.934  1.00  0.00     0.029 A 
ATOM     48  N   UNL     1     -11.675   1.625   4.907  1.00  0.00    -0.354 N 
ATOM     49  C   UNL     1     -12.716  -0.498   1.290  1.00  0.00     0.074 A 
ATOM     50  C   UNL     1     -11.667  -1.417   0.908  1.00  0.00     0.031 C 
ATOM     51  C   UNL     1     -10.357   2.228   6.610  1.00  0.00     0.029 A 
ATOM     52  C   UNL     1     -11.638   2.501   5.965  1.00  0.00     0.049 A 
ATOM     53  H   UNL     1     -12.426   1.579   4.272  1.00  0.00     0.167 HD
ATOM     54  C   UNL     1     -13.866  -0.325   0.598  1.00  0.00     0.037 A 
ATOM     55  C   UNL     1     -12.541   3.415   6.369  1.00  0.00     0.037 A 
ATOM     56  C   UNL     1     -14.927   0.557   1.003  1.00  0.00     0.049 A 
ATOM     57  C   UNL     1     -13.833   3.556   5.609  1.00  0.00     0.074 A 
ATOM     58  C   UNL     1     -16.163   0.750   0.414  1.00  0.00     0.029 A 
ATOM     59  N   UNL     1     -14.875   1.392   2.110  1.00  0.00    -0.354 N 
ATOM     60  N   UNL     1     -14.236   2.919   4.537  1.00  0.00    -0.248 NA
ATOM     61  C   UNL     1     -14.802   4.534   6.125  1.00  0.00     0.031 C 
ATOM     62  C   UNL     1     -16.849   1.724   1.147  1.00  0.00     0.029 A 
ATOM     63  C   UNL     1     -16.055   2.110   2.215  1.00  0.00     0.049 A 
ATOM     64  H   UNL     1     -14.113   1.463   2.729  1.00  0.00     0.167 HD
ATOM     65  C   UNL     1     -15.511   3.396   4.266  1.00  0.00     0.074 A 
ATOM     66  C   UNL     1     -15.821   4.367   5.295  1.00  0.00     0.031 C 
ATOM     67  C   UNL     1     -16.349   3.062   3.254  1.00  0.00     0.037 A 
BRANCH  54  68
ATOM     68  C   UNL     1     -14.038  -1.122  -0.661  1.00  0.00     0.064 A 
ATOM     69  C   UNL     1     -14.233  -2.511  -0.628  1.00  0.00     0.173 A 
ATOM     70  C   UNL     1     -14.020  -0.491  -1.913  1.00  0.00     0.173 A 
ATOM     71  F   UNL     1     -14.243  -3.163   0.544  1.00  0.00    -0.203 F 
ATOM     72  C   UNL     1     -14.369  -3.244  -1.804  1.00  0.00     0.198 A 
ATOM     73  C   UNL     1     -14.187  -1.223  -3.086  1.00  0.00     0.198 A 
ATOM     74  F   UNL     1     -13.839   0.836  -2.001  1.00  0.00    -0.203 F 
ATOM     75  F   UNL     1     -14.498  -4.577  -1.749  1.00  0.00    -0.200 F 
ATOM     76  C   UNL     1     -14.352  -2.599  -3.031  1.00  0.00     0.200 A 
ATOM     77  F   UNL     1     -14.179  -0.598  -4.271  1.00  0.00    -0.200 F 
ATOM     78  F   UNL     1     -14.484  -3.306  -4.162  1.00  0.00    -0.200 F 
ENDBRANCH  54  68
BRANCH  55  79
ATOM     79  C   UNL     1     -12.281   4.233   7.582  1.00  0.00     0.064 A 
ATOM     80  C   UNL     1     -12.998   4.008   8.766  1.00  0.00     0.173 A 
ATOM     81  C   UNL     1     -11.322   5.256   7.584  1.00  0.00     0.173 A 
ATOM     82  F   UNL     1     -13.940   3.054   8.805  1.00  0.00    -0.203 F 
ATOM     83  C   UNL     1     -12.781   4.788   9.899  1.00  0.00     0.198 A 
ATOM     84  C   UNL     1     -11.089   6.020   8.727  1.00  0.00     0.198 A 
ATOM     85  F   UNL     1     -10.607   5.509   6.479  1.00  0.00    -0.203 F 
ATOM     86  F   UNL     1     -13.511   4.579  11.003  1.00  0.00    -0.200 F 
ATOM     87  C   UNL     1     -11.824   5.791   9.881  1.00  0.00     0.200 A 
ATOM     88  F   UNL     1     -10.156   6.981   8.709  1.00  0.00    -0.200 F 
ATOM     89  F   UNL     1     -11.615   6.540  10.971  1.00  0.00    -0.200 F 
ENDBRANCH  55  79
BRANCH  67  90
ATOM     90  C   UNL     1     -17.694   3.724   3.230  1.00  0.00     0.064 A 
ATOM     91  C   UNL     1     -17.844   5.068   2.859  1.00  0.00     0.173 A 
ATOM     92  C   UNL     1     -18.851   2.992   3.537  1.00  0.00     0.173 A 
ATOM     93  F   UNL     1     -16.766   5.813   2.571  1.00  0.00    -0.203 F 
ATOM     94  C   UNL     1     -19.102   5.662   2.818  1.00  0.00     0.198 A 
ATOM     95  C   UNL     1     -20.109   3.581   3.469  1.00  0.00     0.198 A 
ATOM     96  F   UNL     1     -18.759   1.701   3.891  1.00  0.00    -0.203 F 
ATOM     97  F   UNL     1     -19.219   6.958   2.502  1.00  0.00    -0.200 F 
ATOM     98  C   UNL     1     -20.234   4.916   3.116  1.00  0.00     0.200 A 
ATOM     99  F   UNL     1     -21.203   2.857   3.746  1.00  0.00    -0.200 F 
ATOM    100  F   UNL     1     -21.445   5.488   3.069  1.00  0.00    -0.200 F 
ENDBRANCH  67  90
ENDBRANCH  41  42
ENDBRANCH  33  36
ENDBRANCH  31  32
ENDBRANCH  30  31
ENDBRANCH  29  30
ENDBRANCH   1  29
TORSDOF 18
