REMARK SMILES O=C(NCCCCNC(=O)c1ccccc1C(=O)N1CCOCCOCCOCC1)c1ccc(-c2c3nc(c(-c4c(F)c(F)c(F)c(F)c4F)c4ccc([nH]4)c(-c4c(F)c(F)c(F)c(F)c4F)c4nc(c(-c5c(F)c(F)c(F)c(F)c5F)c5ccc2[nH]5)C=C4)C=C3)cc1
REMARK SMILES IDX 11 1 12 2 13 3 14 4 15 5 16 6 9 7 8 8 10 10 7 11 6 12 5 13
REMARK SMILES IDX 4 14 3 15 1 16 2 17 31 19 32 20 93 21 33 22 92 23 34 24
REMARK SMILES IDX 35 25 36 26 86 27 37 28 91 29 85 30 87 31 38 32 90 33 84 34
REMARK SMILES IDX 83 35 39 37 71 38 51 39 70 40 52 41 55 42 69 43 88 44 53 45
REMARK SMILES IDX 54 46 68 48 89 49 56 50 40 51 41 52 49 53 42 54 43 55 47 56
REMARK SMILES IDX 50 57 44 58 45 59 48 60 46 61 72 62 73 63 81 64 74 65 75 66
REMARK SMILES IDX 79 67 82 68 76 69 77 70 80 71 78 72 57 73 58 74 66 75 59 76
REMARK SMILES IDX 60 77 64 78 67 79 61 80 62 81 65 82 63 83 17 84 18 85 19 86
REMARK SMILES IDX 20 87 21 88 22 89 23 90 30 92 29 93 28 94 27 95 26 96 25 97
REMARK SMILES IDX 24 98
REMARK H PARENT 8 9 3 18 87 36 55 47
REMARK Flexibility Score: 60.00
ROOT
ATOM      1  C   UNL     1       6.394  -6.481  -1.491  1.00  0.00     0.052 A 
ATOM      2  C   UNL     1       6.748  -7.789  -1.127  1.00  0.00     0.014 A 
ATOM      3  C   UNL     1       6.214  -8.879  -1.816  1.00  0.00     0.001 A 
ATOM      4  C   UNL     1       5.333  -8.670  -2.877  1.00  0.00     0.001 A 
ATOM      5  C   UNL     1       5.005  -7.370  -3.267  1.00  0.00     0.014 A 
ATOM      6  C   UNL     1       5.560  -6.270  -2.596  1.00  0.00     0.052 A 
ENDROOT
BRANCH   1   7
ATOM      7  C   UNL     1       6.976  -5.393  -0.684  1.00  0.00     0.252 C 
ATOM      8  N   UNL     1       6.188  -4.569   0.078  1.00  0.00    -0.352 N 
ATOM      9  H   UNL     1       6.673  -3.912   0.628  1.00  0.00     0.163 HD
ATOM     10  O   UNL     1       8.198  -5.266  -0.667  1.00  0.00    -0.269 OA
BRANCH   8  11
ATOM     11  C   UNL     1       4.739  -4.527   0.189  1.00  0.00     0.116 C 
BRANCH  11  12
ATOM     12  C   UNL     1       4.246  -3.984   1.528  1.00  0.00     0.023 C 
BRANCH  12  13
ATOM     13  C   UNL     1       4.720  -2.576   1.909  1.00  0.00     0.023 C 
BRANCH  13  14
ATOM     14  C   UNL     1       4.494  -1.464   0.888  1.00  0.00     0.116 C 
BRANCH  14  15
ATOM     15  N   UNL     1       3.103  -1.257   0.533  1.00  0.00    -0.352 N 
ATOM     16  O   UNL     1       1.206  -0.095   0.143  1.00  0.00    -0.269 OA
ATOM     17  C   UNL     1       2.413  -0.077   0.373  1.00  0.00     0.251 C 
ATOM     18  H   UNL     1       2.578  -2.077   0.386  1.00  0.00     0.163 HD
BRANCH  17  19
ATOM     19  C   UNL     1       3.102   1.224   0.540  1.00  0.00     0.039 A 
ATOM     20  C   UNL     1       4.318   1.494  -0.091  1.00  0.00     0.014 A 
ATOM     21  C   UNL     1       2.506   2.196   1.350  1.00  0.00     0.014 A 
ATOM     22  C   UNL     1       4.999   2.680   0.184  1.00  0.00     0.010 A 
ATOM     23  C   UNL     1       3.167   3.404   1.593  1.00  0.00     0.010 A 
ATOM     24  C   UNL     1       4.438   3.635   1.045  1.00  0.00    -0.014 A 
BRANCH  24  25
ATOM     25  C   UNL     1       5.201   4.861   1.388  1.00  0.00     0.031 A 
ATOM     26  C   UNL     1       5.803   5.019   2.755  1.00  0.00     0.074 A 
ATOM     27  C   UNL     1       5.374   5.819   0.460  1.00  0.00     0.049 A 
ATOM     28  N   UNL     1       6.523   6.003   3.236  1.00  0.00    -0.248 NA
ATOM     29  C   UNL     1       5.566   3.927   3.711  1.00  0.00     0.031 C 
ATOM     30  C   UNL     1       4.845   5.774  -0.902  1.00  0.00     0.029 A 
ATOM     31  N   UNL     1       6.048   7.012   0.521  1.00  0.00    -0.354 N 
ATOM     32  C   UNL     1       6.816   5.654   4.547  1.00  0.00     0.074 A 
ATOM     33  C   UNL     1       6.173   4.381   4.798  1.00  0.00     0.031 C 
ATOM     34  C   UNL     1       5.235   6.879  -1.558  1.00  0.00     0.029 A 
ATOM     35  C   UNL     1       6.007   7.725  -0.651  1.00  0.00     0.049 A 
ATOM     36  H   UNL     1       6.516   7.327   1.328  1.00  0.00     0.167 HD
ATOM     37  C   UNL     1       7.561   6.329   5.456  1.00  0.00     0.037 A 
ATOM     38  C   UNL     1       6.528   8.928  -0.956  1.00  0.00     0.037 A 
ATOM     39  C   UNL     1       8.201   7.594   5.205  1.00  0.00     0.049 A 
ATOM     40  C   UNL     1       7.311   9.678   0.085  1.00  0.00     0.074 A 
ATOM     41  C   UNL     1       9.000   8.342   6.051  1.00  0.00     0.029 A 
ATOM     42  N   UNL     1       8.106   8.303   4.016  1.00  0.00    -0.354 N 
ATOM     43  N   UNL     1       7.615   9.322   1.309  1.00  0.00    -0.248 NA
ATOM     44  C   UNL     1       7.825  11.000  -0.301  1.00  0.00     0.031 C 
ATOM     45  C   UNL     1       9.352   9.526   5.391  1.00  0.00     0.029 A 
ATOM     46  C   UNL     1       8.810   9.493   4.116  1.00  0.00     0.049 A 
ATOM     47  H   UNL     1       7.611   8.005   3.219  1.00  0.00     0.167 HD
ATOM     48  C   UNL     1       8.373  10.360   1.832  1.00  0.00     0.074 A 
ATOM     49  C   UNL     1       8.493  11.357   0.788  1.00  0.00     0.031 C 
ATOM     50  C   UNL     1       8.922  10.475   3.067  1.00  0.00     0.037 A 
BRANCH  37  51
ATOM     51  C   UNL     1       7.701   5.719   6.821  1.00  0.00     0.064 A 
ATOM     52  C   UNL     1       8.487   4.578   7.041  1.00  0.00     0.173 A 
ATOM     53  C   UNL     1       7.055   6.294   7.926  1.00  0.00     0.173 A 
ATOM     54  F   UNL     1       9.116   3.983   6.016  1.00  0.00    -0.203 F 
ATOM     55  C   UNL     1       8.596   4.018   8.312  1.00  0.00     0.198 A 
ATOM     56  C   UNL     1       7.187   5.747   9.199  1.00  0.00     0.198 A 
ATOM     57  F   UNL     1       6.296   7.389   7.771  1.00  0.00    -0.203 F 
ATOM     58  F   UNL     1       9.313   2.899   8.490  1.00  0.00    -0.200 F 
ATOM     59  C   UNL     1       7.950   4.605   9.390  1.00  0.00     0.200 A 
ATOM     60  F   UNL     1       6.570   6.320  10.241  1.00  0.00    -0.200 F 
ATOM     61  F   UNL     1       8.055   4.063  10.611  1.00  0.00    -0.200 F 
ENDBRANCH  37  51
BRANCH  38  62
ATOM     62  C   UNL     1       6.336   9.484  -2.319  1.00  0.00     0.064 A 
ATOM     63  C   UNL     1       7.407   9.566  -3.219  1.00  0.00     0.173 A 
ATOM     64  C   UNL     1       5.078   9.924  -2.756  1.00  0.00     0.173 A 
ATOM     65  F   UNL     1       8.633   9.179  -2.837  1.00  0.00    -0.203 F 
ATOM     66  C   UNL     1       7.228  10.073  -4.504  1.00  0.00     0.198 A 
ATOM     67  C   UNL     1       4.895  10.407  -4.049  1.00  0.00     0.198 A 
ATOM     68  F   UNL     1       4.023   9.866  -1.930  1.00  0.00    -0.203 F 
ATOM     69  F   UNL     1       8.275  10.171  -5.335  1.00  0.00    -0.200 F 
ATOM     70  C   UNL     1       5.971  10.486  -4.920  1.00  0.00     0.200 A 
ATOM     71  F   UNL     1       3.677  10.795  -4.451  1.00  0.00    -0.200 F 
ATOM     72  F   UNL     1       5.798  10.964  -6.160  1.00  0.00    -0.200 F 
ENDBRANCH  38  62
BRANCH  50  73
ATOM     73  C   UNL     1       9.728  11.709   3.345  1.00  0.00     0.064 A 
ATOM     74  C   UNL     1       9.118  12.957   3.539  1.00  0.00     0.173 A 
ATOM     75  C   UNL     1      11.125  11.636   3.451  1.00  0.00     0.173 A 
ATOM     76  F   UNL     1       7.786  13.081   3.432  1.00  0.00    -0.203 F 
ATOM     77  C   UNL     1       9.880  14.091   3.807  1.00  0.00     0.198 A 
ATOM     78  C   UNL     1      11.882  12.767   3.744  1.00  0.00     0.198 A 
ATOM     79  F   UNL     1      11.755  10.464   3.278  1.00  0.00    -0.203 F 
ATOM     80  F   UNL     1       9.280  15.282   3.945  1.00  0.00    -0.200 F 
ATOM     81  C   UNL     1      11.259  13.994   3.915  1.00  0.00     0.200 A 
ATOM     82  F   UNL     1      13.213  12.669   3.858  1.00  0.00    -0.200 F 
ATOM     83  F   UNL     1      11.991  15.086   4.176  1.00  0.00    -0.200 F 
ENDBRANCH  50  73
ENDBRANCH  24  25
ENDBRANCH  17  19
ENDBRANCH  14  15
ENDBRANCH  13  14
ENDBRANCH  12  13
ENDBRANCH  11  12
ENDBRANCH   8  11
ENDBRANCH   1   7
BRANCH   6  84
ATOM     84  C   UNL     1       5.107  -4.925  -2.995  1.00  0.00     0.254 C 
ATOM     85  O   UNL     1       3.892  -4.741  -2.962  1.00  0.00    -0.269 OA
ATOM     86  N   UNL     1       6.032  -3.929  -3.304  1.00  0.00    -0.334 N 
BRANCH  86  87
ATOM     87  C   UNL     1       5.731  -2.555  -2.887  1.00  0.00     0.148 C 
BRANCH  87  88
ATOM     88  C   UNL     1       4.341  -1.995  -3.220  1.00  0.00     0.181 C 
BRANCH  88  89
ATOM     89  O   UNL     1       4.256  -0.598  -2.905  1.00  0.00    -0.377 OA
BRANCH  89  90
ATOM     90  C   UNL     1       4.598   0.267  -3.990  1.00  0.00     0.188 CG0
ATOM     91  G   UNL     1       5.971   0.897  -3.764  1.00  0.00     0.000 G0
ENDBRANCH  89  90
ENDBRANCH  88  89
ENDBRANCH  87  88
ENDBRANCH  86  87
BRANCH  86  92
ATOM     92  C   UNL     1       7.407  -4.212  -3.771  1.00  0.00     0.148 C 
BRANCH  92  93
ATOM     93  C   UNL     1       7.743  -3.542  -5.118  1.00  0.00     0.181 C 
BRANCH  93  94
ATOM     94  O   UNL     1       8.198  -2.203  -4.900  1.00  0.00    -0.377 OA
BRANCH  94  95
ATOM     95  C   UNL     1       7.465  -1.222  -5.636  1.00  0.00     0.188 C 
BRANCH  95  96
ATOM     96  C   UNL     1       7.824   0.164  -5.089  1.00  0.00     0.188 C 
BRANCH  96  97
ATOM     97  O   UNL     1       6.685   1.027  -4.997  1.00  0.00    -0.377 OA
BRANCH  97  98
ATOM     98  C   UNL     1       5.971   0.897  -3.764  1.00  0.00     0.188 CG0
ATOM     99  G   UNL     1       4.598   0.267  -3.990  1.00  0.00     0.000 G0
ENDBRANCH  97  98
ENDBRANCH  96  97
ENDBRANCH  95  96
ENDBRANCH  94  95
ENDBRANCH  93  94
ENDBRANCH  92  93
ENDBRANCH  86  92
ENDBRANCH   6  84
TORSDOF 12
