REMARK SMILES C[NH+](C)[C@H](CC(=O)Nc1cccc(Cl)c1)C(=O)NCCCCNC(=O)c1ccc(-c2c3nc(c(-c4c(F)c(F)c(F)c(F)c4F)c4ccc([nH]4)c(-c4c(F)c(F)c(F)c(F)c4F)c4nc(c(-c5c(F)c(F)c(F)c(F)c5F)c5ccc2[nH]5)C=C4)C=C3)cc1
REMARK SMILES IDX 20 1 19 2 18 3 16 4 17 5 4 7 2 8 1 9 3 10 5 12 6 13 7 14
REMARK SMILES IDX 8 15 9 17 10 18 15 19 11 20 13 21 12 22 14 23 21 24 22 25
REMARK SMILES IDX 23 26 24 27 25 29 26 30 27 31 88 32 28 33 87 34 29 35 30 36
REMARK SMILES IDX 31 37 81 38 32 39 86 40 80 41 82 42 33 43 85 44 79 45 78 46
REMARK SMILES IDX 34 48 66 49 46 50 65 51 47 52 50 53 64 54 83 55 48 56 49 57
REMARK SMILES IDX 63 59 84 60 51 61 35 62 36 63 44 64 37 65 38 66 42 67 45 68
REMARK SMILES IDX 39 69 40 70 43 71 41 72 67 73 68 74 76 75 69 76 70 77 74 78
REMARK SMILES IDX 77 79 71 80 72 81 75 82 73 83 52 84 53 85 61 86 54 87 55 88
REMARK SMILES IDX 59 89 62 90 56 91 57 92 60 93 58 94
REMARK H PARENT 18 6 2 11 8 16 23 28 82 47 50 58
REMARK Flexibility Score: inf
ROOT
ATOM      1  C   UNL     1       3.609   0.921   1.190  1.00  0.00     0.023 C 
ENDROOT
BRANCH   1   2
ATOM      2  C   UNL     1       3.212   0.029   0.021  1.00  0.00     0.116 C 
BRANCH   2   3
ATOM      3  N   UNL     1       2.894  -1.353   0.343  1.00  0.00    -0.351 N 
ATOM      4  C   UNL     1       2.094  -2.165  -0.440  1.00  0.00     0.278 C 
ATOM      5  O   UNL     1       2.623  -3.190  -0.879  1.00  0.00    -0.268 OA
ATOM      6  H   UNL     1       3.271  -1.734   1.169  1.00  0.00     0.163 HD
BRANCH   4   7
ATOM      7  C   UNL     1       0.555  -1.890  -0.564  1.00  0.00     0.283 C 
BRANCH   7   8
ATOM      8  N   UNL     1      -0.124  -2.696  -1.625  1.00  0.00    -0.329 N 
ATOM      9  C   UNL     1       0.003  -2.249  -3.003  1.00  0.00     0.333 C 
ATOM     10  C   UNL     1      -1.531  -2.955  -1.316  1.00  0.00     0.333 C 
ATOM     11  H   UNL     1       0.418  -3.560  -1.591  1.00  0.00     0.348 HD
ENDBRANCH   7   8
BRANCH   7  12
ATOM     12  C   UNL     1       0.037  -0.496  -0.212  1.00  0.00     0.175 C 
BRANCH  12  13
ATOM     13  C   UNL     1      -0.434   0.564  -1.194  1.00  0.00     0.230 C 
ATOM     14  O   UNL     1      -1.607   0.960  -1.068  1.00  0.00    -0.274 OA
ATOM     15  N   UNL     1       0.296   1.299  -2.069  1.00  0.00    -0.326 N 
ATOM     16  H   UNL     1      -0.172   2.141  -2.274  1.00  0.00     0.169 HD
BRANCH  15  17
ATOM     17  C   UNL     1       1.509   1.239  -2.776  1.00  0.00     0.042 A 
ATOM     18  C   UNL     1       2.291   0.104  -2.941  1.00  0.00     0.026 A 
ATOM     19  C   UNL     1       1.920   2.407  -3.432  1.00  0.00     0.046 A 
ATOM     20  C   UNL     1       3.453   0.107  -3.721  1.00  0.00     0.004 A 
ATOM     21  C   UNL     1       3.081   2.420  -4.213  1.00  0.00     0.043 A 
ATOM     22  C   UNL     1       3.850   1.271  -4.362  1.00  0.00     0.020 A 
ATOM     23  Cl  UNL     1       3.564   3.863  -5.013  1.00  0.00    -0.084 Cl
ENDBRANCH  15  17
ENDBRANCH  12  13
ENDBRANCH   7  12
ENDBRANCH   4   7
ENDBRANCH   2   3
ENDBRANCH   1   2
BRANCH   1  24
ATOM     24  C   UNL     1       4.977   1.598   1.041  1.00  0.00     0.023 C 
BRANCH  24  25
ATOM     25  C   UNL     1       5.333   2.236  -0.306  1.00  0.00     0.116 C 
BRANCH  25  26
ATOM     26  N   UNL     1       4.486   3.338  -0.723  1.00  0.00    -0.352 N 
ATOM     27  C   UNL     1       4.842   4.444  -1.473  1.00  0.00     0.251 C 
ATOM     28  H   UNL     1       3.544   3.294  -0.438  1.00  0.00     0.163 HD
ATOM     29  O   UNL     1       4.015   5.322  -1.706  1.00  0.00    -0.269 OA
BRANCH  27  30
ATOM     30  C   UNL     1       6.246   4.606  -1.930  1.00  0.00     0.039 A 
ATOM     31  C   UNL     1       6.910   5.801  -1.637  1.00  0.00     0.014 A 
ATOM     32  C   UNL     1       6.933   3.568  -2.566  1.00  0.00     0.014 A 
ATOM     33  C   UNL     1       8.288   5.906  -1.861  1.00  0.00     0.010 A 
ATOM     34  C   UNL     1       8.317   3.652  -2.739  1.00  0.00     0.010 A 
ATOM     35  C   UNL     1       9.014   4.806  -2.348  1.00  0.00    -0.014 A 
BRANCH  35  36
ATOM     36  C   UNL     1      10.503   4.807  -2.336  1.00  0.00     0.031 A 
ATOM     37  C   UNL     1      11.297   4.765  -3.610  1.00  0.00     0.074 A 
ATOM     38  C   UNL     1      11.144   4.761  -1.151  1.00  0.00     0.049 A 
ATOM     39  N   UNL     1      12.597   4.720  -3.771  1.00  0.00    -0.248 NA
ATOM     40  C   UNL     1      10.534   4.750  -4.865  1.00  0.00     0.031 C 
ATOM     41  C   UNL     1      10.492   4.733   0.160  1.00  0.00     0.029 A 
ATOM     42  N   UNL     1      12.485   4.716  -0.852  1.00  0.00    -0.354 N 
ATOM     43  C   UNL     1      12.808   4.670  -5.142  1.00  0.00     0.074 A 
ATOM     44  C   UNL     1      11.501   4.644  -5.766  1.00  0.00     0.031 C 
ATOM     45  C   UNL     1      11.430   4.694   1.119  1.00  0.00     0.029 A 
ATOM     46  C   UNL     1      12.749   4.663   0.495  1.00  0.00     0.049 A 
ATOM     47  H   UNL     1      13.190   4.721  -1.539  1.00  0.00     0.167 HD
ATOM     48  C   UNL     1      13.983   4.666  -5.817  1.00  0.00     0.037 A 
ATOM     49  C   UNL     1      13.919   4.594   1.157  1.00  0.00     0.037 A 
ATOM     50  C   UNL     1      15.284   4.701  -5.198  1.00  0.00     0.049 A 
ATOM     51  C   UNL     1      15.208   4.587   0.383  1.00  0.00     0.074 A 
ATOM     52  C   UNL     1      16.528   4.763  -5.805  1.00  0.00     0.029 A 
ATOM     53  N   UNL     1      15.511   4.668  -3.830  1.00  0.00    -0.354 N 
ATOM     54  N   UNL     1      15.394   4.628  -0.913  1.00  0.00    -0.248 NA
ATOM     55  C   UNL     1      16.452   4.533   1.166  1.00  0.00     0.031 C 
ATOM     56  C   UNL     1      17.508   4.724  -4.807  1.00  0.00     0.029 A 
ATOM     57  C   UNL     1      16.875   4.684  -3.575  1.00  0.00     0.049 A 
ATOM     58  H   UNL     1      14.809   4.637  -3.142  1.00  0.00     0.167 HD
ATOM     59  C   UNL     1      16.769   4.633  -1.101  1.00  0.00     0.074 A 
ATOM     60  C   UNL     1      17.372   4.603   0.215  1.00  0.00     0.031 C 
ATOM     61  C   UNL     1      17.467   4.660  -2.263  1.00  0.00     0.037 A 
BRANCH  48  62
ATOM     62  C   UNL     1      13.921   4.629  -7.317  1.00  0.00     0.064 A 
ATOM     63  C   UNL     1      13.498   5.742  -8.059  1.00  0.00     0.173 A 
ATOM     64  C   UNL     1      14.335   3.489  -8.021  1.00  0.00     0.173 A 
ATOM     65  F   UNL     1      13.085   6.854  -7.432  1.00  0.00    -0.203 F 
ATOM     66  C   UNL     1      13.467   5.706  -9.450  1.00  0.00     0.198 A 
ATOM     67  C   UNL     1      14.329   3.466  -9.414  1.00  0.00     0.198 A 
ATOM     68  F   UNL     1      14.758   2.401  -7.360  1.00  0.00    -0.203 F 
ATOM     69  F   UNL     1      13.020   6.766 -10.137  1.00  0.00    -0.200 F 
ATOM     70  C   UNL     1      13.889   4.571 -10.127  1.00  0.00     0.200 A 
ATOM     71  F   UNL     1      14.749   2.373 -10.066  1.00  0.00    -0.200 F 
ATOM     72  F   UNL     1      13.866   4.540 -11.466  1.00  0.00    -0.200 F 
ENDBRANCH  48  62
BRANCH  49  73
ATOM     73  C   UNL     1      13.928   4.556   2.643  1.00  0.00     0.064 A 
ATOM     74  C   UNL     1      14.375   5.657   3.386  1.00  0.00     0.173 A 
ATOM     75  C   UNL     1      13.495   3.424   3.347  1.00  0.00     0.173 A 
ATOM     76  F   UNL     1      14.819   6.754   2.756  1.00  0.00    -0.203 F 
ATOM     77  C   UNL     1      14.406   5.620   4.779  1.00  0.00     0.198 A 
ATOM     78  C   UNL     1      13.501   3.398   4.740  1.00  0.00     0.198 A 
ATOM     79  F   UNL     1      13.054   2.346   2.681  1.00  0.00    -0.203 F 
ATOM     80  F   UNL     1      14.877   6.670   5.464  1.00  0.00    -0.200 F 
ATOM     81  C   UNL     1      13.963   4.493   5.455  1.00  0.00     0.200 A 
ATOM     82  F   UNL     1      13.061   2.312   5.390  1.00  0.00    -0.200 F 
ATOM     83  F   UNL     1      13.989   4.459   6.794  1.00  0.00    -0.200 F 
ENDBRANCH  49  73
BRANCH  61  84
ATOM     84  C   UNL     1      18.964   4.690  -2.164  1.00  0.00     0.064 A 
ATOM     85  C   UNL     1      19.699   3.560  -1.779  1.00  0.00     0.173 A 
ATOM     86  C   UNL     1      19.674   5.856  -2.493  1.00  0.00     0.173 A 
ATOM     87  F   UNL     1      19.066   2.427  -1.438  1.00  0.00    -0.203 F 
ATOM     88  C   UNL     1      21.089   3.602  -1.704  1.00  0.00     0.198 A 
ATOM     89  C   UNL     1      21.065   5.886  -2.442  1.00  0.00     0.198 A 
ATOM     90  F   UNL     1      19.018   6.963  -2.871  1.00  0.00    -0.203 F 
ATOM     91  F   UNL     1      21.768   2.523  -1.290  1.00  0.00    -0.200 F 
ATOM     92  C   UNL     1      21.771   4.761  -2.042  1.00  0.00     0.200 A 
ATOM     93  F   UNL     1      21.722   7.004  -2.780  1.00  0.00    -0.200 F 
ATOM     94  F   UNL     1      23.109   4.797  -1.975  1.00  0.00    -0.200 F 
ENDBRANCH  61  84
ENDBRANCH  35  36
ENDBRANCH  27  30
ENDBRANCH  25  26
ENDBRANCH  24  25
ENDBRANCH   1  24
TORSDOF 15
