REMARK SMILES COc1cc(S(=O)(=O)Nc2cccc(C(=O)NCCCCNC(=O)c3ccc(-c4c5nc(c(-c6c(F)c(F)c(F)c(F)c6F)c6ccc([nH]6)c(-c6c(F)c(F)c(F)c(F)c6F)c6nc(c(-c7c(F)c(F)c(F)c(F)c7F)c7ccc4[nH]7)C=C6)C=C5)cc3)c2)c(OC)cc1C
REMARK SMILES IDX 18 1 17 2 15 3 16 4 14 6 10 7 11 8 88 9 12 10 13 11 9 12
REMARK SMILES IDX 6 14 7 15 8 16 5 17 3 18 4 19 93 20 92 21 94 22 89 23 2 24
REMARK SMILES IDX 1 25 90 26 91 27 19 28 20 29 21 30 22 31 23 32 24 34 25 35
REMARK SMILES IDX 26 36 87 37 27 38 86 39 28 40 29 41 30 42 80 43 31 44 85 45
REMARK SMILES IDX 79 46 81 47 32 48 84 49 78 50 77 51 33 53 65 54 45 55 64 56
REMARK SMILES IDX 46 57 49 58 63 59 82 60 47 61 48 62 62 64 83 65 50 66 34 67
REMARK SMILES IDX 35 68 43 69 36 70 37 71 41 72 44 73 38 74 39 75 42 76 40 77
REMARK SMILES IDX 66 78 67 79 75 80 68 81 69 82 73 83 76 84 70 85 71 86 74 87
REMARK SMILES IDX 72 88 51 89 52 90 60 91 53 92 54 93 58 94 61 95 55 96 56 97
REMARK SMILES IDX 59 98 57 99
REMARK H PARENT 17 5 9 13 22 33 81 52 49 63
REMARK Flexibility Score: inf
ROOT
ATOM      1  C   UNL     1       6.137  -8.835  -2.284  1.00  0.00     0.116 C 
ENDROOT
BRANCH   1   2
ATOM      2  N   UNL     1       4.989  -9.586  -2.760  1.00  0.00    -0.352 N 
ATOM      3  C   UNL     1       3.709  -9.741  -2.295  1.00  0.00     0.251 C 
ATOM      4  O   UNL     1       2.937 -10.413  -2.980  1.00  0.00    -0.269 OA
ATOM      5  H   UNL     1       5.167 -10.088  -3.588  1.00  0.00     0.163 HD
BRANCH   3   6
ATOM      6  C   UNL     1       3.188  -9.076  -1.072  1.00  0.00     0.041 A 
ATOM      7  C   UNL     1       1.290  -7.910  -0.081  1.00  0.00     0.050 A 
ATOM      8  C   UNL     1       2.032  -7.672   1.072  1.00  0.00     0.027 A 
ATOM      9  C   UNL     1       1.845  -8.676  -1.112  1.00  0.00     0.040 A 
ATOM     10  C   UNL     1       3.353  -8.117   1.147  1.00  0.00     0.003 A 
ATOM     11  C   UNL     1       3.931  -8.806   0.076  1.00  0.00     0.014 A 
BRANCH   7  12
ATOM     12  N   UNL     1       0.000  -7.370  -0.325  1.00  0.00    -0.279 N 
ATOM     13  H   UNL     1      -0.602  -7.886  -0.908  1.00  0.00     0.180 HD
BRANCH  12  14
ATOM     14  S   UNL     1      -0.580  -5.933   0.294  1.00  0.00     0.265 S 
ATOM     15  O   UNL     1      -0.644  -6.071   1.735  1.00  0.00    -0.201 OA
ATOM     16  O   UNL     1      -1.786  -5.658  -0.466  1.00  0.00    -0.201 OA
BRANCH  14  17
ATOM     17  C   UNL     1       0.522  -4.571  -0.026  1.00  0.00     0.133 A 
ATOM     18  C   UNL     1       0.987  -2.262   0.592  1.00  0.00     0.123 A 
ATOM     19  C   UNL     1       0.147  -3.372   0.611  1.00  0.00     0.073 A 
ATOM     20  C   UNL     1       2.271  -2.372   0.062  1.00  0.00    -0.005 A 
ATOM     21  C   UNL     1       2.598  -3.535  -0.652  1.00  0.00     0.055 A 
ATOM     22  C   UNL     1       3.302  -1.291   0.198  1.00  0.00     0.048 C 
ATOM     23  C   UNL     1       1.711  -4.620  -0.757  1.00  0.00     0.139 A 
BRANCH  18  24
ATOM     24  O   UNL     1       0.512  -1.119   1.174  1.00  0.00    -0.496 OA
ATOM     25  C   UNL     1       0.423  -0.042   0.236  1.00  0.00     0.278 C 
ENDBRANCH  18  24
BRANCH  23  26
ATOM     26  O   UNL     1       1.948  -5.673  -1.589  1.00  0.00    -0.495 OA
ATOM     27  C   UNL     1       3.220  -5.745  -2.230  1.00  0.00     0.278 C 
ENDBRANCH  23  26
ENDBRANCH  14  17
ENDBRANCH  12  14
ENDBRANCH   7  12
ENDBRANCH   3   6
ENDBRANCH   1   2
BRANCH   1  28
ATOM     28  C   UNL     1       7.105  -9.703  -1.467  1.00  0.00     0.023 C 
BRANCH  28  29
ATOM     29  C   UNL     1       7.682 -10.905  -2.218  1.00  0.00     0.023 C 
BRANCH  29  30
ATOM     30  C   UNL     1       8.759 -10.543  -3.228  1.00  0.00     0.116 C 
BRANCH  30  31
ATOM     31  N   UNL     1      10.126 -10.659  -2.728  1.00  0.00    -0.352 N 
ATOM     32  C   UNL     1      11.315 -10.345  -3.369  1.00  0.00     0.251 C 
ATOM     33  H   UNL     1      10.216 -11.007  -1.811  1.00  0.00     0.163 HD
ATOM     34  O   UNL     1      12.394 -10.546  -2.825  1.00  0.00    -0.269 OA
BRANCH  32  35
ATOM     35  C   UNL     1      11.255  -9.625  -4.663  1.00  0.00     0.039 A 
ATOM     36  C   UNL     1      11.950  -8.416  -4.765  1.00  0.00     0.014 A 
ATOM     37  C   UNL     1      10.304  -9.975  -5.614  1.00  0.00     0.014 A 
ATOM     38  C   UNL     1      11.481  -7.438  -5.637  1.00  0.00     0.010 A 
ATOM     39  C   UNL     1       9.762  -8.973  -6.391  1.00  0.00     0.010 A 
ATOM     40  C   UNL     1      10.307  -7.686  -6.346  1.00  0.00    -0.014 A 
BRANCH  40  41
ATOM     41  C   UNL     1       9.550  -6.647  -7.029  1.00  0.00     0.031 A 
ATOM     42  C   UNL     1       9.644  -6.530  -8.496  1.00  0.00     0.074 A 
ATOM     43  C   UNL     1       8.703  -5.853  -6.336  1.00  0.00     0.049 A 
ATOM     44  N   UNL     1       9.436  -5.441  -9.153  1.00  0.00    -0.248 NA
ATOM     45  C   UNL     1      10.019  -7.653  -9.345  1.00  0.00     0.031 C 
ATOM     46  C   UNL     1       7.694  -4.950  -6.883  1.00  0.00     0.029 A 
ATOM     47  N   UNL     1       8.704  -5.577  -4.960  1.00  0.00    -0.354 N 
ATOM     48  C   UNL     1       9.367  -5.766 -10.488  1.00  0.00     0.074 A 
ATOM     49  C   UNL     1       9.798  -7.144 -10.560  1.00  0.00     0.031 C 
ATOM     50  C   UNL     1       7.387  -4.027  -5.959  1.00  0.00     0.029 A 
ATOM     51  C   UNL     1       8.276  -4.231  -4.832  1.00  0.00     0.049 A 
ATOM     52  H   UNL     1       8.951  -6.192  -4.232  1.00  0.00     0.167 HD
ATOM     53  C   UNL     1       8.817  -4.875 -11.363  1.00  0.00     0.037 A 
ATOM     54  C   UNL     1       9.085  -3.278  -4.282  1.00  0.00     0.037 A 
ATOM     55  C   UNL     1       8.471  -3.623 -10.690  1.00  0.00     0.049 A 
ATOM     56  C   UNL     1       9.464  -2.183  -5.248  1.00  0.00     0.074 A 
ATOM     57  C   UNL     1       7.281  -3.150 -10.159  1.00  0.00     0.029 A 
ATOM     58  N   UNL     1       9.480  -2.818 -10.165  1.00  0.00    -0.354 N 
ATOM     59  N   UNL     1       9.288  -2.269  -6.537  1.00  0.00    -0.248 NA
ATOM     60  C   UNL     1      10.103  -0.931  -4.853  1.00  0.00     0.031 C 
ATOM     61  C   UNL     1       7.587  -2.108  -9.250  1.00  0.00     0.029 A 
ATOM     62  C   UNL     1       8.960  -1.928  -9.241  1.00  0.00     0.049 A 
ATOM     63  H   UNL     1      10.431  -2.874 -10.416  1.00  0.00     0.167 HD
ATOM     64  C   UNL     1       9.805  -1.157  -7.143  1.00  0.00     0.074 A 
ATOM     65  C   UNL     1      10.278  -0.335  -6.045  1.00  0.00     0.031 C 
ATOM     66  C   UNL     1       9.815  -1.012  -8.501  1.00  0.00     0.037 A 
BRANCH  53  67
ATOM     67  C   UNL     1       8.302  -5.282 -12.728  1.00  0.00     0.064 A 
ATOM     68  C   UNL     1       7.145  -4.687 -13.276  1.00  0.00     0.173 A 
ATOM     69  C   UNL     1       8.862  -6.306 -13.512  1.00  0.00     0.173 A 
ATOM     70  F   UNL     1       6.566  -3.623 -12.706  1.00  0.00    -0.203 F 
ATOM     71  C   UNL     1       6.529  -5.169 -14.435  1.00  0.00     0.198 A 
ATOM     72  C   UNL     1       8.215  -6.830 -14.637  1.00  0.00     0.198 A 
ATOM     73  F   UNL     1      10.078  -6.799 -13.242  1.00  0.00    -0.203 F 
ATOM     74  F   UNL     1       5.424  -4.569 -14.899  1.00  0.00    -0.200 F 
ATOM     75  C   UNL     1       7.039  -6.269 -15.091  1.00  0.00     0.200 A 
ATOM     76  F   UNL     1       8.740  -7.886 -15.275  1.00  0.00    -0.200 F 
ATOM     77  F   UNL     1       6.418  -6.768 -16.168  1.00  0.00    -0.200 F 
ENDBRANCH  53  67
BRANCH  54  78
ATOM     78  C   UNL     1       9.951  -3.840  -3.210  1.00  0.00     0.064 A 
ATOM     79  C   UNL     1       9.285  -4.418  -2.110  1.00  0.00     0.173 A 
ATOM     80  C   UNL     1      11.252  -4.275  -3.488  1.00  0.00     0.173 A 
ATOM     81  F   UNL     1       8.047  -4.009  -1.787  1.00  0.00    -0.203 F 
ATOM     82  C   UNL     1       9.798  -5.545  -1.477  1.00  0.00     0.198 A 
ATOM     83  C   UNL     1      11.784  -5.374  -2.813  1.00  0.00     0.198 A 
ATOM     84  F   UNL     1      11.944  -3.741  -4.504  1.00  0.00    -0.203 F 
ATOM     85  F   UNL     1       9.045  -6.208  -0.587  1.00  0.00    -0.200 F 
ATOM     86  C   UNL     1      11.029  -6.048  -1.860  1.00  0.00     0.200 A 
ATOM     87  F   UNL     1      12.984  -5.854  -3.167  1.00  0.00    -0.200 F 
ATOM     88  F   UNL     1      11.460  -7.212  -1.354  1.00  0.00    -0.200 F 
ENDBRANCH  54  78
BRANCH  66  89
ATOM     89  C   UNL     1      10.536   0.088  -9.230  1.00  0.00     0.064 A 
ATOM     90  C   UNL     1      11.743   0.651  -8.785  1.00  0.00     0.173 A 
ATOM     91  C   UNL     1      10.070   0.541 -10.484  1.00  0.00     0.173 A 
ATOM     92  F   UNL     1      12.352   0.202  -7.678  1.00  0.00    -0.203 F 
ATOM     93  C   UNL     1      12.386   1.668  -9.493  1.00  0.00     0.198 A 
ATOM     94  C   UNL     1      10.744   1.516 -11.217  1.00  0.00     0.198 A 
ATOM     95  F   UNL     1       8.957   0.038 -11.038  1.00  0.00    -0.203 F 
ATOM     96  F   UNL     1      13.502   2.219  -8.996  1.00  0.00    -0.200 F 
ATOM     97  C   UNL     1      11.889   2.098 -10.710  1.00  0.00     0.200 A 
ATOM     98  F   UNL     1      10.284   1.881 -12.422  1.00  0.00    -0.200 F 
ATOM     99  F   UNL     1      12.521   3.056 -11.399  1.00  0.00    -0.200 F 
ENDBRANCH  66  89
ENDBRANCH  40  41
ENDBRANCH  32  35
ENDBRANCH  30  31
ENDBRANCH  29  30
ENDBRANCH  28  29
ENDBRANCH   1  28
TORSDOF 16
