REMARK SMILES O=C(NCCCCNC(=O)c1ccc(-c2c3nc(c(-c4c(F)c(F)c(F)c(F)c4F)c4ccc([nH]4)c(-c4c(F)c(F)c(F)c(F)c4F)c4nc(c(-c5c(F)c(F)c(F)c(F)c5F)c5ccc2[nH]5)C=C4)C=C3)cc1)C1=Cc2cc(Cl)cc(-c3ccc(O)cc3)c2O[C@@H]1C(F)(F)F
REMARK SMILES IDX 5 1 4 2 3 3 1 4 2 5 74 7 75 8 91 9 76 10 90 11 77 12 89 13
REMARK SMILES IDX 78 14 81 15 79 16 80 17 92 18 93 19 94 20 95 21 82 22 83 23
REMARK SMILES IDX 88 24 84 25 87 26 85 27 86 28 6 30 7 31 8 32 9 33 10 35
REMARK SMILES IDX 11 36 12 37 73 38 13 39 72 40 14 41 15 42 16 43 66 44 17 45
REMARK SMILES IDX 71 46 65 47 67 48 18 49 70 50 64 51 63 52 19 54 51 55 31 56
REMARK SMILES IDX 50 57 32 58 35 59 49 60 68 61 33 62 34 63 48 65 69 66 36 67
REMARK SMILES IDX 20 68 21 69 29 70 22 71 23 72 27 73 30 74 24 75 25 76 28 77
REMARK SMILES IDX 26 78 52 79 53 80 61 81 54 82 55 83 59 84 62 85 56 86 57 87
REMARK SMILES IDX 60 88 58 89 37 90 38 91 46 92 39 93 40 94 44 95 47 96 41 97
REMARK SMILES IDX 42 98 45 99 43 100
REMARK H PARENT 3 6 86 29 8 34 67 53 35 64
REMARK Flexibility Score: inf
ROOT
ATOM      1  C   UNL     1       4.226  -2.254   2.571  1.00  0.00     0.023 C 
ENDROOT
BRANCH   1   2
ATOM      2  C   UNL     1       3.432  -1.816   1.334  1.00  0.00     0.116 C 
BRANCH   2   3
ATOM      3  N   UNL     1       2.449  -0.766   1.607  1.00  0.00    -0.352 N 
ATOM      4  O   UNL     1       1.089   0.968   1.172  1.00  0.00    -0.270 OA
ATOM      5  C   UNL     1       2.181   0.433   0.998  1.00  0.00     0.251 C 
ATOM      6  H   UNL     1       1.868  -0.958   2.378  1.00  0.00     0.163 HD
BRANCH   5   7
ATOM      7  C   UNL     1       3.140   1.039   0.044  1.00  0.00     0.067 C 
ATOM      8  C   UNL     1       4.420   1.211   0.391  1.00  0.00     0.025 C 
ATOM      9  C   UNL     1       2.799   0.889  -1.407  1.00  0.00     0.314 C 
ATOM     10  C   UNL     1       5.381   0.481  -0.429  1.00  0.00     0.019 A 
ATOM     11  O   UNL     1       3.642  -0.097  -2.047  1.00  0.00    -0.475 OA
ATOM     12  C   UNL     1       6.643   0.228   0.115  1.00  0.00     0.032 A 
ATOM     13  C   UNL     1       4.909  -0.265  -1.529  1.00  0.00     0.135 A 
ATOM     14  C   UNL     1       7.403  -0.818  -0.395  1.00  0.00     0.042 A 
ATOM     15  C   UNL     1       5.656  -1.354  -2.009  1.00  0.00     0.026 A 
ATOM     16  Cl  UNL     1       8.885  -1.235   0.372  1.00  0.00    -0.084 Cl
ATOM     17  C   UNL     1       6.914  -1.611  -1.433  1.00  0.00     0.033 A 
BRANCH   9  18
ATOM     18  C   UNL     1       2.865   2.261  -2.118  1.00  0.00     0.429 C 
ATOM     19  F   UNL     1       2.465   2.171  -3.409  1.00  0.00    -0.167 F 
ATOM     20  F   UNL     1       2.058   3.173  -1.522  1.00  0.00    -0.167 F 
ATOM     21  F   UNL     1       4.114   2.787  -2.125  1.00  0.00    -0.167 F 
ENDBRANCH   9  18
BRANCH  15  22
ATOM     22  C   UNL     1       5.077  -2.354  -2.915  1.00  0.00    -0.014 A 
ATOM     23  C   UNL     1       4.317  -3.412  -2.383  1.00  0.00     0.012 A 
ATOM     24  C   UNL     1       5.307  -2.324  -4.295  1.00  0.00     0.012 A 
ATOM     25  C   UNL     1       3.839  -4.437  -3.197  1.00  0.00     0.047 A 
ATOM     26  C   UNL     1       4.826  -3.350  -5.116  1.00  0.00     0.047 A 
ATOM     27  C   UNL     1       4.112  -4.406  -4.555  1.00  0.00     0.115 A 
BRANCH  27  28
ATOM     28  O   UNL     1       3.665  -5.448  -5.311  1.00  0.00    -0.508 OA
ATOM     29  H   UNL     1       3.187  -6.147  -4.909  1.00  0.00     0.293 HD
ENDBRANCH  27  28
ENDBRANCH  15  22
ENDBRANCH   5   7
ENDBRANCH   2   3
ENDBRANCH   1   2
BRANCH   1  30
ATOM     30  C   UNL     1       4.261  -3.773   2.796  1.00  0.00     0.023 C 
BRANCH  30  31
ATOM     31  C   UNL     1       4.795  -4.636   1.654  1.00  0.00     0.116 C 
BRANCH  31  32
ATOM     32  N   UNL     1       6.220  -4.511   1.396  1.00  0.00    -0.352 N 
ATOM     33  C   UNL     1       7.070  -5.487   0.914  1.00  0.00     0.251 C 
ATOM     34  H   UNL     1       6.624  -3.634   1.586  1.00  0.00     0.163 HD
ATOM     35  O   UNL     1       8.274  -5.265   0.783  1.00  0.00    -0.269 OA
BRANCH  33  36
ATOM     36  C   UNL     1       6.535  -6.836   0.617  1.00  0.00     0.039 A 
ATOM     37  C   UNL     1       7.090  -7.941   1.267  1.00  0.00     0.014 A 
ATOM     38  C   UNL     1       5.432  -7.000  -0.226  1.00  0.00     0.014 A 
ATOM     39  C   UNL     1       6.468  -9.189   1.164  1.00  0.00     0.010 A 
ATOM     40  C   UNL     1       4.781  -8.232  -0.284  1.00  0.00     0.010 A 
ATOM     41  C   UNL     1       5.272  -9.331   0.439  1.00  0.00    -0.014 A 
BRANCH  41  42
ATOM     42  C   UNL     1       4.483 -10.591   0.516  1.00  0.00     0.031 A 
ATOM     43  C   UNL     1       4.279 -11.460  -0.691  1.00  0.00     0.074 A 
ATOM     44  C   UNL     1       3.887 -10.919   1.682  1.00  0.00     0.049 A 
ATOM     45  N   UNL     1       3.615 -12.585  -0.796  1.00  0.00    -0.248 NA
ATOM     46  C   UNL     1       4.881 -10.999  -1.950  1.00  0.00     0.031 C 
ATOM     47  C   UNL     1       3.946 -10.128   2.912  1.00  0.00     0.029 A 
ATOM     48  N   UNL     1       3.108 -11.999   2.022  1.00  0.00    -0.354 N 
ATOM     49  C   UNL     1       3.721 -12.967  -2.126  1.00  0.00     0.074 A 
ATOM     50  C   UNL     1       4.470 -11.928  -2.802  1.00  0.00     0.031 C 
ATOM     51  C   UNL     1       3.256 -10.758   3.876  1.00  0.00     0.029 A 
ATOM     52  C   UNL     1       2.682 -11.983   3.329  1.00  0.00     0.049 A 
ATOM     53  H   UNL     1       2.878 -12.717   1.389  1.00  0.00     0.167 HD
ATOM     54  C   UNL     1       3.258 -14.092  -2.723  1.00  0.00     0.037 A 
ATOM     55  C   UNL     1       1.916 -12.856   4.011  1.00  0.00     0.037 A 
ATOM     56  C   UNL     1       2.521 -15.131  -2.051  1.00  0.00     0.049 A 
ATOM     57  C   UNL     1       1.415 -14.096   3.322  1.00  0.00     0.074 A 
ATOM     58  C   UNL     1       2.064 -16.334  -2.563  1.00  0.00     0.029 A 
ATOM     59  N   UNL     1       2.126 -15.089  -0.722  1.00  0.00    -0.354 N 
ATOM     60  N   UNL     1       1.605 -14.490   2.087  1.00  0.00    -0.248 NA
ATOM     61  C   UNL     1       0.601 -15.019   4.127  1.00  0.00     0.031 C 
ATOM     62  C   UNL     1       1.357 -17.001  -1.556  1.00  0.00     0.029 A 
ATOM     63  C   UNL     1       1.413 -16.235  -0.404  1.00  0.00     0.049 A 
ATOM     64  H   UNL     1       2.323 -14.354  -0.097  1.00  0.00     0.167 HD
ATOM     65  C   UNL     1       0.961 -15.715   1.975  1.00  0.00     0.074 A 
ATOM     66  C   UNL     1       0.388 -16.008   3.271  1.00  0.00     0.031 C 
ATOM     67  C   UNL     1       0.855 -16.522   0.892  1.00  0.00     0.037 A 
BRANCH  54  68
ATOM     68  C   UNL     1       3.548 -14.272  -4.184  1.00  0.00     0.064 A 
ATOM     69  C   UNL     1       4.842 -14.568  -4.639  1.00  0.00     0.173 A 
ATOM     70  C   UNL     1       2.516 -14.212  -5.132  1.00  0.00     0.173 A 
ATOM     71  F   UNL     1       5.865 -14.630  -3.773  1.00  0.00    -0.203 F 
ATOM     72  C   UNL     1       5.096 -14.775  -5.992  1.00  0.00     0.198 A 
ATOM     73  C   UNL     1       2.769 -14.446  -6.481  1.00  0.00     0.198 A 
ATOM     74  F   UNL     1       1.259 -13.943  -4.748  1.00  0.00    -0.203 F 
ATOM     75  F   UNL     1       6.346 -15.020  -6.408  1.00  0.00    -0.200 F 
ATOM     76  C   UNL     1       4.058 -14.722  -6.911  1.00  0.00     0.200 A 
ATOM     77  F   UNL     1       1.763 -14.409  -7.367  1.00  0.00    -0.200 F 
ATOM     78  F   UNL     1       4.302 -14.934  -8.212  1.00  0.00    -0.200 F 
ENDBRANCH  54  68
BRANCH  55  79
ATOM     79  C   UNL     1       1.597 -12.607   5.441  1.00  0.00     0.064 A 
ATOM     80  C   UNL     1       2.145 -13.409   6.452  1.00  0.00     0.173 A 
ATOM     81  C   UNL     1       0.726 -11.578   5.826  1.00  0.00     0.173 A 
ATOM     82  F   UNL     1       2.967 -14.420   6.131  1.00  0.00    -0.203 F 
ATOM     83  C   UNL     1       1.815 -13.208   7.790  1.00  0.00     0.198 A 
ATOM     84  C   UNL     1       0.418 -11.360   7.167  1.00  0.00     0.198 A 
ATOM     85  F   UNL     1       0.178 -10.779   4.898  1.00  0.00    -0.203 F 
ATOM     86  F   UNL     1       2.314 -14.021   8.731  1.00  0.00    -0.200 F 
ATOM     87  C   UNL     1       0.955 -12.181   8.147  1.00  0.00     0.200 A 
ATOM     88  F   UNL     1      -0.404 -10.358   7.509  1.00  0.00    -0.200 F 
ATOM     89  F   UNL     1       0.636 -11.987   9.434  1.00  0.00    -0.200 F 
ENDBRANCH  55  79
BRANCH  67  90
ATOM     90  C   UNL     1       0.118 -17.818   1.069  1.00  0.00     0.064 A 
ATOM     91  C   UNL     1      -1.277 -17.857   1.211  1.00  0.00     0.173 A 
ATOM     92  C   UNL     1       0.813 -19.037   1.062  1.00  0.00     0.173 A 
ATOM     93  F   UNL     1      -1.985 -16.718   1.240  1.00  0.00    -0.203 F 
ATOM     94  C   UNL     1      -1.947 -19.069   1.363  1.00  0.00     0.198 A 
ATOM     95  C   UNL     1       0.137 -20.247   1.187  1.00  0.00     0.198 A 
ATOM     96  F   UNL     1       2.147 -19.054   0.925  1.00  0.00    -0.203 F 
ATOM     97  F   UNL     1      -3.275 -19.080   1.543  1.00  0.00    -0.200 F 
ATOM     98  C   UNL     1      -1.240 -20.262   1.344  1.00  0.00     0.200 A 
ATOM     99  F   UNL     1       0.820 -21.401   1.157  1.00  0.00    -0.200 F 
ATOM    100  F   UNL     1      -1.887 -21.427   1.485  1.00  0.00    -0.200 F 
ENDBRANCH  67  90
ENDBRANCH  41  42
ENDBRANCH  33  36
ENDBRANCH  31  32
ENDBRANCH  30  31
ENDBRANCH   1  30
TORSDOF 14
