REMARK SMILES O=C(COc1c(Cl)cc(/C=C2/C(=O)NC(=O)N=C2O)cc1Cl)NCCCCNC(=O)c1ccc(-c2c3nc(c(-c4c(F)c(F)c(F)c(F)c4F)c4ccc([nH]4)c(-c4c(F)c(F)c(F)c(F)c4F)c4nc(c(-c5c(F)c(F)c(F)c(F)c5F)c5ccc2[nH]5)C=C4)C=C3)cc1
REMARK SMILES IDX 24 1 23 2 1 3 2 4 3 6 4 7 5 8 6 9 21 10 7 11 8 12 20 13
REMARK SMILES IDX 22 14 9 15 10 16 11 17 12 18 18 19 13 20 14 21 17 22 15 23
REMARK SMILES IDX 16 25 19 26 25 28 26 29 27 30 28 31 29 32 30 34 31 35 32 36
REMARK SMILES IDX 93 37 33 38 92 39 34 40 35 41 36 42 86 43 37 44 91 45 85 46
REMARK SMILES IDX 87 47 38 48 90 49 84 50 83 51 39 53 71 54 51 55 70 56 52 57
REMARK SMILES IDX 55 58 69 59 88 60 53 61 54 62 68 64 89 65 56 66 40 67 41 68
REMARK SMILES IDX 49 69 42 70 43 71 47 72 50 73 44 74 45 75 48 76 46 77 72 78
REMARK SMILES IDX 73 79 81 80 74 81 75 82 79 83 82 84 76 85 77 86 80 87 78 88
REMARK SMILES IDX 57 89 58 90 66 91 59 92 60 93 64 94 67 95 61 96 62 97 65 98
REMARK SMILES IDX 63 99
REMARK H PARENT 23 5 14 24 19 27 28 33 87 52 55 63
REMARK Flexibility Score: inf
ROOT
ATOM      1  C   UNL     1       1.982  -2.433  -1.115  1.00  0.00     0.116 C 
ENDROOT
BRANCH   1   2
ATOM      2  N   UNL     1       2.690  -1.245  -0.684  1.00  0.00    -0.353 N 
ATOM      3  O   UNL     1       0.932   0.228  -0.914  1.00  0.00    -0.271 OA
ATOM      4  C   UNL     1       2.053  -0.034  -0.489  1.00  0.00     0.257 C 
ATOM      5  H   UNL     1       3.660  -1.302  -0.524  1.00  0.00     0.163 HD
BRANCH   4   6
ATOM      6  C   UNL     1       2.879   0.972   0.314  1.00  0.00     0.329 C 
BRANCH   6   7
ATOM      7  O   UNL     1       3.577   0.324   1.388  1.00  0.00    -0.481 OA
BRANCH   7   8
ATOM      8  C   UNL     1       2.939   0.471   2.596  1.00  0.00     0.157 A 
ATOM      9  C   UNL     1       2.185  -0.580   3.127  1.00  0.00     0.085 A 
ATOM     10  C   UNL     1       3.143   1.610   3.386  1.00  0.00     0.085 A 
ATOM     11  Cl  UNL     1       1.941  -2.071   2.307  1.00  0.00    -0.080 Cl
ATOM     12  C   UNL     1       1.637  -0.486   4.406  1.00  0.00     0.032 A 
ATOM     13  C   UNL     1       2.583   1.703   4.670  1.00  0.00     0.032 A 
ATOM     14  Cl  UNL     1       4.141   2.913   2.841  1.00  0.00    -0.080 Cl
ATOM     15  C   UNL     1       1.869   0.632   5.212  1.00  0.00    -0.021 A 
BRANCH  15  16
ATOM     16  C   UNL     1       1.306   0.573   6.569  1.00  0.00     0.027 C 
ATOM     17  C   UNL     1       1.805   0.938   7.767  1.00  0.00     0.102 C 
ATOM     18  C   UNL     1       0.958   0.611   8.946  1.00  0.00     0.264 C 
ATOM     19  C   UNL     1       3.064   1.597   8.119  1.00  0.00     0.228 C 
ATOM     20  O   UNL     1      -0.042  -0.096   8.898  1.00  0.00    -0.269 OA
ATOM     21  N   UNL     1       1.389   1.164  10.115  1.00  0.00    -0.272 N 
ATOM     22  N   UNL     1       3.390   2.071   9.263  1.00  0.00    -0.157 NA
ATOM     23  C   UNL     1       2.496   1.949  10.290  1.00  0.00     0.351 C 
ATOM     24  H   UNL     1       0.848   0.980  10.916  1.00  0.00     0.175 HD
ATOM     25  O   UNL     1       2.658   2.510  11.370  1.00  0.00    -0.246 OA
BRANCH  19  26
ATOM     26  O   UNL     1       3.983   1.688   7.156  1.00  0.00    -0.493 OA
ATOM     27  H   UNL     1       3.798   1.357   6.299  1.00  0.00     0.295 HD
ENDBRANCH  19  26
ENDBRANCH  15  16
ENDBRANCH   7   8
ENDBRANCH   6   7
ENDBRANCH   4   6
ENDBRANCH   1   2
BRANCH   1  28
ATOM     28  C   UNL     1       2.555  -3.068  -2.373  1.00  0.00     0.023 C 
BRANCH  28  29
ATOM     29  C   UNL     1       4.041  -3.427  -2.301  1.00  0.00     0.023 C 
BRANCH  29  30
ATOM     30  C   UNL     1       4.458  -4.309  -1.127  1.00  0.00     0.116 C 
BRANCH  30  31
ATOM     31  N   UNL     1       3.855  -5.633  -1.162  1.00  0.00    -0.352 N 
ATOM     32  C   UNL     1       4.447  -6.871  -1.246  1.00  0.00     0.251 C 
ATOM     33  H   UNL     1       2.872  -5.643  -1.120  1.00  0.00     0.163 HD
ATOM     34  O   UNL     1       3.756  -7.872  -1.417  1.00  0.00    -0.269 OA
BRANCH  32  35
ATOM     35  C   UNL     1       5.918  -7.006  -1.163  1.00  0.00     0.039 A 
ATOM     36  C   UNL     1       6.572  -7.837  -2.077  1.00  0.00     0.014 A 
ATOM     37  C   UNL     1       6.654  -6.328  -0.188  1.00  0.00     0.014 A 
ATOM     38  C   UNL     1       7.967  -7.924  -2.064  1.00  0.00     0.010 A 
ATOM     39  C   UNL     1       8.047  -6.352  -0.228  1.00  0.00     0.010 A 
ATOM     40  C   UNL     1       8.720  -7.147  -1.169  1.00  0.00    -0.014 A 
BRANCH  40  41
ATOM     41  C   UNL     1      10.207  -7.144  -1.214  1.00  0.00     0.031 A 
ATOM     42  C   UNL     1      11.009  -7.623  -0.035  1.00  0.00     0.074 A 
ATOM     43  C   UNL     1      10.840  -6.650  -2.297  1.00  0.00     0.049 A 
ATOM     44  N   UNL     1      12.308  -7.640   0.134  1.00  0.00    -0.248 NA
ATOM     45  C   UNL     1      10.249  -8.126   1.120  1.00  0.00     0.031 C 
ATOM     46  C   UNL     1      10.181  -6.116  -3.490  1.00  0.00     0.029 A 
ATOM     47  N   UNL     1      12.179  -6.508  -2.569  1.00  0.00    -0.354 N 
ATOM     48  C   UNL     1      12.518  -8.141   1.412  1.00  0.00     0.074 A 
ATOM     49  C   UNL     1      11.214  -8.364   1.997  1.00  0.00     0.031 C 
ATOM     50  C   UNL     1      11.114  -5.733  -4.375  1.00  0.00     0.029 A 
ATOM     51  C   UNL     1      12.437  -5.948  -3.797  1.00  0.00     0.049 A 
ATOM     52  H   UNL     1      12.887  -6.782  -1.942  1.00  0.00     0.167 HD
ATOM     53  C   UNL     1      13.692  -8.412   2.033  1.00  0.00     0.037 A 
ATOM     54  C   UNL     1      13.607  -5.632  -4.386  1.00  0.00     0.037 A 
ATOM     55  C   UNL     1      14.989  -8.204   1.441  1.00  0.00     0.049 A 
ATOM     56  C   UNL     1      14.896  -5.916  -3.662  1.00  0.00     0.074 A 
ATOM     57  C   UNL     1      16.234  -8.505   1.966  1.00  0.00     0.029 A 
ATOM     58  N   UNL     1      15.209  -7.633   0.196  1.00  0.00    -0.354 N 
ATOM     59  N   UNL     1      15.082  -6.460  -2.484  1.00  0.00    -0.248 NA
ATOM     60  C   UNL     1      16.138  -5.545  -4.353  1.00  0.00     0.031 C 
ATOM     61  C   UNL     1      17.208  -8.055   1.069  1.00  0.00     0.029 A 
ATOM     62  C   UNL     1      16.571  -7.540  -0.048  1.00  0.00     0.049 A 
ATOM     63  H   UNL     1      14.503  -7.337  -0.423  1.00  0.00     0.167 HD
ATOM     64  C   UNL     1      16.458  -6.529  -2.308  1.00  0.00     0.074 A 
ATOM     65  C   UNL     1      17.059  -5.985  -3.508  1.00  0.00     0.031 C 
ATOM     66  C   UNL     1      17.160  -7.003  -1.249  1.00  0.00     0.037 A 
BRANCH  53  67
ATOM     67  C   UNL     1      13.631  -8.955   3.433  1.00  0.00     0.064 A 
ATOM     68  C   UNL     1      13.136 -10.239   3.708  1.00  0.00     0.173 A 
ATOM     69  C   UNL     1      14.114  -8.197   4.511  1.00  0.00     0.173 A 
ATOM     70  F   UNL     1      12.654 -11.005   2.717  1.00  0.00    -0.203 F 
ATOM     71  C   UNL     1      13.094 -10.729   5.012  1.00  0.00     0.198 A 
ATOM     72  C   UNL     1      14.104  -8.704   5.808  1.00  0.00     0.198 A 
ATOM     73  F   UNL     1      14.607  -6.966   4.306  1.00  0.00    -0.203 F 
ATOM     74  F   UNL     1      12.564 -11.935   5.255  1.00  0.00    -0.200 F 
ATOM     75  C   UNL     1      13.585  -9.964   6.059  1.00  0.00     0.200 A 
ATOM     76  F   UNL     1      14.596  -7.970   6.816  1.00  0.00    -0.200 F 
ATOM     77  F   UNL     1      13.553 -10.441   7.311  1.00  0.00    -0.200 F 
ENDBRANCH  53  67
BRANCH  54  78
ATOM     78  C   UNL     1      13.618  -5.028  -5.746  1.00  0.00     0.064 A 
ATOM     79  C   UNL     1      14.133  -5.732  -6.843  1.00  0.00     0.173 A 
ATOM     80  C   UNL     1      13.131  -3.732  -5.975  1.00  0.00     0.173 A 
ATOM     81  F   UNL     1      14.631  -6.966  -6.672  1.00  0.00    -0.203 F 
ATOM     82  C   UNL     1      14.185  -5.156  -8.111  1.00  0.00     0.198 A 
ATOM     83  C   UNL     1      13.152  -3.170  -7.250  1.00  0.00     0.198 A 
ATOM     84  F   UNL     1      12.623  -3.015  -4.962  1.00  0.00    -0.203 F 
ATOM     85  F   UNL     1      14.735  -5.832  -9.129  1.00  0.00    -0.200 F 
ATOM     86  C   UNL     1      13.689  -3.877  -8.315  1.00  0.00     0.200 A 
ATOM     87  F   UNL     1      12.656  -1.940  -7.445  1.00  0.00    -0.200 F 
ATOM     88  F   UNL     1      13.736  -3.324  -9.534  1.00  0.00    -0.200 F 
ENDBRANCH  54  78
BRANCH  66  89
ATOM     89  C   UNL     1      18.660  -6.998  -1.353  1.00  0.00     0.064 A 
ATOM     90  C   UNL     1      19.401  -5.807  -1.338  1.00  0.00     0.173 A 
ATOM     91  C   UNL     1      19.367  -8.208  -1.431  1.00  0.00     0.173 A 
ATOM     92  F   UNL     1      18.774  -4.622  -1.280  1.00  0.00    -0.203 F 
ATOM     93  C   UNL     1      20.790  -5.827  -1.428  1.00  0.00     0.198 A 
ATOM     94  C   UNL     1      20.758  -8.225  -1.483  1.00  0.00     0.198 A 
ATOM     95  F   UNL     1      18.710  -9.378  -1.441  1.00  0.00    -0.203 F 
ATOM     96  F   UNL     1      21.473  -4.674  -1.468  1.00  0.00    -0.200 F 
ATOM     97  C   UNL     1      21.468  -7.035  -1.491  1.00  0.00     0.200 A 
ATOM     98  F   UNL     1      21.412  -9.395  -1.525  1.00  0.00    -0.200 F 
ATOM     99  F   UNL     1      22.806  -7.051  -1.567  1.00  0.00    -0.200 F 
ENDBRANCH  66  89
ENDBRANCH  40  41
ENDBRANCH  32  35
ENDBRANCH  30  31
ENDBRANCH  29  30
ENDBRANCH  28  29
ENDBRANCH   1  28
TORSDOF 15
