REMARK SMILES C[C@@H]1[NH2+]CC[C@@H]1C(=O)Nc1cc(F)ccc1C(=O)NCCCCNC(=O)c1ccc(-c2c3nc(c(-c4c(F)c(F)c(F)c(F)c4F)c4ccc([nH]4)c(-c4c(F)c(F)c(F)c(F)c4F)c4nc(c(-c5c(F)c(F)c(F)c(F)c5F)c5ccc2[nH]5)C=C4)C=C3)cc1
REMARK SMILES IDX 21 1 20 2 19 3 17 4 18 5 16 7 10 8 11 9 12 10 15 11 13 12
REMARK SMILES IDX 14 13 9 14 7 15 8 16 6 18 1 19 2 20 3 21 4 22 5 25 22 26
REMARK SMILES IDX 23 27 24 28 25 29 26 31 27 32 28 33 89 34 29 35 88 36 30 37
REMARK SMILES IDX 31 38 32 39 82 40 33 41 87 42 81 43 83 44 34 45 86 46 80 47
REMARK SMILES IDX 79 48 35 50 67 51 47 52 66 53 48 54 51 55 65 56 84 57 49 58
REMARK SMILES IDX 50 59 64 61 85 62 52 63 36 64 37 65 45 66 38 67 39 68 43 69
REMARK SMILES IDX 46 70 40 71 41 72 44 73 42 74 68 75 69 76 77 77 70 78 71 79
REMARK SMILES IDX 75 80 78 81 72 82 73 83 76 84 74 85 53 86 54 87 62 88 55 89
REMARK SMILES IDX 56 90 60 91 63 92 57 93 58 94 61 95 59 96
REMARK H PARENT 19 6 9 17 3 23 3 24 24 30 83 49 51 60
REMARK Flexibility Score: inf
ROOT
ATOM      1  C   UNL     1       1.327   5.189  -0.940  1.00  0.00     0.023 C 
ENDROOT
BRANCH   1   2
ATOM      2  C   UNL     1       2.033   3.854  -1.152  1.00  0.00     0.116 C 
BRANCH   2   3
ATOM      3  N   UNL     1       3.449   3.945  -1.441  1.00  0.00    -0.352 N 
ATOM      4  C   UNL     1       4.473   3.047  -1.274  1.00  0.00     0.253 C 
ATOM      5  O   UNL     1       5.585   3.374  -1.693  1.00  0.00    -0.269 OA
ATOM      6  H   UNL     1       3.728   4.807  -1.827  1.00  0.00     0.163 HD
BRANCH   4   7
ATOM      7  C   UNL     1       4.345   1.742  -0.560  1.00  0.00     0.063 A 
ATOM      8  C   UNL     1       3.289   0.814  -0.678  1.00  0.00     0.056 A 
ATOM      9  C   UNL     1       3.368  -0.384   0.043  1.00  0.00     0.066 A 
ATOM     10  C   UNL     1       4.456  -0.660   0.865  1.00  0.00     0.125 A 
ATOM     11  C   UNL     1       5.444   1.433   0.274  1.00  0.00     0.019 A 
ATOM     12  F   UNL     1       4.514  -1.836   1.502  1.00  0.00    -0.207 F 
ATOM     13  C   UNL     1       5.500   0.237   0.987  1.00  0.00     0.040 A 
BRANCH   8  14
ATOM     14  N   UNL     1       2.273   0.978  -1.636  1.00  0.00    -0.325 N 
ATOM     15  C   UNL     1       0.924   0.734  -1.598  1.00  0.00     0.233 C 
ATOM     16  O   UNL     1       0.293   0.945  -2.638  1.00  0.00    -0.274 OA
ATOM     17  H   UNL     1       2.590   1.336  -2.497  1.00  0.00     0.169 HD
BRANCH  15  18
ATOM     18  C   UNL     1       0.211   0.375  -0.293  1.00  0.00     0.142 C 
ATOM     19  C   UNL     1       0.215  -2.046  -1.227  1.00  0.00     0.076 C 
ATOM     20  C   UNL     1       0.055  -1.127  -0.016  1.00  0.00     0.192 C 
ATOM     21  N   UNL     1      -1.293  -1.289   0.561  1.00  0.00    -0.343 N 
ATOM     22  C   UNL     1      -2.122  -0.314  -0.149  1.00  0.00     0.261 C 
ATOM     23  H   UNL     1      -1.282  -1.091   1.561  1.00  0.00     0.346 HD
ATOM     24  H   UNL     1      -1.644  -2.241   0.458  1.00  0.00     0.346 HD
ATOM     25  C   UNL     1      -1.235   0.913  -0.254  1.00  0.00     0.081 C 
ENDBRANCH  15  18
ENDBRANCH   8  14
ENDBRANCH   4   7
ENDBRANCH   2   3
ENDBRANCH   1   2
BRANCH   1  26
ATOM     26  C   UNL     1       1.484   6.230  -2.050  1.00  0.00     0.023 C 
BRANCH  26  27
ATOM     27  C   UNL     1       1.351   5.735  -3.489  1.00  0.00     0.116 C 
BRANCH  27  28
ATOM     28  N   UNL     1       0.028   5.239  -3.832  1.00  0.00    -0.352 N 
ATOM     29  C   UNL     1      -0.952   5.755  -4.654  1.00  0.00     0.251 C 
ATOM     30  H   UNL     1      -0.211   4.386  -3.401  1.00  0.00     0.163 HD
ATOM     31  O   UNL     1      -2.039   5.200  -4.722  1.00  0.00    -0.269 OA
BRANCH  29  32
ATOM     32  C   UNL     1      -0.728   7.007  -5.418  1.00  0.00     0.039 A 
ATOM     33  C   UNL     1      -1.756   7.956  -5.450  1.00  0.00     0.014 A 
ATOM     34  C   UNL     1       0.462   7.261  -6.100  1.00  0.00     0.014 A 
ATOM     35  C   UNL     1      -1.543   9.196  -6.059  1.00  0.00     0.010 A 
ATOM     36  C   UNL     1       0.709   8.530  -6.624  1.00  0.00     0.010 A 
ATOM     37  C   UNL     1      -0.284   9.520  -6.592  1.00  0.00    -0.014 A 
BRANCH  37  38
ATOM     38  C   UNL     1       0.019  10.900  -7.059  1.00  0.00     0.031 A 
ATOM     39  C   UNL     1       0.409  11.168  -8.486  1.00  0.00     0.074 A 
ATOM     40  C   UNL     1       0.009  11.913  -6.170  1.00  0.00     0.049 A 
ATOM     41  N   UNL     1       0.753  12.300  -9.049  1.00  0.00    -0.248 NA
ATOM     42  C   UNL     1       0.447  10.012  -9.395  1.00  0.00     0.031 C 
ATOM     43  C   UNL     1      -0.287  11.780  -4.742  1.00  0.00     0.029 A 
ATOM     44  N   UNL     1       0.257  13.255  -6.331  1.00  0.00    -0.354 N 
ATOM     45  C   UNL     1       1.059  11.991 -10.367  1.00  0.00     0.074 A 
ATOM     46  C   UNL     1       0.911  10.558 -10.510  1.00  0.00     0.031 C 
ATOM     47  C   UNL     1      -0.246  12.992  -4.168  1.00  0.00     0.029 A 
ATOM     48  C   UNL     1       0.119  13.984  -5.174  1.00  0.00     0.049 A 
ATOM     49  H   UNL     1       0.509  13.656  -7.194  1.00  0.00     0.167 HD
ATOM     50  C   UNL     1       1.404  12.828 -11.374  1.00  0.00     0.037 A 
ATOM     51  C   UNL     1       0.268  15.303  -4.946  1.00  0.00     0.037 A 
ATOM     52  C   UNL     1       1.516  14.258 -11.243  1.00  0.00     0.049 A 
ATOM     53  C   UNL     1       0.640  16.213  -6.082  1.00  0.00     0.074 A 
ATOM     54  C   UNL     1       1.785  15.194 -12.227  1.00  0.00     0.029 A 
ATOM     55  N   UNL     1       1.364  14.958 -10.056  1.00  0.00    -0.354 N 
ATOM     56  N   UNL     1       0.861  15.915  -7.338  1.00  0.00    -0.248 NA
ATOM     57  C   UNL     1       0.784  17.642  -5.769  1.00  0.00     0.031 C 
ATOM     58  C   UNL     1       1.839  16.456 -11.628  1.00  0.00     0.029 A 
ATOM     59  C   UNL     1       1.557  16.313 -10.279  1.00  0.00     0.049 A 
ATOM     60  H   UNL     1       1.151  14.554  -9.184  1.00  0.00     0.167 HD
ATOM     61  C   UNL     1       1.155  17.115  -7.969  1.00  0.00     0.074 A 
ATOM     62  C   UNL     1       1.067  18.151  -6.961  1.00  0.00     0.031 C 
ATOM     63  C   UNL     1       1.474  17.335  -9.268  1.00  0.00     0.037 A 
BRANCH  50  64
ATOM     64  C   UNL     1       1.668  12.227 -12.724  1.00  0.00     0.064 A 
ATOM     65  C   UNL     1       2.962  12.227 -13.265  1.00  0.00     0.173 A 
ATOM     66  C   UNL     1       0.627  11.712 -13.511  1.00  0.00     0.173 A 
ATOM     67  F   UNL     1       3.992  12.715 -12.557  1.00  0.00    -0.203 F 
ATOM     68  C   UNL     1       3.202  11.741 -14.548  1.00  0.00     0.198 A 
ATOM     69  C   UNL     1       0.875  11.201 -14.782  1.00  0.00     0.198 A 
ATOM     70  F   UNL     1      -0.627  11.682 -13.035  1.00  0.00    -0.203 F 
ATOM     71  F   UNL     1       4.441  11.777 -15.056  1.00  0.00    -0.200 F 
ATOM     72  C   UNL     1       2.159  11.225 -15.303  1.00  0.00     0.200 A 
ATOM     73  F   UNL     1      -0.130  10.682 -15.501  1.00  0.00    -0.200 F 
ATOM     74  F   UNL     1       2.394  10.747 -16.533  1.00  0.00    -0.200 F 
ENDBRANCH  50  64
BRANCH  51  75
ATOM     75  C   UNL     1       0.018  15.842  -3.584  1.00  0.00     0.064 A 
ATOM     76  C   UNL     1       0.895  15.583  -2.521  1.00  0.00     0.173 A 
ATOM     77  C   UNL     1      -1.131  16.598  -3.315  1.00  0.00     0.173 A 
ATOM     78  F   UNL     1       2.005  14.859  -2.727  1.00  0.00    -0.203 F 
ATOM     79  C   UNL     1       0.621  16.043  -1.235  1.00  0.00     0.198 A 
ATOM     80  C   UNL     1      -1.392  17.078  -2.033  1.00  0.00     0.198 A 
ATOM     81  F   UNL     1      -1.988  16.888  -4.304  1.00  0.00    -0.203 F 
ATOM     82  F   UNL     1       1.456  15.752  -0.229  1.00  0.00    -0.200 F 
ATOM     83  C   UNL     1      -0.521  16.793  -0.993  1.00  0.00     0.200 A 
ATOM     84  F   UNL     1      -2.484  17.821  -1.808  1.00  0.00    -0.200 F 
ATOM     85  F   UNL     1      -0.780  17.242   0.243  1.00  0.00    -0.200 F 
ENDBRANCH  51  75
BRANCH  63  86
ATOM     86  C   UNL     1       1.750  18.749  -9.684  1.00  0.00     0.064 A 
ATOM     87  C   UNL     1       0.848  19.439 -10.510  1.00  0.00     0.173 A 
ATOM     88  C   UNL     1       2.940  19.397  -9.325  1.00  0.00     0.173 A 
ATOM     89  F   UNL     1      -0.301  18.860 -10.887  1.00  0.00    -0.203 F 
ATOM     90  C   UNL     1       1.137  20.720 -10.971  1.00  0.00     0.198 A 
ATOM     91  C   UNL     1       3.213  20.689  -9.766  1.00  0.00     0.198 A 
ATOM     92  F   UNL     1       3.827  18.784  -8.525  1.00  0.00    -0.203 F 
ATOM     93  F   UNL     1       0.276  21.347 -11.784  1.00  0.00    -0.200 F 
ATOM     94  C   UNL     1       2.316  21.345 -10.597  1.00  0.00     0.200 A 
ATOM     95  F   UNL     1       4.342  21.301  -9.384  1.00  0.00    -0.200 F 
ATOM     96  F   UNL     1       2.588  22.582 -11.033  1.00  0.00    -0.200 F 
ENDBRANCH  63  86
ENDBRANCH  37  38
ENDBRANCH  29  32
ENDBRANCH  27  28
ENDBRANCH  26  27
ENDBRANCH   1  26
TORSDOF 13
