REMARK SMILES CN(C)C(=O)c1cc(N(CC(=O)NCCCCNC(=O)c2ccc(-c3c4nc(c(-c5c(F)c(F)c(F)c(F)c5F)c5ccc([nH]5)c(-c5c(F)c(F)c(F)c(F)c5F)c5nc(c(-c6c(F)c(F)c(F)c(F)c6F)c6ccc3[nH]6)C=C5)C=C4)cc2)CC(F)(F)F)ccn1
REMARK SMILES IDX 15 1 14 2 13 3 11 4 12 5 10 7 9 8 8 9 6 10 7 11 91 12 90 13
REMARK SMILES IDX 89 14 4 15 1 16 2 17 3 18 5 19 84 20 85 21 86 22 87 23 88 24
REMARK SMILES IDX 16 25 17 26 18 27 19 28 20 30 21 31 22 32 83 33 23 34 82 35
REMARK SMILES IDX 24 36 25 37 26 38 76 39 27 40 81 41 75 42 77 43 28 44 80 45
REMARK SMILES IDX 74 46 73 47 29 49 61 50 41 51 60 52 42 53 45 54 59 55 78 56
REMARK SMILES IDX 43 57 44 58 58 60 79 61 46 62 30 63 31 64 39 65 32 66 33 67
REMARK SMILES IDX 37 68 40 69 34 70 35 71 38 72 36 73 62 74 63 75 71 76 64 77
REMARK SMILES IDX 65 78 69 79 72 80 66 81 67 82 70 83 68 84 47 85 48 86 56 87
REMARK SMILES IDX 49 88 50 89 54 90 57 91 51 92 52 93 55 94 53 95
REMARK H PARENT 13 6 18 29 77 48 45 59
REMARK Flexibility Score: inf
ROOT
ATOM      1  C   UNL     1      -1.180  -2.356  -5.843  1.00  0.00     0.023 C 
ENDROOT
BRANCH   1   2
ATOM      2  C   UNL     1      -1.595  -1.763  -7.189  1.00  0.00     0.116 C 
BRANCH   2   3
ATOM      3  N   UNL     1      -3.033  -1.756  -7.363  1.00  0.00    -0.355 N 
ATOM      4  C   UNL     1      -3.911  -0.728  -7.154  1.00  0.00     0.239 C 
ATOM      5  O   UNL     1      -5.118  -0.944  -7.279  1.00  0.00    -0.273 OA
ATOM      6  H   UNL     1      -3.431  -2.602  -7.671  1.00  0.00     0.163 HD
BRANCH   4   7
ATOM      7  C   UNL     1      -3.391   0.667  -6.785  1.00  0.00     0.216 C 
BRANCH   7   8
ATOM      8  N   UNL     1      -2.914   0.758  -5.381  1.00  0.00    -0.353 N 
BRANCH   8   9
ATOM      9  C   UNL     1      -1.612   1.118  -5.044  1.00  0.00     0.041 A 
ATOM     10  C   UNL     1       0.215   1.304  -3.453  1.00  0.00     0.130 A 
ATOM     11  C   UNL     1      -1.135   1.070  -3.727  1.00  0.00     0.060 A 
ATOM     12  N   UNL     1       1.123   1.643  -4.396  1.00  0.00    -0.251 NA
ATOM     13  C   UNL     1       0.654   1.773  -5.642  1.00  0.00     0.114 A 
ATOM     14  C   UNL     1      -0.669   1.534  -5.997  1.00  0.00     0.046 A 
BRANCH  10  15
ATOM     15  C   UNL     1       0.728   1.256  -2.050  1.00  0.00     0.272 C 
ATOM     16  C   UNL     1       0.949   0.186   0.123  1.00  0.00     0.146 C 
ATOM     17  N   UNL     1       0.480   0.133  -1.250  1.00  0.00    -0.343 N 
ATOM     18  C   UNL     1      -0.083  -1.130  -1.701  1.00  0.00     0.146 C 
ATOM     19  O   UNL     1       1.351   2.231  -1.628  1.00  0.00    -0.267 OA
ENDBRANCH  10  15
ENDBRANCH   8   9
BRANCH   8  20
ATOM     20  C   UNL     1      -3.973   0.535  -4.342  1.00  0.00     0.232 C 
BRANCH  20  21
ATOM     21  C   UNL     1      -4.041  -0.856  -3.681  1.00  0.00     0.405 C 
ATOM     22  F   UNL     1      -2.906  -1.167  -3.014  1.00  0.00    -0.169 F 
ATOM     23  F   UNL     1      -5.046  -0.890  -2.772  1.00  0.00    -0.169 F 
ATOM     24  F   UNL     1      -4.271  -1.847  -4.566  1.00  0.00    -0.169 F 
ENDBRANCH  20  21
ENDBRANCH   8  20
ENDBRANCH   7   8
ENDBRANCH   4   7
ENDBRANCH   2   3
ENDBRANCH   1   2
BRANCH   1  25
ATOM     25  C   UNL     1      -1.427  -3.860  -5.715  1.00  0.00     0.023 C 
BRANCH  25  26
ATOM     26  C   UNL     1      -0.643  -4.715  -6.702  1.00  0.00     0.116 C 
BRANCH  26  27
ATOM     27  N   UNL     1       0.798  -4.594  -6.542  1.00  0.00    -0.352 N 
ATOM     28  C   UNL     1       1.753  -5.573  -6.671  1.00  0.00     0.251 C 
ATOM     29  H   UNL     1       1.131  -3.696  -6.313  1.00  0.00     0.163 HD
ATOM     30  O   UNL     1       2.924  -5.348  -6.383  1.00  0.00    -0.269 OA
BRANCH  28  31
ATOM     31  C   UNL     1       1.347  -6.916  -7.130  1.00  0.00     0.039 A 
ATOM     32  C   UNL     1       1.762  -8.035  -6.404  1.00  0.00     0.014 A 
ATOM     33  C   UNL     1       0.531  -7.061  -8.254  1.00  0.00     0.014 A 
ATOM     34  C   UNL     1       1.306  -9.302  -6.772  1.00  0.00     0.010 A 
ATOM     35  C   UNL     1       0.021  -8.313  -8.575  1.00  0.00     0.010 A 
ATOM     36  C   UNL     1       0.409  -9.446  -7.842  1.00  0.00    -0.014 A 
BRANCH  36  37
ATOM     37  C   UNL     1      -0.120 -10.772  -8.245  1.00  0.00     0.031 A 
ATOM     38  C   UNL     1       0.215 -11.317  -9.604  1.00  0.00     0.074 A 
ATOM     39  C   UNL     1      -0.966 -11.435  -7.434  1.00  0.00     0.049 A 
ATOM     40  N   UNL     1      -0.255 -12.375 -10.214  1.00  0.00    -0.248 NA
ATOM     41  C   UNL     1       1.185 -10.547 -10.399  1.00  0.00     0.031 C 
ATOM     42  C   UNL     1      -1.395 -10.990  -6.108  1.00  0.00     0.029 A 
ATOM     43  N   UNL     1      -1.635 -12.620  -7.619  1.00  0.00    -0.354 N 
ATOM     44  C   UNL     1       0.338 -12.379 -11.470  1.00  0.00     0.074 A 
ATOM     45  C   UNL     1       1.164 -11.194 -11.554  1.00  0.00     0.031 C 
ATOM     46  C   UNL     1      -2.244 -11.894  -5.594  1.00  0.00     0.029 A 
ATOM     47  C   UNL     1      -2.452 -12.961  -6.569  1.00  0.00     0.049 A 
ATOM     48  H   UNL     1      -1.537 -13.173  -8.428  1.00  0.00     0.167 HD
ATOM     49  C   UNL     1       0.219 -13.299 -12.455  1.00  0.00     0.037 A 
ATOM     50  C   UNL     1      -3.283 -14.010  -6.419  1.00  0.00     0.037 A 
ATOM     51  C   UNL     1      -0.572 -14.495 -12.348  1.00  0.00     0.049 A 
ATOM     52  C   UNL     1      -3.389 -15.026  -7.526  1.00  0.00     0.074 A 
ATOM     53  C   UNL     1      -0.717 -15.520 -13.266  1.00  0.00     0.029 A 
ATOM     54  N   UNL     1      -1.349 -14.829 -11.248  1.00  0.00    -0.354 N 
ATOM     55  N   UNL     1      -2.786 -15.047  -8.690  1.00  0.00    -0.248 NA
ATOM     56  C   UNL     1      -4.286 -16.167  -7.296  1.00  0.00     0.031 C 
ATOM     57  C   UNL     1      -1.609 -16.457 -12.737  1.00  0.00     0.029 A 
ATOM     58  C   UNL     1      -1.984 -16.040 -11.470  1.00  0.00     0.049 A 
ATOM     59  H   UNL     1      -1.437 -14.286 -10.432  1.00  0.00     0.167 HD
ATOM     60  C   UNL     1      -3.197 -16.217  -9.312  1.00  0.00     0.074 A 
ATOM     61  C   UNL     1      -4.101 -16.882  -8.397  1.00  0.00     0.031 C 
ATOM     62  C   UNL     1      -2.855 -16.699 -10.532  1.00  0.00     0.037 A 
BRANCH  49  63
ATOM     63  C   UNL     1       0.966 -13.050 -13.732  1.00  0.00     0.064 A 
ATOM     64  C   UNL     1       2.366 -13.128 -13.794  1.00  0.00     0.173 A 
ATOM     65  C   UNL     1       0.273 -12.757 -14.917  1.00  0.00     0.173 A 
ATOM     66  F   UNL     1       3.076 -13.391 -12.687  1.00  0.00    -0.203 F 
ATOM     67  C   UNL     1       3.045 -12.892 -14.986  1.00  0.00     0.198 A 
ATOM     68  C   UNL     1       0.954 -12.553 -16.114  1.00  0.00     0.198 A 
ATOM     69  F   UNL     1      -1.066 -12.674 -14.915  1.00  0.00    -0.203 F 
ATOM     70  F   UNL     1       4.385 -12.920 -15.008  1.00  0.00    -0.200 F 
ATOM     71  C   UNL     1       2.339 -12.612 -16.146  1.00  0.00     0.200 A 
ATOM     72  F   UNL     1       0.270 -12.294 -17.237  1.00  0.00    -0.200 F 
ATOM     73  F   UNL     1       2.995 -12.391 -17.294  1.00  0.00    -0.200 F 
ENDBRANCH  49  63
BRANCH  50  74
ATOM     74  C   UNL     1      -4.062 -14.168  -5.164  1.00  0.00     0.064 A 
ATOM     75  C   UNL     1      -3.760 -15.193  -4.257  1.00  0.00     0.173 A 
ATOM     76  C   UNL     1      -5.123 -13.308  -4.846  1.00  0.00     0.173 A 
ATOM     77  F   UNL     1      -2.767 -16.054  -4.526  1.00  0.00    -0.203 F 
ATOM     78  C   UNL     1      -4.503 -15.366  -3.091  1.00  0.00     0.198 A 
ATOM     79  C   UNL     1      -5.848 -13.464  -3.666  1.00  0.00     0.198 A 
ATOM     80  F   UNL     1      -5.449 -12.307  -5.677  1.00  0.00    -0.203 F 
ATOM     81  F   UNL     1      -4.221 -16.383  -2.264  1.00  0.00    -0.200 F 
ATOM     82  C   UNL     1      -5.543 -14.498  -2.794  1.00  0.00     0.200 A 
ATOM     83  F   UNL     1      -6.843 -12.616  -3.376  1.00  0.00    -0.200 F 
ATOM     84  F   UNL     1      -6.255 -14.663  -1.671  1.00  0.00    -0.200 F 
ENDBRANCH  50  74
BRANCH  62  85
ATOM     85  C   UNL     1      -3.406 -18.037 -10.927  1.00  0.00     0.064 A 
ATOM     86  C   UNL     1      -4.747 -18.204 -11.297  1.00  0.00     0.173 A 
ATOM     87  C   UNL     1      -2.557 -19.153 -11.000  1.00  0.00     0.173 A 
ATOM     88  F   UNL     1      -5.599 -17.170 -11.231  1.00  0.00    -0.203 F 
ATOM     89  C   UNL     1      -5.223 -19.445 -11.712  1.00  0.00     0.198 A 
ATOM     90  C   UNL     1      -3.030 -20.385 -11.441  1.00  0.00     0.198 A 
ATOM     91  F   UNL     1      -1.263 -19.041 -10.662  1.00  0.00    -0.203 F 
ATOM     92  F   UNL     1      -6.517 -19.592 -12.028  1.00  0.00    -0.200 F 
ATOM     93  C   UNL     1      -4.363 -20.531 -11.792  1.00  0.00     0.200 A 
ATOM     94  F   UNL     1      -2.195 -21.429 -11.531  1.00  0.00    -0.200 F 
ATOM     95  F   UNL     1      -4.821 -21.721 -12.205  1.00  0.00    -0.200 F 
ENDBRANCH  62  85
ENDBRANCH  36  37
ENDBRANCH  28  31
ENDBRANCH  26  27
ENDBRANCH  25  26
ENDBRANCH   1  25
TORSDOF 16
