REMARK SMILES CCOc1cccc(C(=O)Nc2ccc(Cl)c(C(=O)NCCCCNC(=O)c3ccc(-c4c5nc(c(-c6c(F)c(F)c(F)c(F)c6F)c6ccc([nH]6)c(-c6c(F)c(F)c(F)c(F)c6F)c6nc(c(-c7c(F)c(F)c(F)c(F)c7F)c7ccc4[nH]7)C=C6)C=C5)cc3)c2)c1
REMARK SMILES IDX 21 1 20 2 18 3 19 4 17 6 12 7 13 8 91 9 14 10 15 11 16 12
REMARK SMILES IDX 11 13 9 14 10 15 8 17 4 18 5 19 92 20 6 21 7 22 3 23 2 24
REMARK SMILES IDX 1 25 22 26 23 27 24 28 25 29 26 30 27 32 28 33 29 34 90 35
REMARK SMILES IDX 30 36 89 37 31 38 32 39 33 40 83 41 34 42 88 43 82 44 84 45
REMARK SMILES IDX 35 46 87 47 81 48 80 49 36 51 68 52 48 53 67 54 49 55 52 56
REMARK SMILES IDX 66 57 85 58 50 59 51 60 65 62 86 63 53 64 37 65 38 66 46 67
REMARK SMILES IDX 39 68 40 69 44 70 47 71 41 72 42 73 45 74 43 75 69 76 70 77
REMARK SMILES IDX 78 78 71 79 72 80 76 81 79 82 73 83 74 84 77 85 75 86 54 87
REMARK SMILES IDX 55 88 63 89 56 90 57 91 61 92 64 93 58 94 59 95 62 96 60 97
REMARK H PARENT 20 5 11 16 25 31 84 50 52 61
REMARK Flexibility Score: inf
ROOT
ATOM      1  C   UNL     1       1.626   3.364   1.586  1.00  0.00     0.116 C 
ENDROOT
BRANCH   1   2
ATOM      2  N   UNL     1       0.476   3.203   0.723  1.00  0.00    -0.352 N 
ATOM      3  C   UNL     1       0.298   2.682  -0.535  1.00  0.00     0.252 C 
ATOM      4  O   UNL     1      -0.796   2.918  -1.044  1.00  0.00    -0.269 OA
ATOM      5  H   UNL     1      -0.357   3.539   1.124  1.00  0.00     0.163 HD
BRANCH   3   6
ATOM      6  C   UNL     1       1.315   1.846  -1.258  1.00  0.00     0.060 A 
ATOM      7  C   UNL     1       3.605   1.010  -1.504  1.00  0.00     0.042 A 
ATOM      8  C   UNL     1       3.205   0.147  -2.515  1.00  0.00     0.028 A 
ATOM      9  C   UNL     1       2.690   1.926  -0.974  1.00  0.00     0.041 A 
ATOM     10  C   UNL     1       1.862   0.096  -2.876  1.00  0.00     0.023 A 
ATOM     11  C   UNL     1       0.913   0.906  -2.231  1.00  0.00     0.053 A 
ATOM     12  Cl  UNL     1      -0.730   0.589  -2.678  1.00  0.00    -0.083 Cl
BRANCH   7  13
ATOM     13  N   UNL     1       4.917   0.894  -1.026  1.00  0.00    -0.322 N 
ATOM     14  C   UNL     1       5.434   0.981   0.254  1.00  0.00     0.255 C 
ATOM     15  O   UNL     1       6.653   1.122   0.376  1.00  0.00    -0.269 OA
ATOM     16  H   UNL     1       5.589   0.720  -1.724  1.00  0.00     0.170 HD
BRANCH  14  17
ATOM     17  C   UNL     1       4.612   0.804   1.497  1.00  0.00     0.043 A 
ATOM     18  C   UNL     1       2.598   0.151   2.691  1.00  0.00     0.120 A 
ATOM     19  C   UNL     1       3.127   0.662   3.875  1.00  0.00     0.046 A 
ATOM     20  C   UNL     1       3.366   0.161   1.524  1.00  0.00     0.060 A 
ATOM     21  C   UNL     1       4.415   1.190   3.894  1.00  0.00     0.005 A 
ATOM     22  C   UNL     1       5.146   1.280   2.706  1.00  0.00     0.014 A 
BRANCH  18  23
ATOM     23  O   UNL     1       1.257  -0.117   2.705  1.00  0.00    -0.494 OA
BRANCH  23  24
ATOM     24  C   UNL     1       0.832  -1.367   2.164  1.00  0.00     0.226 C 
ATOM     25  C   UNL     1       0.417  -1.262   0.706  1.00  0.00     0.049 C 
ENDBRANCH  23  24
ENDBRANCH  18  23
ENDBRANCH  14  17
ENDBRANCH   7  13
ENDBRANCH   3   6
ENDBRANCH   1   2
BRANCH   1  26
ATOM     26  C   UNL     1       2.304   4.705   1.315  1.00  0.00     0.023 C 
BRANCH  26  27
ATOM     27  C   UNL     1       1.683   5.853   2.108  1.00  0.00     0.023 C 
BRANCH  27  28
ATOM     28  C   UNL     1       1.847   5.727   3.618  1.00  0.00     0.116 C 
BRANCH  28  29
ATOM     29  N   UNL     1       3.238   5.643   4.038  1.00  0.00    -0.352 N 
ATOM     30  C   UNL     1       3.844   6.237   5.117  1.00  0.00     0.251 C 
ATOM     31  H   UNL     1       3.822   5.087   3.473  1.00  0.00     0.163 HD
ATOM     32  O   UNL     1       5.059   6.169   5.269  1.00  0.00    -0.269 OA
BRANCH  30  33
ATOM     33  C   UNL     1       3.015   6.989   6.077  1.00  0.00     0.039 A 
ATOM     34  C   UNL     1       3.406   8.279   6.438  1.00  0.00     0.014 A 
ATOM     35  C   UNL     1       1.831   6.439   6.578  1.00  0.00     0.014 A 
ATOM     36  C   UNL     1       2.573   9.043   7.253  1.00  0.00     0.010 A 
ATOM     37  C   UNL     1       0.964   7.231   7.320  1.00  0.00     0.010 A 
ATOM     38  C   UNL     1       1.327   8.540   7.668  1.00  0.00    -0.014 A 
BRANCH  38  39
ATOM     39  C   UNL     1       0.392   9.386   8.449  1.00  0.00     0.031 A 
ATOM     40  C   UNL     1       0.013   9.009   9.852  1.00  0.00     0.074 A 
ATOM     41  C   UNL     1      -0.150  10.475   7.870  1.00  0.00     0.049 A 
ATOM     42  N   UNL     1      -0.769   9.636  10.695  1.00  0.00    -0.248 NA
ATOM     43  C   UNL     1       0.561   7.746  10.370  1.00  0.00     0.031 C 
ATOM     44  C   UNL     1       0.087  10.905   6.490  1.00  0.00     0.029 A 
ATOM     45  N   UNL     1      -1.008  11.421   8.369  1.00  0.00    -0.354 N 
ATOM     46  C   UNL     1      -0.815   8.841  11.832  1.00  0.00     0.074 A 
ATOM     47  C   UNL     1      -0.033   7.657  11.551  1.00  0.00     0.031 C 
ATOM     48  C   UNL     1      -0.569  12.055   6.270  1.00  0.00     0.029 A 
ATOM     49  C   UNL     1      -1.300  12.424   7.478  1.00  0.00     0.049 A 
ATOM     50  H   UNL     1      -1.380  11.385   9.280  1.00  0.00     0.167 HD
ATOM     51  C   UNL     1      -1.432   9.089  13.012  1.00  0.00     0.037 A 
ATOM     52  C   UNL     1      -2.062  13.523   7.624  1.00  0.00     0.037 A 
ATOM     53  C   UNL     1      -2.192  10.280  13.290  1.00  0.00     0.049 A 
ATOM     54  C   UNL     1      -2.733  13.777   8.946  1.00  0.00     0.074 A 
ATOM     55  C   UNL     1      -2.787  10.667  14.478  1.00  0.00     0.029 A 
ATOM     56  N   UNL     1      -2.470  11.274  12.362  1.00  0.00    -0.354 N 
ATOM     57  N   UNL     1      -2.687  13.070  10.049  1.00  0.00    -0.248 NA
ATOM     58  C   UNL     1      -3.555  14.990   9.044  1.00  0.00     0.031 C 
ATOM     59  C   UNL     1      -3.476  11.864  14.252  1.00  0.00     0.029 A 
ATOM     60  C   UNL     1      -3.260  12.256  12.941  1.00  0.00     0.049 A 
ATOM     61  H   UNL     1      -2.154  11.281  11.430  1.00  0.00     0.167 HD
ATOM     62  C   UNL     1      -3.450  13.762  10.979  1.00  0.00     0.074 A 
ATOM     63  C   UNL     1      -3.927  14.959  10.315  1.00  0.00     0.031 C 
ATOM     64  C   UNL     1      -3.735  13.437  12.264  1.00  0.00     0.037 A 
BRANCH  51  65
ATOM     65  C   UNL     1      -1.315   8.046  14.087  1.00  0.00     0.064 A 
ATOM     66  C   UNL     1      -0.094   7.770  14.723  1.00  0.00     0.173 A 
ATOM     67  C   UNL     1      -2.445   7.325  14.503  1.00  0.00     0.173 A 
ATOM     68  F   UNL     1       1.020   8.421  14.357  1.00  0.00    -0.203 F 
ATOM     69  C   UNL     1      -0.002   6.788  15.705  1.00  0.00     0.198 A 
ATOM     70  C   UNL     1      -2.356   6.368  15.510  1.00  0.00     0.198 A 
ATOM     71  F   UNL     1      -3.639   7.551  13.934  1.00  0.00    -0.203 F 
ATOM     72  F   UNL     1       1.187   6.501  16.254  1.00  0.00    -0.200 F 
ATOM     73  C   UNL     1      -1.133   6.092  16.103  1.00  0.00     0.200 A 
ATOM     74  F   UNL     1      -3.453   5.706  15.903  1.00  0.00    -0.200 F 
ATOM     75  F   UNL     1      -1.044   5.149  17.051  1.00  0.00    -0.200 F 
ENDBRANCH  51  65
BRANCH  52  76
ATOM     76  C   UNL     1      -2.192  14.492   6.504  1.00  0.00     0.064 A 
ATOM     77  C   UNL     1      -1.616  15.768   6.590  1.00  0.00     0.173 A 
ATOM     78  C   UNL     1      -2.891  14.170   5.332  1.00  0.00     0.173 A 
ATOM     79  F   UNL     1      -0.955  16.130   7.700  1.00  0.00    -0.203 F 
ATOM     80  C   UNL     1      -1.751  16.691   5.556  1.00  0.00     0.198 A 
ATOM     81  C   UNL     1      -3.000  15.084   4.285  1.00  0.00     0.198 A 
ATOM     82  F   UNL     1      -3.456  12.961   5.197  1.00  0.00    -0.203 F 
ATOM     83  F   UNL     1      -1.230  17.919   5.685  1.00  0.00    -0.200 F 
ATOM     84  C   UNL     1      -2.438  16.346   4.402  1.00  0.00     0.200 A 
ATOM     85  F   UNL     1      -3.651  14.741   3.165  1.00  0.00    -0.200 F 
ATOM     86  F   UNL     1      -2.563  17.232   3.405  1.00  0.00    -0.200 F 
ENDBRANCH  52  76
BRANCH  64  87
ATOM     87  C   UNL     1      -4.583  14.405  13.040  1.00  0.00     0.064 A 
ATOM     88  C   UNL     1      -5.941  14.598  12.743  1.00  0.00     0.173 A 
ATOM     89  C   UNL     1      -4.032  15.146  14.097  1.00  0.00     0.173 A 
ATOM     90  F   UNL     1      -6.513  13.925  11.733  1.00  0.00    -0.203 F 
ATOM     91  C   UNL     1      -6.704  15.526  13.447  1.00  0.00     0.198 A 
ATOM     92  C   UNL     1      -4.807  16.046  14.823  1.00  0.00     0.198 A 
ATOM     93  F   UNL     1      -2.741  14.995  14.429  1.00  0.00    -0.203 F 
ATOM     94  F   UNL     1      -7.980  15.742  13.100  1.00  0.00    -0.200 F 
ATOM     95  C   UNL     1      -6.138  16.245  14.489  1.00  0.00     0.200 A 
ATOM     96  F   UNL     1      -4.263  16.729  15.839  1.00  0.00    -0.200 F 
ATOM     97  F   UNL     1      -6.873  17.139  15.164  1.00  0.00    -0.200 F 
ENDBRANCH  64  87
ENDBRANCH  38  39
ENDBRANCH  30  33
ENDBRANCH  28  29
ENDBRANCH  27  28
ENDBRANCH  26  27
ENDBRANCH   1  26
TORSDOF 15
