REMARK SMILES O=C(Cn1cccc1C(=O)NCCCCNC(=O)c1ccc(-c2c3nc(c(-c4c(F)c(F)c(F)c(F)c4F)c4ccc([nH]4)c(-c4c(F)c(F)c(F)c(F)c4F)c4nc(c(-c5c(F)c(F)c(F)c(F)c5F)c5ccc2[nH]5)C=C4)C=C3)cc1)Nc1cccc(Br)c1
REMARK SMILES IDX 13 1 12 2 11 3 9 4 10 5 8 7 4 8 5 9 6 10 7 11 3 12 2 13 1 14
REMARK SMILES IDX 82 15 83 17 84 18 89 19 85 20 87 21 86 22 88 23 14 24 15 25
REMARK SMILES IDX 16 26 17 27 18 29 19 30 20 31 81 32 21 33 80 34 22 35 23 36
REMARK SMILES IDX 24 37 74 38 25 39 79 40 73 41 75 42 26 43 78 44 72 45 71 46
REMARK SMILES IDX 27 48 59 49 39 50 58 51 40 52 43 53 57 54 76 55 41 56 42 57
REMARK SMILES IDX 56 59 77 60 44 61 28 62 29 63 37 64 30 65 31 66 35 67 38 68
REMARK SMILES IDX 32 69 33 70 36 71 34 72 60 73 61 74 69 75 62 76 63 77 67 78
REMARK SMILES IDX 70 79 64 80 65 81 68 82 66 83 45 84 46 85 54 86 47 87 48 88
REMARK SMILES IDX 52 89 55 90 49 91 50 92 53 93 51 94
REMARK H PARENT 11 6 82 16 16 28 75 47 43 58
REMARK Flexibility Score: inf
ROOT
ATOM      1  C   UNL     1       1.217  -3.369   0.808  1.00  0.00     0.023 C 
ENDROOT
BRANCH   1   2
ATOM      2  C   UNL     1       2.722  -3.661   0.881  1.00  0.00     0.116 C 
BRANCH   2   3
ATOM      3  N   UNL     1       3.222  -4.193  -0.368  1.00  0.00    -0.351 N 
ATOM      4  C   UNL     1       3.882  -3.746  -1.479  1.00  0.00     0.267 C 
ATOM      5  O   UNL     1       4.184  -4.684  -2.231  1.00  0.00    -0.268 OA
ATOM      6  H   UNL     1       3.031  -5.156  -0.440  1.00  0.00     0.163 HD
BRANCH   4   7
ATOM      7  C   UNL     1       4.265  -2.376  -1.844  1.00  0.00     0.107 A 
ATOM      8  N   UNL     1       3.895  -1.090  -1.438  1.00  0.00    -0.334 N 
ATOM      9  C   UNL     1       4.504  -0.151  -2.241  1.00  0.00     0.087 A 
ATOM     10  C   UNL     1       5.313  -0.789  -3.141  1.00  0.00     0.020 A 
ATOM     11  C   UNL     1       5.164  -2.162  -2.898  1.00  0.00     0.033 A 
BRANCH   8  12
ATOM     12  C   UNL     1       3.055  -0.756  -0.300  1.00  0.00     0.222 C 
BRANCH  12  13
ATOM     13  C   UNL     1       2.203   0.487  -0.316  1.00  0.00     0.244 C 
ATOM     14  O   UNL     1       0.978   0.388  -0.403  1.00  0.00    -0.273 OA
ATOM     15  N   UNL     1       2.875   1.679  -0.123  1.00  0.00    -0.325 N 
ATOM     16  H   UNL     1       3.859   1.670  -0.144  1.00  0.00     0.169 HD
BRANCH  15  17
ATOM     17  C   UNL     1       2.223   2.906   0.101  1.00  0.00     0.042 A 
ATOM     18  C   UNL     1       2.770   4.059  -0.466  1.00  0.00     0.026 A 
ATOM     19  C   UNL     1       1.063   2.994   0.877  1.00  0.00     0.041 A 
ATOM     20  C   UNL     1       2.118   5.284  -0.320  1.00  0.00     0.003 A 
ATOM     21  C   UNL     1       0.446   4.230   1.060  1.00  0.00     0.020 A 
ATOM     22  C   UNL     1       0.956   5.372   0.446  1.00  0.00     0.016 A 
ATOM     23  Br  UNL     1      -1.087   4.360   2.159  1.00  0.00    -0.051 Br
ENDBRANCH  15  17
ENDBRANCH  12  13
ENDBRANCH   8  12
ENDBRANCH   4   7
ENDBRANCH   2   3
ENDBRANCH   1   2
BRANCH   1  24
ATOM     24  C   UNL     1       0.310  -4.526   1.238  1.00  0.00     0.023 C 
BRANCH  24  25
ATOM     25  C   UNL     1       0.360  -4.834   2.735  1.00  0.00     0.116 C 
BRANCH  25  26
ATOM     26  N   UNL     1      -0.094  -3.703   3.527  1.00  0.00    -0.352 N 
ATOM     27  C   UNL     1      -0.039  -3.504   4.883  1.00  0.00     0.251 C 
ATOM     28  H   UNL     1      -0.501  -2.969   3.013  1.00  0.00     0.163 HD
ATOM     29  O   UNL     1      -0.824  -2.725   5.409  1.00  0.00    -0.269 OA
BRANCH  27  30
ATOM     30  C   UNL     1       0.948  -4.208   5.728  1.00  0.00     0.039 A 
ATOM     31  C   UNL     1       0.528  -4.656   6.987  1.00  0.00     0.014 A 
ATOM     32  C   UNL     1       2.289  -4.331   5.346  1.00  0.00     0.014 A 
ATOM     33  C   UNL     1       1.431  -5.286   7.835  1.00  0.00     0.010 A 
ATOM     34  C   UNL     1       3.196  -4.974   6.188  1.00  0.00     0.010 A 
ATOM     35  C   UNL     1       2.758  -5.474   7.420  1.00  0.00    -0.014 A 
BRANCH  35  36
ATOM     36  C   UNL     1       3.600  -6.418   8.195  1.00  0.00     0.031 A 
ATOM     37  C   UNL     1       3.237  -7.896   7.835  1.00  0.00     0.074 A 
ATOM     38  C   UNL     1       4.487  -5.860   9.080  1.00  0.00     0.049 A 
ATOM     39  N   UNL     1       3.396  -9.002   8.500  1.00  0.00    -0.248 NA
ATOM     40  C   UNL     1       2.546  -8.170   6.538  1.00  0.00     0.031 C 
ATOM     41  C   UNL     1       4.759  -4.408   9.219  1.00  0.00     0.029 A 
ATOM     42  N   UNL     1       5.333  -6.374  10.044  1.00  0.00    -0.354 N 
ATOM     43  C   UNL     1       3.013 -10.081   7.657  1.00  0.00     0.074 A 
ATOM     44  C   UNL     1       2.415  -9.497   6.499  1.00  0.00     0.031 C 
ATOM     45  C   UNL     1       5.613  -4.161  10.239  1.00  0.00     0.029 A 
ATOM     46  C   UNL     1       5.984  -5.410  10.873  1.00  0.00     0.049 A 
ATOM     47  H   UNL     1       5.478  -7.341  10.153  1.00  0.00     0.167 HD
ATOM     48  C   UNL     1       3.326 -11.387   7.920  1.00  0.00     0.037 A 
ATOM     49  C   UNL     1       6.711  -5.611  12.022  1.00  0.00     0.037 A 
ATOM     50  C   UNL     1       3.963 -11.472   9.184  1.00  0.00     0.049 A 
ATOM     51  C   UNL     1       6.787  -7.069  12.133  1.00  0.00     0.074 A 
ATOM     52  C   UNL     1       3.491 -11.524  10.464  1.00  0.00     0.029 A 
ATOM     53  N   UNL     1       5.314 -11.253   9.207  1.00  0.00    -0.354 N 
ATOM     54  N   UNL     1       7.567  -7.821  11.419  1.00  0.00    -0.248 NA
ATOM     55  C   UNL     1       5.834  -7.748  13.017  1.00  0.00     0.031 C 
ATOM     56  C   UNL     1       4.517 -10.933  11.228  1.00  0.00     0.029 A 
ATOM     57  C   UNL     1       5.616 -10.663  10.406  1.00  0.00     0.049 A 
ATOM     58  H   UNL     1       5.952 -11.478   8.492  1.00  0.00     0.167 HD
ATOM     59  C   UNL     1       6.974  -9.053  11.545  1.00  0.00     0.074 A 
ATOM     60  C   UNL     1       6.165  -9.004  12.741  1.00  0.00     0.031 C 
ATOM     61  C   UNL     1       6.793  -9.834  10.452  1.00  0.00     0.037 A 
BRANCH  48  62
ATOM     62  C   UNL     1       3.346 -12.653   7.092  1.00  0.00     0.064 A 
ATOM     63  C   UNL     1       3.486 -13.892   7.777  1.00  0.00     0.173 A 
ATOM     64  C   UNL     1       3.652 -12.676   5.727  1.00  0.00     0.173 A 
ATOM     65  F   UNL     1       3.125 -14.013   9.065  1.00  0.00    -0.203 F 
ATOM     66  C   UNL     1       4.088 -15.004   7.191  1.00  0.00     0.198 A 
ATOM     67  C   UNL     1       4.199 -13.818   5.125  1.00  0.00     0.198 A 
ATOM     68  F   UNL     1       3.526 -11.577   4.973  1.00  0.00    -0.203 F 
ATOM     69  F   UNL     1       4.364 -16.085   7.935  1.00  0.00    -0.200 F 
ATOM     70  C   UNL     1       4.470 -14.956   5.868  1.00  0.00     0.200 A 
ATOM     71  F   UNL     1       4.542 -13.783   3.829  1.00  0.00    -0.200 F 
ATOM     72  F   UNL     1       5.122 -15.990   5.318  1.00  0.00    -0.200 F 
ENDBRANCH  48  62
BRANCH  49  73
ATOM     73  C   UNL     1       7.324  -4.826  13.170  1.00  0.00     0.064 A 
ATOM     74  C   UNL     1       7.626  -3.459  13.174  1.00  0.00     0.173 A 
ATOM     75  C   UNL     1       7.619  -5.480  14.408  1.00  0.00     0.173 A 
ATOM     76  F   UNL     1       7.535  -2.736  12.052  1.00  0.00    -0.203 F 
ATOM     77  C   UNL     1       8.064  -2.792  14.342  1.00  0.00     0.198 A 
ATOM     78  C   UNL     1       8.002  -4.816  15.574  1.00  0.00     0.198 A 
ATOM     79  F   UNL     1       7.553  -6.810  14.540  1.00  0.00    -0.203 F 
ATOM     80  F   UNL     1       8.340  -1.481  14.298  1.00  0.00    -0.200 F 
ATOM     81  C   UNL     1       8.209  -3.462  15.548  1.00  0.00     0.200 A 
ATOM     82  F   UNL     1       8.152  -5.508  16.713  1.00  0.00    -0.200 F 
ATOM     83  F   UNL     1       8.560  -2.814  16.667  1.00  0.00    -0.200 F 
ENDBRANCH  49  73
BRANCH  61  84
ATOM     84  C   UNL     1       7.657  -9.436   9.267  1.00  0.00     0.064 A 
ATOM     85  C   UNL     1       9.046  -9.606   9.335  1.00  0.00     0.173 A 
ATOM     86  C   UNL     1       7.172  -8.775   8.123  1.00  0.00     0.173 A 
ATOM     87  F   UNL     1       9.589 -10.235  10.387  1.00  0.00    -0.203 F 
ATOM     88  C   UNL     1       9.894  -9.134   8.328  1.00  0.00     0.198 A 
ATOM     89  C   UNL     1       8.014  -8.307   7.112  1.00  0.00     0.198 A 
ATOM     90  F   UNL     1       5.866  -8.576   7.955  1.00  0.00    -0.203 F 
ATOM     91  F   UNL     1      11.217  -9.316   8.432  1.00  0.00    -0.200 F 
ATOM     92  C   UNL     1       9.379  -8.483   7.218  1.00  0.00     0.200 A 
ATOM     93  F   UNL     1       7.497  -7.696   6.034  1.00  0.00    -0.200 F 
ATOM     94  F   UNL     1      10.193  -8.041   6.249  1.00  0.00    -0.200 F 
ENDBRANCH  61  84
ENDBRANCH  35  36
ENDBRANCH  27  30
ENDBRANCH  25  26
ENDBRANCH  24  25
ENDBRANCH   1  24
TORSDOF 14
