REMARK SMILES Cc1cc(=O)c(Oc2ccc(C(=O)NCCCCNC(=O)c3ccc(-c4c5nc(c(-c6c(F)c(F)c(F)c(F)c6F)c6ccc([nH]6)c(-c6c(F)c(F)c(F)c(F)c6F)c6nc(c(-c7c(F)c(F)c(F)c(F)c7F)c7ccc4[nH]7)C=C6)C=C5)cc3)cc2)c(-c2ccc(S(C)(=O)=O)cc2)o1
REMARK SMILES IDX 15 1 14 2 12 3 13 4 11 6 8 7 9 8 86 9 10 10 85 11 7 12 6 13
REMARK SMILES IDX 1 14 2 15 3 16 98 17 4 18 87 19 5 20 88 21 89 22 97 23 90 24
REMARK SMILES IDX 96 25 91 26 92 27 93 28 94 29 95 30 16 31 17 32 18 33 19 34
REMARK SMILES IDX 20 35 21 37 22 38 23 39 84 40 24 41 83 42 25 43 26 44 27 45
REMARK SMILES IDX 77 46 28 47 82 48 76 49 78 50 29 51 81 52 75 53 74 54 30 56
REMARK SMILES IDX 62 57 42 58 61 59 43 60 46 61 60 62 79 63 44 64 45 65 59 67
REMARK SMILES IDX 80 68 47 69 31 70 32 71 40 72 33 73 34 74 38 75 41 76 35 77
REMARK SMILES IDX 36 78 39 79 37 80 63 81 64 82 72 83 65 84 66 85 70 86 73 87
REMARK SMILES IDX 67 88 68 89 71 90 69 91 48 92 49 93 57 94 50 95 51 96 55 97
REMARK SMILES IDX 58 98 52 99 53 100 56 101 54 102
REMARK H PARENT 14 5 19 36 78 55 46 66
REMARK Flexibility Score: inf
ROOT
ATOM      1  C   UNL     1      -0.942  10.282  -0.648  1.00  0.00     0.116 C 
ENDROOT
BRANCH   1   2
ATOM      2  N   UNL     1       0.467  10.488  -0.929  1.00  0.00    -0.352 N 
ATOM      3  C   UNL     1       1.301   9.865  -1.836  1.00  0.00     0.251 C 
ATOM      4  O   UNL     1       2.432  10.312  -2.011  1.00  0.00    -0.269 OA
ATOM      5  H   UNL     1       0.898  11.186  -0.385  1.00  0.00     0.163 HD
BRANCH   3   6
ATOM      6  C   UNL     1       0.911   8.595  -2.508  1.00  0.00     0.040 A 
ATOM      7  C   UNL     1       0.190   5.967  -3.059  1.00  0.00     0.127 A 
ATOM      8  C   UNL     1       1.538   6.297  -2.979  1.00  0.00     0.048 A 
ATOM      9  C   UNL     1      -0.766   6.979  -3.125  1.00  0.00     0.048 A 
ATOM     10  C   UNL     1       1.898   7.609  -2.657  1.00  0.00     0.017 A 
ATOM     11  C   UNL     1      -0.396   8.302  -2.895  1.00  0.00     0.017 A 
BRANCH   7  12
ATOM     12  O   UNL     1      -0.273   4.689  -3.150  1.00  0.00    -0.449 OA
BRANCH  12  13
ATOM     13  C   UNL     1       0.030   3.678  -2.248  1.00  0.00     0.217 A 
ATOM     14  C   UNL     1       0.991   0.141   0.044  1.00  0.00     0.088 C 
ATOM     15  C   UNL     1       0.550   1.296  -0.797  1.00  0.00     0.105 A 
ATOM     16  C   UNL     1      -0.141   1.150  -1.929  1.00  0.00     0.098 A 
ATOM     17  O   UNL     1       0.915   2.531  -0.306  1.00  0.00    -0.457 OA
ATOM     18  C   UNL     1      -0.492   2.347  -2.704  1.00  0.00     0.228 A 
ATOM     19  C   UNL     1       0.656   3.688  -1.039  1.00  0.00     0.180 A 
ATOM     20  O   UNL     1      -1.194   2.226  -3.704  1.00  0.00    -0.285 OA
BRANCH  19  21
ATOM     21  C   UNL     1       1.201   4.854  -0.314  1.00  0.00     0.021 A 
ATOM     22  C   UNL     1       2.594   4.972  -0.160  1.00  0.00     0.013 A 
ATOM     23  C   UNL     1       0.370   5.841   0.234  1.00  0.00     0.013 A 
ATOM     24  C   UNL     1       3.153   6.100   0.447  1.00  0.00     0.021 A 
ATOM     25  C   UNL     1       0.923   6.968   0.854  1.00  0.00     0.021 A 
ATOM     26  C   UNL     1       2.312   7.099   0.942  1.00  0.00     0.067 A 
BRANCH  26  27
ATOM     27  S   UNL     1       3.035   8.592   1.587  1.00  0.00     0.175 S 
ATOM     28  C   UNL     1       3.623   8.118   3.188  1.00  0.00     0.163 C 
ATOM     29  O   UNL     1       4.189   8.898   0.766  1.00  0.00    -0.224 OA
ATOM     30  O   UNL     1       1.968   9.559   1.781  1.00  0.00    -0.224 OA
ENDBRANCH  26  27
ENDBRANCH  19  21
ENDBRANCH  12  13
ENDBRANCH   7  12
ENDBRANCH   3   6
ENDBRANCH   1   2
BRANCH   1  31
ATOM     31  C   UNL     1      -1.401  10.585   0.773  1.00  0.00     0.023 C 
BRANCH  31  32
ATOM     32  C   UNL     1      -1.107  11.971   1.322  1.00  0.00     0.023 C 
BRANCH  32  33
ATOM     33  C   UNL     1      -1.448  13.144   0.416  1.00  0.00     0.116 C 
BRANCH  33  34
ATOM     34  N   UNL     1      -2.859  13.250   0.062  1.00  0.00    -0.352 N 
ATOM     35  C   UNL     1      -3.703  14.340   0.127  1.00  0.00     0.251 C 
ATOM     36  H   UNL     1      -3.271  12.420  -0.272  1.00  0.00     0.163 HD
ATOM     37  O   UNL     1      -4.888  14.224  -0.169  1.00  0.00    -0.269 OA
BRANCH  35  38
ATOM     38  C   UNL     1      -3.189  15.638   0.623  1.00  0.00     0.039 A 
ATOM     39  C   UNL     1      -1.952  16.119   0.200  1.00  0.00     0.014 A 
ATOM     40  C   UNL     1      -3.913  16.334   1.596  1.00  0.00     0.014 A 
ATOM     41  C   UNL     1      -1.328  17.124   0.929  1.00  0.00     0.010 A 
ATOM     42  C   UNL     1      -3.329  17.428   2.245  1.00  0.00     0.010 A 
ATOM     43  C   UNL     1      -1.996  17.778   1.979  1.00  0.00    -0.014 A 
BRANCH  43  44
ATOM     44  C   UNL     1      -1.250  18.765   2.812  1.00  0.00     0.031 A 
ATOM     45  C   UNL     1      -1.039  18.525   4.289  1.00  0.00     0.074 A 
ATOM     46  C   UNL     1      -0.668  19.828   2.220  1.00  0.00     0.049 A 
ATOM     47  N   UNL     1      -0.371  19.248   5.157  1.00  0.00    -0.248 NA
ATOM     48  C   UNL     1      -1.653  17.321   4.875  1.00  0.00     0.031 C 
ATOM     49  C   UNL     1      -0.774  20.161   0.798  1.00  0.00     0.029 A 
ATOM     50  N   UNL     1       0.162  20.799   2.724  1.00  0.00    -0.354 N 
ATOM     51  C   UNL     1      -0.496  18.596   6.378  1.00  0.00     0.074 A 
ATOM     52  C   UNL     1      -1.338  17.443   6.157  1.00  0.00     0.031 C 
ATOM     53  C   UNL     1       0.015  21.211   0.531  1.00  0.00     0.029 A 
ATOM     54  C   UNL     1       0.625  21.676   1.772  1.00  0.00     0.049 A 
ATOM     55  H   UNL     1       0.401  20.862   3.677  1.00  0.00     0.167 HD
ATOM     56  C   UNL     1       0.062  18.914   7.570  1.00  0.00     0.037 A 
ATOM     57  C   UNL     1       1.438  22.744   1.884  1.00  0.00     0.037 A 
ATOM     58  C   UNL     1       0.937  20.037   7.785  1.00  0.00     0.049 A 
ATOM     59  C   UNL     1       1.982  23.111   3.238  1.00  0.00     0.074 A 
ATOM     60  C   UNL     1       1.567  20.424   8.956  1.00  0.00     0.029 A 
ATOM     61  N   UNL     1       1.314  20.945   6.808  1.00  0.00    -0.354 N 
ATOM     62  N   UNL     1       1.867  22.473   4.377  1.00  0.00    -0.248 NA
ATOM     63  C   UNL     1       2.756  24.358   3.325  1.00  0.00     0.031 C 
ATOM     64  C   UNL     1       2.289  21.591   8.699  1.00  0.00     0.029 A 
ATOM     65  C   UNL     1       2.145  21.907   7.359  1.00  0.00     0.049 A 
ATOM     66  H   UNL     1       1.034  20.911   5.865  1.00  0.00     0.167 HD
ATOM     67  C   UNL     1       2.564  23.230   5.308  1.00  0.00     0.074 A 
ATOM     68  C   UNL     1       3.125  24.359   4.599  1.00  0.00     0.031 C 
ATOM     69  C   UNL     1       2.711  23.016   6.637  1.00  0.00     0.037 A 
BRANCH  56  70
ATOM     70  C   UNL     1      -0.223  18.034   8.752  1.00  0.00     0.064 A 
ATOM     71  C   UNL     1       0.370  16.770   8.880  1.00  0.00     0.173 A 
ATOM     72  C   UNL     1      -0.994  18.509   9.825  1.00  0.00     0.173 A 
ATOM     73  F   UNL     1       1.110  16.267   7.880  1.00  0.00    -0.203 F 
ATOM     74  C   UNL     1       0.203  16.014  10.038  1.00  0.00     0.198 A 
ATOM     75  C   UNL     1      -1.137  17.762  10.992  1.00  0.00     0.198 A 
ATOM     76  F   UNL     1      -1.574  19.717   9.758  1.00  0.00    -0.203 F 
ATOM     77  F   UNL     1       0.769  14.802  10.132  1.00  0.00    -0.200 F 
ATOM     78  C   UNL     1      -0.538  16.516  11.097  1.00  0.00     0.200 A 
ATOM     79  F   UNL     1      -1.837  18.256  12.022  1.00  0.00    -0.200 F 
ATOM     80  F   UNL     1      -0.671  15.800  12.223  1.00  0.00    -0.200 F 
ENDBRANCH  56  70
BRANCH  57  81
ATOM     81  C   UNL     1       1.778  23.557   0.685  1.00  0.00     0.064 A 
ATOM     82  C   UNL     1       3.097  23.638   0.218  1.00  0.00     0.173 A 
ATOM     83  C   UNL     1       0.799  24.292  -0.001  1.00  0.00     0.173 A 
ATOM     84  F   UNL     1       4.074  22.975   0.853  1.00  0.00    -0.203 F 
ATOM     85  C   UNL     1       3.426  24.439  -0.874  1.00  0.00     0.198 A 
ATOM     86  C   UNL     1       1.123  25.063  -1.115  1.00  0.00     0.198 A 
ATOM     87  F   UNL     1      -0.479  24.253   0.405  1.00  0.00    -0.203 F 
ATOM     88  F   UNL     1       4.704  24.543  -1.264  1.00  0.00    -0.200 F 
ATOM     89  C   UNL     1       2.438  25.146  -1.543  1.00  0.00     0.200 A 
ATOM     90  F   UNL     1       0.162  25.731  -1.767  1.00  0.00    -0.200 F 
ATOM     91  F   UNL     1       2.756  25.915  -2.593  1.00  0.00    -0.200 F 
ENDBRANCH  57  81
BRANCH  69  92
ATOM     92  C   UNL     1       3.512  24.012   7.422  1.00  0.00     0.064 A 
ATOM     93  C   UNL     1       3.000  25.284   7.715  1.00  0.00     0.173 A 
ATOM     94  C   UNL     1       4.756  23.661   7.966  1.00  0.00     0.173 A 
ATOM     95  F   UNL     1       1.821  25.671   7.206  1.00  0.00    -0.203 F 
ATOM     96  C   UNL     1       3.709  26.171   8.521  1.00  0.00     0.198 A 
ATOM     97  C   UNL     1       5.448  24.539   8.796  1.00  0.00     0.198 A 
ATOM     98  F   UNL     1       5.284  22.452   7.723  1.00  0.00    -0.203 F 
ATOM     99  F   UNL     1       3.213  27.392   8.766  1.00  0.00    -0.200 F 
ATOM    100  C   UNL     1       4.924  25.793   9.071  1.00  0.00     0.200 A 
ATOM    101  F   UNL     1       6.613  24.165   9.342  1.00  0.00    -0.200 F 
ATOM    102  F   UNL     1       5.592  26.639   9.867  1.00  0.00    -0.200 F 
ENDBRANCH  69  92
ENDBRANCH  43  44
ENDBRANCH  35  38
ENDBRANCH  33  34
ENDBRANCH  32  33
ENDBRANCH  31  32
ENDBRANCH   1  31
TORSDOF 15
