REMARK SMILES O=C(NCCCCNC(=O)c1ccc(-c2c3nc(c(-c4c(F)c(F)c(F)c(F)c4F)c4ccc([nH]4)c(-c4c(F)c(F)c(F)c(F)c4F)c4nc(c(-c5c(F)c(F)c(F)c(F)c5F)c5ccc2[nH]5)C=C4)C=C3)cc1)C1=Cc2c(Cl)ccc(Cl)c2O[C@@H]1C(F)(F)F
REMARK SMILES IDX 6 1 5 2 4 3 3 4 1 5 2 6 74 8 75 9 85 10 76 11 84 12 77 13
REMARK SMILES IDX 83 14 78 15 79 16 81 17 80 18 82 19 86 20 87 21 88 22 89 23
REMARK SMILES IDX 7 24 8 25 9 26 10 28 11 29 12 30 73 31 13 32 72 33 14 34
REMARK SMILES IDX 15 35 16 36 66 37 17 38 71 39 65 40 67 41 18 42 70 43 64 44
REMARK SMILES IDX 63 45 19 47 51 48 31 49 50 50 32 51 35 52 49 53 68 54 33 55
REMARK SMILES IDX 34 56 48 58 69 59 36 60 20 61 21 62 29 63 22 64 23 65 27 66
REMARK SMILES IDX 30 67 24 68 25 69 28 70 26 71 52 72 53 73 61 74 54 75 55 76
REMARK SMILES IDX 59 77 62 78 56 79 57 80 60 81 58 82 37 83 38 84 46 85 39 86
REMARK SMILES IDX 40 87 44 88 47 89 41 90 42 91 45 92 43 93
REMARK H PARENT 3 7 8 27 67 46 35 57
REMARK Flexibility Score: inf
ROOT
ATOM      1  C   UNL     1       4.012   4.495  -0.386  1.00  0.00     0.023 C 
ENDROOT
BRANCH   1   2
ATOM      2  C   UNL     1       4.359   3.268  -1.219  1.00  0.00     0.023 C 
BRANCH   2   3
ATOM      3  C   UNL     1       4.061   1.916  -0.586  1.00  0.00     0.116 C 
BRANCH   3   4
ATOM      4  N   UNL     1       2.764   1.349  -0.907  1.00  0.00    -0.352 N 
ATOM      5  O   UNL     1       1.161  -0.218  -1.030  1.00  0.00    -0.270 OA
ATOM      6  C   UNL     1       2.353   0.043  -0.881  1.00  0.00     0.251 C 
ATOM      7  H   UNL     1       2.079   1.999  -1.186  1.00  0.00     0.163 HD
BRANCH   6   8
ATOM      8  C   UNL     1       3.289  -1.080  -0.579  1.00  0.00     0.067 C 
ATOM      9  C   UNL     1       4.533  -1.121  -1.085  1.00  0.00     0.027 C 
ATOM     10  C   UNL     1       3.023  -1.735   0.752  1.00  0.00     0.314 C 
ATOM     11  C   UNL     1       5.583  -0.889  -0.053  1.00  0.00     0.037 A 
ATOM     12  O   UNL     1       3.981  -1.298   1.750  1.00  0.00    -0.474 OA
ATOM     13  C   UNL     1       6.855  -0.416  -0.430  1.00  0.00     0.052 A 
ATOM     14  C   UNL     1       5.218  -0.885   1.309  1.00  0.00     0.148 A 
ATOM     15  Cl  UNL     1       7.353  -0.352  -2.086  1.00  0.00    -0.084 Cl
ATOM     16  C   UNL     1       7.716   0.128   0.525  1.00  0.00     0.023 A 
ATOM     17  C   UNL     1       6.096  -0.345   2.259  1.00  0.00     0.083 A 
ATOM     18  C   UNL     1       7.329   0.179   1.865  1.00  0.00     0.026 A 
ATOM     19  Cl  UNL     1       5.647  -0.216   3.921  1.00  0.00    -0.080 Cl
BRANCH  10  20
ATOM     20  C   UNL     1       2.976  -3.269   0.647  1.00  0.00     0.429 C 
ATOM     21  F   UNL     1       2.621  -3.834   1.825  1.00  0.00    -0.167 F 
ATOM     22  F   UNL     1       2.077  -3.680  -0.277  1.00  0.00    -0.167 F 
ATOM     23  F   UNL     1       4.176  -3.793   0.296  1.00  0.00    -0.167 F 
ENDBRANCH  10  20
ENDBRANCH   6   8
ENDBRANCH   3   4
ENDBRANCH   2   3
ENDBRANCH   1   2
BRANCH   1  24
ATOM     24  C   UNL     1       4.586   4.555   1.029  1.00  0.00     0.116 C 
BRANCH  24  25
ATOM     25  N   UNL     1       6.027   4.357   1.123  1.00  0.00    -0.352 N 
ATOM     26  C   UNL     1       6.966   5.064   1.847  1.00  0.00     0.251 C 
ATOM     27  H   UNL     1       6.383   3.609   0.591  1.00  0.00     0.163 HD
ATOM     28  O   UNL     1       8.147   4.745   1.802  1.00  0.00    -0.269 OA
BRANCH  26  29
ATOM     29  C   UNL     1       6.549   6.252   2.627  1.00  0.00     0.039 A 
ATOM     30  C   UNL     1       7.231   7.456   2.427  1.00  0.00     0.014 A 
ATOM     31  C   UNL     1       5.447   6.204   3.482  1.00  0.00     0.014 A 
ATOM     32  C   UNL     1       6.726   8.636   2.981  1.00  0.00     0.010 A 
ATOM     33  C   UNL     1       4.900   7.390   3.967  1.00  0.00     0.010 A 
ATOM     34  C   UNL     1       5.516   8.621   3.696  1.00  0.00    -0.014 A 
BRANCH  34  35
ATOM     35  C   UNL     1       4.847   9.889   4.088  1.00  0.00     0.031 A 
ATOM     36  C   UNL     1       4.626  10.232   5.533  1.00  0.00     0.074 A 
ATOM     37  C   UNL     1       4.359  10.699   3.127  1.00  0.00     0.049 A 
ATOM     38  N   UNL     1       4.041  11.283   6.053  1.00  0.00    -0.248 NA
ATOM     39  C   UNL     1       5.097   9.255   6.524  1.00  0.00     0.031 C 
ATOM     40  C   UNL     1       4.433  10.442   1.687  1.00  0.00     0.029 A 
ATOM     41  N   UNL     1       3.698  11.900   3.214  1.00  0.00    -0.354 N 
ATOM     42  C   UNL     1       4.064  11.087   7.426  1.00  0.00     0.074 A 
ATOM     43  C   UNL     1       4.671   9.793   7.657  1.00  0.00     0.031 C 
ATOM     44  C   UNL     1       3.875  11.469   1.027  1.00  0.00     0.029 A 
ATOM     45  C   UNL     1       3.378  12.443   1.993  1.00  0.00     0.049 A 
ATOM     46  H   UNL     1       3.475  12.331   4.071  1.00  0.00     0.167 HD
ATOM     47  C   UNL     1       3.639  11.920   8.407  1.00  0.00     0.037 A 
ATOM     48  C   UNL     1       2.762  13.600   1.686  1.00  0.00     0.037 A 
ATOM     49  C   UNL     1       3.057  13.217   8.179  1.00  0.00     0.049 A 
ATOM     50  C   UNL     1       2.322  14.518   2.792  1.00  0.00     0.074 A 
ATOM     51  C   UNL     1       2.675  14.168   9.109  1.00  0.00     0.029 A 
ATOM     52  N   UNL     1       2.768  13.743   6.928  1.00  0.00    -0.354 N 
ATOM     53  N   UNL     1       2.436  14.364   4.088  1.00  0.00    -0.248 NA
ATOM     54  C   UNL     1       1.672  15.773   2.389  1.00  0.00     0.031 C 
ATOM     55  C   UNL     1       2.117  15.254   8.423  1.00  0.00     0.029 A 
ATOM     56  C   UNL     1       2.189  14.996   7.064  1.00  0.00     0.049 A 
ATOM     57  H   UNL     1       2.946  13.293   6.071  1.00  0.00     0.167 HD
ATOM     58  C   UNL     1       1.894  15.509   4.656  1.00  0.00     0.074 A 
ATOM     59  C   UNL     1       1.466  16.356   3.562  1.00  0.00     0.031 C 
ATOM     60  C   UNL     1       1.763  15.827   5.967  1.00  0.00     0.037 A 
BRANCH  47  61
ATOM     61  C   UNL     1       3.799  11.451   9.823  1.00  0.00     0.064 A 
ATOM     62  C   UNL     1       5.063  11.355  10.425  1.00  0.00     0.173 A 
ATOM     63  C   UNL     1       2.677  11.113  10.594  1.00  0.00     0.173 A 
ATOM     64  F   UNL     1       6.168  11.656   9.726  1.00  0.00    -0.203 F 
ATOM     65  C   UNL     1       5.200  10.904  11.735  1.00  0.00     0.198 A 
ATOM     66  C   UNL     1       2.816  10.690  11.914  1.00  0.00     0.198 A 
ATOM     67  F   UNL     1       1.445  11.193  10.069  1.00  0.00    -0.203 F 
ATOM     68  F   UNL     1       6.421  10.770  12.271  1.00  0.00    -0.200 F 
ATOM     69  C   UNL     1       4.077  10.577  12.480  1.00  0.00     0.200 A 
ATOM     70  F   UNL     1       1.730  10.383  12.636  1.00  0.00    -0.200 F 
ATOM     71  F   UNL     1       4.211  10.144  13.741  1.00  0.00    -0.200 F 
ENDBRANCH  47  61
BRANCH  48  72
ATOM     72  C   UNL     1       2.572  13.979   0.263  1.00  0.00     0.064 A 
ATOM     73  C   UNL     1       3.338  15.004  -0.311  1.00  0.00     0.173 A 
ATOM     74  C   UNL     1       1.638  13.326  -0.552  1.00  0.00     0.173 A 
ATOM     75  F   UNL     1       4.230  15.670   0.437  1.00  0.00    -0.203 F 
ATOM     76  C   UNL     1       3.167  15.370  -1.644  1.00  0.00     0.198 A 
ATOM     77  C   UNL     1       1.484  13.677  -1.892  1.00  0.00     0.198 A 
ATOM     78  F   UNL     1       0.885  12.336  -0.051  1.00  0.00    -0.203 F 
ATOM     79  F   UNL     1       3.888  16.376  -2.158  1.00  0.00    -0.200 F 
ATOM     80  C   UNL     1       2.245  14.702  -2.435  1.00  0.00     0.200 A 
ATOM     81  F   UNL     1       0.600  13.022  -2.657  1.00  0.00    -0.200 F 
ATOM     82  F   UNL     1       2.085  15.050  -3.719  1.00  0.00    -0.200 F 
ENDBRANCH  48  72
BRANCH  60  83
ATOM     83  C   UNL     1       1.144  17.155   6.288  1.00  0.00     0.064 A 
ATOM     84  C   UNL     1      -0.230  17.383   6.118  1.00  0.00     0.173 A 
ATOM     85  C   UNL     1       1.928  18.203   6.793  1.00  0.00     0.173 A 
ATOM     86  F   UNL     1      -1.018  16.418   5.621  1.00  0.00    -0.203 F 
ATOM     87  C   UNL     1      -0.791  18.621   6.418  1.00  0.00     0.198 A 
ATOM     88  C   UNL     1       1.358  19.431   7.117  1.00  0.00     0.198 A 
ATOM     89  F   UNL     1       3.246  18.033   6.977  1.00  0.00    -0.203 F 
ATOM     90  F   UNL     1      -2.097  18.832   6.204  1.00  0.00    -0.200 F 
ATOM     91  C   UNL     1       0.001  19.642   6.923  1.00  0.00     0.200 A 
ATOM     92  F   UNL     1       2.124  20.413   7.614  1.00  0.00    -0.200 F 
ATOM     93  F   UNL     1      -0.541  20.832   7.214  1.00  0.00    -0.200 F 
ENDBRANCH  60  83
ENDBRANCH  34  35
ENDBRANCH  26  29
ENDBRANCH  24  25
ENDBRANCH   1  24
TORSDOF 12
