REMARK SMILES Cc1nsc(NC(=O)CC2([NH3+])CCC2)c1C(=O)NCCCCNC(=O)c1ccc(-c2c3nc(c(-c4c(F)c(F)c(F)c(F)c4F)c4ccc([nH]4)c(-c4c(F)c(F)c(F)c(F)c4F)c4nc(c(-c5c(F)c(F)c(F)c(F)c5F)c5ccc2[nH]5)C=C4)C=C3)cc1
REMARK SMILES IDX 19 1 18 2 16 3 17 4 15 6 1 7 2 8 3 9 4 10 5 11 6 12 7 13
REMARK SMILES IDX 8 15 9 16 10 17 12 18 14 19 13 20 11 21 20 25 21 26 22 27
REMARK SMILES IDX 23 28 24 29 25 31 26 32 27 33 88 34 28 35 87 36 29 37 30 38
REMARK SMILES IDX 31 39 81 40 32 41 86 42 80 43 82 44 33 45 85 46 79 47 78 48
REMARK SMILES IDX 34 50 66 51 46 52 65 53 47 54 50 55 64 56 83 57 48 58 49 59
REMARK SMILES IDX 63 61 84 62 51 63 35 64 36 65 44 66 37 67 38 68 42 69 45 70
REMARK SMILES IDX 39 71 40 72 43 73 41 74 67 75 68 76 76 77 69 78 70 79 74 80
REMARK SMILES IDX 77 81 71 82 72 83 75 84 73 85 52 86 53 87 61 88 54 89 55 90
REMARK SMILES IDX 59 91 62 92 56 93 57 94 60 95 58 96
REMARK H PARENT 18 5 6 14 11 22 11 23 11 24 23 30 82 49 50 60
REMARK Flexibility Score: inf
ROOT
ATOM      1  C   UNL     1      -0.718   1.352  -0.593  1.00  0.00     0.116 C 
ENDROOT
BRANCH   1   2
ATOM      2  N   UNL     1      -1.435   0.381  -1.389  1.00  0.00    -0.352 N 
ATOM      3  C   UNL     1      -1.440  -0.987  -1.432  1.00  0.00     0.256 C 
ATOM      4  O   UNL     1      -2.170  -1.479  -2.299  1.00  0.00    -0.269 OA
ATOM      5  H   UNL     1      -2.052   0.791  -2.038  1.00  0.00     0.163 HD
BRANCH   3   6
ATOM      6  C   UNL     1      -0.762  -1.838  -0.454  1.00  0.00     0.097 A 
ATOM      7  C   UNL     1       1.616  -0.790   0.079  1.00  0.00     0.069 C 
ATOM      8  C   UNL     1       0.466  -1.706   0.308  1.00  0.00     0.066 A 
ATOM      9  N   UNL     1       0.632  -2.585   1.303  1.00  0.00    -0.195 NA
ATOM     10  S   UNL     1      -0.537  -3.743   1.185  1.00  0.00    -0.017 S 
ATOM     11  C   UNL     1      -1.180  -3.158  -0.273  1.00  0.00     0.129 A 
BRANCH  11  12
ATOM     12  N   UNL     1      -2.094  -3.875  -1.010  1.00  0.00    -0.316 N 
ATOM     13  C   UNL     1      -2.102  -5.194  -1.355  1.00  0.00     0.231 C 
ATOM     14  H   UNL     1      -2.862  -3.354  -1.340  1.00  0.00     0.170 HD
ATOM     15  O   UNL     1      -3.056  -5.588  -2.038  1.00  0.00    -0.274 OA
BRANCH  13  16
ATOM     16  C   UNL     1      -0.959  -6.147  -1.050  1.00  0.00     0.168 C 
BRANCH  16  17
ATOM     17  C   UNL     1       0.286  -6.005  -1.925  1.00  0.00     0.103 C 
ATOM     18  C   UNL     1       1.350  -4.888  -1.708  1.00  0.00     0.069 C 
ATOM     19  C   UNL     1       1.425  -7.023  -1.609  1.00  0.00     0.069 C 
ATOM     20  C   UNL     1       2.461  -5.929  -1.939  1.00  0.00     0.013 C 
BRANCH  17  21
ATOM     21  N   UNL     1       0.009  -6.111  -3.369  1.00  0.00    -0.352 N 
ATOM     22  H   UNL     1      -0.734  -5.460  -3.622  1.00  0.00     0.344 HD
ATOM     23  H   UNL     1      -0.284  -7.063  -3.590  1.00  0.00     0.344 HD
ATOM     24  H   UNL     1       0.853  -5.885  -3.895  1.00  0.00     0.344 HD
ENDBRANCH  17  21
ENDBRANCH  16  17
ENDBRANCH  13  16
ENDBRANCH  11  12
ENDBRANCH   3   6
ENDBRANCH   1   2
BRANCH   1  25
ATOM     25  C   UNL     1       0.391   1.996  -1.434  1.00  0.00     0.023 C 
BRANCH  25  26
ATOM     26  C   UNL     1      -0.076   3.135  -2.352  1.00  0.00     0.023 C 
BRANCH  26  27
ATOM     27  C   UNL     1      -0.431   4.426  -1.624  1.00  0.00     0.116 C 
BRANCH  27  28
ATOM     28  N   UNL     1       0.703   4.990  -0.896  1.00  0.00    -0.352 N 
ATOM     29  C   UNL     1       0.684   5.915   0.130  1.00  0.00     0.251 C 
ATOM     30  H   UNL     1       1.593   4.671  -1.172  1.00  0.00     0.163 HD
ATOM     31  O   UNL     1       1.662   6.587   0.401  1.00  0.00    -0.269 OA
BRANCH  29  32
ATOM     32  C   UNL     1      -0.560   6.061   0.903  1.00  0.00     0.039 A 
ATOM     33  C   UNL     1      -1.098   7.322   1.169  1.00  0.00     0.014 A 
ATOM     34  C   UNL     1      -1.210   4.896   1.305  1.00  0.00     0.014 A 
ATOM     35  C   UNL     1      -2.351   7.400   1.769  1.00  0.00     0.010 A 
ATOM     36  C   UNL     1      -2.497   4.973   1.780  1.00  0.00     0.010 A 
ATOM     37  C   UNL     1      -3.058   6.220   2.052  1.00  0.00    -0.014 A 
BRANCH  37  38
ATOM     38  C   UNL     1      -4.439   6.281   2.521  1.00  0.00     0.031 A 
ATOM     39  C   UNL     1      -5.376   7.046   1.647  1.00  0.00     0.074 A 
ATOM     40  C   UNL     1      -4.896   5.519   3.538  1.00  0.00     0.049 A 
ATOM     41  N   UNL     1      -6.061   8.099   1.949  1.00  0.00    -0.248 NA
ATOM     42  C   UNL     1      -5.494   6.650   0.233  1.00  0.00     0.031 C 
ATOM     43  C   UNL     1      -4.178   4.480   4.287  1.00  0.00     0.029 A 
ATOM     44  N   UNL     1      -6.156   5.429   4.043  1.00  0.00    -0.354 N 
ATOM     45  C   UNL     1      -6.833   8.401   0.828  1.00  0.00     0.074 A 
ATOM     46  C   UNL     1      -6.330   7.577  -0.239  1.00  0.00     0.031 C 
ATOM     47  C   UNL     1      -5.063   3.712   4.957  1.00  0.00     0.029 A 
ATOM     48  C   UNL     1      -6.380   4.305   4.828  1.00  0.00     0.049 A 
ATOM     49  H   UNL     1      -6.851   6.105   3.868  1.00  0.00     0.167 HD
ATOM     50  C   UNL     1      -7.972   9.143   0.937  1.00  0.00     0.037 A 
ATOM     51  C   UNL     1      -7.572   3.872   5.306  1.00  0.00     0.037 A 
ATOM     52  C   UNL     1      -8.002   9.862   2.187  1.00  0.00     0.049 A 
ATOM     53  C   UNL     1      -8.509   5.021   5.268  1.00  0.00     0.074 A 
ATOM     54  C   UNL     1      -7.190  10.806   2.785  1.00  0.00     0.029 A 
ATOM     55  N   UNL     1      -8.793   9.369   3.195  1.00  0.00    -0.354 N 
ATOM     56  N   UNL     1      -8.392   6.079   6.020  1.00  0.00    -0.248 NA
ATOM     57  C   UNL     1      -9.319   5.192   4.072  1.00  0.00     0.031 C 
ATOM     58  C   UNL     1      -7.181  10.458   4.170  1.00  0.00     0.029 A 
ATOM     59  C   UNL     1      -8.042   9.374   4.341  1.00  0.00     0.049 A 
ATOM     60  H   UNL     1      -9.727   9.068   3.110  1.00  0.00     0.167 HD
ATOM     61  C   UNL     1      -8.715   7.138   5.186  1.00  0.00     0.074 A 
ATOM     62  C   UNL     1      -9.373   6.526   4.034  1.00  0.00     0.031 C 
ATOM     63  C   UNL     1      -8.160   8.371   5.372  1.00  0.00     0.037 A 
BRANCH  50  64
ATOM     64  C   UNL     1      -9.223   8.935   0.111  1.00  0.00     0.064 A 
ATOM     65  C   UNL     1     -10.306   9.825   0.274  1.00  0.00     0.173 A 
ATOM     66  C   UNL     1      -9.523   7.741  -0.579  1.00  0.00     0.173 A 
ATOM     67  F   UNL     1     -10.143  10.991   0.918  1.00  0.00    -0.203 F 
ATOM     68  C   UNL     1     -11.605   9.495  -0.125  1.00  0.00     0.198 A 
ATOM     69  C   UNL     1     -10.810   7.438  -1.023  1.00  0.00     0.198 A 
ATOM     70  F   UNL     1      -8.622   6.768  -0.751  1.00  0.00    -0.203 F 
ATOM     71  F   UNL     1     -12.623  10.310   0.182  1.00  0.00    -0.200 F 
ATOM     72  C   UNL     1     -11.857   8.296  -0.764  1.00  0.00     0.200 A 
ATOM     73  F   UNL     1     -11.037   6.264  -1.628  1.00  0.00    -0.200 F 
ATOM     74  F   UNL     1     -13.109   7.943  -1.082  1.00  0.00    -0.200 F 
ENDBRANCH  50  64
BRANCH  51  75
ATOM     75  C   UNL     1      -8.035   2.477   5.497  1.00  0.00     0.064 A 
ATOM     76  C   UNL     1      -9.175   2.195   6.267  1.00  0.00     0.173 A 
ATOM     77  C   UNL     1      -7.544   1.427   4.697  1.00  0.00     0.173 A 
ATOM     78  F   UNL     1      -9.729   3.151   7.026  1.00  0.00    -0.203 F 
ATOM     79  C   UNL     1      -9.808   0.949   6.210  1.00  0.00     0.198 A 
ATOM     80  C   UNL     1      -8.172   0.182   4.647  1.00  0.00     0.198 A 
ATOM     81  F   UNL     1      -6.505   1.618   3.871  1.00  0.00    -0.203 F 
ATOM     82  F   UNL     1     -10.936   0.740   6.904  1.00  0.00    -0.200 F 
ATOM     83  C   UNL     1      -9.314  -0.052   5.390  1.00  0.00     0.200 A 
ATOM     84  F   UNL     1      -7.703  -0.765   3.822  1.00  0.00    -0.200 F 
ATOM     85  F   UNL     1      -9.959  -1.221   5.282  1.00  0.00    -0.200 F 
ENDBRANCH  51  75
BRANCH  63  86
ATOM     86  C   UNL     1      -7.426   8.623   6.660  1.00  0.00     0.064 A 
ATOM     87  C   UNL     1      -6.288   7.910   7.080  1.00  0.00     0.173 A 
ATOM     88  C   UNL     1      -7.827   9.710   7.448  1.00  0.00     0.173 A 
ATOM     89  F   UNL     1      -5.771   6.928   6.332  1.00  0.00    -0.203 F 
ATOM     90  C   UNL     1      -5.625   8.234   8.262  1.00  0.00     0.198 A 
ATOM     91  C   UNL     1      -7.139  10.057   8.607  1.00  0.00     0.198 A 
ATOM     92  F   UNL     1      -8.870  10.465   7.070  1.00  0.00    -0.203 F 
ATOM     93  F   UNL     1      -4.557   7.521   8.652  1.00  0.00    -0.200 F 
ATOM     94  C   UNL     1      -6.048   9.310   9.023  1.00  0.00     0.200 A 
ATOM     95  F   UNL     1      -7.522  11.131   9.311  1.00  0.00    -0.200 F 
ATOM     96  F   UNL     1      -5.392   9.644  10.143  1.00  0.00    -0.200 F 
ENDBRANCH  63  86
ENDBRANCH  37  38
ENDBRANCH  29  32
ENDBRANCH  27  28
ENDBRANCH  26  27
ENDBRANCH  25  26
ENDBRANCH   1  25
TORSDOF 15
