REMARK SMILES O=C(NCCCCNC(=O)[C@H]1[C@H]2CC[C@H](CC2)[C@@H]1C(=O)Nc1sc2c(c1C(=O)N1CCCCC1)CCCC2)c1ccc(-c2c3nc(c(-c4c(F)c(F)c(F)c(F)c4F)c4ccc([nH]4)c(-c4c(F)c(F)c(F)c(F)c4F)c4nc(c(-c5c(F)c(F)c(F)c(F)c5F)c5ccc2[nH]5)C=C4)C=C3)cc1
REMARK SMILES IDX 6 1 5 2 4 3 3 4 1 5 2 6 39 8 40 9 101 10 41 11 100 12 42 13
REMARK SMILES IDX 43 14 44 15 94 16 45 17 99 18 93 19 95 20 46 21 98 22 92 23
REMARK SMILES IDX 91 24 47 26 79 27 59 28 78 29 60 30 63 31 77 32 96 33 61 34
REMARK SMILES IDX 62 35 76 37 97 38 64 39 48 40 49 41 57 42 50 43 51 44 55 45
REMARK SMILES IDX 58 46 52 47 53 48 56 49 54 50 80 51 81 52 89 53 82 54 83 55
REMARK SMILES IDX 87 56 90 57 84 58 85 59 88 60 86 61 65 62 66 63 74 64 67 65
REMARK SMILES IDX 68 66 72 67 75 68 69 69 70 70 73 71 71 72 7 73 8 74 9 75
REMARK SMILES IDX 10 77 11 78 12 79 18 80 13 81 17 82 15 83 14 84 16 85 19 86
REMARK SMILES IDX 20 87 21 88 22 90 23 91 26 92 24 93 25 94 38 95 35 96 37 97
REMARK SMILES IDX 36 98 27 99 28 100 29 101 30 102 34 103 31 104 33 105 32 106
REMARK H PARENT 3 7 95 25 63 36 8 76 21 89
REMARK Flexibility Score: inf
ROOT
ATOM      1  C   UNL     1       4.646  -2.196  -2.204  1.00  0.00     0.023 C 
ENDROOT
BRANCH   1   2
ATOM      2  C   UNL     1       5.145  -1.698  -0.865  1.00  0.00     0.023 C 
BRANCH   2   3
ATOM      3  C   UNL     1       4.611  -0.333  -0.488  1.00  0.00     0.116 C 
BRANCH   3   4
ATOM      4  N   UNL     1       3.160  -0.210  -0.615  1.00  0.00    -0.352 N 
ATOM      5  O   UNL     1       1.060   0.281   0.092  1.00  0.00    -0.269 OA
ATOM      6  C   UNL     1       2.263   0.328   0.282  1.00  0.00     0.251 C 
ATOM      7  H   UNL     1       2.773  -0.556  -1.451  1.00  0.00     0.163 HD
BRANCH   6   8
ATOM      8  C   UNL     1       2.816   0.926   1.509  1.00  0.00     0.039 A 
ATOM      9  C   UNL     1       3.900   1.794   1.397  1.00  0.00     0.014 A 
ATOM     10  C   UNL     1       2.374   0.479   2.755  1.00  0.00     0.014 A 
ATOM     11  C   UNL     1       4.692   2.014   2.507  1.00  0.00     0.010 A 
ATOM     12  C   UNL     1       3.092   0.835   3.897  1.00  0.00     0.010 A 
ATOM     13  C   UNL     1       4.289   1.557   3.774  1.00  0.00    -0.014 A 
BRANCH  13  14
ATOM     14  C   UNL     1       5.134   1.901   4.943  1.00  0.00     0.031 A 
ATOM     15  C   UNL     1       5.770   0.841   5.798  1.00  0.00     0.074 A 
ATOM     16  C   UNL     1       5.381   3.205   5.172  1.00  0.00     0.049 A 
ATOM     17  N   UNL     1       6.550   0.987   6.840  1.00  0.00    -0.248 NA
ATOM     18  C   UNL     1       5.490  -0.562   5.456  1.00  0.00     0.031 C 
ATOM     19  C   UNL     1       4.814   4.314   4.398  1.00  0.00     0.029 A 
ATOM     20  N   UNL     1       6.206   3.822   6.073  1.00  0.00    -0.354 N 
ATOM     21  C   UNL     1       6.809  -0.294   7.308  1.00  0.00     0.074 A 
ATOM     22  C   UNL     1       6.105  -1.211   6.436  1.00  0.00     0.031 C 
ATOM     23  C   UNL     1       5.386   5.460   4.783  1.00  0.00     0.029 A 
ATOM     24  C   UNL     1       6.276   5.183   5.901  1.00  0.00     0.049 A 
ATOM     25  H   UNL     1       6.700   3.339   6.774  1.00  0.00     0.167 HD
ATOM     26  C   UNL     1       7.562  -0.662   8.373  1.00  0.00     0.037 A 
ATOM     27  C   UNL     1       6.966   6.112   6.583  1.00  0.00     0.037 A 
ATOM     28  C   UNL     1       8.297   0.262   9.200  1.00  0.00     0.049 A 
ATOM     29  C   UNL     1       7.802   5.672   7.744  1.00  0.00     0.074 A 
ATOM     30  C   UNL     1       9.119  -0.009  10.280  1.00  0.00     0.029 A 
ATOM     31  N   UNL     1       8.303   1.640   9.031  1.00  0.00    -0.354 N 
ATOM     32  N   UNL     1       8.024   4.458   8.186  1.00  0.00    -0.248 NA
ATOM     33  C   UNL     1       8.461   6.730   8.516  1.00  0.00     0.031 C 
ATOM     34  C   UNL     1       9.592   1.207  10.787  1.00  0.00     0.029 A 
ATOM     35  C   UNL     1       9.100   2.234   9.997  1.00  0.00     0.049 A 
ATOM     36  H   UNL     1       7.813   2.124   8.327  1.00  0.00     0.167 HD
ATOM     37  C   UNL     1       8.851   4.603   9.288  1.00  0.00     0.074 A 
ATOM     38  C   UNL     1       9.114   6.023   9.427  1.00  0.00     0.031 C 
ATOM     39  C   UNL     1       9.339   3.649  10.117  1.00  0.00     0.037 A 
BRANCH  26  40
ATOM     40  C   UNL     1       7.606  -2.120   8.731  1.00  0.00     0.064 A 
ATOM     41  C   UNL     1       8.314  -3.057   7.964  1.00  0.00     0.173 A 
ATOM     42  C   UNL     1       6.964  -2.579   9.893  1.00  0.00     0.173 A 
ATOM     43  F   UNL     1       8.936  -2.675   6.838  1.00  0.00    -0.203 F 
ATOM     44  C   UNL     1       8.360  -4.400   8.334  1.00  0.00     0.198 A 
ATOM     45  C   UNL     1       7.032  -3.917  10.274  1.00  0.00     0.198 A 
ATOM     46  F   UNL     1       6.277  -1.725  10.666  1.00  0.00    -0.203 F 
ATOM     47  F   UNL     1       9.010  -5.284   7.565  1.00  0.00    -0.200 F 
ATOM     48  C   UNL     1       7.725  -4.827   9.491  1.00  0.00     0.200 A 
ATOM     49  F   UNL     1       6.427  -4.324  11.398  1.00  0.00    -0.200 F 
ATOM     50  F   UNL     1       7.777  -6.118   9.849  1.00  0.00    -0.200 F 
ENDBRANCH  26  40
BRANCH  27  51
ATOM     51  C   UNL     1       6.872   7.537   6.179  1.00  0.00     0.064 A 
ATOM     52  C   UNL     1       7.970   8.196   5.612  1.00  0.00     0.173 A 
ATOM     53  C   UNL     1       5.672   8.253   6.304  1.00  0.00     0.173 A 
ATOM     54  F   UNL     1       9.143   7.558   5.486  1.00  0.00    -0.203 F 
ATOM     55  C   UNL     1       7.872   9.519   5.187  1.00  0.00     0.198 A 
ATOM     56  C   UNL     1       5.565   9.564   5.849  1.00  0.00     0.198 A 
ATOM     57  F   UNL     1       4.590   7.662   6.832  1.00  0.00    -0.203 F 
ATOM     58  F   UNL     1       8.944  10.137   4.673  1.00  0.00    -0.200 F 
ATOM     59  C   UNL     1       6.667  10.198   5.296  1.00  0.00     0.200 A 
ATOM     60  F   UNL     1       4.393  10.207   5.935  1.00  0.00    -0.200 F 
ATOM     61  F   UNL     1       6.568  11.464   4.869  1.00  0.00    -0.200 F 
ENDBRANCH  27  51
BRANCH  39  62
ATOM     62  C   UNL     1      10.220   4.122  11.232  1.00  0.00     0.064 A 
ATOM     63  C   UNL     1       9.693   4.790  12.347  1.00  0.00     0.173 A 
ATOM     64  C   UNL     1      11.605   3.905  11.184  1.00  0.00     0.173 A 
ATOM     65  F   UNL     1       8.377   5.038  12.425  1.00  0.00    -0.203 F 
ATOM     66  C   UNL     1      10.526   5.252  13.361  1.00  0.00     0.198 A 
ATOM     67  C   UNL     1      12.431   4.345  12.213  1.00  0.00     0.198 A 
ATOM     68  F   UNL     1      12.154   3.269  10.139  1.00  0.00    -0.203 F 
ATOM     69  F   UNL     1      10.009   5.936  14.391  1.00  0.00    -0.200 F 
ATOM     70  C   UNL     1      11.893   5.026  13.296  1.00  0.00     0.200 A 
ATOM     71  F   UNL     1      13.751   4.120  12.153  1.00  0.00    -0.200 F 
ATOM     72  F   UNL     1      12.694   5.475  14.271  1.00  0.00    -0.200 F 
ENDBRANCH  39  62
ENDBRANCH  13  14
ENDBRANCH   6   8
ENDBRANCH   3   4
ENDBRANCH   2   3
ENDBRANCH   1   2
BRANCH   1  73
ATOM     73  C   UNL     1       4.998  -1.323  -3.409  1.00  0.00     0.116 C 
BRANCH  73  74
ATOM     74  N   UNL     1       6.349  -1.497  -3.900  1.00  0.00    -0.356 N 
ATOM     75  C   UNL     1       6.894  -1.992  -5.037  1.00  0.00     0.224 C 
ATOM     76  H   UNL     1       7.028  -1.182  -3.260  1.00  0.00     0.163 HD
ATOM     77  O   UNL     1       8.092  -1.704  -5.191  1.00  0.00    -0.275 OA
BRANCH  75  78
ATOM     78  C   UNL     1       6.268  -3.001  -6.015  1.00  0.00     0.094 C 
ATOM     79  C   UNL     1       6.579  -4.434  -5.489  1.00  0.00     0.002 C 
ATOM     80  C   UNL     1       4.789  -2.894  -6.496  1.00  0.00     0.094 C 
ATOM     81  C   UNL     1       5.657  -4.816  -4.324  1.00  0.00     0.005 C 
ATOM     82  C   UNL     1       6.289  -5.424  -6.612  1.00  0.00     0.005 C 
ATOM     83  C   UNL     1       4.085  -4.243  -6.206  1.00  0.00     0.002 C 
ATOM     84  C   UNL     1       4.190  -4.510  -4.684  1.00  0.00     0.005 C 
ATOM     85  C   UNL     1       4.784  -5.466  -6.821  1.00  0.00     0.005 C 
BRANCH  80  86
ATOM     86  C   UNL     1       4.745  -2.120  -7.842  1.00  0.00     0.229 C 
ATOM     87  O   UNL     1       5.108  -0.929  -7.793  1.00  0.00    -0.274 OA
ATOM     88  N   UNL     1       4.492  -2.588  -9.092  1.00  0.00    -0.317 N 
ATOM     89  H   UNL     1       4.695  -1.956  -9.819  1.00  0.00     0.170 HD
BRANCH  88  90
ATOM     90  C   UNL     1       4.000  -3.799  -9.502  1.00  0.00     0.108 A 
ATOM     91  S   UNL     1       2.386  -4.163  -9.116  1.00  0.00    -0.122 S 
ATOM     92  C   UNL     1       4.587  -4.740 -10.350  1.00  0.00     0.078 A 
ATOM     93  C   UNL     1       2.675  -5.802  -9.460  1.00  0.00     0.011 A 
ATOM     94  C   UNL     1       3.841  -5.994 -10.191  1.00  0.00    -0.019 A 
ATOM     95  C   UNL     1       1.852  -6.889  -8.841  1.00  0.00     0.047 C 
ATOM     96  C   UNL     1       4.334  -7.388 -10.473  1.00  0.00     0.037 C 
ATOM     97  C   UNL     1       2.752  -8.105  -8.577  1.00  0.00     0.006 C 
ATOM     98  C   UNL     1       3.490  -8.513  -9.850  1.00  0.00     0.005 C 
BRANCH  92  99
ATOM     99  C   UNL     1       5.923  -4.470 -10.928  1.00  0.00     0.257 C 
ATOM    100  O   UNL     1       6.541  -3.454 -10.598  1.00  0.00    -0.269 OA
ATOM    101  N   UNL     1       6.529  -5.386 -11.787  1.00  0.00    -0.339 N 
ATOM    102  C   UNL     1       7.987  -5.343 -11.868  1.00  0.00     0.120 C 
ATOM    103  C   UNL     1       5.873  -5.947 -12.963  1.00  0.00     0.120 C 
ATOM    104  C   UNL     1       8.549  -6.739 -12.093  1.00  0.00     0.022 C 
ATOM    105  C   UNL     1       6.420  -7.339 -13.299  1.00  0.00     0.022 C 
ATOM    106  C   UNL     1       7.947  -7.370 -13.345  1.00  0.00     0.004 C 
ENDBRANCH  92  99
ENDBRANCH  88  90
ENDBRANCH  80  86
ENDBRANCH  75  78
ENDBRANCH  73  74
ENDBRANCH   1  73
TORSDOF 14
