REMARK SMILES O=C(NCCCCNC(=O)C1(CCc2ccccn2)CCCCC1)c1ccc(-c2c3nc(c(-c4c(F)c(F)c(F)c(F)c4F)c4ccc([nH]4)c(-c4c(F)c(F)c(F)c(F)c4F)c4nc(c(-c5c(F)c(F)c(F)c(F)c5F)c5ccc2[nH]5)C=C4)C=C3)cc1
REMARK SMILES IDX 6 1 5 2 4 3 3 4 1 5 2 6 25 8 26 9 87 10 27 11 86 12 28 13
REMARK SMILES IDX 29 14 30 15 80 16 31 17 85 18 79 19 81 20 32 21 84 22 78 23
REMARK SMILES IDX 77 24 33 26 65 27 45 28 64 29 46 30 49 31 63 32 82 33 47 34
REMARK SMILES IDX 48 35 62 37 83 38 50 39 34 40 35 41 43 42 36 43 37 44 41 45
REMARK SMILES IDX 44 46 38 47 39 48 42 49 40 50 66 51 67 52 75 53 68 54 69 55
REMARK SMILES IDX 73 56 76 57 70 58 71 59 74 60 72 61 51 62 52 63 60 64 53 65
REMARK SMILES IDX 54 66 58 67 61 68 55 69 56 70 59 71 57 72 7 73 8 74 9 75
REMARK SMILES IDX 10 77 11 78 20 79 24 80 21 81 23 82 22 83 12 84 13 85 14 86
REMARK SMILES IDX 15 87 19 88 16 89 18 90 17 91
REMARK H PARENT 3 7 81 25 49 36 8 76
REMARK Flexibility Score: inf
ROOT
ATOM      1  C   UNL     1       3.607  -0.004   3.812  1.00  0.00     0.023 C 
ENDROOT
BRANCH   1   2
ATOM      2  C   UNL     1       4.031   0.584   2.475  1.00  0.00     0.023 C 
BRANCH   2   3
ATOM      3  C   UNL     1       3.923  -0.356   1.301  1.00  0.00     0.116 C 
BRANCH   3   4
ATOM      4  N   UNL     1       2.537  -0.618   0.946  1.00  0.00    -0.352 N 
ATOM      5  O   UNL     1       0.706  -0.488  -0.374  1.00  0.00    -0.269 OA
ATOM      6  C   UNL     1       1.937  -0.467  -0.277  1.00  0.00     0.251 C 
ATOM      7  H   UNL     1       1.959  -0.943   1.673  1.00  0.00     0.163 HD
BRANCH   6   8
ATOM      8  C   UNL     1       2.771  -0.281  -1.482  1.00  0.00     0.039 A 
ATOM      9  C   UNL     1       3.957  -1.005  -1.629  1.00  0.00     0.014 A 
ATOM     10  C   UNL     1       2.355   0.596  -2.488  1.00  0.00     0.014 A 
ATOM     11  C   UNL     1       4.784  -0.770  -2.715  1.00  0.00     0.010 A 
ATOM     12  C   UNL     1       3.132   0.744  -3.639  1.00  0.00     0.010 A 
ATOM     13  C   UNL     1       4.351   0.060  -3.759  1.00  0.00    -0.014 A 
BRANCH  13  14
ATOM     14  C   UNL     1       5.125   0.067  -5.023  1.00  0.00     0.031 A 
ATOM     15  C   UNL     1       5.783   1.311  -5.533  1.00  0.00     0.074 A 
ATOM     16  C   UNL     1       5.230  -1.095  -5.698  1.00  0.00     0.049 A 
ATOM     17  N   UNL     1       6.480   1.482  -6.628  1.00  0.00    -0.248 NA
ATOM     18  C   UNL     1       5.636   2.526  -4.718  1.00  0.00     0.031 C 
ATOM     19  C   UNL     1       4.615  -2.363  -5.289  1.00  0.00     0.029 A 
ATOM     20  N   UNL     1       5.898  -1.413  -6.851  1.00  0.00    -0.354 N 
ATOM     21  C   UNL     1       6.838   2.822  -6.645  1.00  0.00     0.074 A 
ATOM     22  C   UNL     1       6.262   3.428  -5.463  1.00  0.00     0.031 C 
ATOM     23  C   UNL     1       4.979  -3.328  -6.142  1.00  0.00     0.029 A 
ATOM     24  C   UNL     1       5.777  -2.734  -7.205  1.00  0.00     0.049 A 
ATOM     25  H   UNL     1       6.414  -0.757  -7.374  1.00  0.00     0.167 HD
ATOM     26  C   UNL     1       7.585   3.477  -7.568  1.00  0.00     0.037 A 
ATOM     27  C   UNL     1       6.233  -3.392  -8.285  1.00  0.00     0.037 A 
ATOM     28  C   UNL     1       8.151   2.852  -8.737  1.00  0.00     0.049 A 
ATOM     29  C   UNL     1       7.019  -2.627  -9.309  1.00  0.00     0.074 A 
ATOM     30  C   UNL     1       8.943   3.418  -9.721  1.00  0.00     0.029 A 
ATOM     31  N   UNL     1       7.979   1.518  -9.085  1.00  0.00    -0.354 N 
ATOM     32  N   UNL     1       7.375  -1.366  -9.303  1.00  0.00    -0.248 NA
ATOM     33  C   UNL     1       7.461  -3.374 -10.491  1.00  0.00     0.031 C 
ATOM     34  C   UNL     1       9.201   2.444 -10.691  1.00  0.00     0.029 A 
ATOM     35  C   UNL     1       8.627   1.251 -10.282  1.00  0.00     0.049 A 
ATOM     36  H   UNL     1       7.472   0.858  -8.558  1.00  0.00     0.167 HD
ATOM     37  C   UNL     1       8.100  -1.170 -10.468  1.00  0.00     0.074 A 
ATOM     38  C   UNL     1       8.151  -2.451 -11.145  1.00  0.00     0.031 C 
ATOM     39  C   UNL     1       8.668  -0.033 -10.937  1.00  0.00     0.037 A 
BRANCH  26  40
ATOM     40  C   UNL     1       7.810   4.949  -7.368  1.00  0.00     0.064 A 
ATOM     41  C   UNL     1       8.627   5.440  -6.338  1.00  0.00     0.173 A 
ATOM     42  C   UNL     1       7.237   5.881  -8.248  1.00  0.00     0.173 A 
ATOM     43  F   UNL     1       9.192   4.596  -5.462  1.00  0.00    -0.203 F 
ATOM     44  C   UNL     1       8.841   6.808  -6.182  1.00  0.00     0.198 A 
ATOM     45  C   UNL     1       7.477   7.245  -8.107  1.00  0.00     0.198 A 
ATOM     46  F   UNL     1       6.451   5.467  -9.253  1.00  0.00    -0.203 F 
ATOM     47  F   UNL     1       9.587   7.256  -5.163  1.00  0.00    -0.200 F 
ATOM     48  C   UNL     1       8.272   7.709  -7.071  1.00  0.00     0.200 A 
ATOM     49  F   UNL     1       6.938   8.112  -8.975  1.00  0.00    -0.200 F 
ATOM     50  F   UNL     1       8.486   9.024  -6.924  1.00  0.00    -0.200 F 
ENDBRANCH  26  40
BRANCH  27  51
ATOM     51  C   UNL     1       5.939  -4.839  -8.451  1.00  0.00     0.064 A 
ATOM     52  C   UNL     1       6.962  -5.794  -8.399  1.00  0.00     0.173 A 
ATOM     53  C   UNL     1       4.627  -5.298  -8.649  1.00  0.00     0.173 A 
ATOM     54  F   UNL     1       8.234  -5.405  -8.226  1.00  0.00    -0.203 F 
ATOM     55  C   UNL     1       6.688  -7.151  -8.559  1.00  0.00     0.198 A 
ATOM     56  C   UNL     1       4.350  -6.657  -8.773  1.00  0.00     0.198 A 
ATOM     57  F   UNL     1       3.610  -4.426  -8.697  1.00  0.00    -0.203 F 
ATOM     58  F   UNL     1       7.691  -8.040  -8.551  1.00  0.00    -0.200 F 
ATOM     59  C   UNL     1       5.382  -7.582  -8.738  1.00  0.00     0.200 A 
ATOM     60  F   UNL     1       3.084  -7.069  -8.924  1.00  0.00    -0.200 F 
ATOM     61  F   UNL     1       5.118  -8.887  -8.883  1.00  0.00    -0.200 F 
ENDBRANCH  27  51
BRANCH  39  62
ATOM     62  C   UNL     1       9.427  -0.137 -12.228  1.00  0.00     0.064 A 
ATOM     63  C   UNL     1       8.775  -0.337 -13.454  1.00  0.00     0.173 A 
ATOM     64  C   UNL     1      10.824  -0.016 -12.238  1.00  0.00     0.173 A 
ATOM     65  F   UNL     1       7.441  -0.480 -13.495  1.00  0.00    -0.203 F 
ATOM     66  C   UNL     1       9.498  -0.442 -14.639  1.00  0.00     0.198 A 
ATOM     67  C   UNL     1      11.541  -0.086 -13.428  1.00  0.00     0.198 A 
ATOM     68  F   UNL     1      11.495   0.180 -11.092  1.00  0.00    -0.203 F 
ATOM     69  F   UNL     1       8.860  -0.691 -15.790  1.00  0.00    -0.200 F 
ATOM     70  C   UNL     1      10.878  -0.308 -14.626  1.00  0.00     0.200 A 
ATOM     71  F   UNL     1      12.873   0.058 -13.416  1.00  0.00    -0.200 F 
ATOM     72  F   UNL     1      11.572  -0.404 -15.768  1.00  0.00    -0.200 F 
ENDBRANCH  39  62
ENDBRANCH  13  14
ENDBRANCH   6   8
ENDBRANCH   3   4
ENDBRANCH   2   3
ENDBRANCH   1   2
BRANCH   1  73
ATOM     73  C   UNL     1       4.404  -1.196   4.383  1.00  0.00     0.116 C 
BRANCH  73  74
ATOM     74  N   UNL     1       5.848  -1.068   4.546  1.00  0.00    -0.356 N 
ATOM     75  C   UNL     1       6.696  -0.656   5.543  1.00  0.00     0.226 C 
ATOM     76  H   UNL     1       6.337  -1.346   3.737  1.00  0.00     0.163 HD
ATOM     77  O   UNL     1       7.889  -0.952   5.380  1.00  0.00    -0.274 OA
BRANCH  75  78
ATOM     78  C   UNL     1       6.231   0.018   6.864  1.00  0.00     0.050 C 
ATOM     79  C   UNL     1       5.923  -1.200   7.783  1.00  0.00     0.017 C 
ATOM     80  C   UNL     1       7.372   0.813   7.570  1.00  0.00     0.017 C 
ATOM     81  C   UNL     1       5.628  -0.875   9.245  1.00  0.00     0.001 C 
ATOM     82  C   UNL     1       6.969   1.267   8.984  1.00  0.00     0.001 C 
ATOM     83  C   UNL     1       6.641   0.076   9.874  1.00  0.00     0.000 C 
BRANCH  78  84
ATOM     84  C   UNL     1       5.044   0.991   6.671  1.00  0.00     0.023 C 
BRANCH  84  85
ATOM     85  C   UNL     1       5.287   2.374   5.971  1.00  0.00     0.057 C 
BRANCH  85  86
ATOM     86  C   UNL     1       6.073   2.552   4.682  1.00  0.00     0.040 A 
ATOM     87  C   UNL     1       6.043   3.757   3.985  1.00  0.00     0.024 A 
ATOM     88  N   UNL     1       6.843   1.549   4.237  1.00  0.00    -0.261 NA
ATOM     89  C   UNL     1       6.771   3.887   2.795  1.00  0.00     0.003 A 
ATOM     90  C   UNL     1       7.541   1.679   3.085  1.00  0.00     0.111 A 
ATOM     91  C   UNL     1       7.523   2.821   2.321  1.00  0.00     0.020 A 
ENDBRANCH  85  86
ENDBRANCH  84  85
ENDBRANCH  78  84
ENDBRANCH  75  78
ENDBRANCH  73  74
ENDBRANCH   1  73
TORSDOF 14
