REMARK SMILES O=C(NCCCCNC(=O)[C@H]1CCc2[nH]nc(C(F)(F)F)c2C1)c1ccc(-c2c3nc(c(-c4c(F)c(F)c(F)c(F)c4F)c4ccc([nH]4)c(-c4c(F)c(F)c(F)c(F)c4F)c4nc(c(-c5c(F)c(F)c(F)c(F)c5F)c5ccc2[nH]5)C=C4)C=C3)cc1
REMARK SMILES IDX 5 1 4 2 3 3 1 4 2 5 24 7 25 8 86 9 26 10 85 11 27 12 28 13
REMARK SMILES IDX 29 14 79 15 30 16 84 17 78 18 80 19 31 20 83 21 77 22 76 23
REMARK SMILES IDX 32 25 64 26 44 27 63 28 45 29 48 30 62 31 81 32 46 33 47 34
REMARK SMILES IDX 61 36 82 37 49 38 33 39 34 40 42 41 35 42 36 43 40 44 43 45
REMARK SMILES IDX 37 46 38 47 41 48 39 49 65 50 66 51 74 52 67 53 68 54 72 55
REMARK SMILES IDX 75 56 69 57 70 58 73 59 71 60 50 61 51 62 59 63 52 64 53 65
REMARK SMILES IDX 57 66 60 67 54 68 55 69 58 70 56 71 6 72 7 73 8 74 9 75
REMARK SMILES IDX 10 77 11 78 12 79 23 80 13 81 22 82 14 83 17 84 15 85 16 86
REMARK SMILES IDX 18 88 19 89 20 90 21 91
REMARK H PARENT 3 6 80 24 48 35 8 76 15 87
REMARK Flexibility Score: inf
ROOT
ATOM      1  C   UNL     1       4.069  -0.417  -2.266  1.00  0.00     0.023 C 
ENDROOT
BRANCH   1   2
ATOM      2  C   UNL     1       3.480  -1.760  -1.853  1.00  0.00     0.116 C 
BRANCH   2   3
ATOM      3  N   UNL     1       4.240  -2.403  -0.794  1.00  0.00    -0.352 N 
ATOM      4  O   UNL     1       4.572  -3.362   1.220  1.00  0.00    -0.269 OA
ATOM      5  C   UNL     1       3.782  -2.989   0.359  1.00  0.00     0.251 C 
ATOM      6  H   UNL     1       5.216  -2.420  -0.922  1.00  0.00     0.163 HD
BRANCH   5   7
ATOM      7  C   UNL     1       2.328  -3.145   0.572  1.00  0.00     0.039 A 
ATOM      8  C   UNL     1       1.508  -3.646  -0.442  1.00  0.00     0.014 A 
ATOM      9  C   UNL     1       1.781  -2.789   1.809  1.00  0.00     0.014 A 
ATOM     10  C   UNL     1       0.129  -3.677  -0.262  1.00  0.00     0.010 A 
ATOM     11  C   UNL     1       0.403  -2.893   2.014  1.00  0.00     0.010 A 
ATOM     12  C   UNL     1      -0.436  -3.315   0.972  1.00  0.00    -0.014 A 
BRANCH  12  13
ATOM     13  C   UNL     1      -1.900  -3.456   1.171  1.00  0.00     0.031 A 
ATOM     14  C   UNL     1      -2.776  -2.257   1.392  1.00  0.00     0.074 A 
ATOM     15  C   UNL     1      -2.437  -4.691   1.135  1.00  0.00     0.049 A 
ATOM     16  N   UNL     1      -4.072  -2.206   1.575  1.00  0.00    -0.248 NA
ATOM     17  C   UNL     1      -2.115  -0.944   1.422  1.00  0.00     0.031 C 
ATOM     18  C   UNL     1      -1.679  -5.930   0.947  1.00  0.00     0.029 A 
ATOM     19  N   UNL     1      -3.738  -5.109   1.244  1.00  0.00    -0.354 N 
ATOM     20  C   UNL     1      -4.379  -0.864   1.759  1.00  0.00     0.074 A 
ATOM     21  C   UNL     1      -3.131  -0.134   1.689  1.00  0.00     0.031 C 
ATOM     22  C   UNL     1      -2.530  -6.965   0.915  1.00  0.00     0.029 A 
ATOM     23  C   UNL     1      -3.884  -6.470   1.138  1.00  0.00     0.049 A 
ATOM     24  H   UNL     1      -4.493  -4.494   1.383  1.00  0.00     0.167 HD
ATOM     25  C   UNL     1      -5.594  -0.299   1.961  1.00  0.00     0.037 A 
ATOM     26  C   UNL     1      -4.984  -7.239   1.227  1.00  0.00     0.037 A 
ATOM     27  C   UNL     1      -6.834  -1.032   2.011  1.00  0.00     0.049 A 
ATOM     28  C   UNL     1      -6.315  -6.584   1.460  1.00  0.00     0.074 A 
ATOM     29  C   UNL     1      -8.120  -0.542   2.161  1.00  0.00     0.029 A 
ATOM     30  N   UNL     1      -6.941  -2.412   1.917  1.00  0.00    -0.354 N 
ATOM     31  N   UNL     1      -6.597  -5.311   1.590  1.00  0.00    -0.248 NA
ATOM     32  C   UNL     1      -7.480  -7.473   1.560  1.00  0.00     0.031 C 
ATOM     33  C   UNL     1      -9.001  -1.629   2.206  1.00  0.00     0.029 A 
ATOM     34  C   UNL     1      -8.270  -2.793   2.032  1.00  0.00     0.049 A 
ATOM     35  H   UNL     1      -6.186  -3.030   1.787  1.00  0.00     0.167 HD
ATOM     36  C   UNL     1      -7.970  -5.242   1.774  1.00  0.00     0.074 A 
ATOM     37  C   UNL     1      -8.467  -6.602   1.716  1.00  0.00     0.031 C 
ATOM     38  C   UNL     1      -8.747  -4.151   1.977  1.00  0.00     0.037 A 
BRANCH  25  39
ATOM     39  C   UNL     1      -5.649   1.189   2.161  1.00  0.00     0.064 A 
ATOM     40  C   UNL     1      -5.437   2.085   1.103  1.00  0.00     0.173 A 
ATOM     41  C   UNL     1      -5.979   1.723   3.416  1.00  0.00     0.173 A 
ATOM     42  F   UNL     1      -5.109   1.626  -0.115  1.00  0.00    -0.203 F 
ATOM     43  C   UNL     1      -5.533   3.461   1.299  1.00  0.00     0.198 A 
ATOM     44  C   UNL     1      -6.100   3.098   3.603  1.00  0.00     0.198 A 
ATOM     45  F   UNL     1      -6.199   0.910   4.460  1.00  0.00    -0.203 F 
ATOM     46  F   UNL     1      -5.290   4.300   0.282  1.00  0.00    -0.200 F 
ATOM     47  C   UNL     1      -5.872   3.966   2.546  1.00  0.00     0.200 A 
ATOM     48  F   UNL     1      -6.440   3.583   4.805  1.00  0.00    -0.200 F 
ATOM     49  F   UNL     1      -5.975   5.289   2.729  1.00  0.00    -0.200 F 
ENDBRANCH  25  39
BRANCH  26  50
ATOM     50  C   UNL     1      -4.861  -8.713   1.096  1.00  0.00     0.064 A 
ATOM     51  C   UNL     1      -5.362  -9.383  -0.027  1.00  0.00     0.173 A 
ATOM     52  C   UNL     1      -4.213  -9.476   2.079  1.00  0.00     0.173 A 
ATOM     53  F   UNL     1      -6.003  -8.697  -0.985  1.00  0.00    -0.203 F 
ATOM     54  C   UNL     1      -5.230 -10.763  -0.158  1.00  0.00     0.198 A 
ATOM     55  C   UNL     1      -4.056 -10.852   1.934  1.00  0.00     0.198 A 
ATOM     56  F   UNL     1      -3.710  -8.879   3.170  1.00  0.00    -0.203 F 
ATOM     57  F   UNL     1      -5.749 -11.385  -1.225  1.00  0.00    -0.200 F 
ATOM     58  C   UNL     1      -4.571 -11.495   0.819  1.00  0.00     0.200 A 
ATOM     59  F   UNL     1      -3.402 -11.552   2.870  1.00  0.00    -0.200 F 
ATOM     60  F   UNL     1      -4.433 -12.822   0.686  1.00  0.00    -0.200 F 
ENDBRANCH  26  50
BRANCH  38  61
ATOM     61  C   UNL     1     -10.221  -4.385   2.132  1.00  0.00     0.064 A 
ATOM     62  C   UNL     1     -10.754  -4.963   3.293  1.00  0.00     0.173 A 
ATOM     63  C   UNL     1     -11.112  -4.002   1.118  1.00  0.00     0.173 A 
ATOM     64  F   UNL     1      -9.940  -5.363   4.283  1.00  0.00    -0.203 F 
ATOM     65  C   UNL     1     -12.124  -5.174   3.423  1.00  0.00     0.198 A 
ATOM     66  C   UNL     1     -12.483  -4.188   1.263  1.00  0.00     0.198 A 
ATOM     67  F   UNL     1     -10.652  -3.440  -0.010  1.00  0.00    -0.203 F 
ATOM     68  F   UNL     1     -12.607  -5.774   4.519  1.00  0.00    -0.200 F 
ATOM     69  C   UNL     1     -12.987  -4.781   2.411  1.00  0.00     0.200 A 
ATOM     70  F   UNL     1     -13.318  -3.797   0.290  1.00  0.00    -0.200 F 
ATOM     71  F   UNL     1     -14.306  -4.982   2.539  1.00  0.00    -0.200 F 
ENDBRANCH  38  61
ENDBRANCH  12  13
ENDBRANCH   5   7
ENDBRANCH   2   3
ENDBRANCH   1   2
BRANCH   1  72
ATOM     72  C   UNL     1       5.493  -0.475  -2.834  1.00  0.00     0.023 C 
BRANCH  72  73
ATOM     73  C   UNL     1       5.683  -1.482  -3.971  1.00  0.00     0.116 C 
BRANCH  73  74
ATOM     74  N   UNL     1       4.740  -1.220  -5.038  1.00  0.00    -0.356 N 
ATOM     75  C   UNL     1       4.904  -0.452  -6.149  1.00  0.00     0.223 C 
ATOM     76  H   UNL     1       3.861  -1.655  -4.947  1.00  0.00     0.163 HD
ATOM     77  O   UNL     1       3.885  -0.022  -6.687  1.00  0.00    -0.275 OA
BRANCH  75  78
ATOM     78  C   UNL     1       6.308  -0.245  -6.711  1.00  0.00     0.083 C 
ATOM     79  C   UNL     1       6.756  -1.532  -7.457  1.00  0.00     0.020 C 
ATOM     80  C   UNL     1       6.357   0.989  -7.642  1.00  0.00     0.053 C 
ATOM     81  C   UNL     1       5.899  -1.852  -8.705  1.00  0.00     0.057 C 
ATOM     82  C   UNL     1       5.728   0.688  -8.956  1.00  0.00     0.006 A 
ATOM     83  C   UNL     1       5.553  -0.597  -9.415  1.00  0.00     0.039 A 
ATOM     84  C   UNL     1       5.109   1.524  -9.924  1.00  0.00     0.169 A 
ATOM     85  N   UNL     1       4.860  -0.495 -10.580  1.00  0.00    -0.282 N 
ATOM     86  N   UNL     1       4.614   0.779 -10.938  1.00  0.00    -0.171 NA
ATOM     87  H   UNL     1       4.568  -1.273 -11.108  1.00  0.00     0.190 HD
BRANCH  84  88
ATOM     88  C   UNL     1       4.958   3.024  -9.865  1.00  0.00     0.435 C 
ATOM     89  F   UNL     1       5.283   3.634 -11.037  1.00  0.00    -0.164 F 
ATOM     90  F   UNL     1       3.690   3.408  -9.557  1.00  0.00    -0.164 F 
ATOM     91  F   UNL     1       5.764   3.584  -8.916  1.00  0.00    -0.164 F 
ENDBRANCH  84  88
ENDBRANCH  75  78
ENDBRANCH  73  74
ENDBRANCH  72  73
ENDBRANCH   1  72
TORSDOF 12
