REMARK SMILES COc1cccc(/C=C2/C(=O)N(c3cccc(C(=O)NCCCCNC(=O)c4ccc(-c5c6nc(c(-c7c(F)c(F)c(F)c(F)c7F)c7ccc([nH]7)c(-c7c(F)c(F)c(F)c(F)c7F)c7nc(c(-c8c(F)c(F)c(F)c(F)c8F)c8ccc5[nH]8)C=C7)C=C6)cc4)c3)N=C2C)c1
REMARK SMILES IDX 22 1 21 2 20 3 18 4 19 5 17 7 13 8 14 9 91 10 15 11 16 12
REMARK SMILES IDX 12 13 8 14 9 15 10 16 93 17 11 18 92 19 94 20 7 21 3 22 4 23
REMARK SMILES IDX 95 24 5 25 6 26 2 27 1 28 23 29 24 30 25 31 26 32 27 34
REMARK SMILES IDX 28 35 29 36 90 37 30 38 89 39 31 40 32 41 33 42 83 43 34 44
REMARK SMILES IDX 88 45 82 46 84 47 35 48 87 49 81 50 80 51 36 53 68 54 48 55
REMARK SMILES IDX 67 56 49 57 52 58 66 59 85 60 50 61 51 62 65 64 86 65 53 66
REMARK SMILES IDX 37 67 38 68 46 69 39 70 40 71 44 72 47 73 41 74 42 75 45 76
REMARK SMILES IDX 43 77 69 78 70 79 78 80 71 81 72 82 76 83 79 84 73 85 74 86
REMARK SMILES IDX 77 87 75 88 54 89 55 90 63 91 56 92 57 93 61 94 64 95 58 96
REMARK SMILES IDX 59 97 62 98 60 99
REMARK H PARENT 20 6 25 33 84 52 52 63
REMARK Flexibility Score: inf
ROOT
ATOM      1  C   UNL     1       9.051  -0.098   0.906  1.00  0.00     0.023 C 
ENDROOT
BRANCH   1   2
ATOM      2  C   UNL     1       9.425   1.091   0.029  1.00  0.00     0.116 C 
BRANCH   2   3
ATOM      3  N   UNL     1      10.820   1.129  -0.383  1.00  0.00    -0.352 N 
ATOM      4  C   UNL     1      11.403   1.339  -1.618  1.00  0.00     0.251 C 
ATOM      5  O   UNL     1      12.630   1.315  -1.700  1.00  0.00    -0.269 OA
ATOM      6  H   UNL     1      11.463   0.979   0.348  1.00  0.00     0.163 HD
BRANCH   4   7
ATOM      7  C   UNL     1      10.593   1.495  -2.856  1.00  0.00     0.041 A 
ATOM      8  C   UNL     1       8.449   1.895  -3.900  1.00  0.00     0.069 A 
ATOM      9  C   UNL     1       8.906   1.245  -5.054  1.00  0.00     0.028 A 
ATOM     10  C   UNL     1       9.351   2.132  -2.860  1.00  0.00     0.042 A 
ATOM     11  C   UNL     1      10.228   0.807  -5.146  1.00  0.00     0.003 A 
ATOM     12  C   UNL     1      11.060   0.895  -4.032  1.00  0.00     0.014 A 
BRANCH   8  13
ATOM     13  N   UNL     1       7.070   2.155  -3.721  1.00  0.00    -0.196 N 
ATOM     14  C   UNL     1       4.122   3.271  -2.120  1.00  0.00     0.024 C 
ATOM     15  C   UNL     1       5.049   2.618  -2.833  1.00  0.00     0.065 C 
ATOM     16  C   UNL     1       6.483   2.990  -2.759  1.00  0.00     0.280 C 
ATOM     17  C   UNL     1       5.008   1.505  -3.798  1.00  0.00     0.071 C 
ATOM     18  O   UNL     1       6.965   3.804  -1.996  1.00  0.00    -0.267 OA
ATOM     19  N   UNL     1       6.178   1.280  -4.338  1.00  0.00    -0.169 NA
ATOM     20  C   UNL     1       3.815   0.656  -4.088  1.00  0.00     0.069 C 
BRANCH  14  21
ATOM     21  C   UNL     1       2.688   2.997  -2.144  1.00  0.00    -0.021 A 
ATOM     22  C   UNL     1       0.812   1.581  -1.551  1.00  0.00     0.119 A 
ATOM     23  C   UNL     1      -0.026   2.394  -2.317  1.00  0.00     0.046 A 
ATOM     24  C   UNL     1       2.168   1.893  -1.454  1.00  0.00     0.054 A 
ATOM     25  C   UNL     1       0.477   3.524  -2.963  1.00  0.00     0.004 A 
ATOM     26  C   UNL     1       1.835   3.825  -2.880  1.00  0.00     0.008 A 
BRANCH  22  27
ATOM     27  O   UNL     1       0.209   0.486  -0.998  1.00  0.00    -0.497 OA
ATOM     28  C   UNL     1       0.854  -0.088   0.133  1.00  0.00     0.278 C 
ENDBRANCH  22  27
ENDBRANCH  14  21
ENDBRANCH   8  13
ENDBRANCH   4   7
ENDBRANCH   2   3
ENDBRANCH   1   2
BRANCH   1  29
ATOM     29  C   UNL     1       9.713  -0.162   2.276  1.00  0.00     0.023 C 
BRANCH  29  30
ATOM     30  C   UNL     1       9.606   1.099   3.124  1.00  0.00     0.116 C 
BRANCH  30  31
ATOM     31  N   UNL     1       8.235   1.521   3.379  1.00  0.00    -0.352 N 
ATOM     32  C   UNL     1       7.612   1.799   4.574  1.00  0.00     0.251 C 
ATOM     33  H   UNL     1       7.671   1.623   2.578  1.00  0.00     0.163 HD
ATOM     34  O   UNL     1       6.409   2.038   4.605  1.00  0.00    -0.269 OA
BRANCH  32  35
ATOM     35  C   UNL     1       8.391   1.766   5.830  1.00  0.00     0.039 A 
ATOM     36  C   UNL     1       7.876   1.073   6.929  1.00  0.00     0.014 A 
ATOM     37  C   UNL     1       9.644   2.375   5.909  1.00  0.00     0.014 A 
ATOM     38  C   UNL     1       8.660   0.913   8.073  1.00  0.00     0.010 A 
ATOM     39  C   UNL     1      10.460   2.134   7.010  1.00  0.00     0.010 A 
ATOM     40  C   UNL     1       9.979   1.397   8.103  1.00  0.00    -0.014 A 
BRANCH  40  41
ATOM     41  C   UNL     1      10.873   1.136   9.261  1.00  0.00     0.031 A 
ATOM     42  C   UNL     1      11.428   2.282  10.060  1.00  0.00     0.074 A 
ATOM     43  C   UNL     1      11.243  -0.128   9.549  1.00  0.00     0.049 A 
ATOM     44  N   UNL     1      12.277   2.264  11.057  1.00  0.00    -0.248 NA
ATOM     45  C   UNL     1      10.994   3.632   9.668  1.00  0.00     0.031 C 
ATOM     46  C   UNL     1      10.817  -1.322   8.817  1.00  0.00     0.029 A 
ATOM     47  N   UNL     1      12.072  -0.619  10.527  1.00  0.00    -0.354 N 
ATOM     48  C   UNL     1      12.486   3.593  11.399  1.00  0.00     0.074 A 
ATOM     49  C   UNL     1      11.727   4.395  10.465  1.00  0.00     0.031 C 
ATOM     50  C   UNL     1      11.363  -2.407   9.387  1.00  0.00     0.029 A 
ATOM     51  C   UNL     1      12.215  -1.986  10.495  1.00  0.00     0.049 A 
ATOM     52  H   UNL     1      12.522  -0.046  11.190  1.00  0.00     0.167 HD
ATOM     53  C   UNL     1      13.223   4.099  12.417  1.00  0.00     0.037 A 
ATOM     54  C   UNL     1      12.958  -2.805  11.264  1.00  0.00     0.037 A 
ATOM     55  C   UNL     1      13.963   3.296  13.355  1.00  0.00     0.049 A 
ATOM     56  C   UNL     1      13.787  -2.216  12.375  1.00  0.00     0.074 A 
ATOM     57  C   UNL     1      14.693   3.708  14.455  1.00  0.00     0.029 A 
ATOM     58  N   UNL     1      14.076   1.914  13.295  1.00  0.00    -0.354 N 
ATOM     59  N   UNL     1      13.915  -0.962  12.738  1.00  0.00    -0.248 NA
ATOM     60  C   UNL     1      14.570  -3.157  13.188  1.00  0.00     0.031 C 
ATOM     61  C   UNL     1      15.299   2.584  15.025  1.00  0.00     0.029 A 
ATOM     62  C   UNL     1      14.889   1.462  14.322  1.00  0.00     0.049 A 
ATOM     63  H   UNL     1      13.643   1.340  12.623  1.00  0.00     0.167 HD
ATOM     64  C   UNL     1      14.763  -0.967  13.837  1.00  0.00     0.074 A 
ATOM     65  C   UNL     1      15.106  -2.351  14.092  1.00  0.00     0.031 C 
ATOM     66  C   UNL     1      15.216   0.080  14.570  1.00  0.00     0.037 A 
BRANCH  53  67
ATOM     67  C   UNL     1      13.265   5.593  12.570  1.00  0.00     0.064 A 
ATOM     68  C   UNL     1      12.132   6.330  12.949  1.00  0.00     0.173 A 
ATOM     69  C   UNL     1      14.463   6.296  12.367  1.00  0.00     0.173 A 
ATOM     70  F   UNL     1      10.958   5.710  13.146  1.00  0.00    -0.203 F 
ATOM     71  C   UNL     1      12.187   7.714  13.085  1.00  0.00     0.198 A 
ATOM     72  C   UNL     1      14.523   7.676  12.540  1.00  0.00     0.198 A 
ATOM     73  F   UNL     1      15.579   5.643  12.010  1.00  0.00    -0.203 F 
ATOM     74  F   UNL     1      11.078   8.401  13.392  1.00  0.00    -0.200 F 
ATOM     75  C   UNL     1      13.384   8.385  12.889  1.00  0.00     0.200 A 
ATOM     76  F   UNL     1      15.685   8.321  12.366  1.00  0.00    -0.200 F 
ATOM     77  F   UNL     1      13.439   9.717  13.029  1.00  0.00    -0.200 F 
ENDBRANCH  53  67
BRANCH  54  78
ATOM     78  C   UNL     1      12.942  -4.273  11.023  1.00  0.00     0.064 A 
ATOM     79  C   UNL     1      12.380  -5.152  11.961  1.00  0.00     0.173 A 
ATOM     80  C   UNL     1      13.496  -4.830   9.861  1.00  0.00     0.173 A 
ATOM     81  F   UNL     1      11.855  -4.671  13.098  1.00  0.00    -0.203 F 
ATOM     82  C   UNL     1      12.397  -6.530  11.759  1.00  0.00     0.198 A 
ATOM     83  C   UNL     1      13.482  -6.207   9.644  1.00  0.00     0.198 A 
ATOM     84  F   UNL     1      14.041  -4.036   8.929  1.00  0.00    -0.203 F 
ATOM     85  F   UNL     1      11.902  -7.349  12.697  1.00  0.00    -0.200 F 
ATOM     86  C   UNL     1      12.942  -7.057  10.598  1.00  0.00     0.200 A 
ATOM     87  F   UNL     1      13.994  -6.710   8.513  1.00  0.00    -0.200 F 
ATOM     88  F   UNL     1      12.954  -8.382  10.401  1.00  0.00    -0.200 F 
ENDBRANCH  54  78
BRANCH  66  89
ATOM     89  C   UNL     1      16.099  -0.229  15.746  1.00  0.00     0.064 A 
ATOM     90  C   UNL     1      17.409  -0.704  15.586  1.00  0.00     0.173 A 
ATOM     91  C   UNL     1      15.639  -0.004  17.054  1.00  0.00     0.173 A 
ATOM     92  F   UNL     1      17.893  -0.950  14.359  1.00  0.00    -0.203 F 
ATOM     93  C   UNL     1      18.214  -0.970  16.691  1.00  0.00     0.198 A 
ATOM     94  C   UNL     1      16.460  -0.236  18.154  1.00  0.00     0.198 A 
ATOM     95  F   UNL     1      14.397   0.458  17.264  1.00  0.00    -0.203 F 
ATOM     96  F   UNL     1      19.443  -1.475  16.515  1.00  0.00    -0.200 F 
ATOM     97  C   UNL     1      17.743  -0.727  17.972  1.00  0.00     0.200 A 
ATOM     98  F   UNL     1      16.008   0.018  19.390  1.00  0.00    -0.200 F 
ATOM     99  F   UNL     1      18.524  -0.973  19.033  1.00  0.00    -0.200 F 
ENDBRANCH  66  89
ENDBRANCH  40  41
ENDBRANCH  32  35
ENDBRANCH  30  31
ENDBRANCH  29  30
ENDBRANCH   1  29
TORSDOF 14
