REMARK SMILES Cc1cc(C(=O)N[C@@H](C)C(=O)NCCCCNC(=O)c2ccc(-c3c4nc(c(-c5c(F)c(F)c(F)c(F)c5F)c5ccc([nH]5)c(-c5c(F)c(F)c(F)c(F)c5F)c5nc(c(-c6c(F)c(F)c(F)c(F)c6F)c6ccc3[nH]6)C=C5)C=C4)cc2)cc(C)c1OC(F)F
REMARK SMILES IDX 13 1 12 2 10 3 11 4 8 6 9 7 7 8 5 9 6 10 4 12 1 13 2 14 3 15
REMARK SMILES IDX 86 16 84 17 83 18 85 19 87 20 88 21 89 22 90 23 14 24 15 25
REMARK SMILES IDX 16 26 17 27 18 28 19 30 20 31 21 32 82 33 22 34 81 35 23 36
REMARK SMILES IDX 24 37 25 38 75 39 26 40 80 41 74 42 76 43 27 44 79 45 73 46
REMARK SMILES IDX 72 47 28 49 60 50 40 51 59 52 41 53 44 54 58 55 77 56 42 57
REMARK SMILES IDX 43 58 57 60 78 61 45 62 29 63 30 64 38 65 31 66 32 67 36 68
REMARK SMILES IDX 39 69 33 70 34 71 37 72 35 73 61 74 62 75 70 76 63 77 64 78
REMARK SMILES IDX 68 79 71 80 65 81 66 82 69 83 67 84 46 85 47 86 55 87 48 88
REMARK SMILES IDX 49 89 53 90 56 91 50 92 51 93 54 94 52 95
REMARK H PARENT 12 5 7 11 17 29 76 48 44 59
REMARK Flexibility Score: inf
ROOT
ATOM      1  C   UNL     1      -6.658  -0.328  -0.320  1.00  0.00     0.116 C 
ENDROOT
BRANCH   1   2
ATOM      2  N   UNL     1      -5.821  -1.313  -0.977  1.00  0.00    -0.354 N 
ATOM      3  C   UNL     1      -4.613  -1.839  -0.612  1.00  0.00     0.242 C 
ATOM      4  O   UNL     1      -4.170  -2.775  -1.284  1.00  0.00    -0.273 OA
ATOM      5  H   UNL     1      -6.181  -1.659  -1.826  1.00  0.00     0.163 HD
BRANCH   3   6
ATOM      6  C   UNL     1      -3.823  -1.300   0.599  1.00  0.00     0.168 C 
ATOM      7  C   UNL     1      -4.520  -1.549   1.930  1.00  0.00     0.041 C 
BRANCH   6   8
ATOM      8  N   UNL     1      -3.500   0.104   0.346  1.00  0.00    -0.341 N 
ATOM      9  C   UNL     1      -2.389   0.723  -0.172  1.00  0.00     0.251 C 
ATOM     10  O   UNL     1      -2.499   1.914  -0.466  1.00  0.00    -0.269 OA
ATOM     11  H   UNL     1      -4.220   0.728   0.596  1.00  0.00     0.164 HD
BRANCH   9  12
ATOM     12  C   UNL     1      -1.054   0.073  -0.273  1.00  0.00     0.040 A 
ATOM     13  C   UNL     1       2.432   1.406   0.328  1.00  0.00     0.048 C 
ATOM     14  C   UNL     1       1.381   0.369   0.045  1.00  0.00    -0.008 A 
ATOM     15  C   UNL     1       0.064   0.883  -0.039  1.00  0.00     0.021 A 
ATOM     16  C   UNL     1       1.551  -1.023  -0.033  1.00  0.00     0.131 A 
ATOM     17  C   UNL     1       0.437  -1.834  -0.370  1.00  0.00    -0.008 A 
ATOM     18  C   UNL     1      -0.838  -1.267  -0.547  1.00  0.00     0.021 A 
ATOM     19  C   UNL     1       0.532  -3.339  -0.451  1.00  0.00     0.048 C 
BRANCH  16  20
ATOM     20  O   UNL     1       2.654  -1.757   0.294  1.00  0.00    -0.434 OA
BRANCH  20  21
ATOM     21  C   UNL     1       3.969  -1.312   0.029  1.00  0.00     0.542 C 
ATOM     22  F   UNL     1       4.033  -0.647  -1.146  1.00  0.00    -0.167 F 
ATOM     23  F   UNL     1       4.381  -0.501   1.031  1.00  0.00    -0.167 F 
ENDBRANCH  20  21
ENDBRANCH  16  20
ENDBRANCH   9  12
ENDBRANCH   6   8
ENDBRANCH   3   6
ENDBRANCH   1   2
BRANCH   1  24
ATOM     24  C   UNL     1      -7.067   0.822  -1.234  1.00  0.00     0.023 C 
BRANCH  24  25
ATOM     25  C   UNL     1      -7.968   0.441  -2.406  1.00  0.00     0.023 C 
BRANCH  25  26
ATOM     26  C   UNL     1      -9.200  -0.385  -2.051  1.00  0.00     0.116 C 
BRANCH  26  27
ATOM     27  N   UNL     1     -10.061   0.246  -1.062  1.00  0.00    -0.352 N 
ATOM     28  C   UNL     1     -11.432   0.366  -1.062  1.00  0.00     0.251 C 
ATOM     29  H   UNL     1      -9.600   0.641  -0.287  1.00  0.00     0.163 HD
ATOM     30  O   UNL     1     -12.005   0.999  -0.185  1.00  0.00    -0.269 OA
BRANCH  28  31
ATOM     31  C   UNL     1     -12.206  -0.247  -2.160  1.00  0.00     0.039 A 
ATOM     32  C   UNL     1     -13.108   0.546  -2.874  1.00  0.00     0.014 A 
ATOM     33  C   UNL     1     -11.996  -1.581  -2.516  1.00  0.00     0.014 A 
ATOM     34  C   UNL     1     -13.738   0.024  -4.006  1.00  0.00     0.010 A 
ATOM     35  C   UNL     1     -12.572  -2.077  -3.679  1.00  0.00     0.010 A 
ATOM     36  C   UNL     1     -13.439  -1.276  -4.441  1.00  0.00    -0.014 A 
BRANCH  36  37
ATOM     37  C   UNL     1     -14.004  -1.831  -5.695  1.00  0.00     0.031 A 
ATOM     38  C   UNL     1     -14.908  -3.027  -5.638  1.00  0.00     0.074 A 
ATOM     39  C   UNL     1     -13.605  -1.339  -6.884  1.00  0.00     0.049 A 
ATOM     40  N   UNL     1     -15.363  -3.771  -6.613  1.00  0.00    -0.248 NA
ATOM     41  C   UNL     1     -15.323  -3.469  -4.297  1.00  0.00     0.031 C 
ATOM     42  C   UNL     1     -12.690  -0.213  -7.070  1.00  0.00     0.029 A 
ATOM     43  N   UNL     1     -13.894  -1.748  -8.162  1.00  0.00    -0.354 N 
ATOM     44  C   UNL     1     -16.083  -4.789  -6.003  1.00  0.00     0.074 A 
ATOM     45  C   UNL     1     -15.978  -4.587  -4.574  1.00  0.00     0.031 C 
ATOM     46  C   UNL     1     -12.489  -0.023  -8.383  1.00  0.00     0.029 A 
ATOM     47  C   UNL     1     -13.229  -1.036  -9.130  1.00  0.00     0.049 A 
ATOM     48  H   UNL     1     -14.519  -2.481  -8.366  1.00  0.00     0.167 HD
ATOM     49  C   UNL     1     -16.778  -5.794  -6.586  1.00  0.00     0.037 A 
ATOM     50  C   UNL     1     -13.201  -1.196 -10.467  1.00  0.00     0.037 A 
ATOM     51  C   UNL     1     -16.919  -5.959  -8.008  1.00  0.00     0.049 A 
ATOM     52  C   UNL     1     -14.010  -2.297 -11.095  1.00  0.00     0.074 A 
ATOM     53  C   UNL     1     -17.684  -6.884  -8.697  1.00  0.00     0.029 A 
ATOM     54  N   UNL     1     -16.279  -5.179  -8.960  1.00  0.00    -0.354 N 
ATOM     55  N   UNL     1     -14.748  -3.212 -10.514  1.00  0.00    -0.248 NA
ATOM     56  C   UNL     1     -13.987  -2.388 -12.562  1.00  0.00     0.031 C 
ATOM     57  C   UNL     1     -17.476  -6.688 -10.066  1.00  0.00     0.029 A 
ATOM     58  C   UNL     1     -16.614  -5.616 -10.230  1.00  0.00     0.049 A 
ATOM     59  H   UNL     1     -15.675  -4.427  -8.761  1.00  0.00     0.167 HD
ATOM     60  C   UNL     1     -15.295  -3.970 -11.539  1.00  0.00     0.074 A 
ATOM     61  C   UNL     1     -14.808  -3.406 -12.781  1.00  0.00     0.031 C 
ATOM     62  C   UNL     1     -16.128  -5.035 -11.457  1.00  0.00     0.037 A 
BRANCH  49  63
ATOM     63  C   UNL     1     -17.434  -6.796  -5.683  1.00  0.00     0.064 A 
ATOM     64  C   UNL     1     -18.547  -6.465  -4.897  1.00  0.00     0.173 A 
ATOM     65  C   UNL     1     -16.950  -8.111  -5.616  1.00  0.00     0.173 A 
ATOM     66  F   UNL     1     -19.040  -5.217  -4.916  1.00  0.00    -0.203 F 
ATOM     67  C   UNL     1     -19.131  -7.404  -4.050  1.00  0.00     0.198 A 
ATOM     68  C   UNL     1     -17.554  -9.055  -4.791  1.00  0.00     0.198 A 
ATOM     69  F   UNL     1     -15.890  -8.481  -6.352  1.00  0.00    -0.203 F 
ATOM     70  F   UNL     1     -20.159  -7.049  -3.267  1.00  0.00    -0.200 F 
ATOM     71  C   UNL     1     -18.637  -8.699  -4.002  1.00  0.00     0.200 A 
ATOM     72  F   UNL     1     -17.082 -10.309  -4.753  1.00  0.00    -0.200 F 
ATOM     73  F   UNL     1     -19.200  -9.601  -3.186  1.00  0.00    -0.200 F 
ENDBRANCH  49  63
BRANCH  50  74
ATOM     74  C   UNL     1     -12.383  -0.276 -11.297  1.00  0.00     0.064 A 
ATOM     75  C   UNL     1     -12.990   0.711 -12.085  1.00  0.00     0.173 A 
ATOM     76  C   UNL     1     -10.983  -0.343 -11.296  1.00  0.00     0.173 A 
ATOM     77  F   UNL     1     -14.327   0.801 -12.132  1.00  0.00    -0.203 F 
ATOM     78  C   UNL     1     -12.226   1.593 -12.846  1.00  0.00     0.198 A 
ATOM     79  C   UNL     1     -10.219   0.553 -12.040  1.00  0.00     0.198 A 
ATOM     80  F   UNL     1     -10.356  -1.268 -10.553  1.00  0.00    -0.203 F 
ATOM     81  F   UNL     1     -12.832   2.511 -13.612  1.00  0.00    -0.200 F 
ATOM     82  C   UNL     1     -10.842   1.519 -12.818  1.00  0.00     0.200 A 
ATOM     83  F   UNL     1      -8.882   0.487 -11.999  1.00  0.00    -0.200 F 
ATOM     84  F   UNL     1     -10.108   2.375 -13.541  1.00  0.00    -0.200 F 
ENDBRANCH  50  74
BRANCH  62  85
ATOM     85  C   UNL     1     -16.599  -5.648 -12.741  1.00  0.00     0.064 A 
ATOM     86  C   UNL     1     -15.764  -6.471 -13.509  1.00  0.00     0.173 A 
ATOM     87  C   UNL     1     -17.925  -5.473 -13.163  1.00  0.00     0.173 A 
ATOM     88  F   UNL     1     -14.485  -6.656 -13.152  1.00  0.00    -0.203 F 
ATOM     89  C   UNL     1     -16.240  -7.093 -14.661  1.00  0.00     0.198 A 
ATOM     90  C   UNL     1     -18.404  -6.115 -14.302  1.00  0.00     0.198 A 
ATOM     91  F   UNL     1     -18.763  -4.699 -12.457  1.00  0.00    -0.203 F 
ATOM     92  F   UNL     1     -15.419  -7.857 -15.395  1.00  0.00    -0.200 F 
ATOM     93  C   UNL     1     -17.561  -6.923 -15.050  1.00  0.00     0.200 A 
ATOM     94  F   UNL     1     -19.683  -5.959 -14.670  1.00  0.00    -0.200 F 
ATOM     95  F   UNL     1     -18.021  -7.536 -16.149  1.00  0.00    -0.200 F 
ENDBRANCH  62  85
ENDBRANCH  36  37
ENDBRANCH  28  31
ENDBRANCH  26  27
ENDBRANCH  25  26
ENDBRANCH  24  25
ENDBRANCH   1  24
TORSDOF 15
