REMARK SMILES COC(=O)c1ccc(Cl)c(-c2ccc(C(=O)NCCCCNC(=O)c3ccc(-c4c5nc(c(-c6c(F)c(F)c(F)c(F)c6F)c6ccc([nH]6)c(-c6c(F)c(F)c(F)c(F)c6F)c6nc(c(-c7c(F)c(F)c(F)c(F)c7F)c7ccc4[nH]7)C=C6)C=C5)cc3)c(F)c2)c1
REMARK SMILES IDX 19 1 18 2 17 3 15 4 16 5 14 7 11 8 12 9 90 10 13 11 88 12
REMARK SMILES IDX 89 13 10 14 5 15 6 16 91 17 7 18 8 19 9 20 3 21 4 22 2 23
REMARK SMILES IDX 1 24 20 25 21 26 22 27 23 28 24 30 25 31 26 32 87 33 27 34
REMARK SMILES IDX 86 35 28 36 29 37 30 38 80 39 31 40 85 41 79 42 81 43 32 44
REMARK SMILES IDX 84 45 78 46 77 47 33 49 65 50 45 51 64 52 46 53 49 54 63 55
REMARK SMILES IDX 82 56 47 57 48 58 62 60 83 61 50 62 34 63 35 64 43 65 36 66
REMARK SMILES IDX 37 67 41 68 44 69 38 70 39 71 42 72 40 73 66 74 67 75 75 76
REMARK SMILES IDX 68 77 69 78 73 79 76 80 70 81 71 82 74 83 72 84 51 85 52 86
REMARK SMILES IDX 60 87 53 88 54 89 58 90 61 91 55 92 56 93 59 94 57 95
REMARK H PARENT 17 6 22 29 81 48 49 59
REMARK Flexibility Score: inf
ROOT
ATOM      1  C   UNL     1       5.019   5.878  -9.672  1.00  0.00     0.023 C 
ENDROOT
BRANCH   1   2
ATOM      2  C   UNL     1       5.325   6.676  -8.400  1.00  0.00     0.116 C 
BRANCH   2   3
ATOM      3  N   UNL     1       4.426   7.803  -8.281  1.00  0.00    -0.352 N 
ATOM      4  C   UNL     1       3.232   7.977  -7.637  1.00  0.00     0.254 C 
ATOM      5  O   UNL     1       2.719   9.095  -7.753  1.00  0.00    -0.269 OA
ATOM      6  H   UNL     1       4.736   8.605  -8.760  1.00  0.00     0.163 HD
BRANCH   4   7
ATOM      7  C   UNL     1       2.538   6.966  -6.787  1.00  0.00     0.075 A 
ATOM      8  C   UNL     1       1.012   5.250  -5.098  1.00  0.00    -0.014 A 
ATOM      9  C   UNL     1       0.811   6.632  -5.073  1.00  0.00     0.010 A 
ATOM     10  C   UNL     1       1.981   4.742  -5.966  1.00  0.00     0.048 A 
ATOM     11  C   UNL     1       1.568   7.475  -5.900  1.00  0.00     0.017 A 
ATOM     12  C   UNL     1       2.701   5.583  -6.817  1.00  0.00     0.136 A 
ATOM     13  F   UNL     1       3.490   4.960  -7.695  1.00  0.00    -0.206 F 
BRANCH   8  14
ATOM     14  C   UNL     1       0.200   4.323  -4.301  1.00  0.00     0.001 A 
ATOM     15  C   UNL     1       0.082   2.696  -2.478  1.00  0.00     0.060 A 
ATOM     16  C   UNL     1      -1.224   2.364  -2.852  1.00  0.00     0.017 A 
ATOM     17  C   UNL     1       0.781   3.679  -3.192  1.00  0.00     0.026 A 
ATOM     18  C   UNL     1      -1.824   3.010  -3.934  1.00  0.00     0.022 A 
ATOM     19  C   UNL     1      -1.119   3.978  -4.656  1.00  0.00     0.048 A 
ATOM     20  Cl  UNL     1      -1.915   4.687  -6.020  1.00  0.00    -0.084 Cl
BRANCH  15  21
ATOM     21  C   UNL     1       0.774   2.027  -1.346  1.00  0.00     0.337 C 
ATOM     22  O   UNL     1       1.741   2.499  -0.776  1.00  0.00    -0.246 OA
BRANCH  21  23
ATOM     23  O   UNL     1       0.203   0.822  -1.101  1.00  0.00    -0.465 OA
ATOM     24  C   UNL     1       0.841   0.074  -0.064  1.00  0.00     0.282 C 
ENDBRANCH  21  23
ENDBRANCH  15  21
ENDBRANCH   8  14
ENDBRANCH   4   7
ENDBRANCH   2   3
ENDBRANCH   1   2
BRANCH   1  25
ATOM     25  C   UNL     1       5.662   6.448 -10.937  1.00  0.00     0.023 C 
BRANCH  25  26
ATOM     26  C   UNL     1       7.183   6.474 -10.909  1.00  0.00     0.116 C 
BRANCH  26  27
ATOM     27  N   UNL     1       7.788   5.164 -10.710  1.00  0.00    -0.352 N 
ATOM     28  C   UNL     1       9.004   4.730 -11.184  1.00  0.00     0.251 C 
ATOM     29  H   UNL     1       7.270   4.518 -10.177  1.00  0.00     0.163 HD
ATOM     30  O   UNL     1       9.379   3.574 -11.040  1.00  0.00    -0.269 OA
BRANCH  28  31
ATOM     31  C   UNL     1       9.833   5.704 -11.916  1.00  0.00     0.039 A 
ATOM     32  C   UNL     1      10.184   5.442 -13.241  1.00  0.00     0.014 A 
ATOM     33  C   UNL     1      10.132   6.931 -11.319  1.00  0.00     0.014 A 
ATOM     34  C   UNL     1      10.780   6.451 -13.999  1.00  0.00     0.010 A 
ATOM     35  C   UNL     1      10.644   7.956 -12.099  1.00  0.00     0.010 A 
ATOM     36  C   UNL     1      10.976   7.726 -13.445  1.00  0.00    -0.014 A 
BRANCH  36  37
ATOM     37  C   UNL     1      11.556   8.846 -14.226  1.00  0.00     0.031 A 
ATOM     38  C   UNL     1      12.851   9.454 -13.771  1.00  0.00     0.074 A 
ATOM     39  C   UNL     1      10.883   9.373 -15.266  1.00  0.00     0.049 A 
ATOM     40  N   UNL     1      13.445  10.543 -14.183  1.00  0.00    -0.248 NA
ATOM     41  C   UNL     1      13.556   8.761 -12.678  1.00  0.00     0.031 C 
ATOM     42  C   UNL     1       9.608   8.882 -15.789  1.00  0.00     0.029 A 
ATOM     43  N   UNL     1      11.171  10.457 -16.060  1.00  0.00    -0.354 N 
ATOM     44  C   UNL     1      14.573  10.677 -13.386  1.00  0.00     0.074 A 
ATOM     45  C   UNL     1      14.554   9.594 -12.429  1.00  0.00     0.031 C 
ATOM     46  C   UNL     1       9.233   9.649 -16.825  1.00  0.00     0.029 A 
ATOM     47  C   UNL     1      10.210  10.719 -17.006  1.00  0.00     0.049 A 
ATOM     48  H   UNL     1      11.989  10.996 -15.959  1.00  0.00     0.167 HD
ATOM     49  C   UNL     1      15.551  11.607 -13.465  1.00  0.00     0.037 A 
ATOM     50  C   UNL     1      10.120  11.721 -17.904  1.00  0.00     0.037 A 
ATOM     51  C   UNL     1      15.580  12.659 -14.444  1.00  0.00     0.049 A 
ATOM     52  C   UNL     1      11.205  12.764 -17.953  1.00  0.00     0.074 A 
ATOM     53  C   UNL     1      16.552  13.624 -14.637  1.00  0.00     0.029 A 
ATOM     54  N   UNL     1      14.595  12.880 -15.395  1.00  0.00    -0.354 N 
ATOM     55  N   UNL     1      12.287  12.864 -17.218  1.00  0.00    -0.248 NA
ATOM     56  C   UNL     1      11.062  13.835 -18.951  1.00  0.00     0.031 C 
ATOM     57  C   UNL     1      16.129  14.464 -15.668  1.00  0.00     0.029 A 
ATOM     58  C   UNL     1      14.928  13.980 -16.166  1.00  0.00     0.049 A 
ATOM     59  H   UNL     1      13.782  12.336 -15.506  1.00  0.00     0.167 HD
ATOM     60  C   UNL     1      12.969  13.978 -17.688  1.00  0.00     0.074 A 
ATOM     61  C   UNL     1      12.179  14.527 -18.770  1.00  0.00     0.031 C 
ATOM     62  C   UNL     1      14.147  14.494 -17.262  1.00  0.00     0.037 A 
BRANCH  49  63
ATOM     63  C   UNL     1      16.679  11.529 -12.479  1.00  0.00     0.064 A 
ATOM     64  C   UNL     1      16.858  12.539 -11.521  1.00  0.00     0.173 A 
ATOM     65  C   UNL     1      17.626  10.495 -12.527  1.00  0.00     0.173 A 
ATOM     66  F   UNL     1      15.983  13.553 -11.436  1.00  0.00    -0.203 F 
ATOM     67  C   UNL     1      17.952  12.525 -10.662  1.00  0.00     0.198 A 
ATOM     68  C   UNL     1      18.700  10.466 -11.642  1.00  0.00     0.198 A 
ATOM     69  F   UNL     1      17.493   9.498 -13.415  1.00  0.00    -0.203 F 
ATOM     70  F   UNL     1      18.124  13.522  -9.783  1.00  0.00    -0.200 F 
ATOM     71  C   UNL     1      18.869  11.487 -10.720  1.00  0.00     0.200 A 
ATOM     72  F   UNL     1      19.570   9.447 -11.681  1.00  0.00    -0.200 F 
ATOM     73  F   UNL     1      19.917  11.470  -9.884  1.00  0.00    -0.200 F 
ENDBRANCH  49  63
BRANCH  50  74
ATOM     74  C   UNL     1       8.969  11.765 -18.846  1.00  0.00     0.064 A 
ATOM     75  C   UNL     1       7.664  12.023 -18.401  1.00  0.00     0.173 A 
ATOM     76  C   UNL     1       9.153  11.518 -20.214  1.00  0.00     0.173 A 
ATOM     77  F   UNL     1       7.432  12.261 -17.102  1.00  0.00    -0.203 F 
ATOM     78  C   UNL     1       6.586  12.011 -19.284  1.00  0.00     0.198 A 
ATOM     79  C   UNL     1       8.078  11.536 -21.101  1.00  0.00     0.198 A 
ATOM     80  F   UNL     1      10.384  11.286 -20.692  1.00  0.00    -0.203 F 
ATOM     81  F   UNL     1       5.345  12.224 -18.826  1.00  0.00    -0.200 F 
ATOM     82  C   UNL     1       6.794  11.773 -20.634  1.00  0.00     0.200 A 
ATOM     83  F   UNL     1       8.288  11.329 -22.408  1.00  0.00    -0.200 F 
ATOM     84  F   UNL     1       5.759  11.774 -21.485  1.00  0.00    -0.200 F 
ENDBRANCH  50  74
BRANCH  62  85
ATOM     85  C   UNL     1      14.709  15.682 -17.986  1.00  0.00     0.064 A 
ATOM     86  C   UNL     1      15.883  15.547 -18.745  1.00  0.00     0.173 A 
ATOM     87  C   UNL     1      14.184  16.968 -17.808  1.00  0.00     0.173 A 
ATOM     88  F   UNL     1      16.430  14.336 -18.934  1.00  0.00    -0.203 F 
ATOM     89  C   UNL     1      16.531  16.662 -19.267  1.00  0.00     0.198 A 
ATOM     90  C   UNL     1      14.819  18.079 -18.358  1.00  0.00     0.198 A 
ATOM     91  F   UNL     1      13.059  17.147 -17.099  1.00  0.00    -0.203 F 
ATOM     92  F   UNL     1      17.683  16.514 -19.935  1.00  0.00    -0.200 F 
ATOM     93  C   UNL     1      16.000  17.927 -19.071  1.00  0.00     0.200 A 
ATOM     94  F   UNL     1      14.296  19.301 -18.184  1.00  0.00    -0.200 F 
ATOM     95  F   UNL     1      16.630  19.002 -19.564  1.00  0.00    -0.200 F 
ENDBRANCH  62  85
ENDBRANCH  36  37
ENDBRANCH  28  31
ENDBRANCH  26  27
ENDBRANCH  25  26
ENDBRANCH   1  25
TORSDOF 14
