REMARK SMILES COC(=O)c1c(NC(=O)c2ccncc2C(=O)NCCCCNC(=O)c2ccc(-c3c4nc(c(-c5c(F)c(F)c(F)c(F)c5F)c5ccc([nH]5)c(-c5c(F)c(F)c(F)c(F)c5F)c5nc(c(-c6c(F)c(F)c(F)c(F)c6F)c6ccc3[nH]6)C=C5)C=C4)cc2)sc2c1CCCCCC2
REMARK SMILES IDX 19 1 18 2 16 3 17 4 15 6 10 7 11 8 12 9 14 10 13 11 8 12
REMARK SMILES IDX 7 13 9 15 6 16 5 17 91 18 89 19 90 20 3 21 4 22 2 23 1 24
REMARK SMILES IDX 92 25 93 26 94 27 97 29 96 30 95 31 20 33 21 34 22 35 23 36
REMARK SMILES IDX 24 37 25 39 26 40 27 41 88 42 28 43 87 44 29 45 30 46 31 47
REMARK SMILES IDX 81 48 32 49 86 50 80 51 82 52 33 53 85 54 79 55 78 56 34 58
REMARK SMILES IDX 66 59 46 60 65 61 47 62 50 63 64 64 83 65 48 66 49 67 63 69
REMARK SMILES IDX 84 70 51 71 35 72 36 73 44 74 37 75 38 76 42 77 45 78 39 79
REMARK SMILES IDX 40 80 43 81 41 82 67 83 68 84 76 85 69 86 70 87 74 88 77 89
REMARK SMILES IDX 71 90 72 91 75 92 73 93 52 94 53 95 61 96 54 97 55 98 59 99
REMARK SMILES IDX 62 100 56 101 57 102 60 103 58 104
REMARK H PARENT 18 5 7 14 23 38 82 57 50 68
REMARK Flexibility Score: 100.00
ROOT
ATOM      1  C   UNL     1      -2.969  -1.118   2.410  1.00  0.00     0.116 C 
ENDROOT
BRANCH   1   2
ATOM      2  N   UNL     1      -2.856   0.172   1.783  1.00  0.00    -0.352 N 
ATOM      3  C   UNL     1      -2.342   0.533   0.550  1.00  0.00     0.253 C 
ATOM      4  O   UNL     1      -2.461   1.731   0.268  1.00  0.00    -0.269 OA
ATOM      5  H   UNL     1      -3.201   0.922   2.320  1.00  0.00     0.163 HD
BRANCH   3   6
ATOM      6  C   UNL     1      -1.591  -0.330  -0.429  1.00  0.00     0.070 A 
ATOM      7  C   UNL     1      -1.572  -1.715  -0.637  1.00  0.00     0.056 A 
ATOM      8  C   UNL     1      -0.782  -2.305  -1.643  1.00  0.00     0.035 A 
ATOM      9  C   UNL     1       0.028  -1.494  -2.404  1.00  0.00     0.112 A 
ATOM     10  C   UNL     1      -0.763   0.381  -1.306  1.00  0.00     0.125 A 
ATOM     11  N   UNL     1       0.050  -0.160  -2.259  1.00  0.00    -0.264 NA
BRANCH   7  12
ATOM     12  C   UNL     1      -2.492  -2.641  -0.008  1.00  0.00     0.257 C 
ATOM     13  N   UNL     1      -2.081  -3.632   0.845  1.00  0.00    -0.313 N 
ATOM     14  H   UNL     1      -2.827  -4.196   1.152  1.00  0.00     0.171 HD
ATOM     15  O   UNL     1      -3.685  -2.523  -0.286  1.00  0.00    -0.269 OA
BRANCH  13  16
ATOM     16  C   UNL     1      -0.870  -4.027   1.375  1.00  0.00     0.110 A 
ATOM     17  C   UNL     1       0.474  -3.698   1.373  1.00  0.00     0.098 A 
ATOM     18  C   UNL     1       1.275  -4.778   1.980  1.00  0.00    -0.017 A 
ATOM     19  S   UNL     1      -1.182  -5.369   2.381  1.00  0.00    -0.122 S 
ATOM     20  C   UNL     1       0.473  -5.729   2.599  1.00  0.00     0.011 A 
BRANCH  17  21
ATOM     21  C   UNL     1       1.113  -2.516   0.799  1.00  0.00     0.341 C 
ATOM     22  O   UNL     1       1.934  -2.579  -0.097  1.00  0.00    -0.246 OA
BRANCH  21  23
ATOM     23  O   UNL     1       0.792  -1.371   1.478  1.00  0.00    -0.465 OA
ATOM     24  C   UNL     1       1.616  -0.251   1.130  1.00  0.00     0.282 C 
ENDBRANCH  21  23
ENDBRANCH  17  21
BRANCH  18  25
ATOM     25  C   UNL     1       2.786  -4.822   1.921  1.00  0.00     0.037 C 
BRANCH  25  26
ATOM     26  C   UNL     1       3.493  -4.457   3.219  1.00  0.00     0.005 C 
BRANCH  26  27
ATOM     27  C   UNL     1       3.081  -5.242   4.462  1.00  0.00     0.000 CG0
ATOM     28  G   UNL     1       3.181  -6.762   4.350  1.00  0.00     0.000 G0
ENDBRANCH  26  27
ENDBRANCH  25  26
ENDBRANCH  18  25
BRANCH  20  29
ATOM     29  C   UNL     1       0.773  -6.968   3.413  1.00  0.00     0.047 C 
BRANCH  29  30
ATOM     30  C   UNL     1       2.207  -7.483   3.411  1.00  0.00     0.006 C 
BRANCH  30  31
ATOM     31  C   UNL     1       3.181  -6.762   4.350  1.00  0.00     0.000 CG0
ATOM     32  G   UNL     1       3.081  -5.242   4.462  1.00  0.00     0.000 G0
ENDBRANCH  30  31
ENDBRANCH  29  30
ENDBRANCH  20  29
ENDBRANCH  13  16
ENDBRANCH   7  12
ENDBRANCH   3   6
ENDBRANCH   1   2
BRANCH   1  33
ATOM     33  C   UNL     1      -3.038  -1.222   3.934  1.00  0.00     0.023 C 
BRANCH  33  34
ATOM     34  C   UNL     1      -4.263  -0.688   4.676  1.00  0.00     0.023 C 
BRANCH  34  35
ATOM     35  C   UNL     1      -5.609  -1.147   4.149  1.00  0.00     0.116 C 
BRANCH  35  36
ATOM     36  N   UNL     1      -5.909  -2.582   4.277  1.00  0.00    -0.352 N 
ATOM     37  C   UNL     1      -7.136  -3.206   4.037  1.00  0.00     0.251 C 
ATOM     38  H   UNL     1      -5.167  -3.163   4.563  1.00  0.00     0.163 HD
ATOM     39  O   UNL     1      -7.374  -4.344   4.420  1.00  0.00    -0.269 OA
BRANCH  37  40
ATOM     40  C   UNL     1      -8.146  -2.445   3.278  1.00  0.00     0.039 A 
ATOM     41  C   UNL     1      -9.504  -2.365   3.608  1.00  0.00     0.014 A 
ATOM     42  C   UNL     1      -7.629  -1.683   2.246  1.00  0.00     0.014 A 
ATOM     43  C   UNL     1     -10.296  -1.441   2.922  1.00  0.00     0.010 A 
ATOM     44  C   UNL     1      -8.299  -0.566   1.865  1.00  0.00     0.010 A 
ATOM     45  C   UNL     1      -9.668  -0.537   2.054  1.00  0.00    -0.014 A 
BRANCH  45  46
ATOM     46  C   UNL     1     -10.363   0.454   1.252  1.00  0.00     0.031 A 
ATOM     47  C   UNL     1     -11.099   1.503   1.998  1.00  0.00     0.074 A 
ATOM     48  C   UNL     1     -10.097   0.567  -0.071  1.00  0.00     0.049 A 
ATOM     49  N   UNL     1     -12.370   1.724   1.996  1.00  0.00    -0.248 NA
ATOM     50  C   UNL     1     -10.350   2.353   2.934  1.00  0.00     0.031 C 
ATOM     51  C   UNL     1      -9.122  -0.165  -0.899  1.00  0.00     0.029 A 
ATOM     52  N   UNL     1     -10.593   1.472  -0.949  1.00  0.00    -0.354 N 
ATOM     53  C   UNL     1     -12.581   2.833   2.812  1.00  0.00     0.074 A 
ATOM     54  C   UNL     1     -11.328   3.082   3.477  1.00  0.00     0.031 C 
ATOM     55  C   UNL     1      -8.940   0.477  -2.073  1.00  0.00     0.029 A 
ATOM     56  C   UNL     1      -9.917   1.542  -2.159  1.00  0.00     0.049 A 
ATOM     57  H   UNL     1     -11.372   2.037  -0.744  1.00  0.00     0.167 HD
ATOM     58  C   UNL     1     -13.730   3.563   2.730  1.00  0.00     0.037 A 
ATOM     59  C   UNL     1     -10.146   2.439  -3.147  1.00  0.00     0.037 A 
ATOM     60  C   UNL     1     -14.728   2.862   1.960  1.00  0.00     0.049 A 
ATOM     61  C   UNL     1     -11.510   2.988  -2.917  1.00  0.00     0.074 A 
ATOM     62  C   UNL     1     -15.408   1.672   2.126  1.00  0.00     0.029 A 
ATOM     63  N   UNL     1     -14.855   3.181   0.628  1.00  0.00    -0.354 N 
ATOM     64  N   UNL     1     -12.598   2.272  -3.018  1.00  0.00    -0.248 NA
ATOM     65  C   UNL     1     -11.621   4.176  -2.083  1.00  0.00     0.031 C 
ATOM     66  C   UNL     1     -15.454   1.094   0.823  1.00  0.00     0.029 A 
ATOM     67  C   UNL     1     -14.874   1.998  -0.069  1.00  0.00     0.049 A 
ATOM     68  H   UNL     1     -14.921   4.086   0.246  1.00  0.00     0.167 HD
ATOM     69  C   UNL     1     -13.396   2.677  -1.956  1.00  0.00     0.074 A 
ATOM     70  C   UNL     1     -12.770   3.901  -1.456  1.00  0.00     0.031 C 
ATOM     71  C   UNL     1     -14.309   1.833  -1.389  1.00  0.00     0.037 A 
BRANCH  58  72
ATOM     72  C   UNL     1     -13.880   5.022   3.073  1.00  0.00     0.064 A 
ATOM     73  C   UNL     1     -15.171   5.592   3.101  1.00  0.00     0.173 A 
ATOM     74  C   UNL     1     -12.812   5.941   3.098  1.00  0.00     0.173 A 
ATOM     75  F   UNL     1     -16.264   4.814   3.081  1.00  0.00    -0.203 F 
ATOM     76  C   UNL     1     -15.372   6.974   3.067  1.00  0.00     0.198 A 
ATOM     77  C   UNL     1     -13.015   7.320   3.119  1.00  0.00     0.198 A 
ATOM     78  F   UNL     1     -11.536   5.551   2.994  1.00  0.00    -0.203 F 
ATOM     79  F   UNL     1     -16.615   7.464   2.969  1.00  0.00    -0.200 F 
ATOM     80  C   UNL     1     -14.293   7.837   3.068  1.00  0.00     0.200 A 
ATOM     81  F   UNL     1     -11.957   8.143   3.109  1.00  0.00    -0.200 F 
ATOM     82  F   UNL     1     -14.479   9.160   2.972  1.00  0.00    -0.200 F 
ENDBRANCH  58  72
BRANCH  59  83
ATOM     83  C   UNL     1      -9.151   3.061  -4.050  1.00  0.00     0.064 A 
ATOM     84  C   UNL     1      -9.535   3.677  -5.249  1.00  0.00     0.173 A 
ATOM     85  C   UNL     1      -7.827   3.290  -3.622  1.00  0.00     0.173 A 
ATOM     86  F   UNL     1     -10.790   3.545  -5.701  1.00  0.00    -0.203 F 
ATOM     87  C   UNL     1      -8.652   4.490  -5.970  1.00  0.00     0.198 A 
ATOM     88  C   UNL     1      -6.946   4.098  -4.343  1.00  0.00     0.198 A 
ATOM     89  F   UNL     1      -7.393   2.810  -2.448  1.00  0.00    -0.203 F 
ATOM     90  F   UNL     1      -9.070   5.107  -7.085  1.00  0.00    -0.200 F 
ATOM     91  C   UNL     1      -7.362   4.708  -5.511  1.00  0.00     0.200 A 
ATOM     92  F   UNL     1      -5.715   4.333  -3.867  1.00  0.00    -0.200 F 
ATOM     93  F   UNL     1      -6.538   5.535  -6.169  1.00  0.00    -0.200 F 
ENDBRANCH  59  83
BRANCH  71  94
ATOM     94  C   UNL     1     -14.570   0.513  -2.065  1.00  0.00     0.064 A 
ATOM     95  C   UNL     1     -13.612  -0.511  -2.177  1.00  0.00     0.173 A 
ATOM     96  C   UNL     1     -15.883   0.200  -2.435  1.00  0.00     0.173 A 
ATOM     97  F   UNL     1     -12.360  -0.332  -1.751  1.00  0.00    -0.203 F 
ATOM     98  C   UNL     1     -13.946  -1.774  -2.665  1.00  0.00     0.198 A 
ATOM     99  C   UNL     1     -16.223  -1.073  -2.890  1.00  0.00     0.198 A 
ATOM    100  F   UNL     1     -16.855   1.114  -2.292  1.00  0.00    -0.203 F 
ATOM    101  F   UNL     1     -13.009  -2.730  -2.756  1.00  0.00    -0.200 F 
ATOM    102  C   UNL     1     -15.255  -2.056  -3.012  1.00  0.00     0.200 A 
ATOM    103  F   UNL     1     -17.502  -1.357  -3.175  1.00  0.00    -0.200 F 
ATOM    104  F   UNL     1     -15.589  -3.284  -3.433  1.00  0.00    -0.200 F 
ENDBRANCH  71  94
ENDBRANCH  45  46
ENDBRANCH  37  40
ENDBRANCH  35  36
ENDBRANCH  34  35
ENDBRANCH  33  34
ENDBRANCH   1  33
TORSDOF 15
