REMARK SMILES Cc1ccccc1OCC(=O)N1C[C@H](O)C[C@H]1C(=O)NCCCCNC(=O)c1ccc(-c2c3nc(c(-c4c(F)c(F)c(F)c(F)c4F)c4ccc([nH]4)c(-c4c(F)c(F)c(F)c(F)c4F)c4nc(c(-c5c(F)c(F)c(F)c(F)c5F)c5ccc2[nH]5)C=C4)C=C3)cc1
REMARK SMILES IDX 21 1 20 2 18 3 19 4 17 6 12 7 13 8 14 9 16 10 10 11 11 12
REMARK SMILES IDX 9 13 8 14 7 15 1 16 2 17 3 18 4 19 6 20 5 21 15 22 22 24
REMARK SMILES IDX 23 25 24 26 25 27 26 28 27 30 28 31 29 32 90 33 30 34 89 35
REMARK SMILES IDX 31 36 32 37 33 38 83 39 34 40 88 41 82 42 84 43 35 44 87 45
REMARK SMILES IDX 81 46 80 47 36 49 68 50 48 51 67 52 49 53 52 54 66 55 85 56
REMARK SMILES IDX 50 57 51 58 65 60 86 61 53 62 37 63 38 64 46 65 39 66 40 67
REMARK SMILES IDX 44 68 47 69 41 70 42 71 45 72 43 73 69 74 70 75 78 76 71 77
REMARK SMILES IDX 72 78 76 79 79 80 73 81 74 82 77 83 75 84 54 85 55 86 63 87
REMARK SMILES IDX 56 88 57 89 61 90 64 91 58 92 59 93 62 94 60 95
REMARK H PARENT 20 5 15 23 25 29 84 48 52 59
REMARK Flexibility Score: inf
ROOT
ATOM      1  C   UNL     1       1.905  -0.376   4.242  1.00  0.00     0.116 C 
ENDROOT
BRANCH   1   2
ATOM      2  N   UNL     1       3.335  -0.147   4.295  1.00  0.00    -0.354 N 
ATOM      3  C   UNL     1       4.081   0.982   4.139  1.00  0.00     0.242 C 
ATOM      4  O   UNL     1       5.269   0.900   4.475  1.00  0.00    -0.273 OA
ATOM      5  H   UNL     1       3.865  -0.957   4.477  1.00  0.00     0.163 HD
BRANCH   3   6
ATOM      6  C   UNL     1       3.478   2.352   3.770  1.00  0.00     0.177 C 
ATOM      7  N   UNL     1       2.580   2.415   2.613  1.00  0.00    -0.325 N 
ATOM      8  C   UNL     1       1.301   3.023   2.951  1.00  0.00     0.152 C 
ATOM      9  C   UNL     1       1.554   3.727   4.284  1.00  0.00     0.136 C 
ATOM     10  C   UNL     1       2.681   2.939   4.942  1.00  0.00     0.069 C 
BRANCH   7  11
ATOM     11  C   UNL     1       3.081   2.188   1.346  1.00  0.00     0.261 C 
ATOM     12  O   UNL     1       4.215   1.730   1.184  1.00  0.00    -0.271 OA
BRANCH  11  13
ATOM     13  C   UNL     1       2.253   2.630   0.127  1.00  0.00     0.329 C 
BRANCH  13  14
ATOM     14  O   UNL     1       0.878   2.357   0.055  1.00  0.00    -0.484 OA
BRANCH  14  15
ATOM     15  C   UNL     1       0.357   1.113  -0.127  1.00  0.00     0.122 A 
ATOM     16  C   UNL     1       2.418  -0.290  -0.830  1.00  0.00     0.048 C 
ATOM     17  C   UNL     1       0.964  -0.092  -0.508  1.00  0.00    -0.009 A 
ATOM     18  C   UNL     1       0.161  -1.257  -0.553  1.00  0.00     0.007 A 
ATOM     19  C   UNL     1      -1.202  -1.231  -0.258  1.00  0.00     0.001 A 
ATOM     20  C   UNL     1      -1.028   1.127   0.128  1.00  0.00     0.047 A 
ATOM     21  C   UNL     1      -1.803  -0.029   0.070  1.00  0.00     0.004 A 
ENDBRANCH  14  15
ENDBRANCH  13  14
ENDBRANCH  11  13
ENDBRANCH   7  11
BRANCH   9  22
ATOM     22  O   UNL     1       1.969   5.075   4.069  1.00  0.00    -0.391 OA
ATOM     23  H   UNL     1       2.770   5.083   3.522  1.00  0.00     0.211 HD
ENDBRANCH   9  22
ENDBRANCH   3   6
ENDBRANCH   1   2
BRANCH   1  24
ATOM     24  C   UNL     1       1.422  -0.920   2.901  1.00  0.00     0.023 C 
BRANCH  24  25
ATOM     25  C   UNL     1       2.098  -2.208   2.431  1.00  0.00     0.023 C 
BRANCH  25  26
ATOM     26  C   UNL     1       1.779  -3.432   3.273  1.00  0.00     0.116 C 
BRANCH  26  27
ATOM     27  N   UNL     1       0.543  -4.116   2.914  1.00  0.00    -0.352 N 
ATOM     28  C   UNL     1      -0.093  -5.177   3.546  1.00  0.00     0.251 C 
ATOM     29  H   UNL     1       0.093  -3.777   2.107  1.00  0.00     0.163 HD
ATOM     30  O   UNL     1      -1.087  -5.678   3.053  1.00  0.00    -0.269 OA
BRANCH  28  31
ATOM     31  C   UNL     1       0.356  -5.593   4.902  1.00  0.00     0.039 A 
ATOM     32  C   UNL     1      -0.627  -5.769   5.885  1.00  0.00     0.014 A 
ATOM     33  C   UNL     1       1.700  -5.571   5.259  1.00  0.00     0.014 A 
ATOM     34  C   UNL     1      -0.282  -5.629   7.226  1.00  0.00     0.010 A 
ATOM     35  C   UNL     1       2.030  -5.320   6.574  1.00  0.00     0.010 A 
ATOM     36  C   UNL     1       1.024  -5.263   7.543  1.00  0.00    -0.014 A 
BRANCH  36  37
ATOM     37  C   UNL     1       1.398  -4.647   8.810  1.00  0.00     0.031 A 
ATOM     38  C   UNL     1       2.243  -5.372   9.780  1.00  0.00     0.074 A 
ATOM     39  C   UNL     1       1.070  -3.350   9.019  1.00  0.00     0.049 A 
ATOM     40  N   UNL     1       2.411  -4.995  11.002  1.00  0.00    -0.248 NA
ATOM     41  C   UNL     1       2.911  -6.636   9.479  1.00  0.00     0.031 C 
ATOM     42  C   UNL     1       1.630  -2.438  10.014  1.00  0.00     0.029 A 
ATOM     43  N   UNL     1      -0.014  -2.639   8.470  1.00  0.00    -0.354 N 
ATOM     44  C   UNL     1       3.407  -5.767  11.546  1.00  0.00     0.074 A 
ATOM     45  C   UNL     1       3.584  -6.851  10.615  1.00  0.00     0.031 C 
ATOM     46  C   UNL     1       0.759  -1.439  10.227  1.00  0.00     0.029 A 
ATOM     47  C   UNL     1      -0.450  -1.768   9.497  1.00  0.00     0.049 A 
ATOM     48  H   UNL     1      -0.389  -2.729   7.564  1.00  0.00     0.167 HD
ATOM     49  C   UNL     1       4.047  -5.309  12.658  1.00  0.00     0.037 A 
ATOM     50  C   UNL     1      -1.685  -1.892  10.064  1.00  0.00     0.037 A 
ATOM     51  C   UNL     1       3.297  -4.213  13.270  1.00  0.00     0.049 A 
ATOM     52  C   UNL     1      -1.660  -2.132  11.555  1.00  0.00     0.074 A 
ATOM     53  C   UNL     1       3.488  -2.845  13.343  1.00  0.00     0.029 A 
ATOM     54  N   UNL     1       2.001  -4.457  13.719  1.00  0.00    -0.354 N 
ATOM     55  N   UNL     1      -0.616  -2.567  12.204  1.00  0.00    -0.248 NA
ATOM     56  C   UNL     1      -2.817  -1.938  12.424  1.00  0.00     0.031 C 
ATOM     57  C   UNL     1       2.257  -2.259  13.748  1.00  0.00     0.029 A 
ATOM     58  C   UNL     1       1.339  -3.273  13.969  1.00  0.00     0.049 A 
ATOM     59  H   UNL     1       1.610  -5.353  13.840  1.00  0.00     0.167 HD
ATOM     60  C   UNL     1      -0.941  -2.752  13.522  1.00  0.00     0.074 A 
ATOM     61  C   UNL     1      -2.322  -2.317  13.615  1.00  0.00     0.031 C 
ATOM     62  C   UNL     1      -0.049  -3.276  14.414  1.00  0.00     0.037 A 
BRANCH  49  63
ATOM     63  C   UNL     1       5.438  -5.713  13.112  1.00  0.00     0.064 A 
ATOM     64  C   UNL     1       5.979  -5.169  14.299  1.00  0.00     0.173 A 
ATOM     65  C   UNL     1       6.340  -6.508  12.372  1.00  0.00     0.173 A 
ATOM     66  F   UNL     1       5.244  -4.386  15.102  1.00  0.00    -0.203 F 
ATOM     67  C   UNL     1       7.305  -5.389  14.695  1.00  0.00     0.198 A 
ATOM     68  C   UNL     1       7.647  -6.770  12.796  1.00  0.00     0.198 A 
ATOM     69  F   UNL     1       6.031  -7.019  11.177  1.00  0.00    -0.203 F 
ATOM     70  F   UNL     1       7.779  -4.794  15.799  1.00  0.00    -0.200 F 
ATOM     71  C   UNL     1       8.136  -6.198  13.948  1.00  0.00     0.200 A 
ATOM     72  F   UNL     1       8.437  -7.558  12.052  1.00  0.00    -0.200 F 
ATOM     73  F   UNL     1       9.404  -6.411  14.324  1.00  0.00    -0.200 F 
ENDBRANCH  49  63
BRANCH  50  74
ATOM     74  C   UNL     1      -2.708  -2.433   9.132  1.00  0.00     0.064 A 
ATOM     75  C   UNL     1      -3.054  -1.666   8.003  1.00  0.00     0.173 A 
ATOM     76  C   UNL     1      -3.038  -3.794   9.116  1.00  0.00     0.173 A 
ATOM     77  F   UNL     1      -2.756  -0.357   7.967  1.00  0.00    -0.203 F 
ATOM     78  C   UNL     1      -3.596  -2.256   6.864  1.00  0.00     0.198 A 
ATOM     79  C   UNL     1      -3.592  -4.380   7.975  1.00  0.00     0.198 A 
ATOM     80  F   UNL     1      -2.713  -4.582  10.150  1.00  0.00    -0.203 F 
ATOM     81  F   UNL     1      -3.808  -1.517   5.765  1.00  0.00    -0.200 F 
ATOM     82  C   UNL     1      -3.837  -3.619   6.841  1.00  0.00     0.200 A 
ATOM     83  F   UNL     1      -3.795  -5.705   7.939  1.00  0.00    -0.200 F 
ATOM     84  F   UNL     1      -4.263  -4.207   5.714  1.00  0.00    -0.200 F 
ENDBRANCH  50  74
BRANCH  62  85
ATOM     85  C   UNL     1      -0.376  -3.776  15.804  1.00  0.00     0.064 A 
ATOM     86  C   UNL     1      -1.637  -4.260  16.193  1.00  0.00     0.173 A 
ATOM     87  C   UNL     1       0.650  -3.923  16.770  1.00  0.00     0.173 A 
ATOM     88  F   UNL     1      -2.664  -4.305  15.335  1.00  0.00    -0.203 F 
ATOM     89  C   UNL     1      -1.872  -4.781  17.470  1.00  0.00     0.198 A 
ATOM     90  C   UNL     1       0.427  -4.499  18.021  1.00  0.00     0.198 A 
ATOM     91  F   UNL     1       1.909  -3.537  16.518  1.00  0.00    -0.203 F 
ATOM     92  F   UNL     1      -3.106  -5.186  17.803  1.00  0.00    -0.200 F 
ATOM     93  C   UNL     1      -0.839  -4.911  18.378  1.00  0.00     0.200 A 
ATOM     94  F   UNL     1       1.451  -4.672  18.868  1.00  0.00    -0.200 F 
ATOM     95  F   UNL     1      -1.059  -5.455  19.583  1.00  0.00    -0.200 F 
ENDBRANCH  62  85
ENDBRANCH  36  37
ENDBRANCH  28  31
ENDBRANCH  26  27
ENDBRANCH  25  26
ENDBRANCH  24  25
ENDBRANCH   1  24
TORSDOF 16
