REMARK SMILES CC(C)[C@@H]1SC[C@@H](C(=O)NCCCCNC(=O)c2ccc(-c3c4nc(c(-c5c(F)c(F)c(F)c(F)c5F)c5ccc([nH]5)c(-c5c(F)c(F)c(F)c(F)c5F)c5nc(c(-c6c(F)c(F)c(F)c(F)c6F)c6ccc3[nH]6)C=C5)C=C4)cc2)N1C(=O)COCC[NH3+]
REMARK SMILES IDX 8 1 9 2 10 3 7 5 4 6 5 7 81 8 6 9 2 10 1 11 3 12 82 13 83 14
REMARK SMILES IDX 84 15 85 16 86 17 87 18 88 19 11 23 12 24 13 25 14 26 15 27
REMARK SMILES IDX 16 28 17 30 18 31 19 32 80 33 20 34 79 35 21 36 22 37 23 38
REMARK SMILES IDX 73 39 24 40 78 41 72 42 74 43 25 44 77 45 71 46 70 47 26 49
REMARK SMILES IDX 58 50 38 51 57 52 39 53 42 54 56 55 75 56 40 57 41 58 55 60
REMARK SMILES IDX 76 61 43 62 27 63 28 64 36 65 29 66 30 67 34 68 37 69 31 70
REMARK SMILES IDX 32 71 35 72 33 73 59 74 60 75 68 76 61 77 62 78 66 79 69 80
REMARK SMILES IDX 63 81 64 82 67 83 65 84 44 85 45 86 53 87 46 88 47 89 51 90
REMARK SMILES IDX 54 91 48 92 49 93 52 94 50 95
REMARK H PARENT 10 4 88 20 88 21 88 22 15 29 74 48 42 59
REMARK Flexibility Score: inf
ROOT
ATOM      1  C   UNL     1      -0.549  -3.132  -3.074  1.00  0.00     0.243 C 
ATOM      2  O   UNL     1      -0.807  -3.884  -4.021  1.00  0.00    -0.273 OA
ATOM      3  N   UNL     1       0.778  -2.943  -2.823  1.00  0.00    -0.354 N 
ATOM      4  H   UNL     1       1.366  -3.622  -3.227  1.00  0.00     0.163 HD
ENDROOT
BRANCH   1   5
ATOM      5  C   UNL     1      -1.688  -2.366  -2.348  1.00  0.00     0.185 C 
ATOM      6  C   UNL     1      -1.352  -1.262  -0.163  1.00  0.00     0.146 C 
ATOM      7  S   UNL     1      -2.025   0.042  -1.275  1.00  0.00    -0.134 SA
ATOM      8  N   UNL     1      -1.726  -2.504  -0.864  1.00  0.00    -0.316 N 
ATOM      9  C   UNL     1      -1.743  -0.907  -2.781  1.00  0.00     0.107 C 
BRANCH   6  10
ATOM     10  C   UNL     1      -1.601  -0.960   1.338  1.00  0.00     0.016 C 
ATOM     11  C   UNL     1      -0.683  -1.789   2.255  1.00  0.00     0.010 C 
ATOM     12  C   UNL     1      -1.301   0.513   1.701  1.00  0.00     0.010 C 
ENDBRANCH   6  10
BRANCH   8  13
ATOM     13  C   UNL     1      -2.224  -3.727  -0.444  1.00  0.00     0.250 C 
ATOM     14  O   UNL     1      -2.510  -4.595  -1.282  1.00  0.00    -0.272 OA
BRANCH  13  15
ATOM     15  C   UNL     1      -2.454  -4.104   1.021  1.00  0.00     0.260 C 
BRANCH  15  16
ATOM     16  O   UNL     1      -1.360  -4.521   1.817  1.00  0.00    -0.366 OA
BRANCH  16  17
ATOM     17  C   UNL     1      -0.445  -5.425   1.194  1.00  0.00     0.222 C 
BRANCH  17  18
ATOM     18  C   UNL     1      -0.572  -6.846   1.753  1.00  0.00     0.287 C 
BRANCH  18  19
ATOM     19  N   UNL     1      -1.783  -7.524   1.298  1.00  0.00    -0.356 N 
ATOM     20  H   UNL     1      -2.602  -7.010   1.621  1.00  0.00     0.344 HD
ATOM     21  H   UNL     1      -1.805  -8.471   1.676  1.00  0.00     0.344 HD
ATOM     22  H   UNL     1      -1.787  -7.565   0.279  1.00  0.00     0.344 HD
ENDBRANCH  18  19
ENDBRANCH  17  18
ENDBRANCH  16  17
ENDBRANCH  15  16
ENDBRANCH  13  15
ENDBRANCH   8  13
ENDBRANCH   1   5
BRANCH   3  23
ATOM     23  C   UNL     1       1.477  -1.926  -2.071  1.00  0.00     0.116 C 
BRANCH  23  24
ATOM     24  C   UNL     1       1.925  -2.417  -0.697  1.00  0.00     0.023 C 
BRANCH  24  25
ATOM     25  C   UNL     1       3.251  -3.174  -0.685  1.00  0.00     0.023 C 
BRANCH  25  26
ATOM     26  C   UNL     1       4.456  -2.384  -1.186  1.00  0.00     0.116 C 
BRANCH  26  27
ATOM     27  N   UNL     1       4.684  -1.136  -0.473  1.00  0.00    -0.352 N 
ATOM     28  C   UNL     1       5.883  -0.509  -0.211  1.00  0.00     0.251 C 
ATOM     29  H   UNL     1       3.879  -0.682  -0.135  1.00  0.00     0.163 HD
ATOM     30  O   UNL     1       5.923   0.500   0.476  1.00  0.00    -0.269 OA
BRANCH  28  31
ATOM     31  C   UNL     1       7.130  -1.108  -0.732  1.00  0.00     0.039 A 
ATOM     32  C   UNL     1       8.180  -1.351   0.156  1.00  0.00     0.014 A 
ATOM     33  C   UNL     1       7.235  -1.480  -2.075  1.00  0.00     0.014 A 
ATOM     34  C   UNL     1       9.306  -2.049  -0.285  1.00  0.00     0.010 A 
ATOM     35  C   UNL     1       8.327  -2.232  -2.495  1.00  0.00     0.010 A 
ATOM     36  C   UNL     1       9.367  -2.534  -1.602  1.00  0.00    -0.014 A 
BRANCH  36  37
ATOM     37  C   UNL     1      10.494  -3.387  -2.056  1.00  0.00     0.031 A 
ATOM     38  C   UNL     1      11.417  -2.904  -3.139  1.00  0.00     0.074 A 
ATOM     39  C   UNL     1      10.627  -4.630  -1.554  1.00  0.00     0.049 A 
ATOM     40  N   UNL     1      12.401  -3.535  -3.727  1.00  0.00    -0.248 NA
ATOM     41  C   UNL     1      11.187  -1.544  -3.650  1.00  0.00     0.031 C 
ATOM     42  C   UNL     1       9.754  -5.235  -0.545  1.00  0.00     0.029 A 
ATOM     43  N   UNL     1      11.538  -5.619  -1.837  1.00  0.00    -0.354 N 
ATOM     44  C   UNL     1      12.889  -2.662  -4.689  1.00  0.00     0.074 A 
ATOM     45  C   UNL     1      12.072  -1.469  -4.634  1.00  0.00     0.031 C 
ATOM     46  C   UNL     1      10.177  -6.484  -0.288  1.00  0.00     0.029 A 
ATOM     47  C   UNL     1      11.328  -6.781  -1.134  1.00  0.00     0.049 A 
ATOM     48  H   UNL     1      12.272  -5.505  -2.484  1.00  0.00     0.167 HD
ATOM     49  C   UNL     1      13.936  -2.835  -5.528  1.00  0.00     0.037 A 
ATOM     50  C   UNL     1      11.983  -7.957  -1.178  1.00  0.00     0.037 A 
ATOM     51  C   UNL     1      14.778  -4.001  -5.545  1.00  0.00     0.049 A 
ATOM     52  C   UNL     1      13.159  -8.106  -2.106  1.00  0.00     0.074 A 
ATOM     53  C   UNL     1      15.928  -4.223  -6.282  1.00  0.00     0.029 A 
ATOM     54  N   UNL     1      14.559  -5.143  -4.790  1.00  0.00    -0.354 N 
ATOM     55  N   UNL     1      13.674  -7.234  -2.937  1.00  0.00    -0.248 NA
ATOM     56  C   UNL     1      13.850  -9.404  -2.097  1.00  0.00     0.031 C 
ATOM     57  C   UNL     1      16.380  -5.517  -6.008  1.00  0.00     0.029 A 
ATOM     58  C   UNL     1      15.537  -6.085  -5.067  1.00  0.00     0.049 A 
ATOM     59  H   UNL     1      13.819  -5.267  -4.152  1.00  0.00     0.167 HD
ATOM     60  C   UNL     1      14.761  -7.864  -3.527  1.00  0.00     0.074 A 
ATOM     61  C   UNL     1      14.844  -9.187  -2.946  1.00  0.00     0.031 C 
ATOM     62  C   UNL     1      15.612  -7.392  -4.469  1.00  0.00     0.037 A 
BRANCH  49  63
ATOM     63  C   UNL     1      14.250  -1.736  -6.499  1.00  0.00     0.064 A 
ATOM     64  C   UNL     1      14.829  -0.529  -6.081  1.00  0.00     0.173 A 
ATOM     65  C   UNL     1      14.043  -1.926  -7.874  1.00  0.00     0.173 A 
ATOM     66  F   UNL     1      15.037  -0.296  -4.777  1.00  0.00    -0.203 F 
ATOM     67  C   UNL     1      15.179   0.453  -7.004  1.00  0.00     0.198 A 
ATOM     68  C   UNL     1      14.418  -0.952  -8.795  1.00  0.00     0.198 A 
ATOM     69  F   UNL     1      13.496  -3.065  -8.324  1.00  0.00    -0.203 F 
ATOM     70  F   UNL     1      15.705   1.611  -6.580  1.00  0.00    -0.200 F 
ATOM     71  C   UNL     1      14.983   0.237  -8.360  1.00  0.00     0.200 A 
ATOM     72  F   UNL     1      14.239  -1.167 -10.106  1.00  0.00    -0.200 F 
ATOM     73  F   UNL     1      15.337   1.176  -9.248  1.00  0.00    -0.200 F 
ENDBRANCH  49  63
BRANCH  50  74
ATOM     74  C   UNL     1      11.554  -9.089  -0.316  1.00  0.00     0.064 A 
ATOM     75  C   UNL     1      12.362  -9.538   0.738  1.00  0.00     0.173 A 
ATOM     76  C   UNL     1      10.350  -9.769  -0.550  1.00  0.00     0.173 A 
ATOM     77  F   UNL     1      13.533  -8.934   0.988  1.00  0.00    -0.203 F 
ATOM     78  C   UNL     1      11.999 -10.645   1.503  1.00  0.00     0.198 A 
ATOM     79  C   UNL     1       9.973 -10.857   0.235  1.00  0.00     0.198 A 
ATOM     80  F   UNL     1       9.538  -9.376  -1.542  1.00  0.00    -0.203 F 
ATOM     81  F   UNL     1      12.819 -11.089   2.466  1.00  0.00    -0.200 F 
ATOM     82  C   UNL     1      10.804 -11.301   1.253  1.00  0.00     0.200 A 
ATOM     83  F   UNL     1       8.811 -11.480  -0.001  1.00  0.00    -0.200 F 
ATOM     84  F   UNL     1      10.457 -12.369   1.985  1.00  0.00    -0.200 F 
ENDBRANCH  50  74
BRANCH  62  85
ATOM     85  C   UNL     1      16.725  -8.297  -4.906  1.00  0.00     0.064 A 
ATOM     86  C   UNL     1      16.486  -9.415  -5.717  1.00  0.00     0.173 A 
ATOM     87  C   UNL     1      18.052  -8.017  -4.544  1.00  0.00     0.173 A 
ATOM     88  F   UNL     1      15.232  -9.732  -6.076  1.00  0.00    -0.203 F 
ATOM     89  C   UNL     1      17.532 -10.235  -6.130  1.00  0.00     0.198 A 
ATOM     90  C   UNL     1      19.098  -8.823  -4.983  1.00  0.00     0.198 A 
ATOM     91  F   UNL     1      18.333  -6.955  -3.775  1.00  0.00    -0.203 F 
ATOM     92  F   UNL     1      17.275 -11.325  -6.867  1.00  0.00    -0.200 F 
ATOM     93  C   UNL     1      18.837  -9.934  -5.770  1.00  0.00     0.200 A 
ATOM     94  F   UNL     1      20.360  -8.523  -4.645  1.00  0.00    -0.200 F 
ATOM     95  F   UNL     1      19.843 -10.720  -6.175  1.00  0.00    -0.200 F 
ENDBRANCH  62  85
ENDBRANCH  36  37
ENDBRANCH  28  31
ENDBRANCH  26  27
ENDBRANCH  25  26
ENDBRANCH  24  25
ENDBRANCH  23  24
ENDBRANCH   3  23
TORSDOF 18
