REMARK SMILES [NH3+][C@]1(C(=O)NCCCCNC(=O)c2ccc(-c3c4nc(c(-c5c(F)c(F)c(F)c(F)c5F)c5ccc([nH]5)c(-c5c(F)c(F)c(F)c(F)c5F)c5nc(c(-c6c(F)c(F)c(F)c(F)c6F)c6ccc3[nH]6)C=C5)C=C4)cc2)CCC[C@@H]1CCOc1ccc(CO)cc1
REMARK SMILES IDX 3 1 4 2 5 3 2 5 76 6 79 7 77 8 78 9 1 10 80 14 81 15 82 16
REMARK SMILES IDX 83 17 84 18 90 19 85 20 89 21 86 22 87 23 88 24 6 26 7 27
REMARK SMILES IDX 8 28 9 29 10 30 11 31 12 33 13 34 14 35 75 36 15 37 74 38
REMARK SMILES IDX 16 39 17 40 18 41 68 42 19 43 73 44 67 45 69 46 20 47 72 48
REMARK SMILES IDX 66 49 65 50 21 52 53 53 33 54 52 55 34 56 37 57 51 58 70 59
REMARK SMILES IDX 35 60 36 61 50 63 71 64 38 65 22 66 23 67 31 68 24 69 25 70
REMARK SMILES IDX 29 71 32 72 26 73 27 74 30 75 28 76 54 77 55 78 63 79 56 80
REMARK SMILES IDX 57 81 61 82 64 83 58 84 59 85 62 86 60 87 39 88 40 89 48 90
REMARK SMILES IDX 41 91 42 92 46 93 49 94 43 95 44 96 47 97 45 98
REMARK H PARENT 5 4 1 11 1 12 1 13 88 25 10 32 69 51 37 62
REMARK Flexibility Score: inf
ROOT
ATOM      1  C   UNL     1       1.748   0.394   0.480  1.00  0.00     0.281 C 
ATOM      2  O   UNL     1       1.825  -0.217   1.551  1.00  0.00    -0.268 OA
ATOM      3  N   UNL     1       2.586  -0.063  -0.501  1.00  0.00    -0.351 N 
ATOM      4  H   UNL     1       2.943  -0.969  -0.355  1.00  0.00     0.163 HD
ENDROOT
BRANCH   1   5
ATOM      5  C   UNL     1       0.642   1.511   0.196  1.00  0.00     0.176 C 
ATOM      6  C   UNL     1       0.054   1.960   1.561  1.00  0.00     0.079 C 
ATOM      7  C   UNL     1       1.180   2.825  -0.450  1.00  0.00     0.064 C 
ATOM      8  C   UNL     1       0.501   3.386   1.837  1.00  0.00     0.008 C 
ATOM      9  C   UNL     1       1.422   3.799   0.715  1.00  0.00     0.011 C 
BRANCH   5  10
ATOM     10  N   UNL     1      -0.408   0.783  -0.518  1.00  0.00    -0.345 N 
ATOM     11  H   UNL     1      -1.170   1.422  -0.746  1.00  0.00     0.345 HD
ATOM     12  H   UNL     1      -0.761   0.030   0.072  1.00  0.00     0.345 HD
ATOM     13  H   UNL     1      -0.025   0.391  -1.378  1.00  0.00     0.345 HD
ENDBRANCH   5  10
BRANCH   7  14
ATOM     14  C   UNL     1       0.699   3.558  -1.742  1.00  0.00     0.052 C 
BRANCH  14  15
ATOM     15  C   UNL     1      -0.299   2.968  -2.745  1.00  0.00     0.230 C 
BRANCH  15  16
ATOM     16  O   UNL     1      -1.533   3.709  -2.802  1.00  0.00    -0.494 OA
BRANCH  16  17
ATOM     17  C   UNL     1      -2.339   3.425  -1.738  1.00  0.00     0.119 A 
ATOM     18  C   UNL     1      -3.287   2.412  -1.830  1.00  0.00     0.047 A 
ATOM     19  C   UNL     1      -2.202   4.162  -0.567  1.00  0.00     0.047 A 
ATOM     20  C   UNL     1      -4.020   2.054  -0.695  1.00  0.00     0.010 A 
ATOM     21  C   UNL     1      -2.919   3.794   0.567  1.00  0.00     0.010 A 
ATOM     22  C   UNL     1      -3.817   2.720   0.524  1.00  0.00    -0.022 A 
BRANCH  22  23
ATOM     23  C   UNL     1      -4.478   2.238   1.791  1.00  0.00     0.191 C 
BRANCH  23  24
ATOM     24  O   UNL     1      -5.115   3.288   2.507  1.00  0.00    -0.392 OA
ATOM     25  H   UNL     1      -4.454   3.947   2.771  1.00  0.00     0.211 HD
ENDBRANCH  23  24
ENDBRANCH  22  23
ENDBRANCH  16  17
ENDBRANCH  15  16
ENDBRANCH  14  15
ENDBRANCH   7  14
ENDBRANCH   1   5
BRANCH   3  26
ATOM     26  C   UNL     1       3.026   0.577  -1.716  1.00  0.00     0.116 C 
BRANCH  26  27
ATOM     27  C   UNL     1       4.151   1.571  -1.391  1.00  0.00     0.023 C 
BRANCH  27  28
ATOM     28  C   UNL     1       5.544   0.977  -1.394  1.00  0.00     0.023 C 
BRANCH  28  29
ATOM     29  C   UNL     1       5.965   0.423  -2.737  1.00  0.00     0.116 C 
BRANCH  29  30
ATOM     30  N   UNL     1       5.813   1.365  -3.841  1.00  0.00    -0.352 N 
ATOM     31  C   UNL     1       6.670   1.552  -4.906  1.00  0.00     0.251 C 
ATOM     32  H   UNL     1       5.008   1.931  -3.825  1.00  0.00     0.163 HD
ATOM     33  O   UNL     1       6.487   2.413  -5.742  1.00  0.00    -0.269 OA
BRANCH  31  34
ATOM     34  C   UNL     1       7.854   0.676  -4.947  1.00  0.00     0.039 A 
ATOM     35  C   UNL     1       9.118   1.248  -4.808  1.00  0.00     0.014 A 
ATOM     36  C   UNL     1       7.663  -0.705  -4.867  1.00  0.00     0.014 A 
ATOM     37  C   UNL     1      10.198   0.424  -4.499  1.00  0.00     0.010 A 
ATOM     38  C   UNL     1       8.713  -1.498  -4.440  1.00  0.00     0.010 A 
ATOM     39  C   UNL     1       9.992  -0.945  -4.259  1.00  0.00    -0.014 A 
BRANCH  39  40
ATOM     40  C   UNL     1      11.100  -1.840  -3.850  1.00  0.00     0.031 A 
ATOM     41  C   UNL     1      11.440  -3.017  -4.721  1.00  0.00     0.074 A 
ATOM     42  C   UNL     1      11.727  -1.655  -2.672  1.00  0.00     0.049 A 
ATOM     43  N   UNL     1      12.271  -4.001  -4.499  1.00  0.00    -0.248 NA
ATOM     44  C   UNL     1      10.700  -3.132  -5.990  1.00  0.00     0.031 C 
ATOM     45  C   UNL     1      11.435  -0.594  -1.707  1.00  0.00     0.029 A 
ATOM     46  N   UNL     1      12.740  -2.369  -2.081  1.00  0.00    -0.354 N 
ATOM     47  C   UNL     1      12.121  -4.864  -5.576  1.00  0.00     0.074 A 
ATOM     48  C   UNL     1      11.070  -4.330  -6.411  1.00  0.00     0.031 C 
ATOM     49  C   UNL     1      12.274  -0.704  -0.663  1.00  0.00     0.029 A 
ATOM     50  C   UNL     1      13.137  -1.863  -0.867  1.00  0.00     0.049 A 
ATOM     51  H   UNL     1      13.144  -3.168  -2.489  1.00  0.00     0.167 HD
ATOM     52  C   UNL     1      12.825  -5.982  -5.865  1.00  0.00     0.037 A 
ATOM     53  C   UNL     1      14.094  -2.290  -0.022  1.00  0.00     0.037 A 
ATOM     54  C   UNL     1      13.918  -6.465  -5.068  1.00  0.00     0.049 A 
ATOM     55  C   UNL     1      14.902  -3.505  -0.392  1.00  0.00     0.074 A 
ATOM     56  C   UNL     1      14.757  -7.535  -5.312  1.00  0.00     0.029 A 
ATOM     57  N   UNL     1      14.331  -5.890  -3.875  1.00  0.00    -0.354 N 
ATOM     58  N   UNL     1      14.802  -4.274  -1.449  1.00  0.00    -0.248 NA
ATOM     59  C   UNL     1      15.962  -3.907   0.543  1.00  0.00     0.031 C 
ATOM     60  C   UNL     1      15.663  -7.627  -4.251  1.00  0.00     0.029 A 
ATOM     61  C   UNL     1      15.411  -6.590  -3.366  1.00  0.00     0.049 A 
ATOM     62  H   UNL     1      13.917  -5.102  -3.454  1.00  0.00     0.167 HD
ATOM     63  C   UNL     1      15.799  -5.232  -1.322  1.00  0.00     0.074 A 
ATOM     64  C   UNL     1      16.502  -4.939  -0.090  1.00  0.00     0.031 C 
ATOM     65  C   UNL     1      16.104  -6.263  -2.147  1.00  0.00     0.037 A 
BRANCH  52  66
ATOM     66  C   UNL     1      12.444  -6.734  -7.105  1.00  0.00     0.064 A 
ATOM     67  C   UNL     1      12.667  -6.203  -8.385  1.00  0.00     0.173 A 
ATOM     68  C   UNL     1      11.850  -8.001  -7.015  1.00  0.00     0.173 A 
ATOM     69  F   UNL     1      13.214  -4.985  -8.525  1.00  0.00    -0.203 F 
ATOM     70  C   UNL     1      12.273  -6.894  -9.527  1.00  0.00     0.198 A 
ATOM     71  C   UNL     1      11.489  -8.705  -8.161  1.00  0.00     0.198 A 
ATOM     72  F   UNL     1      11.615  -8.556  -5.816  1.00  0.00    -0.203 F 
ATOM     73  F   UNL     1      12.437  -6.337 -10.735  1.00  0.00    -0.200 F 
ATOM     74  C   UNL     1      11.691  -8.147  -9.415  1.00  0.00     0.200 A 
ATOM     75  F   UNL     1      10.934  -9.920  -8.052  1.00  0.00    -0.200 F 
ATOM     76  F   UNL     1      11.313  -8.812 -10.515  1.00  0.00    -0.200 F 
ENDBRANCH  52  66
BRANCH  53  77
ATOM     77  C   UNL     1      14.374  -1.541   1.231  1.00  0.00     0.064 A 
ATOM     78  C   UNL     1      15.558  -0.803   1.374  1.00  0.00     0.173 A 
ATOM     79  C   UNL     1      13.478  -1.550   2.310  1.00  0.00     0.173 A 
ATOM     80  F   UNL     1      16.455  -0.779   0.377  1.00  0.00    -0.203 F 
ATOM     81  C   UNL     1      15.846  -0.121   2.555  1.00  0.00     0.198 A 
ATOM     82  C   UNL     1      13.755  -0.847   3.481  1.00  0.00     0.198 A 
ATOM     83  F   UNL     1      12.329  -2.235   2.222  1.00  0.00    -0.203 F 
ATOM     84  F   UNL     1      17.005   0.539   2.679  1.00  0.00    -0.200 F 
ATOM     85  C   UNL     1      14.942  -0.140   3.606  1.00  0.00     0.200 A 
ATOM     86  F   UNL     1      12.874  -0.857   4.490  1.00  0.00    -0.200 F 
ATOM     87  F   UNL     1      15.218   0.517   4.741  1.00  0.00    -0.200 F 
ENDBRANCH  53  77
BRANCH  65  88
ATOM     88  C   UNL     1      17.269  -7.126  -1.767  1.00  0.00     0.064 A 
ATOM     89  C   UNL     1      17.183  -8.054  -0.720  1.00  0.00     0.173 A 
ATOM     90  C   UNL     1      18.462  -7.065  -2.502  1.00  0.00     0.173 A 
ATOM     91  F   UNL     1      16.067  -8.137   0.018  1.00  0.00    -0.203 F 
ATOM     92  C   UNL     1      18.259  -8.880  -0.411  1.00  0.00     0.198 A 
ATOM     93  C   UNL     1      19.526  -7.912  -2.208  1.00  0.00     0.198 A 
ATOM     94  F   UNL     1      18.588  -6.198  -3.518  1.00  0.00    -0.203 F 
ATOM     95  F   UNL     1      18.171  -9.736   0.617  1.00  0.00    -0.200 F 
ATOM     96  C   UNL     1      19.426  -8.815  -1.160  1.00  0.00     0.200 A 
ATOM     97  F   UNL     1      20.647  -7.858  -2.941  1.00  0.00    -0.200 F 
ATOM     98  F   UNL     1      20.456  -9.621  -0.868  1.00  0.00    -0.200 F 
ENDBRANCH  65  88
ENDBRANCH  39  40
ENDBRANCH  31  34
ENDBRANCH  29  30
ENDBRANCH  28  29
ENDBRANCH  27  28
ENDBRANCH  26  27
ENDBRANCH   3  26
TORSDOF 18
