REMARK SMILES C=Cc1cc(Cl)cc2c1O[C@H](C(F)(F)F)C(C(=O)NCCCCNC(=O)c1ccc(-c3c4nc(c(-c5c(F)c(F)c(F)c(F)c5F)c5ccc([nH]5)c(-c5c(F)c(F)c(F)c(F)c5F)c5nc(c(-c6c(F)c(F)c(F)c(F)c6F)c6ccc3[nH]6)C=C5)C=C4)cc1)=C2
REMARK SMILES IDX 22 1 21 2 20 3 19 4 17 5 18 6 16 8 3 9 4 10 9 11 5 12 8 13
REMARK SMILES IDX 10 14 6 15 7 16 90 17 11 18 2 19 1 20 12 21 13 22 14 23
REMARK SMILES IDX 15 24 23 25 24 26 25 27 26 29 27 30 28 31 89 32 29 33 88 34
REMARK SMILES IDX 30 35 31 36 32 37 82 38 33 39 87 40 81 41 83 42 34 43 86 44
REMARK SMILES IDX 80 45 79 46 35 48 67 49 47 50 66 51 48 52 51 53 65 54 84 55
REMARK SMILES IDX 49 56 50 57 64 59 85 60 52 61 36 62 37 63 45 64 38 65 39 66
REMARK SMILES IDX 43 67 46 68 40 69 41 70 44 71 42 72 68 73 69 74 77 75 70 76
REMARK SMILES IDX 71 77 75 78 78 79 72 80 73 81 76 82 74 83 53 84 54 85 62 86
REMARK SMILES IDX 55 87 56 88 60 89 63 90 57 91 58 92 61 93 59 94
REMARK H PARENT 19 7 24 28 83 47 51 58
REMARK Flexibility Score: inf
ROOT
ATOM      1  C   UNL     1      -1.950   8.671  -2.882  1.00  0.00     0.023 C 
ENDROOT
BRANCH   1   2
ATOM      2  C   UNL     1      -1.544   7.398  -2.134  1.00  0.00     0.023 C 
BRANCH   2   3
ATOM      3  C   UNL     1      -2.087   7.307  -0.711  1.00  0.00     0.116 C 
BRANCH   3   4
ATOM      4  N   UNL     1      -3.434   6.767  -0.674  1.00  0.00    -0.352 N 
ATOM      5  C   UNL     1      -4.009   5.567  -0.419  1.00  0.00     0.251 C 
ATOM      6  O   UNL     1      -5.241   5.548  -0.510  1.00  0.00    -0.270 OA
ATOM      7  H   UNL     1      -4.107   7.452  -0.891  1.00  0.00     0.163 HD
BRANCH   5   8
ATOM      8  C   UNL     1      -3.276   4.319  -0.053  1.00  0.00     0.067 C 
ATOM      9  C   UNL     1      -1.335   0.655   0.716  1.00  0.00     0.018 A 
ATOM     10  C   UNL     1      -2.111  -0.470   1.023  1.00  0.00     0.032 A 
ATOM     11  C   UNL     1      -1.986   1.866   0.422  1.00  0.00     0.135 A 
ATOM     12  C   UNL     1      -3.503  -0.387   1.006  1.00  0.00     0.042 A 
ATOM     13  C   UNL     1      -3.383   1.946   0.395  1.00  0.00     0.019 A 
ATOM     14  O   UNL     1      -1.207   2.947   0.101  1.00  0.00    -0.475 OA
ATOM     15  Cl  UNL     1      -4.443  -1.780   1.379  1.00  0.00    -0.084 Cl
ATOM     16  C   UNL     1      -4.143   0.811   0.688  1.00  0.00     0.032 A 
ATOM     17  C   UNL     1      -4.024   3.202   0.019  1.00  0.00     0.025 C 
ATOM     18  C   UNL     1      -1.811   4.256   0.266  1.00  0.00     0.314 C 
BRANCH   9  19
ATOM     19  C   UNL     1       0.133   0.590   0.758  1.00  0.00     0.004 C 
ATOM     20  C   UNL     1       0.852  -0.364   0.153  1.00  0.00     0.009 C 
ENDBRANCH   9  19
BRANCH  18  21
ATOM     21  C   UNL     1      -1.485   4.796   1.671  1.00  0.00     0.429 C 
ATOM     22  F   UNL     1      -0.152   5.017   1.795  1.00  0.00    -0.167 F 
ATOM     23  F   UNL     1      -2.094   5.978   1.926  1.00  0.00    -0.167 F 
ATOM     24  F   UNL     1      -1.848   3.944   2.655  1.00  0.00    -0.167 F 
ENDBRANCH  18  21
ENDBRANCH   5   8
ENDBRANCH   3   4
ENDBRANCH   2   3
ENDBRANCH   1   2
BRANCH   1  25
ATOM     25  C   UNL     1      -1.589   9.982  -2.188  1.00  0.00     0.116 C 
BRANCH  25  26
ATOM     26  N   UNL     1      -0.188  10.094  -1.807  1.00  0.00    -0.352 N 
ATOM     27  C   UNL     1       0.551  11.245  -1.645  1.00  0.00     0.251 C 
ATOM     28  H   UNL     1       0.287   9.247  -1.645  1.00  0.00     0.163 HD
ATOM     29  O   UNL     1       1.746  11.200  -1.380  1.00  0.00    -0.269 OA
BRANCH  27  30
ATOM     30  C   UNL     1      -0.120  12.541  -1.860  1.00  0.00     0.039 A 
ATOM     31  C   UNL     1      -1.301  12.837  -1.177  1.00  0.00     0.014 A 
ATOM     32  C   UNL     1       0.379  13.407  -2.835  1.00  0.00     0.014 A 
ATOM     33  C   UNL     1      -2.073  13.914  -1.591  1.00  0.00     0.010 A 
ATOM     34  C   UNL     1      -0.365  14.530  -3.200  1.00  0.00     0.010 A 
ATOM     35  C   UNL     1      -1.623  14.758  -2.620  1.00  0.00    -0.014 A 
BRANCH  35  36
ATOM     36  C   UNL     1      -2.501  15.855  -3.094  1.00  0.00     0.031 A 
ATOM     37  C   UNL     1      -3.108  15.810  -4.469  1.00  0.00     0.074 A 
ATOM     38  C   UNL     1      -2.809  16.856  -2.251  1.00  0.00     0.049 A 
ATOM     39  N   UNL     1      -3.914  16.667  -5.044  1.00  0.00    -0.248 NA
ATOM     40  C   UNL     1      -2.767  14.653  -5.312  1.00  0.00     0.031 C 
ATOM     41  C   UNL     1      -2.300  16.988  -0.885  1.00  0.00     0.029 A 
ATOM     42  N   UNL     1      -3.647  17.930  -2.402  1.00  0.00    -0.354 N 
ATOM     43  C   UNL     1      -4.158  16.167  -6.316  1.00  0.00     0.074 A 
ATOM     44  C   UNL     1      -3.402  14.940  -6.440  1.00  0.00     0.031 C 
ATOM     45  C   UNL     1      -2.884  18.045  -0.302  1.00  0.00     0.029 A 
ATOM     46  C   UNL     1      -3.760  18.697  -1.270  1.00  0.00     0.049 A 
ATOM     47  H   UNL     1      -4.122  18.131  -3.241  1.00  0.00     0.167 HD
ATOM     48  C   UNL     1      -4.948  16.684  -7.287  1.00  0.00     0.037 A 
ATOM     49  C   UNL     1      -4.487  19.805  -1.039  1.00  0.00     0.037 A 
ATOM     50  C   UNL     1      -5.719  17.892  -7.151  1.00  0.00     0.049 A 
ATOM     51  C   UNL     1      -5.332  20.372  -2.141  1.00  0.00     0.074 A 
ATOM     52  C   UNL     1      -6.552  18.495  -8.078  1.00  0.00     0.029 A 
ATOM     53  N   UNL     1      -5.758  18.677  -6.009  1.00  0.00    -0.354 N 
ATOM     54  N   UNL     1      -5.530  19.906  -3.349  1.00  0.00    -0.248 NA
ATOM     55  C   UNL     1      -6.041  21.625  -1.852  1.00  0.00     0.031 C 
ATOM     56  C   UNL     1      -7.072  19.661  -7.507  1.00  0.00     0.029 A 
ATOM     57  C   UNL     1      -6.592  19.766  -6.212  1.00  0.00     0.049 A 
ATOM     58  H   UNL     1      -5.267  18.490  -5.177  1.00  0.00     0.167 HD
ATOM     59  C   UNL     1      -6.386  20.806  -3.967  1.00  0.00     0.074 A 
ATOM     60  C   UNL     1      -6.687  21.834  -2.992  1.00  0.00     0.031 C 
ATOM     61  C   UNL     1      -6.871  20.784  -5.232  1.00  0.00     0.037 A 
BRANCH  48  62
ATOM     62  C   UNL     1      -5.011  15.954  -8.596  1.00  0.00     0.064 A 
ATOM     63  C   UNL     1      -5.735  14.761  -8.738  1.00  0.00     0.173 A 
ATOM     64  C   UNL     1      -4.385  16.482  -9.735  1.00  0.00     0.173 A 
ATOM     65  F   UNL     1      -6.339  14.209  -7.675  1.00  0.00    -0.203 F 
ATOM     66  C   UNL     1      -5.819  14.117  -9.970  1.00  0.00     0.198 A 
ATOM     67  C   UNL     1      -4.488  15.847 -10.970  1.00  0.00     0.198 A 
ATOM     68  F   UNL     1      -3.682  17.622  -9.652  1.00  0.00    -0.203 F 
ATOM     69  F   UNL     1      -6.490  12.962 -10.076  1.00  0.00    -0.200 F 
ATOM     70  C   UNL     1      -5.202  14.664 -11.085  1.00  0.00     0.200 A 
ATOM     71  F   UNL     1      -3.898  16.381 -12.048  1.00  0.00    -0.200 F 
ATOM     72  F   UNL     1      -5.290  14.047 -12.272  1.00  0.00    -0.200 F 
ENDBRANCH  48  62
BRANCH  49  73
ATOM     73  C   UNL     1      -4.444  20.430   0.305  1.00  0.00     0.064 A 
ATOM     74  C   UNL     1      -5.534  20.321   1.179  1.00  0.00     0.173 A 
ATOM     75  C   UNL     1      -3.295  21.088   0.766  1.00  0.00     0.173 A 
ATOM     76  F   UNL     1      -6.659  19.714   0.773  1.00  0.00    -0.203 F 
ATOM     77  C   UNL     1      -5.473  20.844   2.469  1.00  0.00     0.198 A 
ATOM     78  C   UNL     1      -3.227  21.590   2.063  1.00  0.00     0.198 A 
ATOM     79  F   UNL     1      -2.226  21.210  -0.034  1.00  0.00    -0.203 F 
ATOM     80  F   UNL     1      -6.532  20.739   3.282  1.00  0.00    -0.200 F 
ATOM     81  C   UNL     1      -4.316  21.468   2.913  1.00  0.00     0.200 A 
ATOM     82  F   UNL     1      -2.102  22.177   2.494  1.00  0.00    -0.200 F 
ATOM     83  F   UNL     1      -4.250  21.950   4.161  1.00  0.00    -0.200 F 
ENDBRANCH  49  73
BRANCH  61  84
ATOM     84  C   UNL     1      -7.780  21.904  -5.635  1.00  0.00     0.064 A 
ATOM     85  C   UNL     1      -7.274  23.176  -5.938  1.00  0.00     0.173 A 
ATOM     86  C   UNL     1      -9.159  21.691  -5.769  1.00  0.00     0.173 A 
ATOM     87  F   UNL     1      -5.962  23.428  -5.810  1.00  0.00    -0.203 F 
ATOM     88  C   UNL     1      -8.121  24.201  -6.349  1.00  0.00     0.198 A 
ATOM     89  C   UNL     1     -10.000  22.713  -6.199  1.00  0.00     0.198 A 
ATOM     90  F   UNL     1      -9.687  20.489  -5.494  1.00  0.00    -0.203 F 
ATOM     91  F   UNL     1      -7.622  25.418  -6.605  1.00  0.00    -0.200 F 
ATOM     92  C   UNL     1      -9.481  23.967  -6.485  1.00  0.00     0.200 A 
ATOM     93  F   UNL     1     -11.313  22.484  -6.338  1.00  0.00    -0.200 F 
ATOM     94  F   UNL     1     -10.294  24.953  -6.888  1.00  0.00    -0.200 F 
ENDBRANCH  61  84
ENDBRANCH  35  36
ENDBRANCH  27  30
ENDBRANCH  25  26
ENDBRANCH   1  25
TORSDOF 13
