REMARK SMILES N#C/C(=C/c1cc2c(cc1Br)OCO2)C(=O)NCCCCNC(=O)c1ccc(-c2c3nc(c(-c4c(F)c(F)c(F)c(F)c4F)c4ccc([nH]4)c(-c4c(F)c(F)c(F)c(F)c4F)c4nc(c(-c5c(F)c(F)c(F)c(F)c5F)c5ccc2[nH]5)C=C4)C=C3)cc1
REMARK SMILES IDX 20 1 19 2 18 3 17 4 15 5 16 6 3 8 4 9 2 10 1 11 5 12 6 13
REMARK SMILES IDX 10 14 7 15 9 16 11 17 8 18 14 19 12 20 13 21 21 22 22 23
REMARK SMILES IDX 23 24 24 26 25 27 26 28 87 29 27 30 86 31 28 32 29 33 30 34
REMARK SMILES IDX 80 35 31 36 85 37 79 38 81 39 32 40 84 41 78 42 77 43 33 45
REMARK SMILES IDX 65 46 45 47 64 48 46 49 49 50 63 51 82 52 47 53 48 54 62 56
REMARK SMILES IDX 83 57 50 58 34 59 35 60 43 61 36 62 37 63 41 64 44 65 38 66
REMARK SMILES IDX 39 67 42 68 40 69 66 70 67 71 75 72 68 73 69 74 73 75 76 76
REMARK SMILES IDX 70 77 71 78 74 79 72 80 51 81 52 82 60 83 53 84 54 85 58 86
REMARK SMILES IDX 61 87 55 88 56 89 59 90 57 91
REMARK H PARENT 17 7 22 25 81 44 49 55
REMARK Flexibility Score: inf
ROOT
ATOM      1  C   UNL     1       8.607  -0.060  -2.719  1.00  0.00     0.023 C 
ENDROOT
BRANCH   1   2
ATOM      2  C   UNL     1       7.587  -1.114  -2.287  1.00  0.00     0.023 C 
BRANCH   2   3
ATOM      3  C   UNL     1       6.532  -0.662  -1.285  1.00  0.00     0.116 C 
BRANCH   3   4
ATOM      4  N   UNL     1       5.609   0.353  -1.730  1.00  0.00    -0.351 N 
ATOM      5  C   UNL     1       4.394   0.728  -1.224  1.00  0.00     0.261 C 
ATOM      6  O   UNL     1       3.806   1.639  -1.809  1.00  0.00    -0.268 OA
ATOM      7  H   UNL     1       5.899   0.856  -2.525  1.00  0.00     0.163 HD
BRANCH   5   8
ATOM      8  C   UNL     1       3.730   0.065  -0.057  1.00  0.00     0.117 C 
ATOM      9  C   UNL     1       4.225  -0.440   1.101  1.00  0.00     0.034 C 
BRANCH   8  10
ATOM     10  C   UNL     1       2.210   0.065  -0.057  1.00  0.00     0.105 C 
ATOM     11  N   UNL     1       0.949   0.065  -0.057  1.00  0.00    -0.192 NA
ENDBRANCH   8  10
BRANCH   9  12
ATOM     12  C   UNL     1       5.587  -0.565   1.631  1.00  0.00    -0.006 A 
ATOM     13  C   UNL     1       6.135  -1.863   1.649  1.00  0.00     0.060 A 
ATOM     14  C   UNL     1       6.365   0.526   2.089  1.00  0.00     0.029 A 
ATOM     15  C   UNL     1       7.462  -2.004   1.990  1.00  0.00     0.166 A 
ATOM     16  C   UNL     1       7.697   0.340   2.478  1.00  0.00     0.067 A 
ATOM     17  Br  UNL     1       5.666   2.290   2.162  1.00  0.00    -0.050 Br
ATOM     18  C   UNL     1       8.221  -0.932   2.387  1.00  0.00     0.166 A 
ATOM     19  O   UNL     1       8.184  -3.152   1.908  1.00  0.00    -0.454 OA
ATOM     20  O   UNL     1       9.515  -1.277   2.614  1.00  0.00    -0.454 OA
ATOM     21  C   UNL     1       9.513  -2.660   2.199  1.00  0.00     0.468 C 
ENDBRANCH   9  12
ENDBRANCH   5   8
ENDBRANCH   3   4
ENDBRANCH   2   3
ENDBRANCH   1   2
BRANCH   1  22
ATOM     22  C   UNL     1       9.273   0.758  -1.612  1.00  0.00     0.116 C 
BRANCH  22  23
ATOM     23  N   UNL     1      10.027  -0.038  -0.651  1.00  0.00    -0.352 N 
ATOM     24  C   UNL     1      11.376  -0.071  -0.369  1.00  0.00     0.251 C 
ATOM     25  H   UNL     1       9.481  -0.656  -0.113  1.00  0.00     0.163 HD
ATOM     26  O   UNL     1      11.825  -0.899   0.414  1.00  0.00    -0.269 OA
BRANCH  24  27
ATOM     27  C   UNL     1      12.297   0.854  -1.062  1.00  0.00     0.039 A 
ATOM     28  C   UNL     1      13.450   0.334  -1.660  1.00  0.00     0.014 A 
ATOM     29  C   UNL     1      11.997   2.211  -1.175  1.00  0.00     0.014 A 
ATOM     30  C   UNL     1      14.220   1.145  -2.496  1.00  0.00     0.010 A 
ATOM     31  C   UNL     1      12.712   2.993  -2.072  1.00  0.00     0.010 A 
ATOM     32  C   UNL     1      13.808   2.458  -2.768  1.00  0.00    -0.014 A 
BRANCH  32  33
ATOM     33  C   UNL     1      14.449   3.286  -3.820  1.00  0.00     0.031 A 
ATOM     34  C   UNL     1      15.070   4.601  -3.456  1.00  0.00     0.074 A 
ATOM     35  C   UNL     1      14.317   2.932  -5.114  1.00  0.00     0.049 A 
ATOM     36  N   UNL     1      15.455   5.581  -4.232  1.00  0.00    -0.248 NA
ATOM     37  C   UNL     1      15.234   4.866  -2.019  1.00  0.00     0.031 C 
ATOM     38  C   UNL     1      13.678   1.705  -5.595  1.00  0.00     0.029 A 
ATOM     39  N   UNL     1      14.676   3.591  -6.264  1.00  0.00    -0.354 N 
ATOM     40  C   UNL     1      15.857   6.598  -3.377  1.00  0.00     0.074 A 
ATOM     41  C   UNL     1      15.644   6.126  -2.026  1.00  0.00     0.031 C 
ATOM     42  C   UNL     1      13.685   1.701  -6.936  1.00  0.00     0.029 A 
ATOM     43  C   UNL     1      14.287   2.943  -7.411  1.00  0.00     0.049 A 
ATOM     44  H   UNL     1      15.165   4.445  -6.266  1.00  0.00     0.167 HD
ATOM     45  C   UNL     1      16.364   7.813  -3.696  1.00  0.00     0.037 A 
ATOM     46  C   UNL     1      14.379   3.319  -8.701  1.00  0.00     0.037 A 
ATOM     47  C   UNL     1      16.616   8.252  -5.043  1.00  0.00     0.049 A 
ATOM     48  C   UNL     1      15.003   4.644  -9.034  1.00  0.00     0.074 A 
ATOM     49  C   UNL     1      17.206   9.427  -5.473  1.00  0.00     0.029 A 
ATOM     50  N   UNL     1      16.294   7.524  -6.180  1.00  0.00    -0.354 N 
ATOM     51  N   UNL     1      15.434   5.577  -8.221  1.00  0.00    -0.248 NA
ATOM     52  C   UNL     1      15.157   4.970 -10.458  1.00  0.00     0.031 C 
ATOM     53  C   UNL     1      17.214   9.423  -6.872  1.00  0.00     0.029 A 
ATOM     54  C   UNL     1      16.664   8.229  -7.313  1.00  0.00     0.049 A 
ATOM     55  H   UNL     1      15.865   6.638  -6.181  1.00  0.00     0.167 HD
ATOM     56  C   UNL     1      15.932   6.588  -9.029  1.00  0.00     0.074 A 
ATOM     57  C   UNL     1      15.753   6.154 -10.400  1.00  0.00     0.031 C 
ATOM     58  C   UNL     1      16.491   7.769  -8.667  1.00  0.00     0.037 A 
BRANCH  45  59
ATOM     59  C   UNL     1      16.666   8.750  -2.563  1.00  0.00     0.064 A 
ATOM     60  C   UNL     1      17.716   8.509  -1.665  1.00  0.00     0.173 A 
ATOM     61  C   UNL     1      15.887   9.901  -2.368  1.00  0.00     0.173 A 
ATOM     62  F   UNL     1      18.482   7.415  -1.799  1.00  0.00    -0.203 F 
ATOM     63  C   UNL     1      17.947   9.360  -0.587  1.00  0.00     0.198 A 
ATOM     64  C   UNL     1      16.141  10.767  -1.308  1.00  0.00     0.198 A 
ATOM     65  F   UNL     1      14.875  10.183  -3.202  1.00  0.00    -0.203 F 
ATOM     66  F   UNL     1      18.913   9.072   0.296  1.00  0.00    -0.200 F 
ATOM     67  C   UNL     1      17.162  10.489  -0.411  1.00  0.00     0.200 A 
ATOM     68  F   UNL     1      15.388  11.864  -1.145  1.00  0.00    -0.200 F 
ATOM     69  F   UNL     1      17.381  11.303   0.630  1.00  0.00    -0.200 F 
ENDBRANCH  45  59
BRANCH  46  70
ATOM     70  C   UNL     1      13.883   2.408  -9.763  1.00  0.00     0.064 A 
ATOM     71  C   UNL     1      14.779   1.683 -10.559  1.00  0.00     0.173 A 
ATOM     72  C   UNL     1      12.511   2.204  -9.969  1.00  0.00     0.173 A 
ATOM     73  F   UNL     1      16.099   1.857 -10.408  1.00  0.00    -0.203 F 
ATOM     74  C   UNL     1      14.321   0.788 -11.525  1.00  0.00     0.198 A 
ATOM     75  C   UNL     1      12.054   1.294 -10.921  1.00  0.00     0.198 A 
ATOM     76  F   UNL     1      11.614   2.867  -9.225  1.00  0.00    -0.203 F 
ATOM     77  F   UNL     1      15.199   0.121 -12.287  1.00  0.00    -0.200 F 
ATOM     78  C   UNL     1      12.960   0.589 -11.699  1.00  0.00     0.200 A 
ATOM     79  F   UNL     1      10.739   1.091 -11.075  1.00  0.00    -0.200 F 
ATOM     80  F   UNL     1      12.521  -0.285 -12.616  1.00  0.00    -0.200 F 
ENDBRANCH  46  70
BRANCH  58  81
ATOM     81  C   UNL     1      16.988   8.662  -9.762  1.00  0.00     0.064 A 
ATOM     82  C   UNL     1      16.109   9.437 -10.531  1.00  0.00     0.173 A 
ATOM     83  C   UNL     1      18.365   8.803  -9.986  1.00  0.00     0.173 A 
ATOM     84  F   UNL     1      14.783   9.323 -10.362  1.00  0.00    -0.203 F 
ATOM     85  C   UNL     1      16.593  10.320 -11.492  1.00  0.00     0.198 A 
ATOM     86  C   UNL     1      18.846   9.702 -10.932  1.00  0.00     0.198 A 
ATOM     87  F   UNL     1      19.243   8.084  -9.271  1.00  0.00    -0.203 F 
ATOM     88  F   UNL     1      15.737  11.038 -12.232  1.00  0.00    -0.200 F 
ATOM     89  C   UNL     1      17.961  10.460 -11.684  1.00  0.00     0.200 A 
ATOM     90  F   UNL     1      20.167   9.843 -11.110  1.00  0.00    -0.200 F 
ATOM     91  F   UNL     1      18.425  11.324 -12.597  1.00  0.00    -0.200 F 
ENDBRANCH  58  81
ENDBRANCH  32  33
ENDBRANCH  24  27
ENDBRANCH  22  23
ENDBRANCH   1  22
TORSDOF 13
