REMARK SMILES COc1cc(C(=O)NC2(C(=O)NCCCCNC(=O)c3ccc(-c4c5nc(c(-c6c(F)c(F)c(F)c(F)c6F)c6ccc([nH]6)c(-c6c(F)c(F)c(F)c(F)c6F)c6nc(c(-c7c(F)c(F)c(F)c(F)c7F)c7ccc4[nH]7)C=C6)C=C5)cc3)CCCCC2)cc2c1OCCO2
REMARK SMILES IDX 14 1 13 2 12 3 10 4 11 5 9 7 83 8 87 9 84 10 86 11 85 12
REMARK SMILES IDX 8 13 6 14 7 15 5 17 3 18 4 19 90 20 89 21 91 22 88 23 94 24
REMARK SMILES IDX 92 25 93 26 2 27 1 28 15 29 16 30 17 31 18 32 19 34 20 35
REMARK SMILES IDX 21 36 82 37 22 38 81 39 23 40 24 41 25 42 75 43 26 44 80 45
REMARK SMILES IDX 74 46 76 47 27 48 79 49 73 50 72 51 28 53 60 54 40 55 59 56
REMARK SMILES IDX 41 57 44 58 58 59 77 60 42 61 43 62 57 64 78 65 45 66 29 67
REMARK SMILES IDX 30 68 38 69 31 70 32 71 36 72 39 73 33 74 34 75 37 76 35 77
REMARK SMILES IDX 61 78 62 79 70 80 63 81 64 82 68 83 71 84 65 85 66 86 69 87
REMARK SMILES IDX 67 88 46 89 47 90 55 91 48 92 49 93 53 94 56 95 50 96 51 97
REMARK SMILES IDX 54 98 52 99
REMARK H PARENT 12 6 8 16 17 33 76 52 44 63
REMARK Flexibility Score: inf
ROOT
ATOM      1  C   UNL     1      -5.228   1.745  -2.505  1.00  0.00     0.023 C 
ENDROOT
BRANCH   1   2
ATOM      2  C   UNL     1      -3.745   2.036  -2.301  1.00  0.00     0.116 C 
BRANCH   2   3
ATOM      3  N   UNL     1      -3.419   3.418  -2.517  1.00  0.00    -0.354 N 
ATOM      4  C   UNL     1      -2.863   4.356  -1.712  1.00  0.00     0.245 C 
ATOM      5  O   UNL     1      -2.766   5.470  -2.250  1.00  0.00    -0.272 OA
ATOM      6  H   UNL     1      -3.642   3.746  -3.418  1.00  0.00     0.163 HD
BRANCH   4   7
ATOM      7  C   UNL     1      -2.485   4.163  -0.185  1.00  0.00     0.119 C 
ATOM      8  C   UNL     1      -1.780   2.861   0.259  1.00  0.00     0.038 C 
ATOM      9  C   UNL     1      -3.751   4.428   0.666  1.00  0.00     0.038 C 
ATOM     10  C   UNL     1      -2.547   1.737   0.970  1.00  0.00     0.003 C 
ATOM     11  C   UNL     1      -4.615   3.207   0.935  1.00  0.00     0.003 C 
ATOM     12  C   UNL     1      -3.836   2.129   1.664  1.00  0.00     0.000 C 
BRANCH   7  13
ATOM     13  N   UNL     1      -1.605   5.384   0.032  1.00  0.00    -0.338 N 
ATOM     14  C   UNL     1      -0.290   5.748  -0.090  1.00  0.00     0.252 C 
ATOM     15  O   UNL     1      -0.010   6.944   0.004  1.00  0.00    -0.269 OA
ATOM     16  H   UNL     1      -2.143   6.142   0.359  1.00  0.00     0.164 HD
BRANCH  14  17
ATOM     17  C   UNL     1       0.826   4.789  -0.207  1.00  0.00     0.047 A 
ATOM     18  C   UNL     1       1.744   2.677  -0.895  1.00  0.00     0.165 A 
ATOM     19  C   UNL     1       0.794   3.688  -1.054  1.00  0.00     0.064 A 
ATOM     20  C   UNL     1       2.859   2.869  -0.073  1.00  0.00     0.203 A 
ATOM     21  C   UNL     1       2.987   4.076   0.621  1.00  0.00     0.166 A 
ATOM     22  O   UNL     1       3.794   1.867   0.006  1.00  0.00    -0.483 OA
ATOM     23  C   UNL     1       1.954   5.010   0.597  1.00  0.00     0.064 A 
ATOM     24  O   UNL     1       4.088   4.394   1.376  1.00  0.00    -0.486 OA
ATOM     25  C   UNL     1       4.763   2.105   1.034  1.00  0.00     0.271 C 
ATOM     26  C   UNL     1       5.199   3.559   1.026  1.00  0.00     0.271 C 
BRANCH  18  27
ATOM     27  O   UNL     1       1.483   1.494  -1.542  1.00  0.00    -0.493 OA
ATOM     28  C   UNL     1       1.263   0.439  -0.598  1.00  0.00     0.278 C 
ENDBRANCH  18  27
ENDBRANCH  14  17
ENDBRANCH   7  13
ENDBRANCH   4   7
ENDBRANCH   2   3
ENDBRANCH   1   2
BRANCH   1  29
ATOM     29  C   UNL     1      -5.603   1.293  -3.911  1.00  0.00     0.023 C 
BRANCH  29  30
ATOM     30  C   UNL     1      -4.823   0.095  -4.438  1.00  0.00     0.116 C 
BRANCH  30  31
ATOM     31  N   UNL     1      -4.814  -1.057  -3.545  1.00  0.00    -0.352 N 
ATOM     32  C   UNL     1      -4.890  -2.390  -3.881  1.00  0.00     0.251 C 
ATOM     33  H   UNL     1      -4.745  -0.857  -2.583  1.00  0.00     0.163 HD
ATOM     34  O   UNL     1      -4.925  -3.261  -3.020  1.00  0.00    -0.269 OA
BRANCH  32  35
ATOM     35  C   UNL     1      -4.985  -2.742  -5.309  1.00  0.00     0.039 A 
ATOM     36  C   UNL     1      -6.086  -3.477  -5.752  1.00  0.00     0.014 A 
ATOM     37  C   UNL     1      -4.058  -2.222  -6.215  1.00  0.00     0.014 A 
ATOM     38  C   UNL     1      -6.312  -3.606  -7.122  1.00  0.00     0.010 A 
ATOM     39  C   UNL     1      -4.333  -2.278  -7.575  1.00  0.00     0.010 A 
ATOM     40  C   UNL     1      -5.469  -2.960  -8.041  1.00  0.00    -0.014 A 
BRANCH  40  41
ATOM     41  C   UNL     1      -5.756  -2.972  -9.497  1.00  0.00     0.031 A 
ATOM     42  C   UNL     1      -4.774  -3.598 -10.445  1.00  0.00     0.074 A 
ATOM     43  C   UNL     1      -6.849  -2.342  -9.970  1.00  0.00     0.049 A 
ATOM     44  N   UNL     1      -4.784  -3.620 -11.753  1.00  0.00    -0.248 NA
ATOM     45  C   UNL     1      -3.602  -4.252  -9.842  1.00  0.00     0.031 C 
ATOM     46  C   UNL     1      -7.844  -1.639  -9.157  1.00  0.00     0.029 A 
ATOM     47  N   UNL     1      -7.300  -2.178 -11.257  1.00  0.00    -0.354 N 
ATOM     48  C   UNL     1      -3.612  -4.263 -12.126  1.00  0.00     0.074 A 
ATOM     49  C   UNL     1      -2.888  -4.566 -10.912  1.00  0.00     0.031 C 
ATOM     50  C   UNL     1      -8.800  -1.144  -9.960  1.00  0.00     0.029 A 
ATOM     51  C   UNL     1      -8.469  -1.463 -11.345  1.00  0.00     0.049 A 
ATOM     52  H   UNL     1      -6.829  -2.540 -12.042  1.00  0.00     0.167 HD
ATOM     53  C   UNL     1      -3.191  -4.597 -13.369  1.00  0.00     0.037 A 
ATOM     54  C   UNL     1      -9.191  -1.105 -12.425  1.00  0.00     0.037 A 
ATOM     55  C   UNL     1      -3.936  -4.337 -14.570  1.00  0.00     0.049 A 
ATOM     56  C   UNL     1      -8.718  -1.518 -13.792  1.00  0.00     0.074 A 
ATOM     57  C   UNL     1      -3.633  -4.701 -15.870  1.00  0.00     0.029 A 
ATOM     58  N   UNL     1      -5.141  -3.650 -14.616  1.00  0.00    -0.354 N 
ATOM     59  N   UNL     1      -7.644  -2.190 -14.128  1.00  0.00    -0.248 NA
ATOM     60  C   UNL     1      -9.562  -1.129 -14.931  1.00  0.00     0.031 C 
ATOM     61  C   UNL     1      -4.639  -4.207 -16.707  1.00  0.00     0.029 A 
ATOM     62  C   UNL     1      -5.588  -3.570 -15.924  1.00  0.00     0.049 A 
ATOM     63  H   UNL     1      -5.608  -3.276 -13.835  1.00  0.00     0.167 HD
ATOM     64  C   UNL     1      -7.695  -2.327 -15.508  1.00  0.00     0.074 A 
ATOM     65  C   UNL     1      -8.914  -1.680 -15.947  1.00  0.00     0.031 C 
ATOM     66  C   UNL     1      -6.812  -2.933 -16.338  1.00  0.00     0.037 A 
BRANCH  53  67
ATOM     67  C   UNL     1      -1.869  -5.295 -13.483  1.00  0.00     0.064 A 
ATOM     68  C   UNL     1      -1.696  -6.616 -13.044  1.00  0.00     0.173 A 
ATOM     69  C   UNL     1      -0.766  -4.644 -14.056  1.00  0.00     0.173 A 
ATOM     70  F   UNL     1      -2.716  -7.277 -12.475  1.00  0.00    -0.203 F 
ATOM     71  C   UNL     1      -0.460  -7.249 -13.143  1.00  0.00     0.198 A 
ATOM     72  C   UNL     1       0.461  -5.290 -14.181  1.00  0.00     0.198 A 
ATOM     73  F   UNL     1      -0.878  -3.381 -14.495  1.00  0.00    -0.203 F 
ATOM     74  F   UNL     1      -0.306  -8.492 -12.666  1.00  0.00    -0.200 F 
ATOM     75  C   UNL     1       0.615  -6.588 -13.717  1.00  0.00     0.200 A 
ATOM     76  F   UNL     1       1.497  -4.654 -14.745  1.00  0.00    -0.200 F 
ATOM     77  F   UNL     1       1.804  -7.199 -13.815  1.00  0.00    -0.200 F 
ENDBRANCH  53  67
BRANCH  54  78
ATOM     78  C   UNL     1     -10.457  -0.347 -12.256  1.00  0.00     0.064 A 
ATOM     79  C   UNL     1     -11.696  -0.961 -12.492  1.00  0.00     0.173 A 
ATOM     80  C   UNL     1     -10.460   0.999 -11.863  1.00  0.00     0.173 A 
ATOM     81  F   UNL     1     -11.742  -2.241 -12.889  1.00  0.00    -0.203 F 
ATOM     82  C   UNL     1     -12.888  -0.252 -12.362  1.00  0.00     0.198 A 
ATOM     83  C   UNL     1     -11.654   1.700 -11.709  1.00  0.00     0.198 A 
ATOM     84  F   UNL     1      -9.302   1.629 -11.620  1.00  0.00    -0.203 F 
ATOM     85  F   UNL     1     -14.054  -0.851 -12.635  1.00  0.00    -0.200 F 
ATOM     86  C   UNL     1     -12.866   1.077 -11.966  1.00  0.00     0.200 A 
ATOM     87  F   UNL     1     -11.630   2.981 -11.314  1.00  0.00    -0.200 F 
ATOM     88  F   UNL     1     -14.013   1.759 -11.838  1.00  0.00    -0.200 F 
ENDBRANCH  54  78
BRANCH  66  89
ATOM     89  C   UNL     1      -7.147  -2.958 -17.799  1.00  0.00     0.064 A 
ATOM     90  C   UNL     1      -7.040  -1.810 -18.596  1.00  0.00     0.173 A 
ATOM     91  C   UNL     1      -7.534  -4.157 -18.417  1.00  0.00     0.173 A 
ATOM     92  F   UNL     1      -6.689  -0.637 -18.047  1.00  0.00    -0.203 F 
ATOM     93  C   UNL     1      -7.327  -1.857 -19.957  1.00  0.00     0.198 A 
ATOM     94  C   UNL     1      -7.795  -4.206 -19.783  1.00  0.00     0.198 A 
ATOM     95  F   UNL     1      -7.645  -5.283 -17.697  1.00  0.00    -0.203 F 
ATOM     96  F   UNL     1      -7.256  -0.739 -20.694  1.00  0.00    -0.200 F 
ATOM     97  C   UNL     1      -7.696  -3.055 -20.551  1.00  0.00     0.200 A 
ATOM     98  F   UNL     1      -8.140  -5.367 -20.357  1.00  0.00    -0.200 F 
ATOM     99  F   UNL     1      -7.964  -3.100 -21.863  1.00  0.00    -0.200 F 
ENDBRANCH  66  89
ENDBRANCH  40  41
ENDBRANCH  32  35
ENDBRANCH  30  31
ENDBRANCH  29  30
ENDBRANCH   1  29
TORSDOF 14
