REMARK SMILES COc1ccc(OC)c(C[NH2+][C@@H](C(=O)NCCCCNC(=O)c2ccc(-c3c4nc(c(-c5c(F)c(F)c(F)c(F)c5F)c5ccc([nH]5)c(-c5c(F)c(F)c(F)c(F)c5F)c5nc(c(-c6c(F)c(F)c(F)c(F)c6F)c6ccc3[nH]6)C=C5)C=C4)cc2)C(C)C)c1
REMARK SMILES IDX 16 1 15 2 13 3 14 4 12 6 11 7 10 10 9 11 3 12 4 13 89 14
REMARK SMILES IDX 5 15 6 16 2 17 1 18 7 19 8 20 86 21 87 22 88 23 17 24 18 25
REMARK SMILES IDX 19 26 20 27 21 28 22 30 23 31 24 32 85 33 25 34 84 35 26 36
REMARK SMILES IDX 27 37 28 38 78 39 29 40 83 41 77 42 79 43 30 44 82 45 76 46
REMARK SMILES IDX 75 47 31 49 63 50 43 51 62 52 44 53 47 54 61 55 80 56 45 57
REMARK SMILES IDX 46 58 60 60 81 61 48 62 32 63 33 64 41 65 34 66 35 67 39 68
REMARK SMILES IDX 42 69 36 70 37 71 40 72 38 73 64 74 65 75 73 76 66 77 67 78
REMARK SMILES IDX 71 79 74 80 68 81 69 82 72 83 70 84 49 85 50 86 58 87 51 88
REMARK SMILES IDX 52 89 56 90 59 91 53 92 54 93 57 94 55 95
REMARK H PARENT 15 5 11 8 11 9 20 29 79 48 47 59
REMARK Flexibility Score: inf
ROOT
ATOM      1  C   UNL     1       5.946  -0.410  -3.598  1.00  0.00     0.116 C 
ENDROOT
BRANCH   1   2
ATOM      2  N   UNL     1       6.554  -1.593  -3.006  1.00  0.00    -0.351 N 
ATOM      3  C   UNL     1       6.444  -2.927  -3.303  1.00  0.00     0.278 C 
ATOM      4  O   UNL     1       6.976  -3.711  -2.511  1.00  0.00    -0.268 OA
ATOM      5  H   UNL     1       7.157  -1.399  -2.252  1.00  0.00     0.163 HD
BRANCH   3   6
ATOM      6  C   UNL     1       5.652  -3.438  -4.553  1.00  0.00     0.275 C 
BRANCH   6   7
ATOM      7  N   UNL     1       4.242  -3.808  -4.198  1.00  0.00    -0.332 N 
ATOM      8  H   UNL     1       3.745  -4.089  -5.043  1.00  0.00     0.347 HD
ATOM      9  H   UNL     1       4.261  -4.577  -3.529  1.00  0.00     0.347 HD
BRANCH   7  10
ATOM     10  C   UNL     1       3.560  -2.681  -3.597  1.00  0.00     0.302 C 
BRANCH  10  11
ATOM     11  C   UNL     1       2.073  -2.686  -3.376  1.00  0.00     0.052 A 
ATOM     12  C   UNL     1       0.312  -1.939  -1.831  1.00  0.00     0.119 A 
ATOM     13  C   UNL     1      -0.649  -2.236  -2.786  1.00  0.00     0.050 A 
ATOM     14  C   UNL     1       1.649  -2.200  -2.112  1.00  0.00     0.059 A 
ATOM     15  C   UNL     1      -0.258  -2.730  -4.035  1.00  0.00     0.051 A 
ATOM     16  C   UNL     1       1.096  -2.920  -4.350  1.00  0.00     0.127 A 
BRANCH  12  17
ATOM     17  O   UNL     1      -0.119  -1.444  -0.631  1.00  0.00    -0.497 OA
ATOM     18  C   UNL     1       0.617  -0.306  -0.182  1.00  0.00     0.278 C 
ENDBRANCH  12  17
BRANCH  16  19
ATOM     19  O   UNL     1       1.330  -3.392  -5.612  1.00  0.00    -0.496 OA
ATOM     20  C   UNL     1       2.182  -2.577  -6.410  1.00  0.00     0.278 C 
ENDBRANCH  16  19
ENDBRANCH  10  11
ENDBRANCH   7  10
ENDBRANCH   6   7
BRANCH   6  21
ATOM     21  C   UNL     1       6.350  -4.698  -5.144  1.00  0.00     0.051 C 
ATOM     22  C   UNL     1       5.565  -5.303  -6.317  1.00  0.00     0.014 C 
ATOM     23  C   UNL     1       7.775  -4.386  -5.621  1.00  0.00     0.014 C 
ENDBRANCH   6  21
ENDBRANCH   3   6
ENDBRANCH   1   2
BRANCH   1  24
ATOM     24  C   UNL     1       4.794   0.132  -2.737  1.00  0.00     0.023 C 
BRANCH  24  25
ATOM     25  C   UNL     1       5.201   0.908  -1.496  1.00  0.00     0.023 C 
BRANCH  25  26
ATOM     26  C   UNL     1       5.657   2.319  -1.792  1.00  0.00     0.116 C 
BRANCH  26  27
ATOM     27  N   UNL     1       4.614   3.144  -2.391  1.00  0.00    -0.352 N 
ATOM     28  C   UNL     1       4.274   4.446  -2.108  1.00  0.00     0.251 C 
ATOM     29  H   UNL     1       4.080   2.709  -3.095  1.00  0.00     0.163 HD
ATOM     30  O   UNL     1       3.299   4.963  -2.633  1.00  0.00    -0.269 OA
BRANCH  28  31
ATOM     31  C   UNL     1       5.080   5.195  -1.124  1.00  0.00     0.039 A 
ATOM     32  C   UNL     1       4.429   5.946  -0.143  1.00  0.00     0.014 A 
ATOM     33  C   UNL     1       6.472   5.096  -1.133  1.00  0.00     0.014 A 
ATOM     34  C   UNL     1       5.179   6.543   0.870  1.00  0.00     0.010 A 
ATOM     35  C   UNL     1       7.200   5.583  -0.059  1.00  0.00     0.010 A 
ATOM     36  C   UNL     1       6.566   6.335   0.939  1.00  0.00    -0.014 A 
BRANCH  36  37
ATOM     37  C   UNL     1       7.391   6.941   2.010  1.00  0.00     0.031 A 
ATOM     38  C   UNL     1       8.490   7.900   1.638  1.00  0.00     0.074 A 
ATOM     39  C   UNL     1       7.206   6.575   3.293  1.00  0.00     0.049 A 
ATOM     40  N   UNL     1       9.388   8.469   2.401  1.00  0.00    -0.248 NA
ATOM     41  C   UNL     1       8.631   8.227   0.208  1.00  0.00     0.031 C 
ATOM     42  C   UNL     1       6.226   5.594   3.766  1.00  0.00     0.029 A 
ATOM     43  N   UNL     1       7.847   6.979   4.437  1.00  0.00    -0.354 N 
ATOM     44  C   UNL     1      10.213   9.182   1.541  1.00  0.00     0.074 A 
ATOM     45  C   UNL     1       9.754   8.927   0.195  1.00  0.00     0.031 C 
ATOM     46  C   UNL     1       6.312   5.495   5.103  1.00  0.00     0.029 A 
ATOM     47  C   UNL     1       7.371   6.380   5.578  1.00  0.00     0.049 A 
ATOM     48  H   UNL     1       8.580   7.637   4.439  1.00  0.00     0.167 HD
ATOM     49  C   UNL     1      11.242  10.005   1.849  1.00  0.00     0.037 A 
ATOM     50  C   UNL     1       7.748   6.537   6.860  1.00  0.00     0.037 A 
ATOM     51  C   UNL     1      11.644  10.312   3.193  1.00  0.00     0.049 A 
ATOM     52  C   UNL     1       8.842   7.521   7.180  1.00  0.00     0.074 A 
ATOM     53  C   UNL     1      12.614  11.200   3.623  1.00  0.00     0.029 A 
ATOM     54  N   UNL     1      11.081   9.749   4.329  1.00  0.00    -0.354 N 
ATOM     55  N   UNL     1       9.562   8.253   6.364  1.00  0.00    -0.248 NA
ATOM     56  C   UNL     1       9.163   7.716   8.601  1.00  0.00     0.031 C 
ATOM     57  C   UNL     1      12.660  11.151   5.019  1.00  0.00     0.029 A 
ATOM     58  C   UNL     1      11.687  10.268   5.460  1.00  0.00     0.049 A 
ATOM     59  H   UNL     1      10.358   9.081   4.330  1.00  0.00     0.167 HD
ATOM     60  C   UNL     1      10.392   9.020   7.171  1.00  0.00     0.074 A 
ATOM     61  C   UNL     1      10.076   8.675   8.541  1.00  0.00     0.031 C 
ATOM     62  C   UNL     1      11.333   9.927   6.813  1.00  0.00     0.037 A 
BRANCH  49  63
ATOM     63  C   UNL     1      11.984  10.651   0.717  1.00  0.00     0.064 A 
ATOM     64  C   UNL     1      11.397  11.649  -0.076  1.00  0.00     0.173 A 
ATOM     65  C   UNL     1      13.315  10.297   0.447  1.00  0.00     0.173 A 
ATOM     66  F   UNL     1      10.121  12.010   0.129  1.00  0.00    -0.203 F 
ATOM     67  C   UNL     1      12.106  12.251  -1.112  1.00  0.00     0.198 A 
ATOM     68  C   UNL     1      14.031  10.924  -0.569  1.00  0.00     0.198 A 
ATOM     69  F   UNL     1      13.924   9.349   1.175  1.00  0.00    -0.203 F 
ATOM     70  F   UNL     1      11.508  13.167  -1.886  1.00  0.00    -0.200 F 
ATOM     71  C   UNL     1      13.425  11.896  -1.351  1.00  0.00     0.200 A 
ATOM     72  F   UNL     1      15.309  10.587  -0.793  1.00  0.00    -0.200 F 
ATOM     73  F   UNL     1      14.109  12.486  -2.341  1.00  0.00    -0.200 F 
ENDBRANCH  49  63
BRANCH  50  74
ATOM     74  C   UNL     1       7.064   5.781   7.943  1.00  0.00     0.064 A 
ATOM     75  C   UNL     1       6.241   6.437   8.870  1.00  0.00     0.173 A 
ATOM     76  C   UNL     1       7.238   4.398   8.091  1.00  0.00     0.173 A 
ATOM     77  F   UNL     1       6.056   7.763   8.780  1.00  0.00    -0.203 F 
ATOM     78  C   UNL     1       5.647   5.745   9.924  1.00  0.00     0.198 A 
ATOM     79  C   UNL     1       6.619   3.702   9.128  1.00  0.00     0.198 A 
ATOM     80  F   UNL     1       8.006   3.721   7.225  1.00  0.00    -0.203 F 
ATOM     81  F   UNL     1       4.914   6.408  10.828  1.00  0.00    -0.200 F 
ATOM     82  C   UNL     1       5.835   4.378  10.050  1.00  0.00     0.200 A 
ATOM     83  F   UNL     1       6.791   2.377   9.238  1.00  0.00    -0.200 F 
ATOM     84  F   UNL     1       5.268   3.713  11.066  1.00  0.00    -0.200 F 
ENDBRANCH  50  74
BRANCH  62  85
ATOM     85  C   UNL     1      12.045  10.649   7.917  1.00  0.00     0.064 A 
ATOM     86  C   UNL     1      12.994  10.009   8.726  1.00  0.00     0.173 A 
ATOM     87  C   UNL     1      11.800  12.013   8.139  1.00  0.00     0.173 A 
ATOM     88  F   UNL     1      13.252   8.703   8.558  1.00  0.00    -0.203 F 
ATOM     89  C   UNL     1      13.649  10.700   9.741  1.00  0.00     0.198 A 
ATOM     90  C   UNL     1      12.480  12.709   9.134  1.00  0.00     0.198 A 
ATOM     91  F   UNL     1      10.909  12.673   7.384  1.00  0.00    -0.203 F 
ATOM     92  F   UNL     1      14.514  10.056  10.536  1.00  0.00    -0.200 F 
ATOM     93  C   UNL     1      13.397  12.050   9.939  1.00  0.00     0.200 A 
ATOM     94  F   UNL     1      12.247  14.016   9.315  1.00  0.00    -0.200 F 
ATOM     95  F   UNL     1      14.034  12.715  10.913  1.00  0.00    -0.200 F 
ENDBRANCH  62  85
ENDBRANCH  36  37
ENDBRANCH  28  31
ENDBRANCH  26  27
ENDBRANCH  25  26
ENDBRANCH  24  25
ENDBRANCH   1  24
TORSDOF 17
