REMARK SMILES C[C@H](C(=O)NCCCCNC(=O)c1ccc(-c2c3nc(c(-c4c(F)c(F)c(F)c(F)c4F)c4ccc([nH]4)c(-c4c(F)c(F)c(F)c(F)c4F)c4nc(c(-c5c(F)c(F)c(F)c(F)c5F)c5ccc2[nH]5)C=C4)C=C3)cc1)N1C(=O)/C(=C/c2ccccc2F)SC1=S
REMARK SMILES IDX 7 1 6 2 5 3 3 4 4 5 2 7 1 8 76 9 77 10 89 11 78 12 79 13
REMARK SMILES IDX 88 14 90 15 80 16 81 17 82 18 86 19 83 20 85 21 87 22 84 23
REMARK SMILES IDX 8 24 9 25 10 26 11 27 12 29 13 30 14 31 75 32 15 33 74 34
REMARK SMILES IDX 16 35 17 36 18 37 68 38 19 39 73 40 67 41 69 42 20 43 72 44
REMARK SMILES IDX 66 45 65 46 21 48 53 49 33 50 52 51 34 52 37 53 51 54 70 55
REMARK SMILES IDX 35 56 36 57 50 59 71 60 38 61 22 62 23 63 31 64 24 65 25 66
REMARK SMILES IDX 29 67 32 68 26 69 27 70 30 71 28 72 54 73 55 74 63 75 56 76
REMARK SMILES IDX 57 77 61 78 64 79 58 80 59 81 62 82 60 83 39 84 40 85 48 86
REMARK SMILES IDX 41 87 42 88 46 89 49 90 43 91 44 92 47 93 45 94
REMARK H PARENT 5 6 10 28 69 47 37 58
REMARK Flexibility Score: inf
ROOT
ATOM      1  C   UNL     1      -1.637  -1.585  -2.244  1.00  0.00     0.023 C 
ENDROOT
BRANCH   1   2
ATOM      2  C   UNL     1      -1.279  -0.746  -1.022  1.00  0.00     0.116 C 
BRANCH   2   3
ATOM      3  N   UNL     1       0.118  -0.761  -0.642  1.00  0.00    -0.354 N 
ATOM      4  C   UNL     1       0.799   0.027   0.246  1.00  0.00     0.242 C 
ATOM      5  O   UNL     1       1.925  -0.382   0.564  1.00  0.00    -0.273 OA
ATOM      6  H   UNL     1       0.664  -1.445  -1.094  1.00  0.00     0.163 HD
BRANCH   4   7
ATOM      7  C   UNL     1       0.381   1.487   0.621  1.00  0.00     0.178 C 
ATOM      8  C   UNL     1       1.050   2.310  -0.496  1.00  0.00     0.042 C 
BRANCH   7   9
ATOM      9  N   UNL     1      -1.065   1.742   0.821  1.00  0.00    -0.281 N 
ATOM     10  C   UNL     1      -1.780   0.788   1.532  1.00  0.00     0.266 C 
ATOM     11  C   UNL     1      -1.749   2.940   0.720  1.00  0.00     0.149 C 
ATOM     12  O   UNL     1      -1.324  -0.150   2.162  1.00  0.00    -0.268 OA
ATOM     13  C   UNL     1      -3.234   1.024   1.343  1.00  0.00     0.081 C 
ATOM     14  S   UNL     1      -3.481   2.664   0.946  1.00  0.00    -0.054 SA
ATOM     15  S   UNL     1      -1.196   4.493   0.476  1.00  0.00    -0.052 S 
ATOM     16  C   UNL     1      -4.103   0.004   1.336  1.00  0.00     0.032 C 
BRANCH  16  17
ATOM     17  C   UNL     1      -5.514   0.056   0.930  1.00  0.00     0.012 A 
ATOM     18  C   UNL     1      -6.484  -0.477   1.785  1.00  0.00     0.011 A 
ATOM     19  C   UNL     1      -5.922   0.542  -0.321  1.00  0.00     0.130 A 
ATOM     20  C   UNL     1      -7.833  -0.472   1.415  1.00  0.00     0.001 A 
ATOM     21  C   UNL     1      -7.265   0.564  -0.688  1.00  0.00     0.040 A 
ATOM     22  F   UNL     1      -5.013   0.968  -1.214  1.00  0.00    -0.206 F 
ATOM     23  C   UNL     1      -8.225   0.060   0.186  1.00  0.00     0.003 A 
ENDBRANCH  16  17
ENDBRANCH   7   9
ENDBRANCH   4   7
ENDBRANCH   2   3
ENDBRANCH   1   2
BRANCH   1  24
ATOM     24  C   UNL     1      -1.223  -3.056  -2.205  1.00  0.00     0.023 C 
BRANCH  24  25
ATOM     25  C   UNL     1      -1.559  -3.827  -0.930  1.00  0.00     0.116 C 
BRANCH  25  26
ATOM     26  N   UNL     1      -2.987  -4.014  -0.712  1.00  0.00    -0.352 N 
ATOM     27  C   UNL     1      -3.752  -5.159  -0.751  1.00  0.00     0.251 C 
ATOM     28  H   UNL     1      -3.485  -3.190  -0.503  1.00  0.00     0.163 HD
ATOM     29  O   UNL     1      -4.969  -5.094  -0.608  1.00  0.00    -0.269 OA
BRANCH  27  30
ATOM     30  C   UNL     1      -3.117  -6.468  -1.018  1.00  0.00     0.039 A 
ATOM     31  C   UNL     1      -3.646  -7.286  -2.021  1.00  0.00     0.014 A 
ATOM     32  C   UNL     1      -1.983  -6.872  -0.312  1.00  0.00     0.014 A 
ATOM     33  C   UNL     1      -2.967  -8.447  -2.401  1.00  0.00     0.010 A 
ATOM     34  C   UNL     1      -1.264  -7.980  -0.747  1.00  0.00     0.010 A 
ATOM     35  C   UNL     1      -1.735  -8.768  -1.811  1.00  0.00    -0.014 A 
BRANCH  35  36
ATOM     36  C   UNL     1      -0.890  -9.892  -2.295  1.00  0.00     0.031 A 
ATOM     37  C   UNL     1      -0.522 -11.007  -1.360  1.00  0.00     0.074 A 
ATOM     38  C   UNL     1      -0.339  -9.836  -3.523  1.00  0.00     0.049 A 
ATOM     39  N   UNL     1       0.368 -11.956  -1.507  1.00  0.00    -0.248 NA
ATOM     40  C   UNL     1      -1.222 -11.031  -0.067  1.00  0.00     0.031 C 
ATOM     41  C   UNL     1      -0.575  -8.784  -4.512  1.00  0.00     0.029 A 
ATOM     42  N   UNL     1       0.567 -10.669  -4.135  1.00  0.00    -0.354 N 
ATOM     43  C   UNL     1       0.367 -12.659  -0.310  1.00  0.00     0.074 A 
ATOM     44  C   UNL     1      -0.586 -12.007   0.563  1.00  0.00     0.031 C 
ATOM     45  C   UNL     1       0.166  -9.031  -5.604  1.00  0.00     0.029 A 
ATOM     46  C   UNL     1       0.965 -10.231  -5.375  1.00  0.00     0.049 A 
ATOM     47  H   UNL     1       0.899 -11.500  -3.725  1.00  0.00     0.167 HD
ATOM     48  C   UNL     1       1.088 -13.757   0.026  1.00  0.00     0.037 A 
ATOM     49  C   UNL     1       1.889 -10.723  -6.223  1.00  0.00     0.037 A 
ATOM     50  C   UNL     1       2.003 -14.426  -0.860  1.00  0.00     0.049 A 
ATOM     51  C   UNL     1       2.657 -11.959  -5.844  1.00  0.00     0.074 A 
ATOM     52  C   UNL     1       2.717 -15.592  -0.644  1.00  0.00     0.029 A 
ATOM     53  N   UNL     1       2.330 -13.987  -2.135  1.00  0.00    -0.354 N 
ATOM     54  N   UNL     1       2.608 -12.652  -4.733  1.00  0.00    -0.248 NA
ATOM     55  C   UNL     1       3.607 -12.483  -6.836  1.00  0.00     0.031 C 
ATOM     56  C   UNL     1       3.507 -15.836  -1.773  1.00  0.00     0.029 A 
ATOM     57  C   UNL     1       3.249 -14.849  -2.711  1.00  0.00     0.049 A 
ATOM     58  H   UNL     1       1.963 -13.182  -2.567  1.00  0.00     0.167 HD
ATOM     59  C   UNL     1       3.495 -13.706  -4.899  1.00  0.00     0.074 A 
ATOM     60  C   UNL     1       4.068 -13.565  -6.222  1.00  0.00     0.031 C 
ATOM     61  C   UNL     1       3.802 -14.703  -4.034  1.00  0.00     0.037 A 
BRANCH  48  62
ATOM     62  C   UNL     1       0.920 -14.289   1.419  1.00  0.00     0.064 A 
ATOM     63  C   UNL     1      -0.275 -14.893   1.842  1.00  0.00     0.173 A 
ATOM     64  C   UNL     1       1.969 -14.194   2.346  1.00  0.00     0.173 A 
ATOM     65  F   UNL     1      -1.313 -14.999   0.998  1.00  0.00    -0.203 F 
ATOM     66  C   UNL     1      -0.429 -15.338   3.152  1.00  0.00     0.198 A 
ATOM     67  C   UNL     1       1.823 -14.671   3.647  1.00  0.00     0.198 A 
ATOM     68  F   UNL     1       3.136 -13.635   1.993  1.00  0.00    -0.203 F 
ATOM     69  F   UNL     1      -1.603 -15.848   3.550  1.00  0.00    -0.200 F 
ATOM     70  C   UNL     1       0.621 -15.230   4.052  1.00  0.00     0.200 A 
ATOM     71  F   UNL     1       2.843 -14.579   4.511  1.00  0.00    -0.200 F 
ATOM     72  F   UNL     1       0.469 -15.655   5.314  1.00  0.00    -0.200 F 
ENDBRANCH  48  62
BRANCH  49  73
ATOM     73  C   UNL     1       2.122 -10.044  -7.524  1.00  0.00     0.064 A 
ATOM     74  C   UNL     1       1.667 -10.614  -8.720  1.00  0.00     0.173 A 
ATOM     75  C   UNL     1       2.766  -8.801  -7.594  1.00  0.00     0.173 A 
ATOM     76  F   UNL     1       1.062 -11.811  -8.704  1.00  0.00    -0.203 F 
ATOM     77  C   UNL     1       1.852  -9.967  -9.941  1.00  0.00     0.198 A 
ATOM     78  C   UNL     1       2.930  -8.144  -8.812  1.00  0.00     0.198 A 
ATOM     79  F   UNL     1       3.213  -8.212  -6.475  1.00  0.00    -0.203 F 
ATOM     80  F   UNL     1       1.431 -10.545 -11.073  1.00  0.00    -0.200 F 
ATOM     81  C   UNL     1       2.476  -8.729  -9.984  1.00  0.00     0.200 A 
ATOM     82  F   UNL     1       3.519  -6.941  -8.848  1.00  0.00    -0.200 F 
ATOM     83  F   UNL     1       2.640  -8.101 -11.156  1.00  0.00    -0.200 F 
ENDBRANCH  49  73
BRANCH  61  84
ATOM     84  C   UNL     1       4.771 -15.750  -4.498  1.00  0.00     0.064 A 
ATOM     85  C   UNL     1       6.146 -15.494  -4.589  1.00  0.00     0.173 A 
ATOM     86  C   UNL     1       4.322 -17.047  -4.790  1.00  0.00     0.173 A 
ATOM     87  F   UNL     1       6.622 -14.265  -4.336  1.00  0.00    -0.203 F 
ATOM     88  C   UNL     1       7.036 -16.496  -4.966  1.00  0.00     0.198 A 
ATOM     89  C   UNL     1       5.217 -18.053  -5.141  1.00  0.00     0.198 A 
ATOM     90  F   UNL     1       3.015 -17.343  -4.713  1.00  0.00    -0.203 F 
ATOM     91  F   UNL     1       8.343 -16.223  -5.076  1.00  0.00    -0.200 F 
ATOM     92  C   UNL     1       6.572 -17.777  -5.232  1.00  0.00     0.200 A 
ATOM     93  F   UNL     1       4.768 -19.292  -5.387  1.00  0.00    -0.200 F 
ATOM     94  F   UNL     1       7.432 -18.744  -5.580  1.00  0.00    -0.200 F 
ENDBRANCH  61  84
ENDBRANCH  35  36
ENDBRANCH  27  30
ENDBRANCH  25  26
ENDBRANCH  24  25
ENDBRANCH   1  24
TORSDOF 13
