REMARK SMILES COC(=O)c1nccc(N2CCO[C@H](CC(=O)NCCCCNC(=O)c3ccc(-c4c5nc(c(-c6c(F)c(F)c(F)c(F)c6F)c6ccc([nH]6)c(-c6c(F)c(F)c(F)c(F)c6F)c6nc(c(-c7c(F)c(F)c(F)c(F)c7F)c7ccc4[nH]7)C=C6)C=C5)cc3)C2)n1
REMARK SMILES IDX 19 1 18 2 16 3 17 4 15 6 14 7 10 8 11 9 89 10 12 11 13 12
REMARK SMILES IDX 9 13 5 14 6 15 90 16 7 17 8 18 3 19 4 20 2 21 1 22 20 23
REMARK SMILES IDX 21 24 22 25 23 26 24 27 25 29 26 30 27 31 88 32 28 33 87 34
REMARK SMILES IDX 29 35 30 36 31 37 81 38 32 39 86 40 80 41 82 42 33 43 85 44
REMARK SMILES IDX 79 45 78 46 34 48 66 49 46 50 65 51 47 52 50 53 64 54 83 55
REMARK SMILES IDX 48 56 49 57 63 59 84 60 51 61 35 62 36 63 44 64 37 65 38 66
REMARK SMILES IDX 42 67 45 68 39 69 40 70 43 71 41 72 67 73 68 74 76 75 69 76
REMARK SMILES IDX 70 77 74 78 77 79 71 80 72 81 75 82 73 83 52 84 53 85 61 86
REMARK SMILES IDX 54 87 55 88 59 89 62 90 56 91 57 92 60 93 58 94
REMARK H PARENT 18 5 23 28 82 47 50 58
REMARK Flexibility Score: inf
ROOT
ATOM      1  C   UNL     1      -6.252   8.625   2.301  1.00  0.00     0.116 C 
ENDROOT
BRANCH   1   2
ATOM      2  N   UNL     1      -5.852   8.043   3.565  1.00  0.00    -0.356 N 
ATOM      3  C   UNL     1      -4.912   7.087   3.800  1.00  0.00     0.222 C 
ATOM      4  O   UNL     1      -4.821   6.619   4.935  1.00  0.00    -0.275 OA
ATOM      5  H   UNL     1      -6.323   8.383   4.360  1.00  0.00     0.163 HD
BRANCH   3   6
ATOM      6  C   UNL     1      -3.969   6.653   2.699  1.00  0.00     0.133 C 
BRANCH   6   7
ATOM      7  C   UNL     1      -4.614   5.682   1.694  1.00  0.00     0.147 C 
ATOM      8  N   UNL     1      -2.578   5.202   0.472  1.00  0.00    -0.352 N 
ATOM      9  C   UNL     1      -3.028   5.890  -0.730  1.00  0.00     0.146 C 
ATOM     10  C   UNL     1      -3.624   4.570   1.266  1.00  0.00     0.150 C 
ATOM     11  C   UNL     1      -4.108   6.907  -0.343  1.00  0.00     0.182 C 
ATOM     12  O   UNL     1      -5.127   6.357   0.515  1.00  0.00    -0.374 OA
BRANCH   8  13
ATOM     13  C   UNL     1      -1.259   4.951   0.731  1.00  0.00     0.133 A 
ATOM     14  C   UNL     1       0.442   3.487   1.184  1.00  0.00     0.241 A 
ATOM     15  N   UNL     1       1.347   4.458   1.424  1.00  0.00    -0.231 NA
ATOM     16  N   UNL     1      -0.859   3.680   0.871  1.00  0.00    -0.205 NA
ATOM     17  C   UNL     1       0.899   5.711   1.285  1.00  0.00     0.117 A 
ATOM     18  C   UNL     1      -0.389   6.011   0.915  1.00  0.00     0.067 A 
BRANCH  14  19
ATOM     19  C   UNL     1       0.961   2.080   1.216  1.00  0.00     0.376 C 
ATOM     20  O   UNL     1       1.917   1.701   1.880  1.00  0.00    -0.242 OA
BRANCH  19  21
ATOM     21  O   UNL     1       0.266   1.312   0.330  1.00  0.00    -0.463 OA
ATOM     22  C   UNL     1       0.799  -0.000   0.153  1.00  0.00     0.282 C 
ENDBRANCH  19  21
ENDBRANCH  14  19
ENDBRANCH   8  13
ENDBRANCH   6   7
ENDBRANCH   3   6
ENDBRANCH   1   2
BRANCH   1  23
ATOM     23  C   UNL     1      -7.482   7.915   1.737  1.00  0.00     0.023 C 
BRANCH  23  24
ATOM     24  C   UNL     1      -8.786   8.233   2.473  1.00  0.00     0.023 C 
BRANCH  24  25
ATOM     25  C   UNL     1      -9.186   9.704   2.465  1.00  0.00     0.116 C 
BRANCH  25  26
ATOM     26  N   UNL     1      -9.326  10.250   1.126  1.00  0.00    -0.352 N 
ATOM     27  C   UNL     1     -10.188  11.216   0.671  1.00  0.00     0.251 C 
ATOM     28  H   UNL     1      -8.717   9.875   0.451  1.00  0.00     0.163 HD
ATOM     29  O   UNL     1     -10.241  11.472  -0.528  1.00  0.00    -0.269 OA
BRANCH  27  30
ATOM     30  C   UNL     1     -11.082  11.921   1.615  1.00  0.00     0.039 A 
ATOM     31  C   UNL     1     -12.412  12.123   1.240  1.00  0.00     0.014 A 
ATOM     32  C   UNL     1     -10.624  12.385   2.851  1.00  0.00     0.014 A 
ATOM     33  C   UNL     1     -13.293  12.745   2.125  1.00  0.00     0.010 A 
ATOM     34  C   UNL     1     -11.521  12.938   3.763  1.00  0.00     0.010 A 
ATOM     35  C   UNL     1     -12.863  13.131   3.406  1.00  0.00    -0.014 A 
BRANCH  35  36
ATOM     36  C   UNL     1     -13.822  13.726   4.370  1.00  0.00     0.031 A 
ATOM     37  C   UNL     1     -13.669  15.149   4.829  1.00  0.00     0.074 A 
ATOM     38  C   UNL     1     -14.827  12.967   4.849  1.00  0.00     0.049 A 
ATOM     39  N   UNL     1     -14.442  15.849   5.622  1.00  0.00    -0.248 NA
ATOM     40  C   UNL     1     -12.479  15.874   4.359  1.00  0.00     0.031 C 
ATOM     41  C   UNL     1     -15.038  11.552   4.538  1.00  0.00     0.029 A 
ATOM     42  N   UNL     1     -15.863  13.280   5.693  1.00  0.00    -0.354 N 
ATOM     43  C   UNL     1     -13.833  17.091   5.745  1.00  0.00     0.074 A 
ATOM     44  C   UNL     1     -12.595  17.029   4.999  1.00  0.00     0.031 C 
ATOM     45  C   UNL     1     -16.157  11.131   5.147  1.00  0.00     0.029 A 
ATOM     46  C   UNL     1     -16.728  12.236   5.910  1.00  0.00     0.049 A 
ATOM     47  H   UNL     1     -15.975  14.168   6.103  1.00  0.00     0.167 HD
ATOM     48  C   UNL     1     -14.279  18.191   6.397  1.00  0.00     0.037 A 
ATOM     49  C   UNL     1     -17.864  12.182   6.631  1.00  0.00     0.037 A 
ATOM     50  C   UNL     1     -15.520  18.254   7.125  1.00  0.00     0.049 A 
ATOM     51  C   UNL     1     -18.351  13.426   7.322  1.00  0.00     0.074 A 
ATOM     52  C   UNL     1     -16.092  19.338   7.769  1.00  0.00     0.029 A 
ATOM     53  N   UNL     1     -16.381  17.181   7.310  1.00  0.00    -0.354 N 
ATOM     54  N   UNL     1     -17.814  14.621   7.355  1.00  0.00    -0.248 NA
ATOM     55  C   UNL     1     -19.616  13.315   8.062  1.00  0.00     0.031 C 
ATOM     56  C   UNL     1     -17.275  18.910   8.382  1.00  0.00     0.029 A 
ATOM     57  C   UNL     1     -17.469  17.573   8.075  1.00  0.00     0.049 A 
ATOM     58  H   UNL     1     -16.241  16.276   6.950  1.00  0.00     0.167 HD
ATOM     59  C   UNL     1     -18.682  15.409   8.098  1.00  0.00     0.074 A 
ATOM     60  C   UNL     1     -19.796  14.562   8.471  1.00  0.00     0.031 C 
ATOM     61  C   UNL     1     -18.567  16.715   8.445  1.00  0.00     0.037 A 
BRANCH  48  62
ATOM     62  C   UNL     1     -13.421  19.424   6.346  1.00  0.00     0.064 A 
ATOM     63  C   UNL     1     -13.252  20.152   5.158  1.00  0.00     0.173 A 
ATOM     64  C   UNL     1     -12.788  19.903   7.503  1.00  0.00     0.173 A 
ATOM     65  F   UNL     1     -13.825  19.731   4.020  1.00  0.00    -0.203 F 
ATOM     66  C   UNL     1     -12.458  21.296   5.124  1.00  0.00     0.198 A 
ATOM     67  C   UNL     1     -12.021  21.064   7.472  1.00  0.00     0.198 A 
ATOM     68  F   UNL     1     -12.920  19.248   8.666  1.00  0.00    -0.203 F 
ATOM     69  F   UNL     1     -12.270  21.945   3.966  1.00  0.00    -0.200 F 
ATOM     70  C   UNL     1     -11.849  21.755   6.282  1.00  0.00     0.200 A 
ATOM     71  F   UNL     1     -11.443  21.514   8.595  1.00  0.00    -0.200 F 
ATOM     72  F   UNL     1     -11.091  22.860   6.249  1.00  0.00    -0.200 F 
ENDBRANCH  48  62
BRANCH  49  73
ATOM     73  C   UNL     1     -18.642  10.918   6.696  1.00  0.00     0.064 A 
ATOM     74  C   UNL     1     -19.891  10.808   6.067  1.00  0.00     0.173 A 
ATOM     75  C   UNL     1     -18.160   9.800   7.390  1.00  0.00     0.173 A 
ATOM     76  F   UNL     1     -20.402  11.857   5.406  1.00  0.00    -0.203 F 
ATOM     77  C   UNL     1     -20.638   9.636   6.151  1.00  0.00     0.198 A 
ATOM     78  C   UNL     1     -18.896   8.617   7.448  1.00  0.00     0.198 A 
ATOM     79  F   UNL     1     -16.969   9.851   8.002  1.00  0.00    -0.203 F 
ATOM     80  F   UNL     1     -21.850   9.575   5.582  1.00  0.00    -0.200 F 
ATOM     81  C   UNL     1     -20.138   8.540   6.837  1.00  0.00     0.200 A 
ATOM     82  F   UNL     1     -18.402   7.555   8.099  1.00  0.00    -0.200 F 
ATOM     83  F   UNL     1     -20.856   7.411   6.915  1.00  0.00    -0.200 F 
ENDBRANCH  49  73
BRANCH  61  84
ATOM     84  C   UNL     1     -19.688  17.306   9.252  1.00  0.00     0.064 A 
ATOM     85  C   UNL     1     -19.911  16.932  10.586  1.00  0.00     0.173 A 
ATOM     86  C   UNL     1     -20.550  18.256   8.684  1.00  0.00     0.173 A 
ATOM     87  F   UNL     1     -19.124  16.017  11.171  1.00  0.00    -0.203 F 
ATOM     88  C   UNL     1     -20.983  17.453  11.306  1.00  0.00     0.198 A 
ATOM     89  C   UNL     1     -21.600  18.800   9.418  1.00  0.00     0.198 A 
ATOM     90  F   UNL     1     -20.376  18.655   7.415  1.00  0.00    -0.203 F 
ATOM     91  F   UNL     1     -21.216  17.029  12.556  1.00  0.00    -0.200 F 
ATOM     92  C   UNL     1     -21.823  18.389  10.723  1.00  0.00     0.200 A 
ATOM     93  F   UNL     1     -22.403  19.716   8.858  1.00  0.00    -0.200 F 
ATOM     94  F   UNL     1     -22.857  18.886  11.416  1.00  0.00    -0.200 F 
ENDBRANCH  61  84
ENDBRANCH  35  36
ENDBRANCH  27  30
ENDBRANCH  25  26
ENDBRANCH  24  25
ENDBRANCH  23  24
ENDBRANCH   1  23
TORSDOF 15
