REMARK SMILES CC[C@@H]1[NH2+][C@@H](C(=O)NCCCCNC(=O)c2ccc(-c3c4nc(c(-c5c(F)c(F)c(F)c(F)c5F)c5ccc([nH]5)c(-c5c(F)c(F)c(F)c(F)c5F)c5nc(c(-c6c(F)c(F)c(F)c(F)c6F)c6ccc3[nH]6)C=C5)C=C4)cc2)Cc2c1[nH]c1ccccc21
REMARK SMILES IDX 11 1 10 2 9 3 8 4 6 5 7 6 5 8 3 9 4 10 81 11 80 14 82 15
REMARK SMILES IDX 79 16 88 17 83 18 87 20 84 21 86 22 85 23 2 24 1 25 12 26
REMARK SMILES IDX 13 27 14 28 15 30 16 31 17 32 78 33 18 34 77 35 19 36 20 37
REMARK SMILES IDX 21 38 71 39 22 40 76 41 70 42 72 43 23 44 75 45 69 46 68 47
REMARK SMILES IDX 24 49 56 50 36 51 55 52 37 53 40 54 54 55 73 56 38 57 39 58
REMARK SMILES IDX 53 60 74 61 41 62 25 63 26 64 34 65 27 66 28 67 32 68 35 69
REMARK SMILES IDX 29 70 30 71 33 72 31 73 57 74 58 75 66 76 59 77 60 78 64 79
REMARK SMILES IDX 67 80 61 81 62 82 65 83 63 84 42 85 43 86 51 87 44 88 45 89
REMARK SMILES IDX 49 90 52 91 46 92 47 93 50 94 48 95
REMARK H PARENT 8 7 4 12 4 13 82 19 13 29 72 48 40 59
REMARK Flexibility Score: inf
ROOT
ATOM      1  C   UNL     1       0.287  -8.316  -2.229  1.00  0.00     0.023 C 
ENDROOT
BRANCH   1   2
ATOM      2  C   UNL     1       1.471  -7.361  -2.044  1.00  0.00     0.023 C 
BRANCH   2   3
ATOM      3  C   UNL     1       1.394  -6.046  -2.822  1.00  0.00     0.116 C 
BRANCH   3   4
ATOM      4  N   UNL     1       0.209  -5.282  -2.483  1.00  0.00    -0.351 N 
ATOM      5  C   UNL     1      -0.044  -4.007  -2.118  1.00  0.00     0.278 C 
ATOM      6  O   UNL     1      -1.246  -3.770  -1.899  1.00  0.00    -0.268 OA
ATOM      7  H   UNL     1      -0.611  -5.826  -2.531  1.00  0.00     0.163 HD
BRANCH   5   8
ATOM      8  C   UNL     1       0.975  -2.851  -1.942  1.00  0.00     0.277 C 
ATOM      9  C   UNL     1       1.066  -0.389  -2.479  1.00  0.00     0.230 C 
ATOM     10  N   UNL     1       0.380  -1.677  -2.659  1.00  0.00    -0.328 N 
ATOM     11  C   UNL     1       2.541  -0.590  -2.393  1.00  0.00     0.078 A 
ATOM     12  H   UNL     1       0.378  -1.891  -3.657  1.00  0.00     0.347 HD
ATOM     13  H   UNL     1      -0.547  -1.551  -2.254  1.00  0.00     0.347 HD
ATOM     14  C   UNL     1       3.200  -1.796  -2.297  1.00  0.00    -0.007 A 
ATOM     15  N   UNL     1       3.479   0.405  -2.385  1.00  0.00    -0.353 N 
ATOM     16  C   UNL     1       2.443  -3.081  -2.337  1.00  0.00     0.113 C 
ATOM     17  C   UNL     1       4.585  -1.526  -2.145  1.00  0.00     0.003 A 
ATOM     18  C   UNL     1       4.734  -0.137  -2.201  1.00  0.00     0.046 A 
ATOM     19  H   UNL     1       3.288   1.365  -2.493  1.00  0.00     0.166 HD
ATOM     20  C   UNL     1       5.732  -2.320  -1.955  1.00  0.00     0.010 A 
ATOM     21  C   UNL     1       5.976   0.495  -2.079  1.00  0.00     0.026 A 
ATOM     22  C   UNL     1       6.981  -1.702  -1.820  1.00  0.00     0.001 A 
ATOM     23  C   UNL     1       7.098  -0.315  -1.883  1.00  0.00     0.002 A 
BRANCH   9  24
ATOM     24  C   UNL     1       0.504   0.470  -1.326  1.00  0.00     0.068 C 
ATOM     25  C   UNL     1       0.775  -0.023   0.089  1.00  0.00     0.011 C 
ENDBRANCH   9  24
ENDBRANCH   5   8
ENDBRANCH   3   4
ENDBRANCH   2   3
ENDBRANCH   1   2
BRANCH   1  26
ATOM     26  C   UNL     1       0.008  -8.752  -3.665  1.00  0.00     0.116 C 
BRANCH  26  27
ATOM     27  N   UNL     1       1.082  -9.553  -4.230  1.00  0.00    -0.352 N 
ATOM     28  C   UNL     1       1.036 -10.780  -4.843  1.00  0.00     0.251 C 
ATOM     29  H   UNL     1       1.980  -9.153  -4.163  1.00  0.00     0.163 HD
ATOM     30  O   UNL     1       2.089 -11.357  -5.124  1.00  0.00    -0.269 OA
BRANCH  28  31
ATOM     31  C   UNL     1      -0.256 -11.438  -5.145  1.00  0.00     0.039 A 
ATOM     32  C   UNL     1      -0.378 -12.812  -4.916  1.00  0.00     0.014 A 
ATOM     33  C   UNL     1      -1.335 -10.725  -5.674  1.00  0.00     0.014 A 
ATOM     34  C   UNL     1      -1.597 -13.456  -5.152  1.00  0.00     0.010 A 
ATOM     35  C   UNL     1      -2.570 -11.353  -5.843  1.00  0.00     0.010 A 
ATOM     36  C   UNL     1      -2.715 -12.724  -5.582  1.00  0.00    -0.014 A 
BRANCH  36  37
ATOM     37  C   UNL     1      -4.043 -13.373  -5.753  1.00  0.00     0.031 A 
ATOM     38  C   UNL     1      -4.684 -13.452  -7.111  1.00  0.00     0.074 A 
ATOM     39  C   UNL     1      -4.703 -13.835  -4.673  1.00  0.00     0.049 A 
ATOM     40  N   UNL     1      -5.866 -13.910  -7.444  1.00  0.00    -0.248 NA
ATOM     41  C   UNL     1      -3.905 -12.924  -8.241  1.00  0.00     0.031 C 
ATOM     42  C   UNL     1      -4.213 -13.782  -3.296  1.00  0.00     0.029 A 
ATOM     43  N   UNL     1      -5.937 -14.429  -4.563  1.00  0.00    -0.354 N 
ATOM     44  C   UNL     1      -5.977 -13.711  -8.814  1.00  0.00     0.074 A 
ATOM     45  C   UNL     1      -4.763 -13.049  -9.243  1.00  0.00     0.031 C 
ATOM     46  C   UNL     1      -5.126 -14.335  -2.481  1.00  0.00     0.029 A 
ATOM     47  C   UNL     1      -6.282 -14.748  -3.272  1.00  0.00     0.049 A 
ATOM     48  H   UNL     1      -6.519 -14.610  -5.336  1.00  0.00     0.167 HD
ATOM     49  C   UNL     1      -6.989 -14.066  -9.642  1.00  0.00     0.037 A 
ATOM     50  C   UNL     1      -7.407 -15.300  -2.778  1.00  0.00     0.037 A 
ATOM     51  C   UNL     1      -8.185 -14.748  -9.220  1.00  0.00     0.049 A 
ATOM     52  C   UNL     1      -8.518 -15.680  -3.719  1.00  0.00     0.074 A 
ATOM     53  C   UNL     1      -9.237 -15.204  -9.995  1.00  0.00     0.029 A 
ATOM     54  N   UNL     1      -8.489 -15.070  -7.906  1.00  0.00    -0.354 N 
ATOM     55  N   UNL     1      -8.582 -15.547  -5.021  1.00  0.00    -0.248 NA
ATOM     56  C   UNL     1      -9.712 -16.293  -3.119  1.00  0.00     0.031 C 
ATOM     57  C   UNL     1     -10.198 -15.762  -9.146  1.00  0.00     0.029 A 
ATOM     58  C   UNL     1      -9.723 -15.699  -7.846  1.00  0.00     0.049 A 
ATOM     59  H   UNL     1      -7.914 -14.880  -7.130  1.00  0.00     0.167 HD
ATOM     60  C   UNL     1      -9.805 -16.083  -5.400  1.00  0.00     0.074 A 
ATOM     61  C   UNL     1     -10.446 -16.557  -4.191  1.00  0.00     0.031 C 
ATOM     62  C   UNL     1     -10.347 -16.175  -6.638  1.00  0.00     0.037 A 
BRANCH  49  63
ATOM     63  C   UNL     1      -6.847 -13.725 -11.098  1.00  0.00     0.064 A 
ATOM     64  C   UNL     1      -5.923 -14.386 -11.921  1.00  0.00     0.173 A 
ATOM     65  C   UNL     1      -7.674 -12.757 -11.687  1.00  0.00     0.173 A 
ATOM     66  F   UNL     1      -5.102 -15.313 -11.405  1.00  0.00    -0.203 F 
ATOM     67  C   UNL     1      -5.812 -14.070 -13.273  1.00  0.00     0.198 A 
ATOM     68  C   UNL     1      -7.582 -12.464 -13.045  1.00  0.00     0.198 A 
ATOM     69  F   UNL     1      -8.581 -12.101 -10.947  1.00  0.00    -0.203 F 
ATOM     70  F   UNL     1      -4.889 -14.681 -14.028  1.00  0.00    -0.200 F 
ATOM     71  C   UNL     1      -6.646 -13.115 -13.835  1.00  0.00     0.200 A 
ATOM     72  F   UNL     1      -8.398 -11.552 -13.590  1.00  0.00    -0.200 F 
ATOM     73  F   UNL     1      -6.543 -12.818 -15.138  1.00  0.00    -0.200 F 
ENDBRANCH  49  63
BRANCH  50  74
ATOM     74  C   UNL     1      -7.531 -15.549  -1.318  1.00  0.00     0.064 A 
ATOM     75  C   UNL     1      -7.523 -16.855  -0.809  1.00  0.00     0.173 A 
ATOM     76  C   UNL     1      -7.667 -14.493  -0.406  1.00  0.00     0.173 A 
ATOM     77  F   UNL     1      -7.418 -17.898  -1.645  1.00  0.00    -0.203 F 
ATOM     78  C   UNL     1      -7.665 -17.096   0.556  1.00  0.00     0.198 A 
ATOM     79  C   UNL     1      -7.781 -14.734   0.962  1.00  0.00     0.198 A 
ATOM     80  F   UNL     1      -7.677 -13.225  -0.842  1.00  0.00    -0.203 F 
ATOM     81  F   UNL     1      -7.700 -18.356   1.011  1.00  0.00    -0.200 F 
ATOM     82  C   UNL     1      -7.789 -16.035   1.441  1.00  0.00     0.200 A 
ATOM     83  F   UNL     1      -7.887 -13.706   1.815  1.00  0.00    -0.200 F 
ATOM     84  F   UNL     1      -7.923 -16.267   2.753  1.00  0.00    -0.200 F 
ENDBRANCH  50  74
BRANCH  62  85
ATOM     85  C   UNL     1     -11.685 -16.845  -6.758  1.00  0.00     0.064 A 
ATOM     86  C   UNL     1     -12.861 -16.227  -6.309  1.00  0.00     0.173 A 
ATOM     87  C   UNL     1     -11.795 -18.105  -7.365  1.00  0.00     0.173 A 
ATOM     88  F   UNL     1     -12.807 -15.029  -5.707  1.00  0.00    -0.203 F 
ATOM     89  C   UNL     1     -14.096 -16.858  -6.441  1.00  0.00     0.198 A 
ATOM     90  C   UNL     1     -13.034 -18.720  -7.522  1.00  0.00     0.198 A 
ATOM     91  F   UNL     1     -10.701 -18.736  -7.817  1.00  0.00    -0.203 F 
ATOM     92  F   UNL     1     -15.201 -16.269  -5.963  1.00  0.00    -0.200 F 
ATOM     93  C   UNL     1     -14.182 -18.099  -7.054  1.00  0.00     0.200 A 
ATOM     94  F   UNL     1     -13.117 -19.913  -8.126  1.00  0.00    -0.200 F 
ATOM     95  F   UNL     1     -15.373 -18.700  -7.187  1.00  0.00    -0.200 F 
ENDBRANCH  62  85
ENDBRANCH  36  37
ENDBRANCH  28  31
ENDBRANCH  26  27
ENDBRANCH   1  26
TORSDOF 12
