REMARK SMILES O=C(COc1ccccc1/C=N/N1[C@@H](S)N=N[C@H]1[C@@H]1C=C(c2ccccc2)N=N1)NCCCCNC(=O)c1ccc(-c2c3nc(c(-c4c(F)c(F)c(F)c(F)c4F)c4ccc([nH]4)c(-c4c(F)c(F)c(F)c(F)c4F)c4nc(c(-c5c(F)c(F)c(F)c(F)c5F)c5ccc2[nH]5)C=C4)C=C3)cc1
REMARK SMILES IDX 1 1 2 2 30 3 3 5 4 6 5 7 6 8 10 9 7 10 9 11 8 12 11 13 12 14
REMARK SMILES IDX 13 15 14 16 18 17 16 18 17 19 15 20 19 22 20 23 29 24 21 25
REMARK SMILES IDX 28 26 22 27 23 28 27 29 24 30 26 31 25 32 31 33 32 34 33 35
REMARK SMILES IDX 34 36 35 37 36 38 37 40 38 41 39 42 100 43 40 44 99 45 41 46
REMARK SMILES IDX 42 47 43 48 93 49 44 50 98 51 92 52 94 53 45 54 97 55 91 56
REMARK SMILES IDX 90 57 46 59 78 60 58 61 77 62 59 63 62 64 76 65 95 66 60 67
REMARK SMILES IDX 61 68 75 70 96 71 63 72 47 73 48 74 56 75 49 76 50 77 54 78
REMARK SMILES IDX 57 79 51 80 52 81 55 82 53 83 79 84 80 85 88 86 81 87 82 88
REMARK SMILES IDX 86 89 89 90 83 91 84 92 87 93 85 94 64 95 65 96 73 97 66 98
REMARK SMILES IDX 67 99 71 100 74 101 68 102 69 103 72 104 70 105
REMARK H PARENT 30 4 15 21 35 39 94 58 62 69
REMARK Flexibility Score: inf
ROOT
ATOM      1  O   UNL     1       1.500  -0.004   1.037  1.00  0.00    -0.271 OA
ATOM      2  C   UNL     1       2.006  -0.430  -0.008  1.00  0.00     0.257 C 
ATOM      3  N   UNL     1       2.457   0.252  -1.232  1.00  0.00    -0.353 N 
ATOM      4  H   UNL     1       2.996  -0.391  -1.746  1.00  0.00     0.163 HD
ENDROOT
BRANCH   2   5
ATOM      5  C   UNL     1       2.007  -1.925   0.153  1.00  0.00     0.329 C 
BRANCH   5   6
ATOM      6  O   UNL     1       2.360  -2.733  -0.884  1.00  0.00    -0.483 OA
BRANCH   6   7
ATOM      7  C   UNL     1       1.482  -2.900  -1.898  1.00  0.00     0.128 A 
ATOM      8  C   UNL     1       1.899  -4.120  -2.487  1.00  0.00     0.047 A 
ATOM      9  C   UNL     1       0.543  -2.019  -2.494  1.00  0.00     0.037 A 
ATOM     10  C   UNL     1       1.518  -4.460  -3.758  1.00  0.00     0.004 A 
ATOM     11  C   UNL     1       0.190  -2.402  -3.804  1.00  0.00     0.013 A 
ATOM     12  C   UNL     1       0.680  -3.583  -4.426  1.00  0.00     0.001 A 
BRANCH   9  13
ATOM     13  C   UNL     1       0.097  -0.564  -2.082  1.00  0.00     0.145 C 
ATOM     14  N   UNL     1      -0.121  -0.077  -0.873  1.00  0.00    -0.180 NA
BRANCH  14  15
ATOM     15  N   UNL     1       0.065   1.432  -0.643  1.00  0.00    -0.233 NA
ATOM     16  C   UNL     1      -1.099   2.048   0.086  1.00  0.00     0.298 C 
ATOM     17  C   UNL     1       1.213   2.067   0.514  1.00  0.00     0.274 C 
ATOM     18  N   UNL     1      -0.802   2.217   1.535  1.00  0.00    -0.153 NA
ATOM     19  N   UNL     1       0.436   2.229   1.788  1.00  0.00    -0.161 NA
BRANCH  16  20
ATOM     20  S   UNL     1      -2.724   1.317  -0.332  1.00  0.00    -0.128 SA
ATOM     21  H   UNL     1      -2.757   0.021   0.076  1.00  0.00     0.106 HD
ENDBRANCH  16  20
BRANCH  17  22
ATOM     22  C   UNL     1       3.063   1.925   0.888  1.00  0.00     0.202 C 
ATOM     23  C   UNL     1       4.270   1.773  -0.112  1.00  0.00     0.037 C 
ATOM     24  N   UNL     1       3.532   0.798   1.829  1.00  0.00    -0.177 NA
ATOM     25  C   UNL     1       4.915   0.620   0.114  1.00  0.00     0.091 C 
ATOM     26  N   UNL     1       4.466   0.080   1.296  1.00  0.00    -0.155 NA
BRANCH  25  27
ATOM     27  C   UNL     1       5.609  -0.121  -1.027  1.00  0.00     0.002 A 
ATOM     28  C   UNL     1       5.027  -1.281  -1.576  1.00  0.00     0.010 A 
ATOM     29  C   UNL     1       6.721   0.343  -1.738  1.00  0.00     0.010 A 
ATOM     30  C   UNL     1       5.388  -1.866  -2.804  1.00  0.00     0.001 A 
ATOM     31  C   UNL     1       7.176  -0.308  -2.918  1.00  0.00     0.001 A 
ATOM     32  C   UNL     1       6.484  -1.379  -3.480  1.00  0.00     0.000 A 
ENDBRANCH  25  27
ENDBRANCH  17  22
ENDBRANCH  14  15
ENDBRANCH   9  13
ENDBRANCH   6   7
ENDBRANCH   5   6
ENDBRANCH   2   5
BRANCH   3  33
ATOM     33  C   UNL     1       2.421   1.689  -2.107  1.00  0.00     0.116 C 
BRANCH  33  34
ATOM     34  C   UNL     1       2.365   3.360  -1.834  1.00  0.00     0.023 C 
BRANCH  34  35
ATOM     35  C   UNL     1       3.312   4.387  -1.056  1.00  0.00     0.023 C 
BRANCH  35  36
ATOM     36  C   UNL     1       4.501   5.026  -1.795  1.00  0.00     0.116 C 
BRANCH  36  37
ATOM     37  N   UNL     1       4.117   6.237  -2.529  1.00  0.00    -0.352 N 
ATOM     38  C   UNL     1       4.569   6.707  -3.753  1.00  0.00     0.251 C 
ATOM     39  H   UNL     1       3.440   6.798  -2.087  1.00  0.00     0.163 HD
ATOM     40  O   UNL     1       4.436   7.858  -4.088  1.00  0.00    -0.269 OA
BRANCH  38  41
ATOM     41  C   UNL     1       5.216   5.729  -4.642  1.00  0.00     0.039 A 
ATOM     42  C   UNL     1       6.410   6.017  -5.301  1.00  0.00     0.014 A 
ATOM     43  C   UNL     1       4.645   4.465  -4.694  1.00  0.00     0.014 A 
ATOM     44  C   UNL     1       7.070   4.974  -5.939  1.00  0.00     0.010 A 
ATOM     45  C   UNL     1       5.391   3.411  -5.136  1.00  0.00     0.010 A 
ATOM     46  C   UNL     1       6.566   3.666  -5.823  1.00  0.00    -0.014 A 
BRANCH  46  47
ATOM     47  C   UNL     1       7.301   2.531  -6.356  1.00  0.00     0.031 A 
ATOM     48  C   UNL     1       8.733   2.479  -5.971  1.00  0.00     0.074 A 
ATOM     49  C   UNL     1       6.703   1.531  -7.039  1.00  0.00     0.049 A 
ATOM     50  N   UNL     1       9.751   2.655  -6.742  1.00  0.00    -0.248 NA
ATOM     51  C   UNL     1       9.083   2.344  -4.550  1.00  0.00     0.031 C 
ATOM     52  C   UNL     1       5.271   1.300  -7.282  1.00  0.00     0.029 A 
ATOM     53  N   UNL     1       7.282   0.455  -7.636  1.00  0.00    -0.354 N 
ATOM     54  C   UNL     1      10.881   2.469  -5.951  1.00  0.00     0.074 A 
ATOM     55  C   UNL     1      10.416   2.400  -4.591  1.00  0.00     0.031 C 
ATOM     56  C   UNL     1       5.084   0.066  -7.797  1.00  0.00     0.029 A 
ATOM     57  C   UNL     1       6.384  -0.493  -8.104  1.00  0.00     0.049 A 
ATOM     58  H   UNL     1       8.257   0.357  -7.727  1.00  0.00     0.167 HD
ATOM     59  C   UNL     1      12.078   2.173  -6.526  1.00  0.00     0.037 A 
ATOM     60  C   UNL     1       6.681  -1.648  -8.743  1.00  0.00     0.037 A 
ATOM     61  C   UNL     1      12.064   2.510  -7.929  1.00  0.00     0.049 A 
ATOM     62  C   UNL     1       8.033  -1.477  -9.324  1.00  0.00     0.074 A 
ATOM     63  C   UNL     1      11.937   3.682  -8.648  1.00  0.00     0.029 A 
ATOM     64  N   UNL     1      11.796   1.494  -8.813  1.00  0.00    -0.354 N 
ATOM     65  N   UNL     1       8.300  -0.643 -10.290  1.00  0.00    -0.248 NA
ATOM     66  C   UNL     1       9.175  -1.909  -8.536  1.00  0.00     0.031 C 
ATOM     67  C   UNL     1      11.161   3.333  -9.793  1.00  0.00     0.029 A 
ATOM     68  C   UNL     1      10.906   1.961  -9.745  1.00  0.00     0.049 A 
ATOM     69  H   UNL     1      12.176   0.587  -8.782  1.00  0.00     0.167 HD
ATOM     70  C   UNL     1       9.544  -0.121  -9.972  1.00  0.00     0.074 A 
ATOM     71  C   UNL     1      10.080  -1.018  -8.952  1.00  0.00     0.031 C 
ATOM     72  C   UNL     1       9.893   1.139 -10.367  1.00  0.00     0.037 A 
BRANCH  59  73
ATOM     73  C   UNL     1      13.100   1.226  -5.944  1.00  0.00     0.064 A 
ATOM     74  C   UNL     1      14.324   1.046  -6.622  1.00  0.00     0.173 A 
ATOM     75  C   UNL     1      12.806   0.262  -4.956  1.00  0.00     0.173 A 
ATOM     76  F   UNL     1      14.704   1.898  -7.586  1.00  0.00    -0.203 F 
ATOM     77  C   UNL     1      15.135  -0.070  -6.401  1.00  0.00     0.198 A 
ATOM     78  C   UNL     1      13.644  -0.824  -4.703  1.00  0.00     0.198 A 
ATOM     79  F   UNL     1      11.652   0.259  -4.280  1.00  0.00    -0.203 F 
ATOM     80  F   UNL     1      16.214  -0.271  -7.169  1.00  0.00    -0.200 F 
ATOM     81  C   UNL     1      14.788  -1.010  -5.449  1.00  0.00     0.200 A 
ATOM     82  F   UNL     1      13.281  -1.735  -3.789  1.00  0.00    -0.200 F 
ATOM     83  F   UNL     1      15.523  -2.118  -5.286  1.00  0.00    -0.200 F 
ENDBRANCH  59  73
BRANCH  60  84
ATOM     84  C   UNL     1       5.984  -2.948  -8.679  1.00  0.00     0.064 A 
ATOM     85  C   UNL     1       6.197  -3.936  -9.652  1.00  0.00     0.173 A 
ATOM     86  C   UNL     1       5.321  -3.350  -7.504  1.00  0.00     0.173 A 
ATOM     87  F   UNL     1       6.849  -3.638 -10.784  1.00  0.00    -0.203 F 
ATOM     88  C   UNL     1       5.806  -5.262  -9.442  1.00  0.00     0.198 A 
ATOM     89  C   UNL     1       4.930  -4.673  -7.296  1.00  0.00     0.198 A 
ATOM     90  F   UNL     1       5.128  -2.487  -6.495  1.00  0.00    -0.203 F 
ATOM     91  F   UNL     1       6.083  -6.194 -10.365  1.00  0.00    -0.200 F 
ATOM     92  C   UNL     1       5.188  -5.632  -8.258  1.00  0.00     0.200 A 
ATOM     93  F   UNL     1       4.363  -5.023  -6.132  1.00  0.00    -0.200 F 
ATOM     94  F   UNL     1       4.877  -6.915  -8.027  1.00  0.00    -0.200 F 
ENDBRANCH  60  84
BRANCH  72  95
ATOM     95  C   UNL     1       9.016   1.806 -11.392  1.00  0.00     0.064 A 
ATOM     96  C   UNL     1       7.689   2.204 -11.155  1.00  0.00     0.173 A 
ATOM     97  C   UNL     1       9.588   2.172 -12.616  1.00  0.00     0.173 A 
ATOM     98  F   UNL     1       7.099   1.970  -9.978  1.00  0.00    -0.203 F 
ATOM     99  C   UNL     1       6.960   2.905 -12.115  1.00  0.00     0.198 A 
ATOM    100  C   UNL     1       8.870   2.901 -13.560  1.00  0.00     0.198 A 
ATOM    101  F   UNL     1      10.868   1.863 -12.877  1.00  0.00    -0.203 F 
ATOM    102  F   UNL     1       5.692   3.265 -11.867  1.00  0.00    -0.200 F 
ATOM    103  C   UNL     1       7.555   3.259 -13.314  1.00  0.00     0.200 A 
ATOM    104  F   UNL     1       9.465   3.280 -14.700  1.00  0.00    -0.200 F 
ATOM    105  F   UNL     1       6.869   3.967 -14.223  1.00  0.00    -0.200 F 
ENDBRANCH  72  95
ENDBRANCH  46  47
ENDBRANCH  38  41
ENDBRANCH  36  37
ENDBRANCH  35  36
ENDBRANCH  34  35
ENDBRANCH  33  34
ENDBRANCH   3  33
TORSDOF 18
