REMARK SMILES C[C@@H](CC(=O)NCCCCNC(=O)c1ccc(-c2c3nc(c(-c4c(F)c(F)c(F)c(F)c4F)c4ccc([nH]4)c(-c4c(F)c(F)c(F)c(F)c4F)c4nc(c(-c5c(F)c(F)c(F)c(F)c5F)c5ccc2[nH]5)C=C4)C=C3)cc1)c1cn(C)c(=O)n(C)c1=O
REMARK SMILES IDX 8 1 7 2 6 3 4 4 5 5 3 7 2 8 1 9 77 10 78 11 85 12 79 13
REMARK SMILES IDX 83 14 86 15 80 16 81 17 84 18 82 19 9 20 10 21 11 22 12 23
REMARK SMILES IDX 13 25 14 26 15 27 76 28 16 29 75 30 17 31 18 32 19 33 69 34
REMARK SMILES IDX 20 35 74 36 68 37 70 38 21 39 73 40 67 41 66 42 22 44 54 45
REMARK SMILES IDX 34 46 53 47 35 48 38 49 52 50 71 51 36 52 37 53 51 55 72 56
REMARK SMILES IDX 39 57 23 58 24 59 32 60 25 61 26 62 30 63 33 64 27 65 28 66
REMARK SMILES IDX 31 67 29 68 55 69 56 70 64 71 57 72 58 73 62 74 65 75 59 76
REMARK SMILES IDX 60 77 63 78 61 79 40 80 41 81 49 82 42 83 43 84 47 85 50 86
REMARK SMILES IDX 44 87 45 88 48 89 46 90
REMARK H PARENT 6 6 11 24 70 43 38 54
REMARK Flexibility Score: inf
ROOT
ATOM      1  C   UNL     1       0.875  -0.515   2.181  1.00  0.00     0.023 C 
ENDROOT
BRANCH   1   2
ATOM      2  C   UNL     1       1.728  -1.494   1.375  1.00  0.00     0.116 C 
BRANCH   2   3
ATOM      3  N   UNL     1       0.908  -2.565   0.865  1.00  0.00    -0.356 N 
ATOM      4  C   UNL     1       0.468  -2.809  -0.395  1.00  0.00     0.220 C 
ATOM      5  O   UNL     1      -0.290  -3.770  -0.534  1.00  0.00    -0.275 OA
ATOM      6  H   UNL     1       0.623  -3.224   1.538  1.00  0.00     0.163 HD
BRANCH   4   7
ATOM      7  C   UNL     1       0.951  -1.983  -1.575  1.00  0.00     0.108 C 
BRANCH   7   8
ATOM      8  C   UNL     1       0.248  -0.643  -1.923  1.00  0.00     0.032 C 
ATOM      9  C   UNL     1       0.995   0.548  -1.290  1.00  0.00     0.013 C 
BRANCH   8  10
ATOM     10  C   UNL     1      -1.263  -0.557  -1.749  1.00  0.00     0.037 A 
ATOM     11  C   UNL     1      -1.948   0.561  -1.462  1.00  0.00     0.100 A 
ATOM     12  C   UNL     1      -2.104  -1.747  -2.061  1.00  0.00     0.259 A 
ATOM     13  N   UNL     1      -3.315   0.584  -1.326  1.00  0.00    -0.303 N 
ATOM     14  N   UNL     1      -3.364  -1.753  -1.499  1.00  0.00    -0.263 N 
ATOM     15  O   UNL     1      -1.681  -2.616  -2.818  1.00  0.00    -0.269 OA
ATOM     16  C   UNL     1      -4.016   1.854  -1.218  1.00  0.00     0.154 C 
ATOM     17  C   UNL     1      -4.075  -0.583  -1.279  1.00  0.00     0.330 A 
ATOM     18  C   UNL     1      -4.088  -3.003  -1.444  1.00  0.00     0.158 C 
ATOM     19  O   UNL     1      -5.292  -0.564  -1.090  1.00  0.00    -0.248 OA
ENDBRANCH   8  10
ENDBRANCH   7   8
ENDBRANCH   4   7
ENDBRANCH   2   3
ENDBRANCH   1   2
BRANCH   1  20
ATOM     20  C   UNL     1       0.366  -1.062   3.514  1.00  0.00     0.023 C 
BRANCH  20  21
ATOM     21  C   UNL     1       1.447  -1.561   4.461  1.00  0.00     0.116 C 
BRANCH  21  22
ATOM     22  N   UNL     1       2.466  -0.564   4.745  1.00  0.00    -0.352 N 
ATOM     23  C   UNL     1       3.106  -0.298   5.932  1.00  0.00     0.251 C 
ATOM     24  H   UNL     1       2.734  -0.002   3.983  1.00  0.00     0.163 HD
ATOM     25  O   UNL     1       3.861   0.659   6.024  1.00  0.00    -0.269 OA
BRANCH  23  26
ATOM     26  C   UNL     1       2.848  -1.159   7.105  1.00  0.00     0.039 A 
ATOM     27  C   UNL     1       2.632  -0.556   8.346  1.00  0.00     0.014 A 
ATOM     28  C   UNL     1       2.807  -2.550   6.980  1.00  0.00     0.014 A 
ATOM     29  C   UNL     1       2.332  -1.350   9.454  1.00  0.00     0.010 A 
ATOM     30  C   UNL     1       2.415  -3.331   8.061  1.00  0.00     0.010 A 
ATOM     31  C   UNL     1       2.199  -2.741   9.314  1.00  0.00    -0.014 A 
BRANCH  31  32
ATOM     32  C   UNL     1       1.888  -3.599  10.484  1.00  0.00     0.031 A 
ATOM     33  C   UNL     1       2.892  -4.617  10.952  1.00  0.00     0.074 A 
ATOM     34  C   UNL     1       0.693  -3.489  11.095  1.00  0.00     0.049 A 
ATOM     35  N   UNL     1       2.809  -5.468  11.943  1.00  0.00    -0.248 NA
ATOM     36  C   UNL     1       4.143  -4.717  10.183  1.00  0.00     0.031 C 
ATOM     37  C   UNL     1      -0.387  -2.590  10.688  1.00  0.00     0.029 A 
ATOM     38  N   UNL     1       0.188  -4.141  12.191  1.00  0.00    -0.354 N 
ATOM     39  C   UNL     1       3.982  -6.209  11.902  1.00  0.00     0.074 A 
ATOM     40  C   UNL     1       4.729  -5.760  10.749  1.00  0.00     0.031 C 
ATOM     41  C   UNL     1      -1.413  -2.720  11.546  1.00  0.00     0.029 A 
ATOM     42  C   UNL     1      -1.072  -3.727  12.545  1.00  0.00     0.049 A 
ATOM     43  H   UNL     1       0.683  -4.840  12.678  1.00  0.00     0.167 HD
ATOM     44  C   UNL     1       4.417  -7.155  12.768  1.00  0.00     0.037 A 
ATOM     45  C   UNL     1      -1.855  -4.112  13.570  1.00  0.00     0.037 A 
ATOM     46  C   UNL     1       3.688  -7.570  13.936  1.00  0.00     0.049 A 
ATOM     47  C   UNL     1      -1.334  -5.137  14.541  1.00  0.00     0.074 A 
ATOM     48  C   UNL     1       4.063  -8.472  14.915  1.00  0.00     0.029 A 
ATOM     49  N   UNL     1       2.428  -7.103  14.282  1.00  0.00    -0.354 N 
ATOM     50  N   UNL     1      -0.187  -5.773  14.540  1.00  0.00    -0.248 NA
ATOM     51  C   UNL     1      -2.212  -5.486  15.666  1.00  0.00     0.031 C 
ATOM     52  C   UNL     1       3.014  -8.578  15.836  1.00  0.00     0.029 A 
ATOM     53  C   UNL     1       2.006  -7.707  15.455  1.00  0.00     0.049 A 
ATOM     54  H   UNL     1       1.911  -6.439  13.771  1.00  0.00     0.167 HD
ATOM     55  C   UNL     1      -0.193  -6.575  15.672  1.00  0.00     0.074 A 
ATOM     56  C   UNL     1      -1.450  -6.327  16.350  1.00  0.00     0.031 C 
ATOM     57  C   UNL     1       0.752  -7.441  16.113  1.00  0.00     0.037 A 
BRANCH  44  58
ATOM     58  C   UNL     1       5.749  -7.790  12.487  1.00  0.00     0.064 A 
ATOM     59  C   UNL     1       6.947  -7.067  12.601  1.00  0.00     0.173 A 
ATOM     60  C   UNL     1       5.832  -9.139  12.113  1.00  0.00     0.173 A 
ATOM     61  F   UNL     1       6.922  -5.769  12.940  1.00  0.00    -0.203 F 
ATOM     62  C   UNL     1       8.174  -7.660  12.316  1.00  0.00     0.198 A 
ATOM     63  C   UNL     1       7.064  -9.738  11.861  1.00  0.00     0.198 A 
ATOM     64  F   UNL     1       4.720  -9.878  11.992  1.00  0.00    -0.203 F 
ATOM     65  F   UNL     1       9.297  -6.932  12.373  1.00  0.00    -0.200 F 
ATOM     66  C   UNL     1       8.232  -8.996  11.953  1.00  0.00     0.200 A 
ATOM     67  F   UNL     1       7.121 -11.034  11.521  1.00  0.00    -0.200 F 
ATOM     68  F   UNL     1       9.414  -9.567  11.681  1.00  0.00    -0.200 F 
ENDBRANCH  44  58
BRANCH  45  69
ATOM     69  C   UNL     1      -3.190  -3.487  13.763  1.00  0.00     0.064 A 
ATOM     70  C   UNL     1      -3.429  -2.620  14.839  1.00  0.00     0.173 A 
ATOM     71  C   UNL     1      -4.253  -3.747  12.886  1.00  0.00     0.173 A 
ATOM     72  F   UNL     1      -2.448  -2.355  15.715  1.00  0.00    -0.203 F 
ATOM     73  C   UNL     1      -4.686  -2.056  15.045  1.00  0.00     0.198 A 
ATOM     74  C   UNL     1      -5.503  -3.160  13.078  1.00  0.00     0.198 A 
ATOM     75  F   UNL     1      -4.075  -4.563  11.837  1.00  0.00    -0.203 F 
ATOM     76  F   UNL     1      -4.899  -1.270  16.109  1.00  0.00    -0.200 F 
ATOM     77  C   UNL     1      -5.721  -2.323  14.162  1.00  0.00     0.200 A 
ATOM     78  F   UNL     1      -6.496  -3.409  12.214  1.00  0.00    -0.200 F 
ATOM     79  F   UNL     1      -6.930  -1.780  14.359  1.00  0.00    -0.200 F 
ENDBRANCH  45  69
BRANCH  57  80
ATOM     80  C   UNL     1       0.472  -8.159  17.401  1.00  0.00     0.064 A 
ATOM     81  C   UNL     1      -0.503  -9.164  17.486  1.00  0.00     0.173 A 
ATOM     82  C   UNL     1       1.203  -7.852  18.558  1.00  0.00     0.173 A 
ATOM     83  F   UNL     1      -1.238  -9.484  16.410  1.00  0.00    -0.203 F 
ATOM     84  C   UNL     1      -0.760  -9.810  18.692  1.00  0.00     0.198 A 
ATOM     85  C   UNL     1       0.966  -8.523  19.754  1.00  0.00     0.198 A 
ATOM     86  F   UNL     1       2.153  -6.905  18.527  1.00  0.00    -0.203 F 
ATOM     87  F   UNL     1      -1.736 -10.726  18.764  1.00  0.00    -0.200 F 
ATOM     88  C   UNL     1      -0.022  -9.493  19.823  1.00  0.00     0.200 A 
ATOM     89  F   UNL     1       1.689  -8.225  20.842  1.00  0.00    -0.200 F 
ATOM     90  F   UNL     1      -0.270 -10.117  20.982  1.00  0.00    -0.200 F 
ENDBRANCH  57  80
ENDBRANCH  31  32
ENDBRANCH  23  26
ENDBRANCH  21  22
ENDBRANCH  20  21
ENDBRANCH   1  20
TORSDOF 13
