REMARK SMILES O=C(CCC(=O)[C@H]1CSCCO1)NCCCCNC(=O)c1ccc(-c2c3nc(c(-c4c(F)c(F)c(F)c(F)c4F)c4ccc([nH]4)c(-c4c(F)c(F)c(F)c(F)c4F)c4nc(c(-c5c(F)c(F)c(F)c(F)c5F)c5ccc2[nH]5)C=C4)C=C3)cc1
REMARK SMILES IDX 15 1 14 2 13 3 1 4 2 5 3 7 4 8 5 9 6 10 7 11 8 12 12 13 9 14
REMARK SMILES IDX 11 15 10 16 16 17 17 18 18 19 19 20 20 22 21 23 22 24 83 25
REMARK SMILES IDX 23 26 82 27 24 28 25 29 26 30 76 31 27 32 81 33 75 34 77 35
REMARK SMILES IDX 28 36 80 37 74 38 73 39 29 41 61 42 41 43 60 44 42 45 45 46
REMARK SMILES IDX 59 47 78 48 43 49 44 50 58 52 79 53 46 54 30 55 31 56 39 57
REMARK SMILES IDX 32 58 33 59 37 60 40 61 34 62 35 63 38 64 36 65 62 66 63 67
REMARK SMILES IDX 71 68 64 69 65 70 69 71 72 72 66 73 67 74 70 75 68 76 47 77
REMARK SMILES IDX 48 78 56 79 49 80 50 81 54 82 57 83 51 84 52 85 55 86 53 87
REMARK H PARENT 13 6 18 21 77 40 45 51
REMARK Flexibility Score: inf
ROOT
ATOM      1  C   UNL     1       6.911  -2.545  -4.392  1.00  0.00     0.023 C 
ENDROOT
BRANCH   1   2
ATOM      2  C   UNL     1       5.865  -3.216  -3.506  1.00  0.00     0.116 C 
BRANCH   2   3
ATOM      3  N   UNL     1       4.581  -2.546  -3.452  1.00  0.00    -0.356 N 
ATOM      4  O   UNL     1       3.371  -4.452  -3.002  1.00  0.00    -0.275 OA
ATOM      5  C   UNL     1       3.428  -3.235  -3.141  1.00  0.00     0.220 C 
ATOM      6  H   UNL     1       4.532  -1.581  -3.641  1.00  0.00     0.163 HD
BRANCH   5   7
ATOM      7  C   UNL     1       2.238  -2.350  -2.836  1.00  0.00     0.108 C 
BRANCH   7   8
ATOM      8  C   UNL     1       2.136  -2.116  -1.331  1.00  0.00     0.088 C 
BRANCH   8   9
ATOM      9  C   UNL     1       3.377  -1.411  -0.811  1.00  0.00     0.162 C 
ATOM     10  O   UNL     1       3.628  -0.275  -1.239  1.00  0.00    -0.297 OA
BRANCH   9  11
ATOM     11  C   UNL     1       4.351  -2.117   0.156  1.00  0.00     0.194 C 
ATOM     12  C   UNL     1       4.001  -3.568   0.491  1.00  0.00     0.109 C 
ATOM     13  O   UNL     1       5.636  -2.014  -0.484  1.00  0.00    -0.369 OA
ATOM     14  S   UNL     1       5.233  -4.343   1.590  1.00  0.00    -0.156 SA
ATOM     15  C   UNL     1       6.729  -2.436   0.334  1.00  0.00     0.172 C 
ATOM     16  C   UNL     1       6.699  -3.934   0.598  1.00  0.00     0.098 C 
ENDBRANCH   9  11
ENDBRANCH   8   9
ENDBRANCH   7   8
ENDBRANCH   5   7
ENDBRANCH   2   3
ENDBRANCH   1   2
BRANCH   1  17
ATOM     17  C   UNL     1       7.167  -1.046  -4.204  1.00  0.00     0.023 C 
BRANCH  17  18
ATOM     18  C   UNL     1       7.739  -0.567  -2.870  1.00  0.00     0.116 C 
BRANCH  18  19
ATOM     19  N   UNL     1       8.986  -1.206  -2.477  1.00  0.00    -0.352 N 
ATOM     20  C   UNL     1      10.075  -0.668  -1.829  1.00  0.00     0.251 C 
ATOM     21  H   UNL     1       9.061  -2.160  -2.707  1.00  0.00     0.163 HD
ATOM     22  O   UNL     1      11.048  -1.373  -1.572  1.00  0.00    -0.269 OA
BRANCH  20  23
ATOM     23  C   UNL     1      10.111   0.772  -1.485  1.00  0.00     0.039 A 
ATOM     24  C   UNL     1      11.224   1.523  -1.881  1.00  0.00     0.014 A 
ATOM     25  C   UNL     1       9.060   1.391  -0.804  1.00  0.00     0.014 A 
ATOM     26  C   UNL     1      11.236   2.908  -1.692  1.00  0.00     0.010 A 
ATOM     27  C   UNL     1       9.053   2.780  -0.653  1.00  0.00     0.010 A 
ATOM     28  C   UNL     1      10.125   3.554  -1.125  1.00  0.00    -0.014 A 
BRANCH  28  29
ATOM     29  C   UNL     1      10.031   5.039  -1.112  1.00  0.00     0.031 A 
ATOM     30  C   UNL     1      10.061   5.809   0.176  1.00  0.00     0.074 A 
ATOM     31  C   UNL     1       9.841   5.691  -2.276  1.00  0.00     0.049 A 
ATOM     32  N   UNL     1       9.935   7.098   0.371  1.00  0.00    -0.248 NA
ATOM     33  C   UNL     1      10.237   5.027   1.408  1.00  0.00     0.031 C 
ATOM     34  C   UNL     1       9.744   5.056  -3.592  1.00  0.00     0.029 A 
ATOM     35  N   UNL     1       9.678   7.029  -2.542  1.00  0.00    -0.354 N 
ATOM     36  C   UNL     1      10.009   7.283   1.744  1.00  0.00     0.074 A 
ATOM     37  C   UNL     1      10.152   5.969   2.338  1.00  0.00     0.031 C 
ATOM     38  C   UNL     1       9.553   6.002  -4.524  1.00  0.00     0.029 A 
ATOM     39  C   UNL     1       9.481   7.306  -3.873  1.00  0.00     0.049 A 
ATOM     40  H   UNL     1       9.701   7.723  -1.844  1.00  0.00     0.167 HD
ATOM     41  C   UNL     1       9.976   8.444   2.444  1.00  0.00     0.037 A 
ATOM     42  C   UNL     1       9.258   8.477  -4.499  1.00  0.00     0.037 A 
ATOM     43  C   UNL     1       9.844   9.752   1.854  1.00  0.00     0.049 A 
ATOM     44  C   UNL     1       9.219   9.749  -3.697  1.00  0.00     0.074 A 
ATOM     45  C   UNL     1       9.860  10.987   2.480  1.00  0.00     0.029 A 
ATOM     46  N   UNL     1       9.664   9.995   0.500  1.00  0.00    -0.354 N 
ATOM     47  N   UNL     1       9.366   9.917  -2.406  1.00  0.00    -0.248 NA
ATOM     48  C   UNL     1       8.988  10.995  -4.442  1.00  0.00     0.031 C 
ATOM     49  C   UNL     1       9.649  11.974   1.511  1.00  0.00     0.029 A 
ATOM     50  C   UNL     1       9.546  11.358   0.275  1.00  0.00     0.049 A 
ATOM     51  H   UNL     1       9.626   9.301  -0.198  1.00  0.00     0.167 HD
ATOM     52  C   UNL     1       9.274  11.284  -2.187  1.00  0.00     0.074 A 
ATOM     53  C   UNL     1       9.070  11.903  -3.480  1.00  0.00     0.031 C 
ATOM     54  C   UNL     1       9.351  11.964  -1.017  1.00  0.00     0.037 A 
BRANCH  41  55
ATOM     55  C   UNL     1      10.086   8.354   3.938  1.00  0.00     0.064 A 
ATOM     56  C   UNL     1      11.295   8.018   4.564  1.00  0.00     0.173 A 
ATOM     57  C   UNL     1       8.985   8.654   4.754  1.00  0.00     0.173 A 
ATOM     58  F   UNL     1      12.375   7.716   3.828  1.00  0.00    -0.203 F 
ATOM     59  C   UNL     1      11.391   7.958   5.952  1.00  0.00     0.198 A 
ATOM     60  C   UNL     1       9.091   8.618   6.142  1.00  0.00     0.198 A 
ATOM     61  F   UNL     1       7.808   8.991   4.206  1.00  0.00    -0.203 F 
ATOM     62  F   UNL     1      12.545   7.593   6.527  1.00  0.00    -0.200 F 
ATOM     63  C   UNL     1      10.291   8.264   6.740  1.00  0.00     0.200 A 
ATOM     64  F   UNL     1       8.031   8.927   6.903  1.00  0.00    -0.200 F 
ATOM     65  F   UNL     1      10.387   8.212   8.075  1.00  0.00    -0.200 F 
ENDBRANCH  41  55
BRANCH  42  66
ATOM     66  C   UNL     1       9.080   8.506  -5.973  1.00  0.00     0.064 A 
ATOM     67  C   UNL     1      10.069   9.050  -6.804  1.00  0.00     0.173 A 
ATOM     68  C   UNL     1       7.923   7.997  -6.580  1.00  0.00     0.173 A 
ATOM     69  F   UNL     1      11.183   9.569  -6.267  1.00  0.00    -0.203 F 
ATOM     70  C   UNL     1       9.900   9.100  -8.186  1.00  0.00     0.198 A 
ATOM     71  C   UNL     1       7.767   8.024  -7.964  1.00  0.00     0.198 A 
ATOM     72  F   UNL     1       6.949   7.463  -5.828  1.00  0.00    -0.203 F 
ATOM     73  F   UNL     1      10.843   9.664  -8.954  1.00  0.00    -0.200 F 
ATOM     74  C   UNL     1       8.752   8.582  -8.765  1.00  0.00     0.200 A 
ATOM     75  F   UNL     1       6.661   7.512  -8.521  1.00  0.00    -0.200 F 
ATOM     76  F   UNL     1       8.591   8.628 -10.094  1.00  0.00    -0.200 F 
ENDBRANCH  42  66
BRANCH  54  77
ATOM     77  C   UNL     1       9.250  13.460  -1.083  1.00  0.00     0.064 A 
ATOM     78  C   UNL     1       8.030  14.103  -1.341  1.00  0.00     0.173 A 
ATOM     79  C   UNL     1      10.380  14.259  -0.853  1.00  0.00     0.173 A 
ATOM     80  F   UNL     1       6.926  13.383  -1.585  1.00  0.00    -0.203 F 
ATOM     81  C   UNL     1       7.951  15.493  -1.385  1.00  0.00     0.198 A 
ATOM     82  C   UNL     1      10.290  15.648  -0.872  1.00  0.00     0.198 A 
ATOM     83  F   UNL     1      11.569  13.692  -0.599  1.00  0.00    -0.203 F 
ATOM     84  F   UNL     1       6.784  16.086  -1.675  1.00  0.00    -0.200 F 
ATOM     85  C   UNL     1       9.078  16.264  -1.144  1.00  0.00     0.200 A 
ATOM     86  F   UNL     1      11.379  16.392  -0.628  1.00  0.00    -0.200 F 
ATOM     87  F   UNL     1       8.998  17.601  -1.182  1.00  0.00    -0.200 F 
ENDBRANCH  54  77
ENDBRANCH  28  29
ENDBRANCH  20  23
ENDBRANCH  18  19
ENDBRANCH  17  18
ENDBRANCH   1  17
TORSDOF 14
