REMARK SMILES O=C(NCCCCNC(=O)[C@H]1Cc2c([nH]c3ccccc23)[C@@H](c2ccc(OC(F)(F)F)cc2)[NH2+]1)c1ccc(-c2c3nc(c(-c4c(F)c(F)c(F)c(F)c4F)c4ccc([nH]4)c(-c4c(F)c(F)c(F)c(F)c4F)c4nc(c(-c5c(F)c(F)c(F)c(F)c5F)c5ccc2[nH]5)C=C4)C=C3)cc1
REMARK SMILES IDX 6 1 5 2 4 3 3 4 1 5 2 6 35 8 36 9 97 10 37 11 96 12 38 13
REMARK SMILES IDX 39 14 40 15 90 16 41 17 95 18 89 19 91 20 42 21 94 22 88 23
REMARK SMILES IDX 87 24 43 26 75 27 55 28 74 29 56 30 59 31 73 32 92 33 57 34
REMARK SMILES IDX 58 35 72 37 93 38 60 39 44 40 45 41 53 42 46 43 47 44 51 45
REMARK SMILES IDX 54 46 48 47 49 48 52 49 50 50 76 51 77 52 85 53 78 54 79 55
REMARK SMILES IDX 83 56 86 57 80 58 81 59 84 60 82 61 61 62 62 63 70 64 63 65
REMARK SMILES IDX 64 66 68 67 71 68 65 69 66 70 69 71 67 72 7 73 8 74 9 75
REMARK SMILES IDX 10 77 11 78 12 79 34 80 13 81 22 82 14 85 21 86 15 87 16 88
REMARK SMILES IDX 20 89 17 91 19 92 18 93 23 94 24 95 33 96 25 97 32 98 26 99
REMARK SMILES IDX 27 100 28 101 29 102 30 103 31 104
REMARK H PARENT 3 7 91 25 59 36 8 76 34 83 34 84 15 90
REMARK Flexibility Score: inf
ROOT
ATOM      1  C   UNL     1       4.332   1.045  -3.957  1.00  0.00     0.023 C 
ENDROOT
BRANCH   1   2
ATOM      2  C   UNL     1       4.810   0.006  -2.943  1.00  0.00     0.023 C 
BRANCH   2   3
ATOM      3  C   UNL     1       4.541   0.339  -1.482  1.00  0.00     0.116 C 
BRANCH   3   4
ATOM      4  N   UNL     1       3.126   0.432  -1.157  1.00  0.00    -0.352 N 
ATOM      5  O   UNL     1       1.223  -0.033  -0.031  1.00  0.00    -0.269 OA
ATOM      6  C   UNL     1       2.446  -0.122  -0.097  1.00  0.00     0.251 C 
ATOM      7  H   UNL     1       2.581   0.963  -1.782  1.00  0.00     0.163 HD
BRANCH   6   8
ATOM      8  C   UNL     1       3.190  -0.859   0.948  1.00  0.00     0.039 A 
ATOM      9  C   UNL     1       4.370  -0.337   1.479  1.00  0.00     0.014 A 
ATOM     10  C   UNL     1       2.712  -2.098   1.387  1.00  0.00     0.014 A 
ATOM     11  C   UNL     1       5.152  -1.121   2.319  1.00  0.00     0.010 A 
ATOM     12  C   UNL     1       3.456  -2.846   2.307  1.00  0.00     0.010 A 
ATOM     13  C   UNL     1       4.701  -2.380   2.751  1.00  0.00    -0.014 A 
BRANCH  13  14
ATOM     14  C   UNL     1       5.540  -3.144   3.711  1.00  0.00     0.031 A 
ATOM     15  C   UNL     1       6.179  -4.451   3.333  1.00  0.00     0.074 A 
ATOM     16  C   UNL     1       5.783  -2.598   4.919  1.00  0.00     0.049 A 
ATOM     17  N   UNL     1       7.012  -5.190   4.024  1.00  0.00    -0.248 NA
ATOM     18  C   UNL     1       5.837  -5.010   2.017  1.00  0.00     0.031 C 
ATOM     19  C   UNL     1       5.195  -1.348   5.406  1.00  0.00     0.029 A 
ATOM     20  N   UNL     1       6.609  -2.996   5.938  1.00  0.00    -0.354 N 
ATOM     21  C   UNL     1       7.286  -6.299   3.235  1.00  0.00     0.074 A 
ATOM     22  C   UNL     1       6.507  -6.155   2.023  1.00  0.00     0.031 C 
ATOM     23  C   UNL     1       5.725  -1.048   6.599  1.00  0.00     0.029 A 
ATOM     24  C   UNL     1       6.648  -2.110   6.986  1.00  0.00     0.049 A 
ATOM     25  H   UNL     1       7.123  -3.835   5.920  1.00  0.00     0.167 HD
ATOM     26  C   UNL     1       8.120  -7.335   3.496  1.00  0.00     0.037 A 
ATOM     27  C   UNL     1       7.347  -2.146   8.135  1.00  0.00     0.037 A 
ATOM     28  C   UNL     1       8.902  -7.470   4.700  1.00  0.00     0.049 A 
ATOM     29  C   UNL     1       8.277  -3.296   8.386  1.00  0.00     0.074 A 
ATOM     30  C   UNL     1       9.779  -8.482   5.053  1.00  0.00     0.029 A 
ATOM     31  N   UNL     1       8.903  -6.560   5.747  1.00  0.00    -0.354 N 
ATOM     32  N   UNL     1       8.539  -4.327   7.621  1.00  0.00    -0.248 NA
ATOM     33  C   UNL     1       9.009  -3.288   9.658  1.00  0.00     0.031 C 
ATOM     34  C   UNL     1      10.286  -8.200   6.327  1.00  0.00     0.029 A 
ATOM     35  C   UNL     1       9.758  -6.992   6.750  1.00  0.00     0.049 A 
ATOM     36  H   UNL     1       8.375  -5.729   5.774  1.00  0.00     0.167 HD
ATOM     37  C   UNL     1       9.462  -5.092   8.317  1.00  0.00     0.074 A 
ATOM     38  C   UNL     1       9.746  -4.384   9.549  1.00  0.00     0.031 C 
ATOM     39  C   UNL     1      10.016  -6.280   7.974  1.00  0.00     0.037 A 
BRANCH  26  40
ATOM     40  C   UNL     1       8.236  -8.417   2.461  1.00  0.00     0.064 A 
ATOM     41  C   UNL     1       8.932  -8.211   1.261  1.00  0.00     0.173 A 
ATOM     42  C   UNL     1       7.702  -9.693   2.699  1.00  0.00     0.173 A 
ATOM     43  F   UNL     1       9.451  -7.007   0.980  1.00  0.00    -0.203 F 
ATOM     44  C   UNL     1       9.077  -9.238   0.331  1.00  0.00     0.198 A 
ATOM     45  C   UNL     1       7.869 -10.724   1.778  1.00  0.00     0.198 A 
ATOM     46  F   UNL     1       7.032  -9.944   3.834  1.00  0.00    -0.203 F 
ATOM     47  F   UNL     1       9.719  -9.010  -0.823  1.00  0.00    -0.200 F 
ATOM     48  C   UNL     1       8.553 -10.495   0.594  1.00  0.00     0.200 A 
ATOM     49  F   UNL     1       7.372 -11.941   2.038  1.00  0.00    -0.200 F 
ATOM     50  F   UNL     1       8.704 -11.486  -0.297  1.00  0.00    -0.200 F 
ENDBRANCH  26  40
BRANCH  27  51
ATOM     51  C   UNL     1       7.186  -1.053   9.127  1.00  0.00     0.064 A 
ATOM     52  C   UNL     1       8.224  -0.147   9.383  1.00  0.00     0.173 A 
ATOM     53  C   UNL     1       5.982  -0.883   9.826  1.00  0.00     0.173 A 
ATOM     54  F   UNL     1       9.400  -0.280   8.752  1.00  0.00    -0.203 F 
ATOM     55  C   UNL     1       8.068   0.878  10.313  1.00  0.00     0.198 A 
ATOM     56  C   UNL     1       5.816   0.161  10.732  1.00  0.00     0.198 A 
ATOM     57  F   UNL     1       4.956  -1.720   9.609  1.00  0.00    -0.203 F 
ATOM     58  F   UNL     1       9.089   1.707  10.570  1.00  0.00    -0.200 F 
ATOM     59  C   UNL     1       6.862   1.036  10.981  1.00  0.00     0.200 A 
ATOM     60  F   UNL     1       4.644   0.321  11.359  1.00  0.00    -0.200 F 
ATOM     61  F   UNL     1       6.710   2.029  11.867  1.00  0.00    -0.200 F 
ENDBRANCH  27  51
BRANCH  39  62
ATOM     62  C   UNL     1      10.981  -6.881   8.953  1.00  0.00     0.064 A 
ATOM     63  C   UNL     1      10.540  -7.439  10.162  1.00  0.00     0.173 A 
ATOM     64  C   UNL     1      12.356  -6.900   8.680  1.00  0.00     0.173 A 
ATOM     65  F   UNL     1       9.235  -7.428  10.474  1.00  0.00    -0.203 F 
ATOM     66  C   UNL     1      11.445  -7.966  11.078  1.00  0.00     0.198 A 
ATOM     67  C   UNL     1      13.256  -7.452   9.587  1.00  0.00     0.198 A 
ATOM     68  F   UNL     1      12.826  -6.382   7.536  1.00  0.00    -0.203 F 
ATOM     69  F   UNL     1      11.007  -8.444  12.251  1.00  0.00    -0.200 F 
ATOM     70  C   UNL     1      12.802  -7.975  10.788  1.00  0.00     0.200 A 
ATOM     71  F   UNL     1      14.566  -7.468   9.304  1.00  0.00    -0.200 F 
ATOM     72  F   UNL     1      13.673  -8.478  11.674  1.00  0.00    -0.200 F 
ENDBRANCH  39  62
ENDBRANCH  13  14
ENDBRANCH   6   8
ENDBRANCH   3   4
ENDBRANCH   2   3
ENDBRANCH   1   2
BRANCH   1  73
ATOM     73  C   UNL     1       4.795   2.475  -3.692  1.00  0.00     0.116 C 
BRANCH  73  74
ATOM     74  N   UNL     1       6.240   2.586  -3.616  1.00  0.00    -0.351 N 
ATOM     75  C   UNL     1       7.114   3.345  -4.343  1.00  0.00     0.278 C 
ATOM     76  H   UNL     1       6.660   2.022  -2.928  1.00  0.00     0.163 HD
ATOM     77  O   UNL     1       8.292   3.344  -3.979  1.00  0.00    -0.268 OA
BRANCH  75  78
ATOM     78  C   UNL     1       6.622   4.112  -5.577  1.00  0.00     0.277 C 
ATOM     79  C   UNL     1       7.278   5.513  -5.596  1.00  0.00     0.114 C 
ATOM     80  N   UNL     1       6.954   3.332  -6.798  1.00  0.00    -0.325 N 
ATOM     81  C   UNL     1       6.844   6.195  -6.843  1.00  0.00    -0.006 A 
ATOM     82  C   UNL     1       6.494   3.949  -8.062  1.00  0.00     0.262 C 
ATOM     83  H   UNL     1       6.522   2.412  -6.717  1.00  0.00     0.347 HD
ATOM     84  H   UNL     1       7.972   3.290  -6.849  1.00  0.00     0.347 HD
ATOM     85  C   UNL     1       6.472   5.450  -7.945  1.00  0.00     0.083 A 
ATOM     86  C   UNL     1       6.725   7.566  -7.173  1.00  0.00     0.003 A 
ATOM     87  N   UNL     1       6.051   6.325  -8.912  1.00  0.00    -0.353 N 
ATOM     88  C   UNL     1       6.235   7.623  -8.480  1.00  0.00     0.046 A 
ATOM     89  C   UNL     1       6.993   8.768  -6.492  1.00  0.00     0.010 A 
ATOM     90  H   UNL     1       5.674   6.067  -9.784  1.00  0.00     0.166 HD
ATOM     91  C   UNL     1       6.011   8.835  -9.144  1.00  0.00     0.026 A 
ATOM     92  C   UNL     1       6.779   9.986  -7.144  1.00  0.00     0.001 A 
ATOM     93  C   UNL     1       6.298  10.016  -8.452  1.00  0.00     0.002 A 
BRANCH  82  94
ATOM     94  C   UNL     1       7.364   3.421  -9.205  1.00  0.00     0.016 A 
ATOM     95  C   UNL     1       8.348   4.202  -9.833  1.00  0.00     0.014 A 
ATOM     96  C   UNL     1       7.239   2.083  -9.616  1.00  0.00     0.014 A 
ATOM     97  C   UNL     1       9.145   3.677 -10.853  1.00  0.00     0.047 A 
ATOM     98  C   UNL     1       8.062   1.546 -10.617  1.00  0.00     0.047 A 
ATOM     99  C   UNL     1       9.021   2.343 -11.240  1.00  0.00     0.129 A 
BRANCH  99 100
ATOM    100  O   UNL     1       9.883   1.962 -12.226  1.00  0.00    -0.406 OA
BRANCH 100 101
ATOM    101  C   UNL     1      10.040   0.574 -12.459  1.00  0.00     0.573 C 
ATOM    102  F   UNL     1      10.394  -0.079 -11.332  1.00  0.00    -0.132 F 
ATOM    103  F   UNL     1       8.906   0.034 -12.956  1.00  0.00    -0.132 F 
ATOM    104  F   UNL     1      11.021   0.397 -13.373  1.00  0.00    -0.132 F 
ENDBRANCH 100 101
ENDBRANCH  99 100
ENDBRANCH  82  94
ENDBRANCH  75  78
ENDBRANCH  73  74
ENDBRANCH   1  73
TORSDOF 14
