REMARK SMILES C[NH2+][C@](C)(C(=O)NCCCCNC(=O)c1ccc(-c2c3nc(c(-c4c(F)c(F)c(F)c(F)c4F)c4ccc([nH]4)c(-c4c(F)c(F)c(F)c(F)c4F)c4nc(c(-c5c(F)c(F)c(F)c(F)c5F)c5ccc2[nH]5)C=C4)C=C3)cc1)c1cccc(Cl)c1
REMARK SMILES IDX 10 1 9 2 8 3 7 4 5 5 6 6 3 8 4 9 2 10 1 11 78 14 79 15 84 16
REMARK SMILES IDX 80 17 82 18 81 19 83 20 11 21 12 22 13 23 14 25 15 26 16 27
REMARK SMILES IDX 77 28 17 29 76 30 18 31 19 32 20 33 70 34 21 35 75 36 69 37
REMARK SMILES IDX 71 38 22 39 74 40 68 41 67 42 23 44 55 45 35 46 54 47 36 48
REMARK SMILES IDX 39 49 53 50 72 51 37 52 38 53 52 55 73 56 40 57 24 58 25 59
REMARK SMILES IDX 33 60 26 61 27 62 31 63 34 64 28 65 29 66 32 67 30 68 56 69
REMARK SMILES IDX 57 70 65 71 58 72 59 73 63 74 66 75 60 76 61 77 64 78 62 79
REMARK SMILES IDX 41 80 42 81 50 82 43 83 44 84 48 85 51 86 45 87 46 88 49 89
REMARK SMILES IDX 47 90
REMARK H PARENT 7 7 2 12 2 13 12 24 71 43 39 54
REMARK Flexibility Score: inf
ROOT
ATOM      1  C   UNL     1       0.901  -4.540   4.063  1.00  0.00     0.023 C 
ENDROOT
BRANCH   1   2
ATOM      2  C   UNL     1       1.091  -3.708   2.798  1.00  0.00     0.023 C 
BRANCH   2   3
ATOM      3  C   UNL     1      -0.205  -3.390   2.054  1.00  0.00     0.116 C 
BRANCH   3   4
ATOM      4  N   UNL     1      -1.002  -2.427   2.784  1.00  0.00    -0.350 N 
ATOM      5  C   UNL     1      -1.245  -1.102   2.537  1.00  0.00     0.285 C 
ATOM      6  O   UNL     1      -1.886  -0.513   3.415  1.00  0.00    -0.267 OA
ATOM      7  H   UNL     1      -1.442  -2.783   3.590  1.00  0.00     0.163 HD
BRANCH   5   8
ATOM      8  C   UNL     1      -0.707  -0.379   1.219  1.00  0.00     0.198 C 
ATOM      9  C   UNL     1       0.832  -0.305   1.382  1.00  0.00     0.096 C 
BRANCH   8  10
ATOM     10  N   UNL     1      -1.157  -1.203   0.059  1.00  0.00    -0.332 N 
ATOM     11  C   UNL     1      -0.266  -1.275  -1.084  1.00  0.00     0.332 C 
ATOM     12  H   UNL     1      -1.302  -2.155   0.395  1.00  0.00     0.347 HD
ATOM     13  H   UNL     1      -1.994  -0.736  -0.288  1.00  0.00     0.347 HD
ENDBRANCH   8  10
BRANCH   8  14
ATOM     14  C   UNL     1      -1.331   1.042   1.104  1.00  0.00     0.023 A 
ATOM     15  C   UNL     1      -0.557   2.207   0.935  1.00  0.00     0.011 A 
ATOM     16  C   UNL     1      -2.730   1.209   1.205  1.00  0.00     0.031 A 
ATOM     17  C   UNL     1      -1.144   3.477   0.917  1.00  0.00     0.002 A 
ATOM     18  C   UNL     1      -3.311   2.479   1.192  1.00  0.00     0.041 A 
ATOM     19  C   UNL     1      -2.521   3.615   1.056  1.00  0.00     0.020 A 
ATOM     20  Cl  UNL     1      -5.016   2.643   1.365  1.00  0.00    -0.084 Cl
ENDBRANCH   8  14
ENDBRANCH   5   8
ENDBRANCH   3   4
ENDBRANCH   2   3
ENDBRANCH   1   2
BRANCH   1  21
ATOM     21  C   UNL     1       0.169  -5.856   3.851  1.00  0.00     0.116 C 
BRANCH  21  22
ATOM     22  N   UNL     1       0.800  -6.703   2.850  1.00  0.00    -0.352 N 
ATOM     23  C   UNL     1       1.032  -8.056   2.889  1.00  0.00     0.251 C 
ATOM     24  H   UNL     1       1.103  -6.243   2.034  1.00  0.00     0.163 HD
ATOM     25  O   UNL     1       1.704  -8.596   2.022  1.00  0.00    -0.269 OA
BRANCH  23  26
ATOM     26  C   UNL     1       0.483  -8.849   4.008  1.00  0.00     0.039 A 
ATOM     27  C   UNL     1       1.303  -9.791   4.631  1.00  0.00     0.014 A 
ATOM     28  C   UNL     1      -0.828  -8.650   4.449  1.00  0.00     0.014 A 
ATOM     29  C   UNL     1       0.817 -10.505   5.727  1.00  0.00     0.010 A 
ATOM     30  C   UNL     1      -1.274  -9.287   5.600  1.00  0.00     0.010 A 
ATOM     31  C   UNL     1      -0.466 -10.241   6.236  1.00  0.00    -0.014 A 
BRANCH  31  32
ATOM     32  C   UNL     1      -0.992 -10.992   7.402  1.00  0.00     0.031 A 
ATOM     33  C   UNL     1      -2.204 -11.870   7.244  1.00  0.00     0.074 A 
ATOM     34  C   UNL     1      -0.401 -10.858   8.605  1.00  0.00     0.049 A 
ATOM     35  N   UNL     1      -2.821 -12.599   8.140  1.00  0.00    -0.248 NA
ATOM     36  C   UNL     1      -2.826 -11.912   5.910  1.00  0.00     0.031 C 
ATOM     37  C   UNL     1       0.740  -9.989   8.897  1.00  0.00     0.029 A 
ATOM     38  N   UNL     1      -0.681 -11.454   9.809  1.00  0.00    -0.354 N 
ATOM     39  C   UNL     1      -3.903 -13.169   7.481  1.00  0.00     0.074 A 
ATOM     40  C   UNL     1      -3.902 -12.651   6.132  1.00  0.00     0.031 C 
ATOM     41  C   UNL     1       1.085 -10.134  10.187  1.00  0.00     0.029 A 
ATOM     42  C   UNL     1       0.170 -11.079  10.820  1.00  0.00     0.049 A 
ATOM     43  H   UNL     1      -1.422 -12.090   9.937  1.00  0.00     0.167 HD
ATOM     44  C   UNL     1      -4.799 -14.070   7.949  1.00  0.00     0.037 A 
ATOM     45  C   UNL     1       0.206 -11.459  12.111  1.00  0.00     0.037 A 
ATOM     46  C   UNL     1      -4.779 -14.606   9.285  1.00  0.00     0.049 A 
ATOM     47  C   UNL     1      -0.791 -12.477  12.600  1.00  0.00     0.074 A 
ATOM     48  C   UNL     1      -5.606 -15.564   9.843  1.00  0.00     0.029 A 
ATOM     49  N   UNL     1      -3.882 -14.225  10.273  1.00  0.00    -0.354 N 
ATOM     50  N   UNL     1      -1.760 -13.070  11.946  1.00  0.00    -0.248 NA
ATOM     51  C   UNL     1      -0.673 -12.893  14.004  1.00  0.00     0.031 C 
ATOM     52  C   UNL     1      -5.243 -15.726  11.184  1.00  0.00     0.029 A 
ATOM     53  C   UNL     1      -4.147 -14.918  11.443  1.00  0.00     0.049 A 
ATOM     54  H   UNL     1      -3.164 -13.561  10.159  1.00  0.00     0.167 HD
ATOM     55  C   UNL     1      -2.341 -13.956  12.845  1.00  0.00     0.074 A 
ATOM     56  C   UNL     1      -1.601 -13.834  14.084  1.00  0.00     0.031 C 
ATOM     57  C   UNL     1      -3.391 -14.796  12.663  1.00  0.00     0.037 A 
BRANCH  44  58
ATOM     58  C   UNL     1      -5.873 -14.539   7.009  1.00  0.00     0.064 A 
ATOM     59  C   UNL     1      -5.580 -15.341   5.894  1.00  0.00     0.173 A 
ATOM     60  C   UNL     1      -7.217 -14.215   7.245  1.00  0.00     0.173 A 
ATOM     61  F   UNL     1      -4.310 -15.669   5.613  1.00  0.00    -0.203 F 
ATOM     62  C   UNL     1      -6.588 -15.777   5.038  1.00  0.00     0.198 A 
ATOM     63  C   UNL     1      -8.227 -14.681   6.407  1.00  0.00     0.198 A 
ATOM     64  F   UNL     1      -7.555 -13.453   8.297  1.00  0.00    -0.203 F 
ATOM     65  F   UNL     1      -6.278 -16.498   3.952  1.00  0.00    -0.200 F 
ATOM     66  C   UNL     1      -7.911 -15.455   5.301  1.00  0.00     0.200 A 
ATOM     67  F   UNL     1      -9.506 -14.381   6.670  1.00  0.00    -0.200 F 
ATOM     68  F   UNL     1      -8.882 -15.885   4.483  1.00  0.00    -0.200 F 
ENDBRANCH  44  58
BRANCH  45  69
ATOM     69  C   UNL     1       1.240 -10.906  13.027  1.00  0.00     0.064 A 
ATOM     70  C   UNL     1       2.253 -11.721  13.553  1.00  0.00     0.173 A 
ATOM     71  C   UNL     1       1.221  -9.559  13.417  1.00  0.00     0.173 A 
ATOM     72  F   UNL     1       2.304 -13.020  13.224  1.00  0.00    -0.203 F 
ATOM     73  C   UNL     1       3.183 -11.220  14.461  1.00  0.00     0.198 A 
ATOM     74  C   UNL     1       2.173  -9.051  14.299  1.00  0.00     0.198 A 
ATOM     75  F   UNL     1       0.280  -8.733  12.937  1.00  0.00    -0.203 F 
ATOM     76  F   UNL     1       4.101 -12.038  14.996  1.00  0.00    -0.200 F 
ATOM     77  C   UNL     1       3.145  -9.885  14.830  1.00  0.00     0.200 A 
ATOM     78  F   UNL     1       2.143  -7.755  14.639  1.00  0.00    -0.200 F 
ATOM     79  F   UNL     1       4.038  -9.404  15.705  1.00  0.00    -0.200 F 
ENDBRANCH  45  69
BRANCH  57  80
ATOM     80  C   UNL     1      -3.760 -15.691  13.812  1.00  0.00     0.064 A 
ATOM     81  C   UNL     1      -4.312 -15.190  14.999  1.00  0.00     0.173 A 
ATOM     82  C   UNL     1      -3.564 -17.078  13.714  1.00  0.00     0.173 A 
ATOM     83  F   UNL     1      -4.511 -13.871  15.149  1.00  0.00    -0.203 F 
ATOM     84  C   UNL     1      -4.609 -16.037  16.064  1.00  0.00     0.198 A 
ATOM     85  C   UNL     1      -3.900 -17.926  14.765  1.00  0.00     0.198 A 
ATOM     86  F   UNL     1      -3.051 -17.613  12.596  1.00  0.00    -0.203 F 
ATOM     87  F   UNL     1      -5.067 -15.527  17.215  1.00  0.00    -0.200 F 
ATOM     88  C   UNL     1      -4.407 -17.404  15.944  1.00  0.00     0.200 A 
ATOM     89  F   UNL     1      -3.722 -19.249  14.640  1.00  0.00    -0.200 F 
ATOM     90  F   UNL     1      -4.692 -18.217  16.971  1.00  0.00    -0.200 F 
ENDBRANCH  57  80
ENDBRANCH  31  32
ENDBRANCH  23  26
ENDBRANCH  21  22
ENDBRANCH   1  21
TORSDOF 13
