REMARK SMILES COc1ccc(/C=C2\SC(=S)[NH+]=C2NCCCCNC(=O)c2ccc(-c3c4nc(c(-c5c(F)c(F)c(F)c(F)c5F)c5ccc([nH]5)c(-c5c(F)c(F)c(F)c(F)c5F)c5nc(c(-c6c(F)c(F)c(F)c(F)c6F)c6ccc3[nH]6)C=C5)C=C4)cc2)c(C(=O)[O-])c1OC
REMARK SMILES IDX 17 1 16 2 15 3 14 4 7 5 8 6 9 7 13 8 10 9 12 10 11 11 6 14
REMARK SMILES IDX 3 15 4 16 89 17 5 18 85 19 2 20 1 21 90 22 91 23 86 24 87 25
REMARK SMILES IDX 88 26 18 27 19 28 20 29 21 31 22 32 23 33 84 34 24 35 83 36
REMARK SMILES IDX 25 37 26 38 27 39 77 40 28 41 82 42 76 43 78 44 29 45 81 46
REMARK SMILES IDX 75 47 74 48 30 50 62 51 42 52 61 53 43 54 46 55 60 56 79 57
REMARK SMILES IDX 44 58 45 59 59 61 80 62 47 63 31 64 32 65 40 66 33 67 34 68
REMARK SMILES IDX 38 69 41 70 35 71 36 72 39 73 37 74 63 75 64 76 72 77 65 78
REMARK SMILES IDX 66 79 70 80 73 81 67 82 68 83 71 84 69 85 48 86 49 87 57 88
REMARK SMILES IDX 50 89 51 90 55 91 58 92 52 93 53 94 56 95 54 96
REMARK H PARENT 12 12 14 13 19 30 78 49 46 60
REMARK Flexibility Score: inf
ROOT
ATOM      1  C   UNL     1       3.523 -10.135   4.808  1.00  0.00     0.025 C 
ENDROOT
BRANCH   1   2
ATOM      2  C   UNL     1       2.451  -9.928   5.877  1.00  0.00     0.048 C 
BRANCH   2   3
ATOM      3  C   UNL     1       2.562  -8.613   6.648  1.00  0.00     0.234 C 
BRANCH   3   4
ATOM      4  N   UNL     1       2.279  -7.470   5.787  1.00  0.00    -0.273 N 
ATOM      5  C   UNL     1       1.639  -4.885   4.171  1.00  0.00     0.033 C 
ATOM      6  C   UNL     1       0.848  -5.428   5.121  1.00  0.00     0.106 C 
ATOM      7  S   UNL     1      -0.674  -4.849   5.707  1.00  0.00    -0.027 SA
ATOM      8  C   UNL     1       1.171  -6.667   5.947  1.00  0.00     0.288 C 
ATOM      9  C   UNL     1      -0.723  -6.067   6.970  1.00  0.00     0.230 C 
ATOM     10  N   UNL     1       0.310  -6.963   6.891  1.00  0.00    -0.225 N 
ATOM     11  S   UNL     1      -1.907  -6.066   8.151  1.00  0.00    -0.026 S 
ATOM     12  H   UNL     1       0.397  -7.746   7.481  1.00  0.00     0.314 HD
ATOM     13  H   UNL     1       2.908  -7.263   5.059  1.00  0.00     0.305 HD
BRANCH   5  14
ATOM     14  C   UNL     1       1.508  -3.631   3.340  1.00  0.00    -0.011 A 
ATOM     15  C   UNL     1       1.147  -1.202   1.870  1.00  0.00     0.161 A 
ATOM     16  C   UNL     1       0.065  -1.843   2.455  1.00  0.00     0.051 A 
ATOM     17  C   UNL     1       2.429  -1.761   1.974  1.00  0.00     0.170 A 
ATOM     18  C   UNL     1       0.243  -3.044   3.146  1.00  0.00     0.013 A 
ATOM     19  C   UNL     1       2.608  -2.982   2.696  1.00  0.00     0.050 A 
BRANCH  15  20
ATOM     20  O   UNL     1       0.961   0.034   1.311  1.00  0.00    -0.493 OA
ATOM     21  C   UNL     1       0.083   0.008   0.184  1.00  0.00     0.278 C 
ENDBRANCH  15  20
BRANCH  17  22
ATOM     22  O   UNL     1       3.556  -1.123   1.502  1.00  0.00    -0.492 OA
ATOM     23  C   UNL     1       3.432  -0.427   0.263  1.00  0.00     0.278 C 
ENDBRANCH  17  22
BRANCH  19  24
ATOM     24  C   UNL     1       3.988  -3.549   2.799  1.00  0.00     0.076 C 
ATOM     25  O   UNL     1       4.473  -4.111   3.761  1.00  0.00    -0.545 OA
ATOM     26  O   UNL     1       4.682  -3.454   1.647  1.00  0.00    -0.545 OA
ENDBRANCH  19  24
ENDBRANCH   5  14
ENDBRANCH   3   4
ENDBRANCH   2   3
ENDBRANCH   1   2
BRANCH   1  27
ATOM     27  C   UNL     1       4.960 -10.086   5.314  1.00  0.00     0.116 C 
BRANCH  27  28
ATOM     28  N   UNL     1       5.288 -11.166   6.232  1.00  0.00    -0.352 N 
ATOM     29  C   UNL     1       6.386 -11.995   6.232  1.00  0.00     0.251 C 
ATOM     30  H   UNL     1       4.634 -11.326   6.951  1.00  0.00     0.163 HD
ATOM     31  O   UNL     1       6.451 -12.943   7.008  1.00  0.00    -0.269 OA
BRANCH  29  32
ATOM     32  C   UNL     1       7.479 -11.760   5.263  1.00  0.00     0.039 A 
ATOM     33  C   UNL     1       7.987 -12.841   4.536  1.00  0.00     0.014 A 
ATOM     34  C   UNL     1       7.981 -10.474   5.050  1.00  0.00     0.014 A 
ATOM     35  C   UNL     1       8.943 -12.619   3.542  1.00  0.00     0.010 A 
ATOM     36  C   UNL     1       8.870 -10.244   4.005  1.00  0.00     0.010 A 
ATOM     37  C   UNL     1       9.363 -11.314   3.239  1.00  0.00    -0.014 A 
BRANCH  37  38
ATOM     38  C   UNL     1      10.324 -11.035   2.140  1.00  0.00     0.031 A 
ATOM     39  C   UNL     1      11.652 -10.400   2.453  1.00  0.00     0.074 A 
ATOM     40  C   UNL     1       9.977 -11.273   0.860  1.00  0.00     0.049 A 
ATOM     41  N   UNL     1      12.575  -9.959   1.636  1.00  0.00    -0.248 NA
ATOM     42  C   UNL     1      11.970 -10.206   3.877  1.00  0.00     0.031 C 
ATOM     43  C   UNL     1       8.708 -11.855   0.421  1.00  0.00     0.029 A 
ATOM     44  N   UNL     1      10.655 -11.037  -0.311  1.00  0.00    -0.354 N 
ATOM     45  C   UNL     1      13.569  -9.422   2.444  1.00  0.00     0.074 A 
ATOM     46  C   UNL     1      13.113  -9.539   3.811  1.00  0.00     0.031 C 
ATOM     47  C   UNL     1       8.705 -11.944  -0.919  1.00  0.00     0.029 A 
ATOM     48  C   UNL     1       9.948 -11.381  -1.438  1.00  0.00     0.049 A 
ATOM     49  H   UNL     1      11.562 -10.656  -0.341  1.00  0.00     0.167 HD
ATOM     50  C   UNL     1      14.764  -8.899   2.079  1.00  0.00     0.037 A 
ATOM     51  C   UNL     1      10.258 -11.241  -2.742  1.00  0.00     0.037 A 
ATOM     52  C   UNL     1      15.224  -8.807   0.719  1.00  0.00     0.049 A 
ATOM     53  C   UNL     1      11.583 -10.630  -3.121  1.00  0.00     0.074 A 
ATOM     54  C   UNL     1      16.440  -8.340   0.251  1.00  0.00     0.029 A 
ATOM     55  N   UNL     1      14.486  -9.186  -0.393  1.00  0.00    -0.354 N 
ATOM     56  N   UNL     1      12.539 -10.179  -2.346  1.00  0.00    -0.248 NA
ATOM     57  C   UNL     1      11.874 -10.514  -4.557  1.00  0.00     0.031 C 
ATOM     58  C   UNL     1      16.416  -8.382  -1.145  1.00  0.00     0.029 A 
ATOM     59  C   UNL     1      15.213  -8.941  -1.546  1.00  0.00     0.049 A 
ATOM     60  H   UNL     1      13.581  -9.573  -0.366  1.00  0.00     0.167 HD
ATOM     61  C   UNL     1      13.558  -9.768  -3.196  1.00  0.00     0.074 A 
ATOM     62  C   UNL     1      13.106 -10.027  -4.546  1.00  0.00     0.031 C 
ATOM     63  C   UNL     1      14.762  -9.228  -2.884  1.00  0.00     0.037 A 
BRANCH  50  64
ATOM     64  C   UNL     1      15.661  -8.382   3.168  1.00  0.00     0.064 A 
ATOM     65  C   UNL     1      16.275  -9.242   4.090  1.00  0.00     0.173 A 
ATOM     66  C   UNL     1      15.947  -7.011   3.260  1.00  0.00     0.173 A 
ATOM     67  F   UNL     1      16.027 -10.561   4.053  1.00  0.00    -0.203 F 
ATOM     68  C   UNL     1      17.117  -8.748   5.082  1.00  0.00     0.198 A 
ATOM     69  C   UNL     1      16.818  -6.524   4.231  1.00  0.00     0.198 A 
ATOM     70  F   UNL     1      15.393  -6.144   2.400  1.00  0.00    -0.203 F 
ATOM     71  F   UNL     1      17.650  -9.584   5.984  1.00  0.00    -0.200 F 
ATOM     72  C   UNL     1      17.395  -7.391   5.146  1.00  0.00     0.200 A 
ATOM     73  F   UNL     1      17.099  -5.215   4.281  1.00  0.00    -0.200 F 
ATOM     74  F   UNL     1      18.216  -6.918   6.094  1.00  0.00    -0.200 F 
ENDBRANCH  50  64
BRANCH  51  75
ATOM     75  C   UNL     1       9.305 -11.694  -3.792  1.00  0.00     0.064 A 
ATOM     76  C   UNL     1       9.616 -12.774  -4.631  1.00  0.00     0.173 A 
ATOM     77  C   UNL     1       8.080 -11.043  -3.997  1.00  0.00     0.173 A 
ATOM     78  F   UNL     1      10.784 -13.416  -4.490  1.00  0.00    -0.203 F 
ATOM     79  C   UNL     1       8.752 -13.165  -5.653  1.00  0.00     0.198 A 
ATOM     80  C   UNL     1       7.202 -11.456  -4.997  1.00  0.00     0.198 A 
ATOM     81  F   UNL     1       7.730 -10.006  -3.220  1.00  0.00    -0.203 F 
ATOM     82  F   UNL     1       9.103 -14.161  -6.478  1.00  0.00    -0.200 F 
ATOM     83  C   UNL     1       7.544 -12.509  -5.832  1.00  0.00     0.200 A 
ATOM     84  F   UNL     1       6.028 -10.829  -5.157  1.00  0.00    -0.200 F 
ATOM     85  F   UNL     1       6.715 -12.884  -6.816  1.00  0.00    -0.200 F 
ENDBRANCH  51  75
BRANCH  63  86
ATOM     86  C   UNL     1      15.712  -8.941  -4.011  1.00  0.00     0.064 A 
ATOM     87  C   UNL     1      15.495  -7.894  -4.919  1.00  0.00     0.173 A 
ATOM     88  C   UNL     1      16.893  -9.688  -4.142  1.00  0.00     0.173 A 
ATOM     89  F   UNL     1      14.375  -7.158  -4.846  1.00  0.00    -0.203 F 
ATOM     90  C   UNL     1      16.415  -7.620  -5.928  1.00  0.00     0.198 A 
ATOM     91  C   UNL     1      17.827  -9.390  -5.130  1.00  0.00     0.198 A 
ATOM     92  F   UNL     1      17.154 -10.696  -3.295  1.00  0.00    -0.203 F 
ATOM     93  F   UNL     1      16.166  -6.643  -6.811  1.00  0.00    -0.200 F 
ATOM     94  C   UNL     1      17.584  -8.360  -6.026  1.00  0.00     0.200 A 
ATOM     95  F   UNL     1      18.964 -10.094  -5.210  1.00  0.00    -0.200 F 
ATOM     96  F   UNL     1      18.476  -8.083  -6.987  1.00  0.00    -0.200 F 
ENDBRANCH  63  86
ENDBRANCH  37  38
ENDBRANCH  29  32
ENDBRANCH  27  28
ENDBRANCH   1  27
TORSDOF 14
