REMARK SMILES O=C(COc1ccc2c(c1)CCC2)N[C@@H](CO)C(=O)NCCCCNC(=O)c1ccc(-c2c3nc(c(-c4c(F)c(F)c(F)c(F)c4F)c4ccc([nH]4)c(-c4c(F)c(F)c(F)c(F)c4F)c4nc(c(-c5c(F)c(F)c(F)c(F)c5F)c5ccc2[nH]5)C=C4)C=C3)cc1
REMARK SMILES IDX 21 1 20 2 18 3 19 4 15 6 14 7 1 8 2 9 3 11 4 12 5 13 6 14
REMARK SMILES IDX 10 15 7 16 9 17 8 18 11 19 13 20 12 21 16 22 17 23 22 25
REMARK SMILES IDX 23 26 24 27 25 28 26 29 27 31 28 32 29 33 90 34 30 35 89 36
REMARK SMILES IDX 31 37 32 38 33 39 83 40 34 41 88 42 82 43 84 44 35 45 87 46
REMARK SMILES IDX 81 47 80 48 36 50 68 51 48 52 67 53 49 54 52 55 66 56 85 57
REMARK SMILES IDX 50 58 51 59 65 61 86 62 53 63 37 64 38 65 46 66 39 67 40 68
REMARK SMILES IDX 44 69 47 70 41 71 42 72 45 73 43 74 69 75 70 76 78 77 71 78
REMARK SMILES IDX 72 79 76 80 79 81 73 82 74 83 77 84 75 85 54 86 55 87 63 88
REMARK SMILES IDX 56 89 57 90 61 91 64 92 58 93 59 94 62 95 60 96
REMARK H PARENT 20 5 14 10 17 24 25 30 84 49 52 60
REMARK Flexibility Score: inf
ROOT
ATOM      1  C   UNL     1       5.254   2.584   1.676  1.00  0.00     0.116 C 
ENDROOT
BRANCH   1   2
ATOM      2  N   UNL     1       4.093   3.408   1.396  1.00  0.00    -0.354 N 
ATOM      3  C   UNL     1       2.762   3.117   1.491  1.00  0.00     0.244 C 
ATOM      4  O   UNL     1       1.973   4.066   1.454  1.00  0.00    -0.273 OA
ATOM      5  H   UNL     1       4.296   4.320   1.088  1.00  0.00     0.163 HD
BRANCH   3   6
ATOM      6  C   UNL     1       2.251   1.682   1.699  1.00  0.00     0.197 C 
BRANCH   6   7
ATOM      7  N   UNL     1       2.899   0.761   0.767  1.00  0.00    -0.339 N 
ATOM      8  O   UNL     1       1.234  -0.807   0.751  1.00  0.00    -0.271 OA
ATOM      9  C   UNL     1       2.237  -0.322   0.239  1.00  0.00     0.258 C 
ATOM     10  H   UNL     1       3.835   0.922   0.510  1.00  0.00     0.164 HD
BRANCH   9  11
ATOM     11  C   UNL     1       2.849  -0.847  -1.066  1.00  0.00     0.329 C 
BRANCH  11  12
ATOM     12  O   UNL     1       3.749   0.053  -1.717  1.00  0.00    -0.484 OA
BRANCH  12  13
ATOM     13  C   UNL     1       3.164   0.925  -2.602  1.00  0.00     0.120 A 
ATOM     14  C   UNL     1       2.079   1.753  -2.268  1.00  0.00     0.047 A 
ATOM     15  C   UNL     1       3.778   1.042  -3.852  1.00  0.00     0.050 A 
ATOM     16  C   UNL     1       1.601   2.708  -3.169  1.00  0.00     0.008 A 
ATOM     17  C   UNL     1       3.288   1.985  -4.744  1.00  0.00    -0.041 A 
ATOM     18  C   UNL     1       2.220   2.818  -4.399  1.00  0.00    -0.045 A 
ATOM     19  C   UNL     1       3.728   2.252  -6.150  1.00  0.00     0.036 C 
ATOM     20  C   UNL     1       1.872   3.745  -5.521  1.00  0.00     0.036 C 
ATOM     21  C   UNL     1       3.137   3.651  -6.386  1.00  0.00     0.010 C 
ENDBRANCH  12  13
ENDBRANCH  11  12
ENDBRANCH   9  11
ENDBRANCH   6   7
BRANCH   6  22
ATOM     22  C   UNL     1       2.273   1.261   3.173  1.00  0.00     0.191 C 
BRANCH  22  23
ATOM     23  O   UNL     1       3.561   0.854   3.630  1.00  0.00    -0.394 OA
ATOM     24  H   UNL     1       3.851   0.075   3.129  1.00  0.00     0.210 HD
ENDBRANCH  22  23
ENDBRANCH   6  22
ENDBRANCH   3   6
ENDBRANCH   1   2
BRANCH   1  25
ATOM     25  C   UNL     1       6.228   2.532   0.503  1.00  0.00     0.023 C 
BRANCH  25  26
ATOM     26  C   UNL     1       6.885   3.864   0.149  1.00  0.00     0.023 C 
BRANCH  26  27
ATOM     27  C   UNL     1       7.574   4.579   1.306  1.00  0.00     0.116 C 
BRANCH  27  28
ATOM     28  N   UNL     1       8.610   3.779   1.943  1.00  0.00    -0.352 N 
ATOM     29  C   UNL     1       9.887   4.143   2.293  1.00  0.00     0.251 C 
ATOM     30  H   UNL     1       8.360   2.849   2.151  1.00  0.00     0.163 HD
ATOM     31  O   UNL     1      10.679   3.311   2.725  1.00  0.00    -0.269 OA
BRANCH  29  32
ATOM     32  C   UNL     1      10.315   5.544   2.112  1.00  0.00     0.039 A 
ATOM     33  C   UNL     1      11.512   5.807   1.441  1.00  0.00     0.014 A 
ATOM     34  C   UNL     1       9.512   6.593   2.566  1.00  0.00     0.014 A 
ATOM     35  C   UNL     1      11.867   7.127   1.155  1.00  0.00     0.010 A 
ATOM     36  C   UNL     1       9.829   7.901   2.217  1.00  0.00     0.010 A 
ATOM     37  C   UNL     1      11.008   8.180   1.506  1.00  0.00    -0.014 A 
BRANCH  37  38
ATOM     38  C   UNL     1      11.314   9.588   1.155  1.00  0.00     0.031 A 
ATOM     39  C   UNL     1      11.534  10.595   2.247  1.00  0.00     0.074 A 
ATOM     40  C   UNL     1      11.295   9.980  -0.134  1.00  0.00     0.049 A 
ATOM     41  N   UNL     1      11.663  11.895   2.165  1.00  0.00    -0.248 NA
ATOM     42  C   UNL     1      11.580  10.071   3.621  1.00  0.00     0.031 C 
ATOM     43  C   UNL     1      11.050   9.106  -1.282  1.00  0.00     0.029 A 
ATOM     44  N   UNL     1      11.462  11.223  -0.692  1.00  0.00    -0.354 N 
ATOM     45  C   UNL     1      11.773  12.344   3.474  1.00  0.00     0.074 A 
ATOM     46  C   UNL     1      11.650  11.186   4.332  1.00  0.00     0.031 C 
ATOM     47  C   UNL     1      11.092   9.837  -2.407  1.00  0.00     0.029 A 
ATOM     48  C   UNL     1      11.327  11.235  -2.058  1.00  0.00     0.049 A 
ATOM     49  H   UNL     1      11.659  12.029  -0.163  1.00  0.00     0.167 HD
ATOM     50  C   UNL     1      11.977  13.607   3.918  1.00  0.00     0.037 A 
ATOM     51  C   UNL     1      11.372  12.261  -2.929  1.00  0.00     0.037 A 
ATOM     52  C   UNL     1      12.134  14.750   3.060  1.00  0.00     0.049 A 
ATOM     53  C   UNL     1      11.616  13.653  -2.413  1.00  0.00     0.074 A 
ATOM     54  C   UNL     1      12.405  16.062   3.408  1.00  0.00     0.029 A 
ATOM     55  N   UNL     1      12.037  14.715   1.676  1.00  0.00    -0.354 N 
ATOM     56  N   UNL     1      11.771  14.061  -1.177  1.00  0.00    -0.248 NA
ATOM     57  C   UNL     1      11.696  14.727  -3.413  1.00  0.00     0.031 C 
ATOM     58  C   UNL     1      12.437  16.827   2.237  1.00  0.00     0.029 A 
ATOM     59  C   UNL     1      12.230  15.984   1.156  1.00  0.00     0.049 A 
ATOM     60  H   UNL     1      11.857  13.907   1.143  1.00  0.00     0.167 HD
ATOM     61  C   UNL     1      11.996  15.429  -1.251  1.00  0.00     0.074 A 
ATOM     62  C   UNL     1      11.964  15.781  -2.656  1.00  0.00     0.031 C 
ATOM     63  C   UNL     1      12.210  16.313  -0.246  1.00  0.00     0.037 A 
BRANCH  50  64
ATOM     64  C   UNL     1      12.042  13.811   5.404  1.00  0.00     0.064 A 
ATOM     65  C   UNL     1      13.120  13.335   6.166  1.00  0.00     0.173 A 
ATOM     66  C   UNL     1      11.020  14.501   6.072  1.00  0.00     0.173 A 
ATOM     67  F   UNL     1      14.116  12.657   5.577  1.00  0.00    -0.203 F 
ATOM     68  C   UNL     1      13.153  13.508   7.547  1.00  0.00     0.198 A 
ATOM     69  C   UNL     1      11.072  14.700   7.449  1.00  0.00     0.198 A 
ATOM     70  F   UNL     1       9.969  14.982   5.391  1.00  0.00    -0.203 F 
ATOM     71  F   UNL     1      14.163  12.993   8.261  1.00  0.00    -0.200 F 
ATOM     72  C   UNL     1      12.132  14.195   8.187  1.00  0.00     0.200 A 
ATOM     73  F   UNL     1      10.090  15.374   8.065  1.00  0.00    -0.200 F 
ATOM     74  F   UNL     1      12.166  14.362   9.516  1.00  0.00    -0.200 F 
ENDBRANCH  50  64
BRANCH  51  75
ATOM     75  C   UNL     1      11.209  12.004  -4.383  1.00  0.00     0.064 A 
ATOM     76  C   UNL     1      12.300  12.107  -5.255  1.00  0.00     0.173 A 
ATOM     77  C   UNL     1       9.969  11.640  -4.927  1.00  0.00     0.173 A 
ATOM     78  F   UNL     1      13.502  12.472  -4.784  1.00  0.00    -0.203 F 
ATOM     79  C   UNL     1      12.155  11.870  -6.621  1.00  0.00     0.198 A 
ATOM     80  C   UNL     1       9.830  11.380  -6.288  1.00  0.00     0.198 A 
ATOM     81  F   UNL     1       8.895  11.523  -4.132  1.00  0.00    -0.203 F 
ATOM     82  F   UNL     1      13.207  12.011  -7.438  1.00  0.00    -0.200 F 
ATOM     83  C   UNL     1      10.922  11.501  -7.135  1.00  0.00     0.200 A 
ATOM     84  F   UNL     1       8.640  11.009  -6.780  1.00  0.00    -0.200 F 
ATOM     85  F   UNL     1      10.784  11.266  -8.447  1.00  0.00    -0.200 F 
ENDBRANCH  51  75
BRANCH  63  86
ATOM     86  C   UNL     1      12.472  17.740  -0.628  1.00  0.00     0.064 A 
ATOM     87  C   UNL     1      11.447  18.580  -1.085  1.00  0.00     0.173 A 
ATOM     88  C   UNL     1      13.757  18.285  -0.484  1.00  0.00     0.173 A 
ATOM     89  F   UNL     1      10.205  18.100  -1.254  1.00  0.00    -0.203 F 
ATOM     90  C   UNL     1      11.703  19.911  -1.402  1.00  0.00     0.198 A 
ATOM     91  C   UNL     1      14.003  19.623  -0.777  1.00  0.00     0.198 A 
ATOM     92  F   UNL     1      14.769  17.523  -0.045  1.00  0.00    -0.203 F 
ATOM     93  F   UNL     1      10.717  20.687  -1.874  1.00  0.00    -0.200 F 
ATOM     94  C   UNL     1      12.977  20.434  -1.240  1.00  0.00     0.200 A 
ATOM     95  F   UNL     1      15.232  20.129  -0.608  1.00  0.00    -0.200 F 
ATOM     96  F   UNL     1      13.219  21.718  -1.536  1.00  0.00    -0.200 F 
ENDBRANCH  63  86
ENDBRANCH  37  38
ENDBRANCH  29  32
ENDBRANCH  27  28
ENDBRANCH  26  27
ENDBRANCH  25  26
ENDBRANCH   1  25
TORSDOF 17
