REMARK SMILES C=CC[NH2+]CC(=O)N1CCOC[C@@H]1C(=O)NCCCCNC(=O)c1ccc(-c2c3nc(c(-c4c(F)c(F)c(F)c(F)c4F)c4ccc([nH]4)c(-c4c(F)c(F)c(F)c(F)c4F)c4nc(c(-c5c(F)c(F)c(F)c(F)c5F)c5ccc2[nH]5)C=C4)C=C3)cc1
REMARK SMILES IDX 17 1 16 2 14 3 15 4 13 6 8 7 9 8 10 9 12 10 11 11 6 12 7 13
REMARK SMILES IDX 5 14 4 15 3 18 2 19 1 20 18 21 19 22 20 23 21 24 22 25 23 27
REMARK SMILES IDX 24 28 25 29 86 30 26 31 85 32 27 33 28 34 29 35 79 36 30 37
REMARK SMILES IDX 84 38 78 39 80 40 31 41 83 42 77 43 76 44 32 46 64 47 44 48
REMARK SMILES IDX 63 49 45 50 48 51 62 52 81 53 46 54 47 55 61 57 82 58 49 59
REMARK SMILES IDX 33 60 34 61 42 62 35 63 36 64 40 65 43 66 37 67 38 68 41 69
REMARK SMILES IDX 39 70 65 71 66 72 74 73 67 74 68 75 72 76 75 77 69 78 70 79
REMARK SMILES IDX 73 80 71 81 50 82 51 83 59 84 52 85 53 86 57 87 60 88 54 89
REMARK SMILES IDX 55 90 58 91 56 92
REMARK H PARENT 16 5 4 16 4 17 21 26 80 45 48 56
REMARK Flexibility Score: inf
ROOT
ATOM      1  C   UNL     1      -5.666   0.405   1.202  1.00  0.00     0.116 C 
ENDROOT
BRANCH   1   2
ATOM      2  N   UNL     1      -6.220   0.309  -0.137  1.00  0.00    -0.354 N 
ATOM      3  C   UNL     1      -5.661   0.546  -1.365  1.00  0.00     0.245 C 
ATOM      4  O   UNL     1      -6.428   0.531  -2.333  1.00  0.00    -0.273 OA
ATOM      5  H   UNL     1      -7.162   0.024  -0.167  1.00  0.00     0.163 HD
BRANCH   3   6
ATOM      6  C   UNL     1      -4.210   1.052  -1.512  1.00  0.00     0.200 C 
ATOM      7  N   UNL     1      -3.288   0.393  -0.563  1.00  0.00    -0.321 N 
ATOM      8  C   UNL     1      -2.175   1.206  -0.072  1.00  0.00     0.149 C 
ATOM      9  C   UNL     1      -2.462   2.693   0.083  1.00  0.00     0.181 C 
ATOM     10  C   UNL     1      -4.314   2.581  -1.325  1.00  0.00     0.195 C 
ATOM     11  O   UNL     1      -3.045   3.206  -1.111  1.00  0.00    -0.377 OA
BRANCH   7  12
ATOM     12  C   UNL     1      -3.159  -0.999  -0.674  1.00  0.00     0.278 C 
ATOM     13  O   UNL     1      -3.493  -1.603  -1.694  1.00  0.00    -0.268 OA
BRANCH  12  14
ATOM     14  C   UNL     1      -2.742  -1.780   0.592  1.00  0.00     0.362 C 
BRANCH  14  15
ATOM     15  N   UNL     1      -1.378  -2.342   0.538  1.00  0.00    -0.335 N 
ATOM     16  H   UNL     1      -1.275  -3.043   1.273  1.00  0.00     0.347 HD
ATOM     17  H   UNL     1      -1.232  -2.768  -0.377  1.00  0.00     0.347 HD
BRANCH  15  18
ATOM     18  C   UNL     1      -0.391  -1.300   0.733  1.00  0.00     0.289 C 
BRANCH  18  19
ATOM     19  C   UNL     1       1.022  -1.760   0.817  1.00  0.00     0.025 C 
ATOM     20  C   UNL     1       2.006  -1.106   0.183  1.00  0.00     0.010 C 
ENDBRANCH  18  19
ENDBRANCH  15  18
ENDBRANCH  14  15
ENDBRANCH  12  14
ENDBRANCH   7  12
ENDBRANCH   3   6
ENDBRANCH   1   2
BRANCH   1  21
ATOM     21  C   UNL     1      -6.355   1.462   2.055  1.00  0.00     0.023 C 
BRANCH  21  22
ATOM     22  C   UNL     1      -7.830   1.199   2.328  1.00  0.00     0.023 C 
BRANCH  22  23
ATOM     23  C   UNL     1      -8.143  -0.190   2.867  1.00  0.00     0.116 C 
BRANCH  23  24
ATOM     24  N   UNL     1      -7.438  -0.497   4.103  1.00  0.00    -0.352 N 
ATOM     25  C   UNL     1      -7.944  -0.978   5.287  1.00  0.00     0.251 C 
ATOM     26  H   UNL     1      -6.466  -0.339   4.089  1.00  0.00     0.163 HD
ATOM     27  O   UNL     1      -7.230  -1.062   6.282  1.00  0.00    -0.269 OA
BRANCH  25  28
ATOM     28  C   UNL     1      -9.368  -1.355   5.360  1.00  0.00     0.039 A 
ATOM     29  C   UNL     1     -10.148  -0.852   6.402  1.00  0.00     0.014 A 
ATOM     30  C   UNL     1      -9.941  -2.152   4.365  1.00  0.00     0.014 A 
ATOM     31  C   UNL     1     -11.524  -1.083   6.403  1.00  0.00     0.010 A 
ATOM     32  C   UNL     1     -11.321  -2.307   4.321  1.00  0.00     0.010 A 
ATOM     33  C   UNL     1     -12.127  -1.773   5.338  1.00  0.00    -0.014 A 
BRANCH  33  34
ATOM     34  C   UNL     1     -13.599  -1.944   5.265  1.00  0.00     0.031 A 
ATOM     35  C   UNL     1     -14.198  -3.321   5.298  1.00  0.00     0.074 A 
ATOM     36  C   UNL     1     -14.388  -0.866   5.092  1.00  0.00     0.049 A 
ATOM     37  N   UNL     1     -15.449  -3.683   5.167  1.00  0.00    -0.248 NA
ATOM     38  C   UNL     1     -13.264  -4.445   5.469  1.00  0.00     0.031 C 
ATOM     39  C   UNL     1     -13.921   0.517   4.985  1.00  0.00     0.029 A 
ATOM     40  N   UNL     1     -15.751  -0.765   4.961  1.00  0.00    -0.354 N 
ATOM     41  C   UNL     1     -15.447  -5.071   5.218  1.00  0.00     0.074 A 
ATOM     42  C   UNL     1     -14.068  -5.489   5.340  1.00  0.00     0.031 C 
ATOM     43  C   UNL     1     -14.979   1.329   4.828  1.00  0.00     0.029 A 
ATOM     44  C   UNL     1     -16.195   0.522   4.784  1.00  0.00     0.049 A 
ATOM     45  H   UNL     1     -16.354  -1.543   4.991  1.00  0.00     0.167 HD
ATOM     46  C   UNL     1     -16.503  -5.917   5.190  1.00  0.00     0.037 A 
ATOM     47  C   UNL     1     -17.441   0.998   4.598  1.00  0.00     0.037 A 
ATOM     48  C   UNL     1     -17.876  -5.494   5.104  1.00  0.00     0.049 A 
ATOM     49  C   UNL     1     -18.599   0.037   4.587  1.00  0.00     0.074 A 
ATOM     50  C   UNL     1     -19.021  -6.269   5.147  1.00  0.00     0.029 A 
ATOM     51  N   UNL     1     -18.288  -4.177   4.956  1.00  0.00    -0.354 N 
ATOM     52  N   UNL     1     -18.591  -1.268   4.713  1.00  0.00    -0.248 NA
ATOM     53  C   UNL     1     -19.939   0.616   4.415  1.00  0.00     0.031 C 
ATOM     54  C   UNL     1     -20.124  -5.428   4.974  1.00  0.00     0.029 A 
ATOM     55  C   UNL     1     -19.671  -4.122   4.881  1.00  0.00     0.049 A 
ATOM     56  H   UNL     1     -17.688  -3.398   4.910  1.00  0.00     0.167 HD
ATOM     57  C   UNL     1     -19.921  -1.664   4.662  1.00  0.00     0.074 A 
ATOM     58  C   UNL     1     -20.709  -0.459   4.509  1.00  0.00     0.031 C 
ATOM     59  C   UNL     1     -20.441  -2.913   4.734  1.00  0.00     0.037 A 
BRANCH  46  60
ATOM     60  C   UNL     1     -16.218  -7.389   5.258  1.00  0.00     0.064 A 
ATOM     61  C   UNL     1     -15.739  -7.994   6.429  1.00  0.00     0.173 A 
ATOM     62  C   UNL     1     -16.472  -8.213   4.151  1.00  0.00     0.173 A 
ATOM     63  F   UNL     1     -15.467  -7.248   7.512  1.00  0.00    -0.203 F 
ATOM     64  C   UNL     1     -15.499  -9.364   6.483  1.00  0.00     0.198 A 
ATOM     65  C   UNL     1     -16.262  -9.588   4.218  1.00  0.00     0.198 A 
ATOM     66  F   UNL     1     -16.936  -7.687   3.008  1.00  0.00    -0.203 F 
ATOM     67  F   UNL     1     -14.997  -9.912   7.598  1.00  0.00    -0.200 F 
ATOM     68  C   UNL     1     -15.769 -10.161   5.380  1.00  0.00     0.200 A 
ATOM     69  F   UNL     1     -16.536 -10.359   3.156  1.00  0.00    -0.200 F 
ATOM     70  F   UNL     1     -15.550 -11.482   5.437  1.00  0.00    -0.200 F 
ENDBRANCH  46  60
BRANCH  47  71
ATOM     71  C   UNL     1     -17.659   2.459   4.435  1.00  0.00     0.064 A 
ATOM     72  C   UNL     1     -18.291   3.209   5.437  1.00  0.00     0.173 A 
ATOM     73  C   UNL     1     -17.237   3.136   3.282  1.00  0.00     0.173 A 
ATOM     74  F   UNL     1     -18.730   2.603   6.550  1.00  0.00    -0.203 F 
ATOM     75  C   UNL     1     -18.509   4.577   5.284  1.00  0.00     0.198 A 
ATOM     76  C   UNL     1     -17.430   4.509   3.142  1.00  0.00     0.198 A 
ATOM     77  F   UNL     1     -16.622   2.466   2.297  1.00  0.00    -0.203 F 
ATOM     78  F   UNL     1     -19.153   5.261   6.239  1.00  0.00    -0.200 F 
ATOM     79  C   UNL     1     -18.072   5.227   4.140  1.00  0.00     0.200 A 
ATOM     80  F   UNL     1     -16.993   5.137   2.042  1.00  0.00    -0.200 F 
ATOM     81  F   UNL     1     -18.275   6.544   3.997  1.00  0.00    -0.200 F 
ENDBRANCH  47  71
BRANCH  59  82
ATOM     82  C   UNL     1     -21.936  -3.043   4.684  1.00  0.00     0.064 A 
ATOM     83  C   UNL     1     -22.654  -2.825   3.499  1.00  0.00     0.173 A 
ATOM     84  C   UNL     1     -22.652  -3.438   5.824  1.00  0.00     0.173 A 
ATOM     85  F   UNL     1     -22.018  -2.433   2.386  1.00  0.00    -0.203 F 
ATOM     86  C   UNL     1     -24.038  -2.975   3.465  1.00  0.00     0.198 A 
ATOM     87  C   UNL     1     -24.031  -3.617   5.778  1.00  0.00     0.198 A 
ATOM     88  F   UNL     1     -22.010  -3.666   6.980  1.00  0.00    -0.203 F 
ATOM     89  F   UNL     1     -24.710  -2.718   2.334  1.00  0.00    -0.200 F 
ATOM     90  C   UNL     1     -24.724  -3.379   4.601  1.00  0.00     0.200 A 
ATOM     91  F   UNL     1     -24.689  -4.022   6.873  1.00  0.00    -0.200 F 
ATOM     92  F   UNL     1     -26.055  -3.533   4.563  1.00  0.00    -0.200 F 
ENDBRANCH  59  82
ENDBRANCH  33  34
ENDBRANCH  25  28
ENDBRANCH  23  24
ENDBRANCH  22  23
ENDBRANCH  21  22
ENDBRANCH   1  21
TORSDOF 16
