REMARK SMILES CS(=O)(=O)c1ccc(C(=O)N2C[C@@H](C(=O)NCCCCNC(=O)c3ccc(-c4c5nc(c(-c6c(F)c(F)c(F)c(F)c6F)c6ccc([nH]6)c(-c6c(F)c(F)c(F)c(F)c6F)c6nc(c(-c7c(F)c(F)c(F)c(F)c7F)c7ccc4[nH]7)C=C6)C=C5)cc3)[C@H](c3ccncc3)C2)cc1
REMARK SMILES IDX 18 1 17 2 16 3 14 4 15 5 13 7 11 8 12 9 94 10 87 11 9 12
REMARK SMILES IDX 10 13 8 14 5 15 6 16 96 17 7 18 95 19 2 20 1 21 3 22 4 23
REMARK SMILES IDX 88 24 89 25 93 26 90 27 92 28 91 29 19 30 20 31 21 32 22 33
REMARK SMILES IDX 23 35 24 36 25 37 86 38 26 39 85 40 27 41 28 42 29 43 79 44
REMARK SMILES IDX 30 45 84 46 78 47 80 48 31 49 83 50 77 51 76 52 32 54 64 55
REMARK SMILES IDX 44 56 63 57 45 58 48 59 62 60 81 61 46 62 47 63 61 65 82 66
REMARK SMILES IDX 49 67 33 68 34 69 42 70 35 71 36 72 40 73 43 74 37 75 38 76
REMARK SMILES IDX 41 77 39 78 65 79 66 80 74 81 67 82 68 83 72 84 75 85 69 86
REMARK SMILES IDX 70 87 73 88 71 89 50 90 51 91 59 92 52 93 53 94 57 95 60 96
REMARK SMILES IDX 54 97 55 98 58 99 56 100
REMARK H PARENT 16 6 21 34 80 53 48 64
REMARK Flexibility Score: inf
ROOT
ATOM      1  C   UNL     1       6.103  -0.631  -4.122  1.00  0.00     0.023 C 
ENDROOT
BRANCH   1   2
ATOM      2  C   UNL     1       5.409  -1.114  -5.391  1.00  0.00     0.116 C 
BRANCH   2   3
ATOM      3  N   UNL     1       6.106  -2.233  -5.999  1.00  0.00    -0.356 N 
ATOM      4  C   UNL     1       5.636  -3.457  -6.375  1.00  0.00     0.225 C 
ATOM      5  O   UNL     1       6.413  -4.238  -6.920  1.00  0.00    -0.275 OA
ATOM      6  H   UNL     1       7.066  -2.086  -6.165  1.00  0.00     0.163 HD
BRANCH   4   7
ATOM      7  C   UNL     1       4.199  -3.817  -6.090  1.00  0.00     0.107 C 
ATOM      8  N   UNL     1       2.820  -5.251  -4.944  1.00  0.00    -0.337 N 
ATOM      9  C   UNL     1       4.129  -4.649  -4.823  1.00  0.00     0.134 C 
ATOM     10  C   UNL     1       2.582  -5.619  -6.332  1.00  0.00     0.129 C 
ATOM     11  C   UNL     1       3.531  -4.716  -7.169  1.00  0.00     0.053 C 
BRANCH   8  12
ATOM     12  C   UNL     1       1.851  -5.476  -3.986  1.00  0.00     0.253 C 
ATOM     13  O   UNL     1       0.986  -6.337  -4.138  1.00  0.00    -0.269 OA
BRANCH  12  14
ATOM     14  C   UNL     1       1.735  -4.572  -2.803  1.00  0.00     0.040 A 
ATOM     15  C   UNL     1       1.076  -2.814  -0.717  1.00  0.00     0.067 A 
ATOM     16  C   UNL     1       0.742  -4.170  -0.621  1.00  0.00     0.021 A 
ATOM     17  C   UNL     1       1.758  -2.334  -1.834  1.00  0.00     0.021 A 
ATOM     18  C   UNL     1       1.075  -5.045  -1.660  1.00  0.00     0.015 A 
ATOM     19  C   UNL     1       2.059  -3.209  -2.882  1.00  0.00     0.015 A 
BRANCH  15  20
ATOM     20  S   UNL     1       0.507  -1.734   0.577  1.00  0.00     0.175 S 
ATOM     21  C   UNL     1       1.015  -0.090   0.157  1.00  0.00     0.163 C 
ATOM     22  O   UNL     1       1.226  -2.119   1.776  1.00  0.00    -0.224 OA
ATOM     23  O   UNL     1      -0.941  -1.764   0.520  1.00  0.00    -0.224 OA
ENDBRANCH  15  20
ENDBRANCH  12  14
ENDBRANCH   8  12
BRANCH  11  24
ATOM     24  C   UNL     1       2.931  -3.843  -8.269  1.00  0.00    -0.039 A 
ATOM     25  C   UNL     1       3.791  -3.049  -9.047  1.00  0.00     0.024 A 
ATOM     26  C   UNL     1       1.565  -3.755  -8.551  1.00  0.00     0.024 A 
ATOM     27  C   UNL     1       3.264  -2.191 -10.001  1.00  0.00     0.111 A 
ATOM     28  C   UNL     1       1.131  -2.876  -9.539  1.00  0.00     0.111 A 
ATOM     29  N   UNL     1       1.948  -2.080 -10.257  1.00  0.00    -0.265 NA
ENDBRANCH  11  24
ENDBRANCH   4   7
ENDBRANCH   2   3
ENDBRANCH   1   2
BRANCH   1  30
ATOM     30  C   UNL     1       7.502  -0.048  -4.332  1.00  0.00     0.023 C 
BRANCH  30  31
ATOM     31  C   UNL     1       7.593   1.097  -5.337  1.00  0.00     0.116 C 
BRANCH  31  32
ATOM     32  N   UNL     1       6.742   2.225  -4.994  1.00  0.00    -0.352 N 
ATOM     33  C   UNL     1       7.042   3.565  -4.942  1.00  0.00     0.251 C 
ATOM     34  H   UNL     1       5.813   1.995  -4.763  1.00  0.00     0.163 HD
ATOM     35  O   UNL     1       6.216   4.356  -4.496  1.00  0.00    -0.269 OA
BRANCH  33  36
ATOM     36  C   UNL     1       8.366   4.053  -5.386  1.00  0.00     0.039 A 
ATOM     37  C   UNL     1       9.037   4.985  -4.591  1.00  0.00     0.014 A 
ATOM     38  C   UNL     1       8.948   3.598  -6.573  1.00  0.00     0.014 A 
ATOM     39  C   UNL     1      10.322   5.403  -4.944  1.00  0.00     0.010 A 
ATOM     40  C   UNL     1      10.255   3.963  -6.890  1.00  0.00     0.010 A 
ATOM     41  C   UNL     1      10.958   4.863  -6.074  1.00  0.00    -0.014 A 
BRANCH  41  42
ATOM     42  C   UNL     1      12.367   5.207  -6.394  1.00  0.00     0.031 A 
ATOM     43  C   UNL     1      12.706   5.959  -7.649  1.00  0.00     0.074 A 
ATOM     44  C   UNL     1      13.351   4.784  -5.576  1.00  0.00     0.049 A 
ATOM     45  N   UNL     1      13.880   6.309  -8.112  1.00  0.00    -0.248 NA
ATOM     46  C   UNL     1      11.581   6.347  -8.513  1.00  0.00     0.031 C 
ATOM     47  C   UNL     1      13.156   3.996  -4.358  1.00  0.00     0.029 A 
ATOM     48  N   UNL     1      14.711   4.949  -5.651  1.00  0.00    -0.354 N 
ATOM     49  C   UNL     1      13.636   6.947  -9.321  1.00  0.00     0.074 A 
ATOM     50  C   UNL     1      12.207   6.892  -9.546  1.00  0.00     0.031 C 
ATOM     51  C   UNL     1      14.350   3.767  -3.787  1.00  0.00     0.029 A 
ATOM     52  C   UNL     1      15.395   4.363  -4.614  1.00  0.00     0.049 A 
ATOM     53  H   UNL     1      15.155   5.441  -6.378  1.00  0.00     0.167 HD
ATOM     54  C   UNL     1      14.521   7.544 -10.155  1.00  0.00     0.037 A 
ATOM     55  C   UNL     1      16.715   4.310  -4.358  1.00  0.00     0.037 A 
ATOM     56  C   UNL     1      15.939   7.620  -9.918  1.00  0.00     0.049 A 
ATOM     57  C   UNL     1      17.674   4.989  -5.297  1.00  0.00     0.074 A 
ATOM     58  C   UNL     1      16.907   8.261 -10.671  1.00  0.00     0.029 A 
ATOM     59  N   UNL     1      16.593   7.029  -8.847  1.00  0.00    -0.354 N 
ATOM     60  N   UNL     1      17.423   5.654  -6.397  1.00  0.00    -0.248 NA
ATOM     61  C   UNL     1      19.101   4.915  -4.951  1.00  0.00     0.031 C 
ATOM     62  C   UNL     1      18.153   8.025 -10.078  1.00  0.00     0.029 A 
ATOM     63  C   UNL     1      17.956   7.274  -8.931  1.00  0.00     0.049 A 
ATOM     64  H   UNL     1      16.155   6.513  -8.133  1.00  0.00     0.167 HD
ATOM     65  C   UNL     1      18.654   6.096  -6.864  1.00  0.00     0.074 A 
ATOM     66  C   UNL     1      19.648   5.640  -5.916  1.00  0.00     0.031 C 
ATOM     67  C   UNL     1      18.934   6.812  -7.981  1.00  0.00     0.037 A 
BRANCH  54  68
ATOM     68  C   UNL     1      13.978   8.173 -11.405  1.00  0.00     0.064 A 
ATOM     69  C   UNL     1      13.213   9.348 -11.362  1.00  0.00     0.173 A 
ATOM     70  C   UNL     1      14.260   7.620 -12.663  1.00  0.00     0.173 A 
ATOM     71  F   UNL     1      12.905   9.911 -10.183  1.00  0.00    -0.203 F 
ATOM     72  C   UNL     1      12.727   9.931 -12.530  1.00  0.00     0.198 A 
ATOM     73  C   UNL     1      13.797   8.221 -13.831  1.00  0.00     0.198 A 
ATOM     74  F   UNL     1      14.992   6.500 -12.761  1.00  0.00    -0.203 F 
ATOM     75  F   UNL     1      11.960  11.028 -12.460  1.00  0.00    -0.200 F 
ATOM     76  C   UNL     1      13.025   9.371 -13.763  1.00  0.00     0.200 A 
ATOM     77  F   UNL     1      14.095   7.685 -15.023  1.00  0.00    -0.200 F 
ATOM     78  F   UNL     1      12.563   9.937 -14.886  1.00  0.00    -0.200 F 
ENDBRANCH  54  68
BRANCH  55  79
ATOM     79  C   UNL     1      17.208   3.611  -3.144  1.00  0.00     0.064 A 
ATOM     80  C   UNL     1      17.745   4.332  -2.068  1.00  0.00     0.173 A 
ATOM     81  C   UNL     1      17.155   2.214  -3.033  1.00  0.00     0.173 A 
ATOM     82  F   UNL     1      17.835   5.668  -2.138  1.00  0.00    -0.203 F 
ATOM     83  C   UNL     1      18.229   3.682  -0.936  1.00  0.00     0.198 A 
ATOM     84  C   UNL     1      17.615   1.566  -1.888  1.00  0.00     0.198 A 
ATOM     85  F   UNL     1      16.644   1.480  -4.032  1.00  0.00    -0.203 F 
ATOM     86  F   UNL     1      18.777   4.392   0.059  1.00  0.00    -0.200 F 
ATOM     87  C   UNL     1      18.159   2.300  -0.844  1.00  0.00     0.200 A 
ATOM     88  F   UNL     1      17.532   0.232  -1.798  1.00  0.00    -0.200 F 
ATOM     89  F   UNL     1      18.621   1.674   0.247  1.00  0.00    -0.200 F 
ENDBRANCH  55  79
BRANCH  67  90
ATOM     90  C   UNL     1      20.373   7.163  -8.223  1.00  0.00     0.064 A 
ATOM     91  C   UNL     1      21.308   6.195  -8.618  1.00  0.00     0.173 A 
ATOM     92  C   UNL     1      20.817   8.486  -8.078  1.00  0.00     0.173 A 
ATOM     93  F   UNL     1      20.936   4.913  -8.754  1.00  0.00    -0.203 F 
ATOM     94  C   UNL     1      22.641   6.534  -8.832  1.00  0.00     0.198 A 
ATOM     95  C   UNL     1      22.145   8.827  -8.320  1.00  0.00     0.198 A 
ATOM     96  F   UNL     1      19.961   9.450  -7.707  1.00  0.00    -0.203 F 
ATOM     97  F   UNL     1      23.528   5.583  -9.158  1.00  0.00    -0.200 F 
ATOM     98  C   UNL     1      23.057   7.849  -8.688  1.00  0.00     0.200 A 
ATOM     99  F   UNL     1      22.543  10.100  -8.192  1.00  0.00    -0.200 F 
ATOM    100  F   UNL     1      24.341   8.174  -8.895  1.00  0.00    -0.200 F 
ENDBRANCH  67  90
ENDBRANCH  41  42
ENDBRANCH  33  36
ENDBRANCH  31  32
ENDBRANCH  30  31
ENDBRANCH   1  30
TORSDOF 15
