REMARK SMILES O=C(NCCCCNC(=O)[C@H]1C[C@H](O)CN1S(=O)(=O)c1ccc2c(c1)OCCO2)c1ccc(-c2c3nc(c(-c4c(F)c(F)c(F)c(F)c4F)c4ccc([nH]4)c(-c4c(F)c(F)c(F)c(F)c4F)c4nc(c(-c5c(F)c(F)c(F)c(F)c5F)c5ccc2[nH]5)C=C4)C=C3)cc1
REMARK SMILES IDX 5 1 4 2 3 3 1 4 2 5 30 7 31 8 92 9 32 10 91 11 33 12 34 13
REMARK SMILES IDX 35 14 85 15 36 16 90 17 84 18 86 19 37 20 89 21 83 22 82 23
REMARK SMILES IDX 38 25 70 26 50 27 69 28 51 29 54 30 68 31 87 32 52 33 53 34
REMARK SMILES IDX 67 36 88 37 55 38 39 39 40 40 48 41 41 42 42 43 46 44 49 45
REMARK SMILES IDX 43 46 44 47 47 48 45 49 71 50 72 51 80 52 73 53 74 54 78 55
REMARK SMILES IDX 81 56 75 57 76 58 79 59 77 60 56 61 57 62 65 63 58 64 59 65
REMARK SMILES IDX 63 66 66 67 60 68 61 69 64 70 62 71 6 72 7 73 8 74 9 75
REMARK SMILES IDX 10 77 11 78 12 79 16 80 13 81 15 82 17 83 18 84 19 85 20 86
REMARK SMILES IDX 21 87 25 88 22 89 24 90 23 91 26 92 29 93 27 94 28 95 14 96
REMARK H PARENT 3 6 86 24 54 35 8 76 14 97
REMARK Flexibility Score: inf
ROOT
ATOM      1  C   UNL     1       5.432   1.355   0.618  1.00  0.00     0.023 C 
ENDROOT
BRANCH   1   2
ATOM      2  C   UNL     1       4.816   0.093   1.182  1.00  0.00     0.116 C 
BRANCH   2   3
ATOM      3  N   UNL     1       3.351   0.105   1.095  1.00  0.00    -0.352 N 
ATOM      4  O   UNL     1       1.335  -0.190   0.101  1.00  0.00    -0.269 OA
ATOM      5  C   UNL     1       2.517  -0.501   0.184  1.00  0.00     0.251 C 
ATOM      6  H   UNL     1       2.896   0.626   1.795  1.00  0.00     0.163 HD
BRANCH   5   7
ATOM      7  C   UNL     1       3.083  -1.545  -0.685  1.00  0.00     0.039 A 
ATOM      8  C   UNL     1       4.002  -2.425  -0.123  1.00  0.00     0.014 A 
ATOM      9  C   UNL     1       2.754  -1.626  -2.039  1.00  0.00     0.014 A 
ATOM     10  C   UNL     1       4.787  -3.195  -0.947  1.00  0.00     0.010 A 
ATOM     11  C   UNL     1       3.404  -2.570  -2.839  1.00  0.00     0.010 A 
ATOM     12  C   UNL     1       4.439  -3.346  -2.296  1.00  0.00    -0.014 A 
BRANCH  12  13
ATOM     13  C   UNL     1       5.093  -4.456  -3.020  1.00  0.00     0.031 A 
ATOM     14  C   UNL     1       5.952  -4.218  -4.219  1.00  0.00     0.074 A 
ATOM     15  C   UNL     1       4.958  -5.685  -2.479  1.00  0.00     0.049 A 
ATOM     16  N   UNL     1       6.613  -5.096  -4.929  1.00  0.00    -0.248 NA
ATOM     17  C   UNL     1       6.084  -2.834  -4.700  1.00  0.00     0.031 C 
ATOM     18  C   UNL     1       4.127  -5.996  -1.306  1.00  0.00     0.029 A 
ATOM     19  N   UNL     1       5.546  -6.881  -2.782  1.00  0.00    -0.354 N 
ATOM     20  C   UNL     1       7.198  -4.383  -5.965  1.00  0.00     0.074 A 
ATOM     21  C   UNL     1       6.827  -2.995  -5.790  1.00  0.00     0.031 C 
ATOM     22  C   UNL     1       4.348  -7.258  -0.924  1.00  0.00     0.029 A 
ATOM     23  C   UNL     1       5.215  -7.887  -1.905  1.00  0.00     0.049 A 
ATOM     24  H   UNL     1       6.147  -7.010  -3.551  1.00  0.00     0.167 HD
ATOM     25  C   UNL     1       7.961  -4.867  -6.971  1.00  0.00     0.037 A 
ATOM     26  C   UNL     1       5.531  -9.193  -1.918  1.00  0.00     0.037 A 
ATOM     27  C   UNL     1       8.345  -6.252  -7.088  1.00  0.00     0.049 A 
ATOM     28  C   UNL     1       6.378  -9.687  -3.048  1.00  0.00     0.074 A 
ATOM     29  C   UNL     1       9.159  -6.845  -8.036  1.00  0.00     0.029 A 
ATOM     30  N   UNL     1       7.937  -7.260  -6.223  1.00  0.00    -0.354 N 
ATOM     31  N   UNL     1       6.927  -9.003  -4.022  1.00  0.00    -0.248 NA
ATOM     32  C   UNL     1       6.620 -11.131  -3.106  1.00  0.00     0.031 C 
ATOM     33  C   UNL     1       9.205  -8.218  -7.774  1.00  0.00     0.029 A 
ATOM     34  C   UNL     1       8.456  -8.477  -6.637  1.00  0.00     0.049 A 
ATOM     35  H   UNL     1       7.365  -7.130  -5.433  1.00  0.00     0.167 HD
ATOM     36  C   UNL     1       7.564  -9.933  -4.824  1.00  0.00     0.074 A 
ATOM     37  C   UNL     1       7.374 -11.225  -4.191  1.00  0.00     0.031 C 
ATOM     38  C   UNL     1       8.227  -9.743  -5.989  1.00  0.00     0.037 A 
BRANCH  25  39
ATOM     39  C   UNL     1       8.403  -3.923  -8.049  1.00  0.00     0.064 A 
ATOM     40  C   UNL     1       9.429  -2.989  -7.848  1.00  0.00     0.173 A 
ATOM     41  C   UNL     1       7.846  -4.019  -9.335  1.00  0.00     0.173 A 
ATOM     42  F   UNL     1       9.986  -2.849  -6.637  1.00  0.00    -0.203 F 
ATOM     43  C   UNL     1       9.879  -2.185  -8.895  1.00  0.00     0.198 A 
ATOM     44  C   UNL     1       8.312  -3.230 -10.382  1.00  0.00     0.198 A 
ATOM     45  F   UNL     1       6.862  -4.899  -9.579  1.00  0.00    -0.203 F 
ATOM     46  F   UNL     1      10.850  -1.287  -8.678  1.00  0.00    -0.200 F 
ATOM     47  C   UNL     1       9.328  -2.314 -10.162  1.00  0.00     0.200 A 
ATOM     48  F   UNL     1       7.785  -3.365 -11.607  1.00  0.00    -0.200 F 
ATOM     49  F   UNL     1       9.778  -1.555 -11.171  1.00  0.00    -0.200 F 
ENDBRANCH  25  39
BRANCH  26  50
ATOM     50  C   UNL     1       4.968 -10.103  -0.888  1.00  0.00     0.064 A 
ATOM     51  C   UNL     1       5.791 -10.760   0.035  1.00  0.00     0.173 A 
ATOM     52  C   UNL     1       3.582 -10.313  -0.789  1.00  0.00     0.173 A 
ATOM     53  F   UNL     1       7.122 -10.606  -0.026  1.00  0.00    -0.203 F 
ATOM     54  C   UNL     1       5.251 -11.599   1.008  1.00  0.00     0.198 A 
ATOM     55  C   UNL     1       3.042 -11.118   0.208  1.00  0.00     0.198 A 
ATOM     56  F   UNL     1       2.747  -9.704  -1.643  1.00  0.00    -0.203 F 
ATOM     57  F   UNL     1       6.063 -12.249   1.853  1.00  0.00    -0.200 F 
ATOM     58  C   UNL     1       3.877 -11.769   1.101  1.00  0.00     0.200 A 
ATOM     59  F   UNL     1       1.713 -11.255   0.308  1.00  0.00    -0.200 F 
ATOM     60  F   UNL     1       3.359 -12.564   2.047  1.00  0.00    -0.200 F 
ENDBRANCH  26  50
BRANCH  38  61
ATOM     61  C   UNL     1       8.776 -10.971  -6.643  1.00  0.00     0.064 A 
ATOM     62  C   UNL     1       7.931 -11.886  -7.288  1.00  0.00     0.173 A 
ATOM     63  C   UNL     1      10.153 -11.231  -6.632  1.00  0.00     0.173 A 
ATOM     64  F   UNL     1       6.605 -11.688  -7.301  1.00  0.00    -0.203 F 
ATOM     65  C   UNL     1       8.447 -13.035  -7.879  1.00  0.00     0.198 A 
ATOM     66  C   UNL     1      10.667 -12.366  -7.248  1.00  0.00     0.198 A 
ATOM     67  F   UNL     1      10.997 -10.382  -6.026  1.00  0.00    -0.203 F 
ATOM     68  F   UNL     1       7.619 -13.924  -8.444  1.00  0.00    -0.200 F 
ATOM     69  C   UNL     1       9.814 -13.270  -7.864  1.00  0.00     0.200 A 
ATOM     70  F   UNL     1      11.988 -12.589  -7.240  1.00  0.00    -0.200 F 
ATOM     71  F   UNL     1      10.309 -14.377  -8.433  1.00  0.00    -0.200 F 
ENDBRANCH  38  61
ENDBRANCH  12  13
ENDBRANCH   5   7
ENDBRANCH   2   3
ENDBRANCH   1   2
BRANCH   1  72
ATOM     72  C   UNL     1       4.952   2.578   1.369  1.00  0.00     0.023 C 
BRANCH  72  73
ATOM     73  C   UNL     1       5.505   2.703   2.787  1.00  0.00     0.116 C 
BRANCH  73  74
ATOM     74  N   UNL     1       6.848   3.228   2.765  1.00  0.00    -0.355 N 
ATOM     75  C   UNL     1       7.289   4.485   3.076  1.00  0.00     0.238 C 
ATOM     76  H   UNL     1       7.546   2.593   2.487  1.00  0.00     0.163 HD
ATOM     77  O   UNL     1       8.486   4.713   2.884  1.00  0.00    -0.273 OA
BRANCH  75  78
ATOM     78  C   UNL     1       6.373   5.469   3.796  1.00  0.00     0.165 C 
ATOM     79  C   UNL     1       7.140   6.680   4.366  1.00  0.00     0.063 C 
ATOM     80  N   UNL     1       5.091   6.029   3.236  1.00  0.00    -0.183 NA
ATOM     81  C   UNL     1       6.216   7.875   4.192  1.00  0.00     0.131 C 
ATOM     82  C   UNL     1       4.833   7.231   4.088  1.00  0.00     0.135 C 
BRANCH  80  83
ATOM     83  S   UNL     1       4.965   6.388   1.565  1.00  0.00     0.244 S 
ATOM     84  O   UNL     1       5.044   7.822   1.399  1.00  0.00    -0.207 OA
ATOM     85  O   UNL     1       5.827   5.514   0.810  1.00  0.00    -0.207 OA
BRANCH  83  86
ATOM     86  C   UNL     1       3.271   5.922   1.209  1.00  0.00     0.086 A 
ATOM     87  C   UNL     1       2.661   4.857   1.883  1.00  0.00     0.026 A 
ATOM     88  C   UNL     1       2.544   6.652   0.266  1.00  0.00     0.072 A 
ATOM     89  C   UNL     1       1.384   4.424   1.520  1.00  0.00     0.052 A 
ATOM     90  C   UNL     1       1.232   6.273  -0.024  1.00  0.00     0.162 A 
ATOM     91  C   UNL     1       0.675   5.124   0.553  1.00  0.00     0.161 A 
ATOM     92  O   UNL     1       0.526   7.082  -0.880  1.00  0.00    -0.486 OA
ATOM     93  O   UNL     1      -0.575   4.650   0.247  1.00  0.00    -0.486 OA
ATOM     94  C   UNL     1      -0.882   6.825  -0.764  1.00  0.00     0.271 C 
ATOM     95  C   UNL     1      -1.141   5.333  -0.878  1.00  0.00     0.271 C 
ENDBRANCH  83  86
ENDBRANCH  80  83
BRANCH  81  96
ATOM     96  O   UNL     1       6.323   8.772   5.280  1.00  0.00    -0.392 OA
ATOM     97  H   UNL     1       6.126   8.303   6.106  1.00  0.00     0.211 HD
ENDBRANCH  81  96
ENDBRANCH  75  78
ENDBRANCH  73  74
ENDBRANCH  72  73
ENDBRANCH   1  72
TORSDOF 14
