REMARK SMILES CCC[C@H](C)N(C)S(=O)(=O)c1ccc(CC(=O)NCCCCNC(=O)c2ccc(-c3c4nc(c(-c5c(F)c(F)c(F)c(F)c5F)c5ccc([nH]5)c(-c5c(F)c(F)c(F)c(F)c5F)c5nc(c(-c6c(F)c(F)c(F)c(F)c6F)c6ccc3[nH]6)C=C5)C=C4)cc2)s1
REMARK SMILES IDX 16 1 17 2 18 3 15 5 14 6 11 7 12 8 89 9 13 10 8 11 9 12
REMARK SMILES IDX 10 13 6 14 7 15 4 16 5 17 3 18 2 19 1 20 19 21 20 22 21 23
REMARK SMILES IDX 22 24 23 25 24 26 25 28 26 29 27 30 88 31 28 32 87 33 29 34
REMARK SMILES IDX 30 35 31 36 81 37 32 38 86 39 80 40 82 41 33 42 85 43 79 44
REMARK SMILES IDX 78 45 34 47 66 48 46 49 65 50 47 51 50 52 64 53 83 54 48 55
REMARK SMILES IDX 49 56 63 58 84 59 51 60 35 61 36 62 44 63 37 64 38 65 42 66
REMARK SMILES IDX 45 67 39 68 40 69 43 70 41 71 67 72 68 73 76 74 69 75 70 76
REMARK SMILES IDX 74 77 77 78 71 79 72 80 75 81 73 82 52 83 53 84 61 85 54 86
REMARK SMILES IDX 55 87 59 88 62 89 56 90 57 91 60 92 58 93
REMARK H PARENT 18 4 23 27 82 46 50 57
REMARK Flexibility Score: inf
ROOT
ATOM      1  C   UNL     1       4.262  10.097  -1.411  1.00  0.00     0.225 C 
ATOM      2  O   UNL     1       5.210   9.853  -2.162  1.00  0.00    -0.275 OA
ATOM      3  N   UNL     1       4.536  10.391  -0.105  1.00  0.00    -0.356 N 
ATOM      4  H   UNL     1       5.490  10.404   0.135  1.00  0.00     0.163 HD
ENDROOT
BRANCH   1   5
ATOM      5  C   UNL     1       2.833  10.138  -1.933  1.00  0.00     0.146 C 
BRANCH   5   6
ATOM      6  C   UNL     1       1.950   9.102  -1.300  1.00  0.00     0.015 A 
ATOM      7  C   UNL     1       1.066   7.011  -0.315  1.00  0.00     0.135 A 
ATOM      8  C   UNL     1       0.189   8.069  -0.174  1.00  0.00     0.034 A 
ATOM      9  S   UNL     1       2.458   7.474  -1.196  1.00  0.00    -0.127 S 
ATOM     10  C   UNL     1       0.692   9.271  -0.754  1.00  0.00     0.017 A 
BRANCH   7  11
ATOM     11  S   UNL     1       1.003   5.318   0.250  1.00  0.00     0.252 S 
ATOM     12  O   UNL     1      -0.153   5.286   1.123  1.00  0.00    -0.206 OA
ATOM     13  O   UNL     1       2.326   5.024   0.757  1.00  0.00    -0.206 OA
BRANCH  11  14
ATOM     14  N   UNL     1       0.690   4.312  -1.080  1.00  0.00    -0.197 NA
ATOM     15  C   UNL     1       1.562   4.464  -2.258  1.00  0.00     0.124 C 
BRANCH  14  16
ATOM     16  C   UNL     1       0.209   2.918  -0.848  1.00  0.00     0.070 C 
ATOM     17  C   UNL     1       0.900   2.227   0.330  1.00  0.00     0.026 C 
BRANCH  16  18
ATOM     18  C   UNL     1      -1.323   2.892  -0.698  1.00  0.00     0.020 C 
BRANCH  18  19
ATOM     19  C   UNL     1      -2.098   3.854  -1.609  1.00  0.00    -0.002 C 
ATOM     20  C   UNL     1      -1.941   3.578  -3.095  1.00  0.00     0.004 C 
ENDBRANCH  18  19
ENDBRANCH  16  18
ENDBRANCH  14  16
ENDBRANCH  11  14
ENDBRANCH   7  11
ENDBRANCH   5   6
ENDBRANCH   1   5
BRANCH   3  21
ATOM     21  C   UNL     1       3.617  10.687   0.977  1.00  0.00     0.116 C 
BRANCH  21  22
ATOM     22  C   UNL     1       3.428   9.496   1.919  1.00  0.00     0.023 C 
BRANCH  22  23
ATOM     23  C   UNL     1       4.666   9.108   2.728  1.00  0.00     0.023 C 
BRANCH  23  24
ATOM     24  C   UNL     1       5.218  10.208   3.623  1.00  0.00     0.116 C 
BRANCH  24  25
ATOM     25  N   UNL     1       4.243  10.710   4.579  1.00  0.00    -0.352 N 
ATOM     26  C   UNL     1       4.435  11.095   5.883  1.00  0.00     0.251 C 
ATOM     27  H   UNL     1       3.319  10.783   4.246  1.00  0.00     0.163 HD
ATOM     28  O   UNL     1       3.479  11.396   6.590  1.00  0.00    -0.269 OA
BRANCH  26  29
ATOM     29  C   UNL     1       5.802  11.109   6.443  1.00  0.00     0.039 A 
ATOM     30  C   UNL     1       6.025  10.506   7.683  1.00  0.00     0.014 A 
ATOM     31  C   UNL     1       6.859  11.690   5.738  1.00  0.00     0.014 A 
ATOM     32  C   UNL     1       7.324  10.426   8.187  1.00  0.00     0.010 A 
ATOM     33  C   UNL     1       8.161  11.549   6.208  1.00  0.00     0.010 A 
ATOM     34  C   UNL     1       8.405  10.916   7.436  1.00  0.00    -0.014 A 
BRANCH  34  35
ATOM     35  C   UNL     1       9.801  10.775   7.916  1.00  0.00     0.031 A 
ATOM     36  C   UNL     1      10.607  11.997   8.252  1.00  0.00     0.074 A 
ATOM     37  C   UNL     1      10.364   9.553   7.978  1.00  0.00     0.049 A 
ATOM     38  N   UNL     1      11.864  12.088   8.607  1.00  0.00    -0.248 NA
ATOM     39  C   UNL     1       9.917  13.292   8.147  1.00  0.00     0.031 C 
ATOM     40  C   UNL     1       9.698   8.296   7.630  1.00  0.00     0.029 A 
ATOM     41  N   UNL     1      11.629   9.169   8.344  1.00  0.00    -0.354 N 
ATOM     42  C   UNL     1      12.117  13.446   8.749  1.00  0.00     0.074 A 
ATOM     43  C   UNL     1      10.900  14.144   8.396  1.00  0.00     0.031 C 
ATOM     44  C   UNL     1      10.554   7.279   7.819  1.00  0.00     0.029 A 
ATOM     45  C   UNL     1      11.836   7.813   8.267  1.00  0.00     0.049 A 
ATOM     46  H   UNL     1      12.322   9.804   8.635  1.00  0.00     0.167 HD
ATOM     47  C   UNL     1      13.256  14.053   9.158  1.00  0.00     0.037 A 
ATOM     48  C   UNL     1      12.940   7.086   8.524  1.00  0.00     0.037 A 
ATOM     49  C   UNL     1      14.454  13.353   9.540  1.00  0.00     0.049 A 
ATOM     50  C   UNL     1      14.189   7.785   8.986  1.00  0.00     0.074 A 
ATOM     51  C   UNL     1      15.638  13.874  10.032  1.00  0.00     0.029 A 
ATOM     52  N   UNL     1      14.618  11.977   9.474  1.00  0.00    -0.354 N 
ATOM     53  N   UNL     1      14.398   9.065   9.180  1.00  0.00    -0.248 NA
ATOM     54  C   UNL     1      15.356   6.937   9.269  1.00  0.00     0.031 C 
ATOM     55  C   UNL     1      16.532  12.816  10.228  1.00  0.00     0.029 A 
ATOM     56  C   UNL     1      15.891  11.633   9.900  1.00  0.00     0.049 A 
ATOM     57  H   UNL     1      13.932  11.340   9.170  1.00  0.00     0.167 HD
ATOM     58  C   UNL     1      15.705   9.174   9.634  1.00  0.00     0.074 A 
ATOM     59  C   UNL     1      16.238   7.829   9.697  1.00  0.00     0.031 C 
ATOM     60  C   UNL     1      16.401  10.288   9.967  1.00  0.00     0.037 A 
BRANCH  47  61
ATOM     61  C   UNL     1      13.258  15.552   9.219  1.00  0.00     0.064 A 
ATOM     62  C   UNL     1      12.527  16.248  10.193  1.00  0.00     0.173 A 
ATOM     63  C   UNL     1      14.027  16.300   8.315  1.00  0.00     0.173 A 
ATOM     64  F   UNL     1      11.766  15.579  11.072  1.00  0.00    -0.203 F 
ATOM     65  C   UNL     1      12.543  17.639  10.243  1.00  0.00     0.198 A 
ATOM     66  C   UNL     1      14.063  17.691   8.386  1.00  0.00     0.198 A 
ATOM     67  F   UNL     1      14.748  15.684   7.367  1.00  0.00    -0.203 F 
ATOM     68  F   UNL     1      11.799  18.284  11.152  1.00  0.00    -0.200 F 
ATOM     69  C   UNL     1      13.316  18.359   9.345  1.00  0.00     0.200 A 
ATOM     70  F   UNL     1      14.820  18.385   7.524  1.00  0.00    -0.200 F 
ATOM     71  F   UNL     1      13.335  19.698   9.398  1.00  0.00    -0.200 F 
ENDBRANCH  47  61
BRANCH  48  72
ATOM     72  C   UNL     1      12.904   5.608   8.382  1.00  0.00     0.064 A 
ATOM     73  C   UNL     1      12.944   4.779   9.511  1.00  0.00     0.173 A 
ATOM     74  C   UNL     1      12.833   4.996   7.123  1.00  0.00     0.173 A 
ATOM     75  F   UNL     1      13.035   5.320  10.735  1.00  0.00    -0.203 F 
ATOM     76  C   UNL     1      12.934   3.392   9.386  1.00  0.00     0.198 A 
ATOM     77  C   UNL     1      12.796   3.608   7.000  1.00  0.00     0.198 A 
ATOM     78  F   UNL     1      12.788   5.746   6.012  1.00  0.00    -0.203 F 
ATOM     79  F   UNL     1      13.017   2.622  10.479  1.00  0.00    -0.200 F 
ATOM     80  C   UNL     1      12.854   2.807   8.131  1.00  0.00     0.200 A 
ATOM     81  F   UNL     1      12.709   3.047   5.786  1.00  0.00    -0.200 F 
ATOM     82  F   UNL     1      12.843   1.473   8.011  1.00  0.00    -0.200 F 
ENDBRANCH  48  72
BRANCH  60  83
ATOM     83  C   UNL     1      17.803  10.098  10.464  1.00  0.00     0.064 A 
ATOM     84  C   UNL     1      18.848   9.745   9.599  1.00  0.00     0.173 A 
ATOM     85  C   UNL     1      18.111  10.313  11.816  1.00  0.00     0.173 A 
ATOM     86  F   UNL     1      18.601   9.513   8.301  1.00  0.00    -0.203 F 
ATOM     87  C   UNL     1      20.148   9.592  10.074  1.00  0.00     0.198 A 
ATOM     88  C   UNL     1      19.416  10.186  12.282  1.00  0.00     0.198 A 
ATOM     89  F   UNL     1      17.147  10.658  12.683  1.00  0.00    -0.203 F 
ATOM     90  F   UNL     1      21.124   9.212   9.238  1.00  0.00    -0.200 F 
ATOM     91  C   UNL     1      20.432   9.819  11.412  1.00  0.00     0.200 A 
ATOM     92  F   UNL     1      19.691  10.418  13.573  1.00  0.00    -0.200 F 
ATOM     93  F   UNL     1      21.685   9.679  11.866  1.00  0.00    -0.200 F 
ENDBRANCH  60  83
ENDBRANCH  34  35
ENDBRANCH  26  29
ENDBRANCH  24  25
ENDBRANCH  23  24
ENDBRANCH  22  23
ENDBRANCH  21  22
ENDBRANCH   3  21
TORSDOF 17
