REMARK SMILES Cc1cccc(S(=O)(=O)Nc2cc(C(=O)NCCCCNC(=O)c3ccc(-c4c5nc(c(-c6c(F)c(F)c(F)c(F)c6F)c6ccc([nH]6)c(-c6c(F)c(F)c(F)c(F)c6F)c6nc(c(-c7c(F)c(F)c(F)c(F)c7F)c7ccc4[nH]7)C=C6)C=C5)cc3)cnc2N2CCC[C@H](C)C2)c1
REMARK SMILES IDX 18 1 17 2 16 3 14 4 15 5 13 7 11 8 12 9 89 10 88 11 87 12
REMARK SMILES IDX 10 13 7 15 8 16 9 17 6 18 1 19 2 20 3 21 97 22 4 23 5 24
REMARK SMILES IDX 90 25 91 26 96 27 92 28 94 29 93 30 95 31 19 32 20 33 21 34
REMARK SMILES IDX 22 35 23 37 24 38 25 39 86 40 26 41 85 42 27 43 28 44 29 45
REMARK SMILES IDX 79 46 30 47 84 48 78 49 80 50 31 51 83 52 77 53 76 54 32 56
REMARK SMILES IDX 64 57 44 58 63 59 45 60 48 61 62 62 81 63 46 64 47 65 61 67
REMARK SMILES IDX 82 68 49 69 33 70 34 71 42 72 35 73 36 74 40 75 43 76 37 77
REMARK SMILES IDX 38 78 41 79 39 80 65 81 66 82 74 83 67 84 68 85 72 86 75 87
REMARK SMILES IDX 69 88 70 89 73 90 71 91 50 92 51 93 59 94 52 95 53 96 57 97
REMARK SMILES IDX 60 98 54 99 55 100 58 101 56 102
REMARK H PARENT 16 6 10 14 21 36 80 55 48 66
REMARK Flexibility Score: inf
ROOT
ATOM      1  C   UNL     1       0.514   1.729  -4.152  1.00  0.00     0.023 C 
ENDROOT
BRANCH   1   2
ATOM      2  C   UNL     1       1.221   1.007  -2.994  1.00  0.00     0.116 C 
BRANCH   2   3
ATOM      3  N   UNL     1       2.614   1.415  -2.857  1.00  0.00    -0.352 N 
ATOM      4  C   UNL     1       3.247   2.370  -2.096  1.00  0.00     0.252 C 
ATOM      5  O   UNL     1       4.476   2.416  -2.144  1.00  0.00    -0.269 OA
ATOM      6  H   UNL     1       3.229   0.900  -3.427  1.00  0.00     0.163 HD
BRANCH   4   7
ATOM      7  C   UNL     1       2.542   3.302  -1.186  1.00  0.00     0.060 A 
ATOM      8  C   UNL     1       0.591   4.299  -0.219  1.00  0.00     0.092 A 
ATOM      9  C   UNL     1       1.190   3.584  -1.246  1.00  0.00     0.046 A 
ATOM     10  C   UNL     1       1.373   4.902   0.783  1.00  0.00     0.153 A 
ATOM     11  N   UNL     1       2.710   4.725   0.798  1.00  0.00    -0.236 NA
ATOM     12  C   UNL     1       3.256   3.912  -0.156  1.00  0.00     0.127 A 
BRANCH   8  13
ATOM     13  N   UNL     1      -0.836   4.356  -0.200  1.00  0.00    -0.276 N 
ATOM     14  H   UNL     1      -1.297   5.173  -0.498  1.00  0.00     0.180 HD
BRANCH  13  15
ATOM     15  S   UNL     1      -1.739   3.023   0.336  1.00  0.00     0.262 S 
ATOM     16  O   UNL     1      -2.686   2.781  -0.739  1.00  0.00    -0.201 OA
ATOM     17  O   UNL     1      -2.221   3.342   1.660  1.00  0.00    -0.201 OA
BRANCH  15  18
ATOM     18  C   UNL     1      -0.772   1.531   0.495  1.00  0.00     0.088 A 
ATOM     19  C   UNL     1       2.757   0.212   1.124  1.00  0.00     0.044 C 
ATOM     20  C   UNL     1       1.280   0.267   0.860  1.00  0.00    -0.050 A 
ATOM     21  C   UNL     1       0.631  -0.894   0.446  1.00  0.00     0.003 A 
ATOM     22  C   UNL     1       0.545   1.464   0.966  1.00  0.00     0.025 A 
ATOM     23  C   UNL     1      -0.714  -0.847   0.109  1.00  0.00     0.002 A 
ATOM     24  C   UNL     1      -1.407   0.355   0.096  1.00  0.00     0.022 A 
ENDBRANCH  15  18
ENDBRANCH  13  15
ENDBRANCH   8  13
BRANCH  10  25
ATOM     25  N   UNL     1       0.788   5.768   1.681  1.00  0.00    -0.355 N 
ATOM     26  C   UNL     1      -0.019   5.331   2.809  1.00  0.00     0.118 C 
ATOM     27  C   UNL     1       1.329   7.115   1.779  1.00  0.00     0.121 C 
ATOM     28  C   UNL     1      -1.261   6.229   2.873  1.00  0.00     0.022 C 
ATOM     29  C   UNL     1       0.141   8.094   1.759  1.00  0.00     0.005 C 
ATOM     30  C   UNL     1      -0.899   7.721   2.838  1.00  0.00     0.007 C 
ATOM     31  C   UNL     1      -0.483   8.165   0.359  1.00  0.00     0.009 C 
ENDBRANCH  10  25
ENDBRANCH   4   7
ENDBRANCH   2   3
ENDBRANCH   1   2
BRANCH   1  32
ATOM     32  C   UNL     1       0.990   1.280  -5.532  1.00  0.00     0.023 C 
BRANCH  32  33
ATOM     33  C   UNL     1       0.432  -0.076  -5.944  1.00  0.00     0.116 C 
BRANCH  33  34
ATOM     34  N   UNL     1      -0.765  -0.004  -6.770  1.00  0.00    -0.352 N 
ATOM     35  C   UNL     1      -1.584  -1.024  -7.235  1.00  0.00     0.251 C 
ATOM     36  H   UNL     1      -1.033   0.904  -7.040  1.00  0.00     0.163 HD
ATOM     37  O   UNL     1      -2.508  -0.778  -7.981  1.00  0.00    -0.269 OA
BRANCH  35  38
ATOM     38  C   UNL     1      -1.408  -2.399  -6.697  1.00  0.00     0.039 A 
ATOM     39  C   UNL     1      -2.556  -3.081  -6.271  1.00  0.00     0.014 A 
ATOM     40  C   UNL     1      -0.146  -2.915  -6.421  1.00  0.00     0.014 A 
ATOM     41  C   UNL     1      -2.432  -4.122  -5.355  1.00  0.00     0.010 A 
ATOM     42  C   UNL     1      -0.022  -3.872  -5.436  1.00  0.00     0.010 A 
ATOM     43  C   UNL     1      -1.168  -4.418  -4.850  1.00  0.00    -0.014 A 
BRANCH  43  44
ATOM     44  C   UNL     1      -0.953  -5.145  -3.607  1.00  0.00     0.031 A 
ATOM     45  C   UNL     1      -0.349  -6.488  -3.595  1.00  0.00     0.074 A 
ATOM     46  C   UNL     1      -1.171  -4.496  -2.443  1.00  0.00     0.049 A 
ATOM     47  N   UNL     1      -0.368  -7.284  -2.581  1.00  0.00    -0.248 NA
ATOM     48  C   UNL     1       0.291  -7.067  -4.765  1.00  0.00     0.031 C 
ATOM     49  C   UNL     1      -0.697  -4.872  -1.116  1.00  0.00     0.029 A 
ATOM     50  N   UNL     1      -2.081  -3.454  -2.214  1.00  0.00    -0.354 N 
ATOM     51  C   UNL     1       0.489  -8.328  -2.843  1.00  0.00     0.074 A 
ATOM     52  C   UNL     1       0.796  -8.191  -4.248  1.00  0.00     0.031 C 
ATOM     53  C   UNL     1      -1.506  -4.324  -0.200  1.00  0.00     0.029 A 
ATOM     54  C   UNL     1      -2.592  -3.680  -0.921  1.00  0.00     0.049 A 
ATOM     55  H   UNL     1      -2.313  -2.719  -2.827  1.00  0.00     0.167 HD
ATOM     56  C   UNL     1       0.934  -9.083  -1.794  1.00  0.00     0.037 A 
ATOM     57  C   UNL     1      -3.917  -3.870  -0.676  1.00  0.00     0.037 A 
ATOM     58  C   UNL     1       0.222  -8.731  -0.557  1.00  0.00     0.049 A 
ATOM     59  C   UNL     1      -4.168  -5.168   0.037  1.00  0.00     0.074 A 
ATOM     60  C   UNL     1       0.570  -7.974   0.551  1.00  0.00     0.029 A 
ATOM     61  N   UNL     1      -1.158  -8.927  -0.474  1.00  0.00    -0.354 N 
ATOM     62  N   UNL     1      -3.355  -6.186  -0.038  1.00  0.00    -0.248 NA
ATOM     63  C   UNL     1      -5.306  -5.414   0.913  1.00  0.00     0.031 C 
ATOM     64  C   UNL     1      -0.614  -7.676   1.274  1.00  0.00     0.029 A 
ATOM     65  C   UNL     1      -1.683  -8.269   0.622  1.00  0.00     0.049 A 
ATOM     66  H   UNL     1      -1.686  -9.461  -1.111  1.00  0.00     0.167 HD
ATOM     67  C   UNL     1      -3.799  -7.179   0.788  1.00  0.00     0.074 A 
ATOM     68  C   UNL     1      -5.033  -6.658   1.349  1.00  0.00     0.031 C 
ATOM     69  C   UNL     1      -3.101  -8.340   0.955  1.00  0.00     0.037 A 
BRANCH  56  70
ATOM     70  C   UNL     1       2.211  -9.917  -1.818  1.00  0.00     0.064 A 
ATOM     71  C   UNL     1       2.910 -10.209  -0.622  1.00  0.00     0.173 A 
ATOM     72  C   UNL     1       2.850 -10.394  -2.979  1.00  0.00     0.173 A 
ATOM     73  F   UNL     1       2.391  -9.930   0.580  1.00  0.00    -0.203 F 
ATOM     74  C   UNL     1       4.178 -10.805  -0.608  1.00  0.00     0.198 A 
ATOM     75  C   UNL     1       4.137 -10.946  -2.972  1.00  0.00     0.198 A 
ATOM     76  F   UNL     1       2.234 -10.416  -4.162  1.00  0.00    -0.203 F 
ATOM     77  F   UNL     1       4.790 -11.039   0.562  1.00  0.00    -0.200 F 
ATOM     78  C   UNL     1       4.808 -11.140  -1.786  1.00  0.00     0.200 A 
ATOM     79  F   UNL     1       4.714 -11.294  -4.131  1.00  0.00    -0.200 F 
ATOM     80  F   UNL     1       6.036 -11.676  -1.779  1.00  0.00    -0.200 F 
ENDBRANCH  56  70
BRANCH  57  81
ATOM     81  C   UNL     1      -4.798  -3.197  -1.661  1.00  0.00     0.064 A 
ATOM     82  C   UNL     1      -4.777  -1.788  -1.692  1.00  0.00     0.173 A 
ATOM     83  C   UNL     1      -5.282  -3.860  -2.792  1.00  0.00     0.173 A 
ATOM     84  F   UNL     1      -4.318  -1.108  -0.630  1.00  0.00    -0.203 F 
ATOM     85  C   UNL     1      -5.093  -1.081  -2.850  1.00  0.00     0.198 A 
ATOM     86  C   UNL     1      -5.619  -3.146  -3.947  1.00  0.00     0.198 A 
ATOM     87  F   UNL     1      -5.307  -5.199  -2.833  1.00  0.00    -0.203 F 
ATOM     88  F   UNL     1      -4.928   0.249  -2.887  1.00  0.00    -0.200 F 
ATOM     89  C   UNL     1      -5.486  -1.764  -3.987  1.00  0.00     0.200 A 
ATOM     90  F   UNL     1      -5.969  -3.806  -5.060  1.00  0.00    -0.200 F 
ATOM     91  F   UNL     1      -5.688  -1.100  -5.133  1.00  0.00    -0.200 F 
ENDBRANCH  57  81
BRANCH  69  92
ATOM     92  C   UNL     1      -3.652  -9.605   1.563  1.00  0.00     0.064 A 
ATOM     93  C   UNL     1      -5.018  -9.937   1.555  1.00  0.00     0.173 A 
ATOM     94  C   UNL     1      -2.783 -10.620   2.029  1.00  0.00     0.173 A 
ATOM     95  F   UNL     1      -5.935  -9.116   1.027  1.00  0.00    -0.203 F 
ATOM     96  C   UNL     1      -5.485 -11.163   2.035  1.00  0.00     0.198 A 
ATOM     97  C   UNL     1      -3.247 -11.864   2.451  1.00  0.00     0.198 A 
ATOM     98  F   UNL     1      -1.453 -10.449   2.056  1.00  0.00    -0.203 F 
ATOM     99  F   UNL     1      -6.802 -11.413   2.041  1.00  0.00    -0.200 F 
ATOM    100  C   UNL     1      -4.600 -12.130   2.469  1.00  0.00     0.200 A 
ATOM    101  F   UNL     1      -2.372 -12.812   2.817  1.00  0.00    -0.200 F 
ATOM    102  F   UNL     1      -5.048 -13.325   2.877  1.00  0.00    -0.200 F 
ENDBRANCH  69  92
ENDBRANCH  43  44
ENDBRANCH  35  38
ENDBRANCH  33  34
ENDBRANCH  32  33
ENDBRANCH   1  32
TORSDOF 15
