REMARK SMILES CC(C)OC(=O)c1cccc(-c2ccc([C@H]3[NH2+][C@H](C(=O)NCCCCNC(=O)c4ccc(-c5c6nc(c(-c7c(F)c(F)c(F)c(F)c7F)c7ccc([nH]7)c(-c7c(F)c(F)c(F)c(F)c7F)c7nc(c(-c8c(F)c(F)c(F)c(F)c8F)c8ccc5[nH]8)C=C7)C=C6)cc4)C(C)(C)S3)o2)c1
REMARK SMILES IDX 22 1 21 2 19 3 20 4 18 6 16 7 17 8 95 9 92 12 93 13 94 14
REMARK SMILES IDX 15 15 12 16 13 17 96 18 14 19 11 20 7 21 8 22 97 23 9 24
REMARK SMILES IDX 10 25 5 26 6 27 4 28 2 29 1 30 3 31 23 32 24 33 25 34 26 35
REMARK SMILES IDX 27 36 28 38 29 39 30 40 91 41 31 42 90 43 32 44 33 45 34 46
REMARK SMILES IDX 84 47 35 48 89 49 83 50 85 51 36 52 88 53 82 54 81 55 37 57
REMARK SMILES IDX 69 58 49 59 68 60 50 61 53 62 67 63 86 64 51 65 52 66 66 68
REMARK SMILES IDX 87 69 54 70 38 71 39 72 47 73 40 74 41 75 45 76 48 77 42 78
REMARK SMILES IDX 43 79 46 80 44 81 70 82 71 83 79 84 72 85 73 86 77 87 80 88
REMARK SMILES IDX 74 89 75 90 78 91 76 92 55 93 56 94 64 95 57 96 58 97 62 98
REMARK SMILES IDX 65 99 59 100 60 101 63 102 61 103
REMARK H PARENT 21 5 17 10 17 11 26 37 85 56 53 67
REMARK Flexibility Score: inf
ROOT
ATOM      1  C   UNL     1     -10.269   6.543  -7.114  1.00  0.00     0.116 C 
ENDROOT
BRANCH   1   2
ATOM      2  N   UNL     1      -9.335   6.461  -6.028  1.00  0.00    -0.351 N 
ATOM      3  C   UNL     1      -8.492   5.459  -5.673  1.00  0.00     0.279 C 
ATOM      4  O   UNL     1      -8.157   5.508  -4.481  1.00  0.00    -0.268 OA
ATOM      5  H   UNL     1      -9.300   7.257  -5.450  1.00  0.00     0.163 HD
BRANCH   3   6
ATOM      6  C   UNL     1      -7.840   4.434  -6.694  1.00  0.00     0.289 C 
ATOM      7  C   UNL     1      -7.449   2.679  -5.110  1.00  0.00     0.311 C 
ATOM      8  N   UNL     1      -6.769   3.728  -5.899  1.00  0.00    -0.317 N 
ATOM      9  S   UNL     1      -8.894   2.111  -6.071  1.00  0.00    -0.078 SA
ATOM     10  H   UNL     1      -6.085   3.307  -6.527  1.00  0.00     0.348 HD
ATOM     11  H   UNL     1      -6.271   4.380  -5.293  1.00  0.00     0.348 HD
ATOM     12  C   UNL     1      -8.582   3.274  -7.428  1.00  0.00     0.078 C 
ATOM     13  C   UNL     1      -7.654   2.603  -8.477  1.00  0.00     0.030 C 
ATOM     14  C   UNL     1      -9.892   3.491  -8.166  1.00  0.00     0.030 C 
BRANCH   7  15
ATOM     15  C   UNL     1      -6.566   1.508  -4.853  1.00  0.00     0.172 A 
ATOM     16  C   UNL     1      -5.462   0.135  -3.559  1.00  0.00     0.134 A 
ATOM     17  C   UNL     1      -5.307  -0.341  -4.841  1.00  0.00     0.051 A 
ATOM     18  O   UNL     1      -6.233   1.253  -3.550  1.00  0.00    -0.454 OA
ATOM     19  C   UNL     1      -6.019   0.539  -5.675  1.00  0.00     0.054 A 
BRANCH  16  20
ATOM     20  C   UNL     1      -4.927  -0.308  -2.293  1.00  0.00     0.018 A 
ATOM     21  C   UNL     1      -2.975  -0.881  -0.983  1.00  0.00     0.060 A 
ATOM     22  C   UNL     1      -3.794  -1.467  -0.012  1.00  0.00     0.016 A 
ATOM     23  C   UNL     1      -3.541  -0.303  -2.120  1.00  0.00     0.027 A 
ATOM     24  C   UNL     1      -5.182  -1.433  -0.163  1.00  0.00     0.002 A 
ATOM     25  C   UNL     1      -5.749  -0.851  -1.300  1.00  0.00     0.012 A 
BRANCH  21  26
ATOM     26  C   UNL     1      -1.507  -0.956  -0.846  1.00  0.00     0.338 C 
ATOM     27  O   UNL     1      -0.928  -1.919  -0.367  1.00  0.00    -0.246 OA
BRANCH  26  28
ATOM     28  O   UNL     1      -0.963   0.186  -1.323  1.00  0.00    -0.459 OA
BRANCH  28  29
ATOM     29  C   UNL     1       0.471   0.335  -1.387  1.00  0.00     0.170 C 
ATOM     30  C   UNL     1       1.154   0.158  -0.035  1.00  0.00     0.052 C 
ATOM     31  C   UNL     1       1.057  -0.547  -2.481  1.00  0.00     0.052 C 
ENDBRANCH  28  29
ENDBRANCH  26  28
ENDBRANCH  21  26
ENDBRANCH  16  20
ENDBRANCH   7  15
ENDBRANCH   3   6
ENDBRANCH   1   2
BRANCH   1  32
ATOM     32  C   UNL     1     -11.537   5.779  -6.730  1.00  0.00     0.023 C 
BRANCH  32  33
ATOM     33  C   UNL     1     -12.609   6.602  -6.037  1.00  0.00     0.023 C 
BRANCH  33  34
ATOM     34  C   UNL     1     -13.250   7.636  -6.940  1.00  0.00     0.116 C 
BRANCH  34  35
ATOM     35  N   UNL     1     -13.815   7.088  -8.171  1.00  0.00    -0.352 N 
ATOM     36  C   UNL     1     -14.901   7.556  -8.873  1.00  0.00     0.251 C 
ATOM     37  H   UNL     1     -13.367   6.293  -8.539  1.00  0.00     0.163 HD
ATOM     38  O   UNL     1     -15.319   6.984  -9.870  1.00  0.00    -0.269 OA
BRANCH  36  39
ATOM     39  C   UNL     1     -15.580   8.748  -8.341  1.00  0.00     0.039 A 
ATOM     40  C   UNL     1     -16.916   8.645  -7.953  1.00  0.00     0.014 A 
ATOM     41  C   UNL     1     -14.824   9.885  -8.052  1.00  0.00     0.014 A 
ATOM     42  C   UNL     1     -17.477   9.665  -7.188  1.00  0.00     0.010 A 
ATOM     43  C   UNL     1     -15.351  10.842  -7.202  1.00  0.00     0.010 A 
ATOM     44  C   UNL     1     -16.682  10.743  -6.765  1.00  0.00    -0.014 A 
BRANCH  44  45
ATOM     45  C   UNL     1     -17.215  11.808  -5.885  1.00  0.00     0.031 A 
ATOM     46  C   UNL     1     -17.228  13.223  -6.386  1.00  0.00     0.074 A 
ATOM     47  C   UNL     1     -17.584  11.524  -4.621  1.00  0.00     0.049 A 
ATOM     48  N   UNL     1     -17.496  14.329  -5.743  1.00  0.00    -0.248 NA
ATOM     49  C   UNL     1     -16.836  13.425  -7.791  1.00  0.00     0.031 C 
ATOM     50  C   UNL     1     -17.562  10.195  -4.006  1.00  0.00     0.029 A 
ATOM     51  N   UNL     1     -18.037  12.345  -3.620  1.00  0.00    -0.354 N 
ATOM     52  C   UNL     1     -17.268  15.352  -6.653  1.00  0.00     0.074 A 
ATOM     53  C   UNL     1     -16.779  14.744  -7.869  1.00  0.00     0.031 C 
ATOM     54  C   UNL     1     -18.009  10.288  -2.743  1.00  0.00     0.029 A 
ATOM     55  C   UNL     1     -18.309  11.685  -2.446  1.00  0.00     0.049 A 
ATOM     56  H   UNL     1     -18.155  13.315  -3.732  1.00  0.00     0.167 HD
ATOM     57  C   UNL     1     -17.480  16.680  -6.497  1.00  0.00     0.037 A 
ATOM     58  C   UNL     1     -18.745  12.162  -1.265  1.00  0.00     0.037 A 
ATOM     59  C   UNL     1     -18.021  17.268  -5.304  1.00  0.00     0.049 A 
ATOM     60  C   UNL     1     -18.999  13.639  -1.124  1.00  0.00     0.074 A 
ATOM     61  C   UNL     1     -18.342  18.591  -5.063  1.00  0.00     0.029 A 
ATOM     62  N   UNL     1     -18.331  16.561  -4.151  1.00  0.00    -0.354 N 
ATOM     63  N   UNL     1     -18.837  14.594  -2.009  1.00  0.00    -0.248 NA
ATOM     64  C   UNL     1     -19.499  14.105   0.176  1.00  0.00     0.031 C 
ATOM     65  C   UNL     1     -18.818  18.690  -3.751  1.00  0.00     0.029 A 
ATOM     66  C   UNL     1     -18.832  17.422  -3.191  1.00  0.00     0.049 A 
ATOM     67  H   UNL     1     -18.212  15.590  -4.034  1.00  0.00     0.167 HD
ATOM     68  C   UNL     1     -19.246  15.765  -1.386  1.00  0.00     0.074 A 
ATOM     69  C   UNL     1     -19.669  15.401  -0.049  1.00  0.00     0.031 C 
ATOM     70  C   UNL     1     -19.269  17.028  -1.876  1.00  0.00     0.037 A 
BRANCH  57  71
ATOM     71  C   UNL     1     -17.137  17.571  -7.654  1.00  0.00     0.064 A 
ATOM     72  C   UNL     1     -17.873  17.543  -8.849  1.00  0.00     0.173 A 
ATOM     73  C   UNL     1     -16.061  18.466  -7.568  1.00  0.00     0.173 A 
ATOM     74  F   UNL     1     -18.901  16.692  -8.988  1.00  0.00    -0.203 F 
ATOM     75  C   UNL     1     -17.520  18.348  -9.928  1.00  0.00     0.198 A 
ATOM     76  C   UNL     1     -15.731  19.295  -8.637  1.00  0.00     0.198 A 
ATOM     77  F   UNL     1     -15.325  18.535  -6.448  1.00  0.00    -0.203 F 
ATOM     78  F   UNL     1     -18.198  18.255 -11.080  1.00  0.00    -0.200 F 
ATOM     79  C   UNL     1     -16.454  19.227  -9.819  1.00  0.00     0.200 A 
ATOM     80  F   UNL     1     -14.707  20.151  -8.528  1.00  0.00    -0.200 F 
ATOM     81  F   UNL     1     -16.115  20.003 -10.858  1.00  0.00    -0.200 F 
ENDBRANCH  57  71
BRANCH  58  82
ATOM     82  C   UNL     1     -19.008  11.231  -0.137  1.00  0.00     0.064 A 
ATOM     83  C   UNL     1     -20.321  10.965   0.279  1.00  0.00     0.173 A 
ATOM     84  C   UNL     1     -17.966  10.590   0.547  1.00  0.00     0.173 A 
ATOM     85  F   UNL     1     -21.351  11.569  -0.333  1.00  0.00    -0.203 F 
ATOM     86  C   UNL     1     -20.580  10.109   1.347  1.00  0.00     0.198 A 
ATOM     87  C   UNL     1     -18.227   9.714   1.600  1.00  0.00     0.198 A 
ATOM     88  F   UNL     1     -16.693  10.806   0.185  1.00  0.00    -0.203 F 
ATOM     89  F   UNL     1     -21.842   9.906   1.749  1.00  0.00    -0.200 F 
ATOM     90  C   UNL     1     -19.533   9.480   2.003  1.00  0.00     0.200 A 
ATOM     91  F   UNL     1     -17.214   9.099   2.224  1.00  0.00    -0.200 F 
ATOM     92  F   UNL     1     -19.782   8.655   3.029  1.00  0.00    -0.200 F 
ENDBRANCH  58  82
BRANCH  70  93
ATOM     93  C   UNL     1     -19.813  18.104  -0.985  1.00  0.00     0.064 A 
ATOM     94  C   UNL     1     -19.078  18.603   0.099  1.00  0.00     0.173 A 
ATOM     95  C   UNL     1     -21.056  18.691  -1.267  1.00  0.00     0.173 A 
ATOM     96  F   UNL     1     -17.891  18.064   0.415  1.00  0.00    -0.203 F 
ATOM     97  C   UNL     1     -19.576  19.643   0.878  1.00  0.00     0.198 A 
ATOM     98  C   UNL     1     -21.538  19.748  -0.502  1.00  0.00     0.198 A 
ATOM     99  F   UNL     1     -21.793  18.252  -2.299  1.00  0.00    -0.203 F 
ATOM    100  F   UNL     1     -18.872  20.084   1.930  1.00  0.00    -0.200 F 
ATOM    101  C   UNL     1     -20.799  20.221   0.572  1.00  0.00     0.200 A 
ATOM    102  F   UNL     1     -22.713  20.314  -0.809  1.00  0.00    -0.200 F 
ATOM    103  F   UNL     1     -21.268  21.233   1.314  1.00  0.00    -0.200 F 
ENDBRANCH  70  93
ENDBRANCH  44  45
ENDBRANCH  36  39
ENDBRANCH  34  35
ENDBRANCH  33  34
ENDBRANCH  32  33
ENDBRANCH   1  32
TORSDOF 16
