REMARK SMILES CSCC[C@H](C(=O)NCCCCNC(=O)c1ccc(-c2c3nc(c(-c4c(F)c(F)c(F)c(F)c4F)c4ccc([nH]4)c(-c4c(F)c(F)c(F)c(F)c4F)c4nc(c(-c5c(F)c(F)c(F)c(F)c5F)c5ccc2[nH]5)C=C4)C=C3)cc1)N1C(=O)/C(=C/c2cn(C)c3ccccc23)SC1=S
REMARK SMILES IDX 10 1 9 2 8 3 6 4 7 5 5 7 4 8 3 9 2 10 1 11 79 12 80 13 95 14
REMARK SMILES IDX 81 15 82 16 94 17 96 18 83 19 84 20 85 21 93 22 86 23 88 24
REMARK SMILES IDX 92 25 87 26 89 27 91 28 90 29 11 30 12 31 13 32 14 33 15 35
REMARK SMILES IDX 16 36 17 37 78 38 18 39 77 40 19 41 20 42 21 43 71 44 22 45
REMARK SMILES IDX 76 46 70 47 72 48 23 49 75 50 69 51 68 52 24 54 56 55 36 56
REMARK SMILES IDX 55 57 37 58 40 59 54 60 73 61 38 62 39 63 53 65 74 66 41 67
REMARK SMILES IDX 25 68 26 69 34 70 27 71 28 72 32 73 35 74 29 75 30 76 33 77
REMARK SMILES IDX 31 78 57 79 58 80 66 81 59 82 60 83 64 84 67 85 61 86 62 87
REMARK SMILES IDX 65 88 63 89 42 90 43 91 51 92 44 93 45 94 49 95 52 96 46 97
REMARK SMILES IDX 47 98 50 99 48 100
REMARK H PARENT 8 6 13 34 72 53 40 64
REMARK Flexibility Score: inf
ROOT
ATOM      1  C   UNL     1       3.964   3.221  -1.148  1.00  0.00     0.023 C 
ENDROOT
BRANCH   1   2
ATOM      2  C   UNL     1       3.034   3.803  -0.087  1.00  0.00     0.116 C 
BRANCH   2   3
ATOM      3  N   UNL     1       1.677   3.925  -0.587  1.00  0.00    -0.354 N 
ATOM      4  C   UNL     1       0.506   3.275  -0.328  1.00  0.00     0.243 C 
ATOM      5  O   UNL     1      -0.489   3.657  -0.953  1.00  0.00    -0.273 OA
ATOM      6  H   UNL     1       1.580   4.634  -1.263  1.00  0.00     0.163 HD
BRANCH   4   7
ATOM      7  C   UNL     1       0.357   2.224   0.760  1.00  0.00     0.182 C 
BRANCH   7   8
ATOM      8  C   UNL     1       1.340   1.040   0.596  1.00  0.00     0.046 C 
BRANCH   8   9
ATOM      9  C   UNL     1       1.568   0.371  -0.778  1.00  0.00     0.072 C 
BRANCH   9  10
ATOM     10  S   UNL     1       0.238   0.358  -2.022  1.00  0.00    -0.165 SA
ATOM     11  C   UNL     1       0.626   1.831  -3.024  1.00  0.00     0.085 C 
ENDBRANCH   9  10
ENDBRANCH   8   9
ENDBRANCH   7   8
BRANCH   7  12
ATOM     12  N   UNL     1       0.397   2.896   2.095  1.00  0.00    -0.280 N 
ATOM     13  C   UNL     1       0.489   1.832   3.504  1.00  0.00     0.266 C 
ATOM     14  C   UNL     1       0.443   4.636   2.224  1.00  0.00     0.149 C 
ATOM     15  O   UNL     1       0.382   0.614   3.492  1.00  0.00    -0.268 OA
ATOM     16  C   UNL     1       0.739   2.913   5.149  1.00  0.00     0.081 C 
ATOM     17  S   UNL     1       0.829   5.288   4.362  1.00  0.00    -0.054 SA
ATOM     18  S   UNL     1       0.011   5.930   1.236  1.00  0.00    -0.052 S 
ATOM     19  C   UNL     1      -0.132   2.321   6.089  1.00  0.00     0.031 C 
BRANCH  19  20
ATOM     20  C   UNL     1      -1.195   3.197   6.521  1.00  0.00     0.001 A 
ATOM     21  C   UNL     1      -1.328   3.876   7.738  1.00  0.00     0.094 A 
ATOM     22  C   UNL     1      -0.915   4.220   5.560  1.00  0.00     0.007 A 
ATOM     23  N   UNL     1      -0.426   4.934   7.723  1.00  0.00    -0.350 N 
ATOM     24  C   UNL     1       0.365   4.667   6.642  1.00  0.00     0.048 A 
ATOM     25  C   UNL     1      -0.367   3.689   3.909  1.00  0.00     0.011 A 
ATOM     26  C   UNL     1      -0.707   6.299   8.119  1.00  0.00     0.149 C 
ATOM     27  C   UNL     1       2.042   4.401   6.386  1.00  0.00     0.027 A 
ATOM     28  C   UNL     1       1.642   3.522   3.650  1.00  0.00     0.001 A 
ATOM     29  C   UNL     1       2.707   3.851   4.957  1.00  0.00     0.002 A 
ENDBRANCH  19  20
ENDBRANCH   7  12
ENDBRANCH   4   7
ENDBRANCH   2   3
ENDBRANCH   1   2
BRANCH   1  30
ATOM     30  C   UNL     1       4.024   4.029  -2.441  1.00  0.00     0.023 C 
BRANCH  30  31
ATOM     31  C   UNL     1       4.683   5.383  -2.274  1.00  0.00     0.116 C 
BRANCH  31  32
ATOM     32  N   UNL     1       6.086   5.260  -1.902  1.00  0.00    -0.352 N 
ATOM     33  C   UNL     1       7.191   5.747  -2.556  1.00  0.00     0.251 C 
ATOM     34  H   UNL     1       6.266   4.762  -1.072  1.00  0.00     0.163 HD
ATOM     35  O   UNL     1       8.317   5.379  -2.242  1.00  0.00    -0.269 OA
BRANCH  33  36
ATOM     36  C   UNL     1       6.994   6.707  -3.659  1.00  0.00     0.039 A 
ATOM     37  C   UNL     1       7.692   6.533  -4.854  1.00  0.00     0.014 A 
ATOM     38  C   UNL     1       6.071   7.745  -3.517  1.00  0.00     0.014 A 
ATOM     39  C   UNL     1       7.415   7.372  -5.933  1.00  0.00     0.010 A 
ATOM     40  C   UNL     1       5.712   8.497  -4.624  1.00  0.00     0.010 A 
ATOM     41  C   UNL     1       6.398   8.337  -5.836  1.00  0.00    -0.014 A 
BRANCH  41  42
ATOM     42  C   UNL     1       6.059   9.229  -6.971  1.00  0.00     0.031 A 
ATOM     43  C   UNL     1       6.209  10.717  -6.808  1.00  0.00     0.074 A 
ATOM     44  C   UNL     1       5.550   8.711  -8.104  1.00  0.00     0.049 A 
ATOM     45  N   UNL     1       5.886  11.679  -7.634  1.00  0.00    -0.248 NA
ATOM     46  C   UNL     1       6.758  11.191  -5.526  1.00  0.00     0.031 C 
ATOM     47  C   UNL     1       5.301   7.289  -8.351  1.00  0.00     0.029 A 
ATOM     48  N   UNL     1       5.140   9.324  -9.261  1.00  0.00    -0.354 N 
ATOM     49  C   UNL     1       6.168  12.861  -6.962  1.00  0.00     0.074 A 
ATOM     50  C   UNL     1       6.618  12.502  -5.637  1.00  0.00     0.031 C 
ATOM     51  C   UNL     1       4.813   7.137  -9.592  1.00  0.00     0.029 A 
ATOM     52  C   UNL     1       4.676   8.450 -10.213  1.00  0.00     0.049 A 
ATOM     53  H   UNL     1       5.176  10.299  -9.396  1.00  0.00     0.167 HD
ATOM     54  C   UNL     1       6.094  14.132  -7.422  1.00  0.00     0.037 A 
ATOM     55  C   UNL     1       4.192   8.688 -11.447  1.00  0.00     0.037 A 
ATOM     56  C   UNL     1       5.684  14.475  -8.756  1.00  0.00     0.049 A 
ATOM     57  C   UNL     1       4.129  10.110 -11.939  1.00  0.00     0.074 A 
ATOM     58  C   UNL     1       5.636  15.722  -9.351  1.00  0.00     0.029 A 
ATOM     59  N   UNL     1       5.250  13.559  -9.705  1.00  0.00    -0.354 N 
ATOM     60  N   UNL     1       4.472  11.216 -11.324  1.00  0.00    -0.248 NA
ATOM     61  C   UNL     1       3.619  10.316 -13.301  1.00  0.00     0.031 C 
ATOM     62  C   UNL     1       5.126  15.567 -10.644  1.00  0.00     0.029 A 
ATOM     63  C   UNL     1       4.912  14.217 -10.875  1.00  0.00     0.049 A 
ATOM     64  H   UNL     1       5.191  12.586  -9.566  1.00  0.00     0.167 HD
ATOM     65  C   UNL     1       4.250  12.243 -12.231  1.00  0.00     0.074 A 
ATOM     66  C   UNL     1       3.758  11.626 -13.445  1.00  0.00     0.031 C 
ATOM     67  C   UNL     1       4.434  13.578 -12.075  1.00  0.00     0.037 A 
BRANCH  54  68
ATOM     68  C   UNL     1       6.476  15.236  -6.478  1.00  0.00     0.064 A 
ATOM     69  C   UNL     1       7.798  15.407  -6.037  1.00  0.00     0.173 A 
ATOM     70  C   UNL     1       5.512  16.148  -6.022  1.00  0.00     0.173 A 
ATOM     71  F   UNL     1       8.756  14.554  -6.429  1.00  0.00    -0.203 F 
ATOM     72  C   UNL     1       8.133  16.425  -5.148  1.00  0.00     0.198 A 
ATOM     73  C   UNL     1       5.858  17.188  -5.162  1.00  0.00     0.198 A 
ATOM     74  F   UNL     1       4.234  16.035  -6.413  1.00  0.00    -0.203 F 
ATOM     75  F   UNL     1       9.390  16.529  -4.695  1.00  0.00    -0.200 F 
ATOM     76  C   UNL     1       7.165  17.319  -4.718  1.00  0.00     0.200 A 
ATOM     77  F   UNL     1       4.923  18.059  -4.757  1.00  0.00    -0.200 F 
ATOM     78  F   UNL     1       7.490  18.303  -3.868  1.00  0.00    -0.200 F 
ENDBRANCH  54  68
BRANCH  55  79
ATOM     79  C   UNL     1       3.763   7.558 -12.312  1.00  0.00     0.064 A 
ATOM     80  C   UNL     1       4.486   7.221 -13.466  1.00  0.00     0.173 A 
ATOM     81  C   UNL     1       2.626   6.794 -12.011  1.00  0.00     0.173 A 
ATOM     82  F   UNL     1       5.571   7.932 -13.807  1.00  0.00    -0.203 F 
ATOM     83  C   UNL     1       4.074   6.182 -14.298  1.00  0.00     0.198 A 
ATOM     84  C   UNL     1       2.233   5.735 -12.827  1.00  0.00     0.198 A 
ATOM     85  F   UNL     1       1.904   7.067 -10.915  1.00  0.00    -0.203 F 
ATOM     86  F   UNL     1       4.755   5.915 -15.421  1.00  0.00    -0.200 F 
ATOM     87  C   UNL     1       2.951   5.436 -13.975  1.00  0.00     0.200 A 
ATOM     88  F   UNL     1       1.157   5.005 -12.502  1.00  0.00    -0.200 F 
ATOM     89  F   UNL     1       2.557   4.434 -14.773  1.00  0.00    -0.200 F 
ENDBRANCH  55  79
BRANCH  67  90
ATOM     90  C   UNL     1       4.141  14.455 -13.257  1.00  0.00     0.064 A 
ATOM     91  C   UNL     1       2.830  14.687 -13.697  1.00  0.00     0.173 A 
ATOM     92  C   UNL     1       5.187  15.110 -13.927  1.00  0.00     0.173 A 
ATOM     93  F   UNL     1       1.798  14.074 -13.098  1.00  0.00    -0.203 F 
ATOM     94  C   UNL     1       2.579  15.520 -14.784  1.00  0.00     0.198 A 
ATOM     95  C   UNL     1       4.928  15.969 -14.991  1.00  0.00     0.198 A 
ATOM     96  F   UNL     1       6.458  14.929 -13.539  1.00  0.00    -0.203 F 
ATOM     97  F   UNL     1       1.323  15.687 -15.220  1.00  0.00    -0.200 F 
ATOM     98  C   UNL     1       3.626  16.166 -15.423  1.00  0.00     0.200 A 
ATOM     99  F   UNL     1       5.940  16.606 -15.596  1.00  0.00    -0.200 F 
ATOM    100  F   UNL     1       3.380  16.976 -16.462  1.00  0.00    -0.200 F 
ENDBRANCH  67  90
ENDBRANCH  41  42
ENDBRANCH  33  36
ENDBRANCH  31  32
ENDBRANCH  30  31
ENDBRANCH   1  30
TORSDOF 16
