REMARK SMILES O=Cc1c(OCc2ccc(C(=O)NCCCCNC(=O)c3ccc(-c4c5nc(c(-c6c(F)c(F)c(F)c(F)c6F)c6ccc([nH]6)c(-c6c(F)c(F)c(F)c(F)c6F)c6nc(c(-c7c(F)c(F)c(F)c(F)c7F)c7ccc4[nH]7)C=C6)C=C5)cc3)cc2)ccc2ccccc12
REMARK SMILES IDX 14 1 13 2 11 3 12 4 10 6 7 7 8 8 85 9 9 10 84 11 6 12 5 13
REMARK SMILES IDX 4 14 3 15 93 16 86 17 88 18 92 19 87 20 89 21 91 22 90 23
REMARK SMILES IDX 2 24 1 25 15 26 16 27 17 28 18 29 19 30 20 32 21 33 22 34
REMARK SMILES IDX 83 35 23 36 82 37 24 38 25 39 26 40 76 41 27 42 81 43 75 44
REMARK SMILES IDX 77 45 28 46 80 47 74 48 73 49 29 51 61 52 41 53 60 54 42 55
REMARK SMILES IDX 45 56 59 57 78 58 43 59 44 60 58 62 79 63 46 64 30 65 31 66
REMARK SMILES IDX 39 67 32 68 33 69 37 70 40 71 34 72 35 73 38 74 36 75 62 76
REMARK SMILES IDX 63 77 71 78 64 79 65 80 69 81 72 82 66 83 67 84 70 85 68 86
REMARK SMILES IDX 47 87 48 88 56 89 49 90 50 91 54 92 57 93 51 94 52 95 55 96
REMARK SMILES IDX 53 97
REMARK H PARENT 13 5 18 31 77 50 45 61
REMARK Flexibility Score: inf
ROOT
ATOM      1  C   UNL     1       7.027  -5.866  -2.920  1.00  0.00     0.116 C 
ENDROOT
BRANCH   1   2
ATOM      2  N   UNL     1       6.483  -7.131  -2.472  1.00  0.00    -0.352 N 
ATOM      3  C   UNL     1       5.276  -7.479  -1.919  1.00  0.00     0.251 C 
ATOM      4  O   UNL     1       5.104  -8.673  -1.667  1.00  0.00    -0.269 OA
ATOM      5  H   UNL     1       7.100  -7.890  -2.585  1.00  0.00     0.163 HD
BRANCH   3   6
ATOM      6  C   UNL     1       4.174  -6.513  -1.624  1.00  0.00     0.039 A 
ATOM      7  C   UNL     1       1.994  -4.840  -0.906  1.00  0.00    -0.011 A 
ATOM      8  C   UNL     1       1.819  -6.223  -1.038  1.00  0.00     0.008 A 
ATOM      9  C   UNL     1       3.247  -4.305  -1.214  1.00  0.00     0.008 A 
ATOM     10  C   UNL     1       2.894  -7.045  -1.404  1.00  0.00     0.014 A 
ATOM     11  C   UNL     1       4.332  -5.134  -1.501  1.00  0.00     0.014 A 
BRANCH   7  12
ATOM     12  C   UNL     1       0.856  -3.982  -0.380  1.00  0.00     0.265 C 
BRANCH  12  13
ATOM     13  O   UNL     1       1.186  -2.632  -0.023  1.00  0.00    -0.488 OA
BRANCH  13  14
ATOM     14  C   UNL     1       2.108  -2.373   0.959  1.00  0.00     0.130 A 
ATOM     15  C   UNL     1       2.672  -1.081   0.980  1.00  0.00     0.064 A 
ATOM     16  C   UNL     1       3.802  -0.773   1.792  1.00  0.00    -0.004 A 
ATOM     17  C   UNL     1       2.607  -3.340   1.829  1.00  0.00     0.048 A 
ATOM     18  C   UNL     1       4.340  -1.807   2.596  1.00  0.00    -0.017 A 
ATOM     19  C   UNL     1       4.436   0.495   1.854  1.00  0.00     0.009 A 
ATOM     20  C   UNL     1       3.723  -3.065   2.620  1.00  0.00     0.012 A 
ATOM     21  C   UNL     1       5.489  -1.576   3.370  1.00  0.00     0.009 A 
ATOM     22  C   UNL     1       5.572   0.712   2.638  1.00  0.00     0.001 A 
ATOM     23  C   UNL     1       6.105  -0.327   3.386  1.00  0.00     0.001 A 
BRANCH  15  24
ATOM     24  C   UNL     1       2.133  -0.044   0.066  1.00  0.00     0.264 C 
ATOM     25  O   UNL     1       0.937   0.129  -0.129  1.00  0.00    -0.298 OA
ENDBRANCH  15  24
ENDBRANCH  13  14
ENDBRANCH  12  13
ENDBRANCH   7  12
ENDBRANCH   3   6
ENDBRANCH   1   2
BRANCH   1  26
ATOM     26  C   UNL     1       7.830  -5.191  -1.804  1.00  0.00     0.023 C 
BRANCH  26  27
ATOM     27  C   UNL     1       9.277  -5.679  -1.695  1.00  0.00     0.023 C 
BRANCH  27  28
ATOM     28  C   UNL     1      10.144  -5.364  -2.909  1.00  0.00     0.116 C 
BRANCH  28  29
ATOM     29  N   UNL     1      10.239  -3.942  -3.200  1.00  0.00    -0.352 N 
ATOM     30  C   UNL     1      11.257  -3.272  -3.836  1.00  0.00     0.251 C 
ATOM     31  H   UNL     1       9.478  -3.391  -2.904  1.00  0.00     0.163 HD
ATOM     32  O   UNL     1      11.245  -2.052  -3.924  1.00  0.00    -0.269 OA
BRANCH  30  33
ATOM     33  C   UNL     1      12.398  -4.046  -4.364  1.00  0.00     0.039 A 
ATOM     34  C   UNL     1      13.690  -3.672  -3.992  1.00  0.00     0.014 A 
ATOM     35  C   UNL     1      12.188  -5.164  -5.176  1.00  0.00     0.014 A 
ATOM     36  C   UNL     1      14.772  -4.467  -4.373  1.00  0.00     0.010 A 
ATOM     37  C   UNL     1      13.259  -5.990  -5.500  1.00  0.00     0.010 A 
ATOM     38  C   UNL     1      14.559  -5.653  -5.094  1.00  0.00    -0.014 A 
BRANCH  38  39
ATOM     39  C   UNL     1      15.683  -6.565  -5.416  1.00  0.00     0.031 A 
ATOM     40  C   UNL     1      16.085  -6.793  -6.844  1.00  0.00     0.074 A 
ATOM     41  C   UNL     1      16.294  -7.239  -4.422  1.00  0.00     0.049 A 
ATOM     42  N   UNL     1      16.991  -7.604  -7.329  1.00  0.00    -0.248 NA
ATOM     43  C   UNL     1      15.354  -6.028  -7.867  1.00  0.00     0.031 C 
ATOM     44  C   UNL     1      15.956  -7.141  -3.001  1.00  0.00     0.029 A 
ATOM     45  N   UNL     1      17.319  -8.151  -4.457  1.00  0.00    -0.354 N 
ATOM     46  C   UNL     1      16.933  -7.452  -8.708  1.00  0.00     0.074 A 
ATOM     47  C   UNL     1      15.869  -6.513  -8.987  1.00  0.00     0.031 C 
ATOM     48  C   UNL     1      16.769  -7.946  -2.298  1.00  0.00     0.029 A 
ATOM     49  C   UNL     1      17.662  -8.642  -3.220  1.00  0.00     0.049 A 
ATOM     50  H   UNL     1      17.766  -8.428  -5.289  1.00  0.00     0.167 HD
ATOM     51  C   UNL     1      17.714  -8.027  -9.652  1.00  0.00     0.037 A 
ATOM     52  C   UNL     1      18.586  -9.557  -2.872  1.00  0.00     0.037 A 
ATOM     53  C   UNL     1      18.788  -8.943  -9.369  1.00  0.00     0.049 A 
ATOM     54  C   UNL     1      19.439 -10.180  -3.944  1.00  0.00     0.074 A 
ATOM     55  C   UNL     1      19.672  -9.537 -10.252  1.00  0.00     0.029 A 
ATOM     56  N   UNL     1      19.122  -9.398  -8.101  1.00  0.00    -0.354 N 
ATOM     57  N   UNL     1      19.421  -9.977  -5.239  1.00  0.00    -0.248 NA
ATOM     58  C   UNL     1      20.446 -11.156  -3.504  1.00  0.00     0.031 C 
ATOM     59  C   UNL     1      20.517 -10.381  -9.524  1.00  0.00     0.029 A 
ATOM     60  C   UNL     1      20.189 -10.278  -8.182  1.00  0.00     0.049 A 
ATOM     61  H   UNL     1      18.669  -9.133  -7.268  1.00  0.00     0.167 HD
ATOM     62  C   UNL     1      20.426 -10.776  -5.764  1.00  0.00     0.074 A 
ATOM     63  C   UNL     1      21.048 -11.456  -4.647  1.00  0.00     0.031 C 
ATOM     64  C   UNL     1      20.800 -10.937  -7.057  1.00  0.00     0.037 A 
BRANCH  51  65
ATOM     65  C   UNL     1      17.447  -7.672 -11.085  1.00  0.00     0.064 A 
ATOM     66  C   UNL     1      17.759  -6.403 -11.595  1.00  0.00     0.173 A 
ATOM     67  C   UNL     1      16.921  -8.624 -11.971  1.00  0.00     0.173 A 
ATOM     68  F   UNL     1      18.252  -5.453 -10.785  1.00  0.00    -0.203 F 
ATOM     69  C   UNL     1      17.533  -6.093 -12.933  1.00  0.00     0.198 A 
ATOM     70  C   UNL     1      16.723  -8.320 -13.315  1.00  0.00     0.198 A 
ATOM     71  F   UNL     1      16.610  -9.855 -11.536  1.00  0.00    -0.203 F 
ATOM     72  F   UNL     1      17.800  -4.860 -13.387  1.00  0.00    -0.200 F 
ATOM     73  C   UNL     1      17.024  -7.053 -13.793  1.00  0.00     0.200 A 
ATOM     74  F   UNL     1      16.242  -9.252 -14.149  1.00  0.00    -0.200 F 
ATOM     75  F   UNL     1      16.818  -6.756 -15.084  1.00  0.00    -0.200 F 
ENDBRANCH  51  65
BRANCH  52  76
ATOM     76  C   UNL     1      18.770  -9.927  -1.445  1.00  0.00     0.064 A 
ATOM     77  C   UNL     1      19.932  -9.562  -0.751  1.00  0.00     0.173 A 
ATOM     78  C   UNL     1      17.801 -10.665  -0.751  1.00  0.00     0.173 A 
ATOM     79  F   UNL     1      20.897  -8.873  -1.378  1.00  0.00    -0.203 F 
ATOM     80  C   UNL     1      20.130  -9.943   0.574  1.00  0.00     0.198 A 
ATOM     81  C   UNL     1      17.986 -11.022   0.583  1.00  0.00     0.198 A 
ATOM     82  F   UNL     1      16.668 -11.034  -1.368  1.00  0.00    -0.203 F 
ATOM     83  F   UNL     1      21.272  -9.625   1.198  1.00  0.00    -0.200 F 
ATOM     84  C   UNL     1      19.155 -10.669   1.242  1.00  0.00     0.200 A 
ATOM     85  F   UNL     1      17.036 -11.711   1.228  1.00  0.00    -0.200 F 
ATOM     86  F   UNL     1      19.345 -11.037   2.516  1.00  0.00    -0.200 F 
ENDBRANCH  52  76
BRANCH  64  87
ATOM     87  C   UNL     1      21.953 -11.857  -7.329  1.00  0.00     0.064 A 
ATOM     88  C   UNL     1      21.825 -13.248  -7.216  1.00  0.00     0.173 A 
ATOM     89  C   UNL     1      23.190 -11.341  -7.744  1.00  0.00     0.173 A 
ATOM     90  F   UNL     1      20.667 -13.788  -6.807  1.00  0.00    -0.203 F 
ATOM     91  C   UNL     1      22.901 -14.089  -7.487  1.00  0.00     0.198 A 
ATOM     92  C   UNL     1      24.255 -12.186  -8.041  1.00  0.00     0.198 A 
ATOM     93  F   UNL     1      23.362 -10.016  -7.873  1.00  0.00    -0.203 F 
ATOM     94  F   UNL     1      22.769 -15.414  -7.329  1.00  0.00    -0.200 F 
ATOM     95  C   UNL     1      24.112 -13.559  -7.906  1.00  0.00     0.200 A 
ATOM     96  F   UNL     1      25.421 -11.672  -8.458  1.00  0.00    -0.200 F 
ATOM     97  F   UNL     1      25.144 -14.371  -8.172  1.00  0.00    -0.200 F 
ENDBRANCH  64  87
ENDBRANCH  38  39
ENDBRANCH  30  33
ENDBRANCH  28  29
ENDBRANCH  27  28
ENDBRANCH  26  27
ENDBRANCH   1  26
TORSDOF 15
