REMARK SMILES O=C(NCCCCNC(=O)c1nnn(-c2cccc(C(F)(F)F)c2)c1[C@@H]1COc2ccccc2O1)c1ccc(-c2c3nc(c(-c4c(F)c(F)c(F)c(F)c4F)c4ccc([nH]4)c(-c4c(F)c(F)c(F)c(F)c4F)c4nc(c(-c5c(F)c(F)c(F)c(F)c5F)c5ccc2[nH]5)C=C4)C=C3)cc1
REMARK SMILES IDX 5 1 4 2 3 3 1 4 2 5 36 7 37 8 98 9 38 10 97 11 39 12 40 13
REMARK SMILES IDX 41 14 91 15 42 16 96 17 90 18 92 19 43 20 95 21 89 22 88 23
REMARK SMILES IDX 44 25 76 26 56 27 75 28 57 29 60 30 74 31 93 32 58 33 59 34
REMARK SMILES IDX 73 36 94 37 61 38 45 39 46 40 54 41 47 42 48 43 52 44 55 45
REMARK SMILES IDX 49 46 50 47 53 48 51 49 77 50 78 51 86 52 79 53 80 54 84 55
REMARK SMILES IDX 87 56 81 57 82 58 85 59 83 60 62 61 63 62 71 63 64 64 65 65
REMARK SMILES IDX 69 66 72 67 66 68 67 69 70 70 68 71 6 72 7 73 8 74 9 75
REMARK SMILES IDX 10 77 11 78 12 79 25 80 13 81 14 82 26 83 27 84 35 85 28 86
REMARK SMILES IDX 34 87 29 88 33 89 30 90 32 91 31 92 15 93 16 94 24 95 17 96
REMARK SMILES IDX 19 97 18 98 20 99 21 100 22 101 23 102
REMARK H PARENT 3 6 92 24 60 35 8 76
REMARK Flexibility Score: inf
ROOT
ATOM      1  C   UNL     1       5.495  -0.150   1.923  1.00  0.00     0.023 C 
ENDROOT
BRANCH   1   2
ATOM      2  C   UNL     1       5.055  -0.688   0.557  1.00  0.00     0.116 C 
BRANCH   2   3
ATOM      3  N   UNL     1       3.647  -1.023   0.441  1.00  0.00    -0.352 N 
ATOM      4  O   UNL     1       1.479  -0.979   0.010  1.00  0.00    -0.269 OA
ATOM      5  C   UNL     1       2.500  -0.313   0.202  1.00  0.00     0.251 C 
ATOM      6  H   UNL     1       3.477  -1.985   0.562  1.00  0.00     0.163 HD
BRANCH   5   7
ATOM      7  C   UNL     1       2.390   1.172   0.206  1.00  0.00     0.039 A 
ATOM      8  C   UNL     1       3.466   2.057   0.224  1.00  0.00     0.014 A 
ATOM      9  C   UNL     1       1.086   1.708   0.203  1.00  0.00     0.014 A 
ATOM     10  C   UNL     1       3.256   3.430   0.318  1.00  0.00     0.010 A 
ATOM     11  C   UNL     1       0.869   3.085   0.269  1.00  0.00     0.010 A 
ATOM     12  C   UNL     1       1.960   3.946   0.354  1.00  0.00    -0.014 A 
BRANCH  12  13
ATOM     13  C   UNL     1       1.822   5.400   0.385  1.00  0.00     0.031 A 
ATOM     14  C   UNL     1       2.299   6.145  -0.818  1.00  0.00     0.074 A 
ATOM     15  C   UNL     1       1.194   6.073   1.368  1.00  0.00     0.049 A 
ATOM     16  N   UNL     1       3.152   7.120  -0.881  1.00  0.00    -0.248 NA
ATOM     17  C   UNL     1       1.766   5.731  -2.124  1.00  0.00     0.031 C 
ATOM     18  C   UNL     1       0.391   5.527   2.462  1.00  0.00     0.029 A 
ATOM     19  N   UNL     1       1.064   7.424   1.520  1.00  0.00    -0.354 N 
ATOM     20  C   UNL     1       3.170   7.535  -2.213  1.00  0.00     0.074 A 
ATOM     21  C   UNL     1       2.353   6.601  -2.946  1.00  0.00     0.031 C 
ATOM     22  C   UNL     1      -0.311   6.531   3.033  1.00  0.00     0.029 A 
ATOM     23  C   UNL     1       0.086   7.793   2.426  1.00  0.00     0.049 A 
ATOM     24  H   UNL     1       1.615   8.075   1.029  1.00  0.00     0.167 HD
ATOM     25  C   UNL     1       3.737   8.708  -2.612  1.00  0.00     0.037 A 
ATOM     26  C   UNL     1      -0.419   9.035   2.610  1.00  0.00     0.037 A 
ATOM     27  C   UNL     1       4.651   9.237  -1.642  1.00  0.00     0.049 A 
ATOM     28  C   UNL     1       0.537  10.020   2.051  1.00  0.00     0.074 A 
ATOM     29  C   UNL     1       5.834   8.804  -1.077  1.00  0.00     0.029 A 
ATOM     30  N   UNL     1       4.266  10.321  -0.897  1.00  0.00    -0.354 N 
ATOM     31  N   UNL     1       1.692  10.315   2.576  1.00  0.00    -0.248 NA
ATOM     32  C   UNL     1       0.346  10.462   0.677  1.00  0.00     0.031 C 
ATOM     33  C   UNL     1       5.838   9.342   0.243  1.00  0.00     0.029 A 
ATOM     34  C   UNL     1       4.656  10.067   0.392  1.00  0.00     0.049 A 
ATOM     35  H   UNL     1       3.801  11.125  -1.224  1.00  0.00     0.167 HD
ATOM     36  C   UNL     1       2.507  10.607   1.495  1.00  0.00     0.074 A 
ATOM     37  C   UNL     1       1.598  10.810   0.375  1.00  0.00     0.031 C 
ATOM     38  C   UNL     1       3.852  10.381   1.546  1.00  0.00     0.037 A 
BRANCH  25  39
ATOM     39  C   UNL     1       3.263   9.528  -3.783  1.00  0.00     0.064 A 
ATOM     40  C   UNL     1       4.075  10.559  -4.295  1.00  0.00     0.173 A 
ATOM     41  C   UNL     1       1.923   9.526  -4.224  1.00  0.00     0.173 A 
ATOM     42  F   UNL     1       5.356  10.673  -3.913  1.00  0.00    -0.203 F 
ATOM     43  C   UNL     1       3.567  11.547  -5.143  1.00  0.00     0.198 A 
ATOM     44  C   UNL     1       1.432  10.483  -5.111  1.00  0.00     0.198 A 
ATOM     45  F   UNL     1       1.023   8.666  -3.728  1.00  0.00    -0.203 F 
ATOM     46  F   UNL     1       4.346  12.572  -5.515  1.00  0.00    -0.200 F 
ATOM     47  C   UNL     1       2.245  11.509  -5.549  1.00  0.00     0.200 A 
ATOM     48  F   UNL     1       0.143  10.444  -5.477  1.00  0.00    -0.200 F 
ATOM     49  F   UNL     1       1.742  12.483  -6.318  1.00  0.00    -0.200 F 
ENDBRANCH  25  39
BRANCH  26  50
ATOM     50  C   UNL     1      -1.790   9.409   3.020  1.00  0.00     0.064 A 
ATOM     51  C   UNL     1      -2.075  10.684   3.531  1.00  0.00     0.173 A 
ATOM     52  C   UNL     1      -2.897   8.604   2.685  1.00  0.00     0.173 A 
ATOM     53  F   UNL     1      -1.078  11.531   3.826  1.00  0.00    -0.203 F 
ATOM     54  C   UNL     1      -3.390  11.132   3.688  1.00  0.00     0.198 A 
ATOM     55  C   UNL     1      -4.208   9.046   2.856  1.00  0.00     0.198 A 
ATOM     56  F   UNL     1      -2.729   7.410   2.100  1.00  0.00    -0.203 F 
ATOM     57  F   UNL     1      -3.623  12.377   4.123  1.00  0.00    -0.200 F 
ATOM     58  C   UNL     1      -4.455  10.314   3.345  1.00  0.00     0.200 A 
ATOM     59  F   UNL     1      -5.228   8.258   2.487  1.00  0.00    -0.200 F 
ATOM     60  F   UNL     1      -5.714  10.762   3.448  1.00  0.00    -0.200 F 
ENDBRANCH  26  50
BRANCH  38  61
ATOM     61  C   UNL     1       4.468  10.135   2.890  1.00  0.00     0.064 A 
ATOM     62  C   UNL     1       4.149   9.033   3.700  1.00  0.00     0.173 A 
ATOM     63  C   UNL     1       5.516  10.967   3.308  1.00  0.00     0.173 A 
ATOM     64  F   UNL     1       3.237   8.132   3.310  1.00  0.00    -0.203 F 
ATOM     65  C   UNL     1       4.813   8.809   4.904  1.00  0.00     0.198 A 
ATOM     66  C   UNL     1       6.203  10.719   4.493  1.00  0.00     0.198 A 
ATOM     67  F   UNL     1       5.907  11.996   2.540  1.00  0.00    -0.203 F 
ATOM     68  F   UNL     1       4.480   7.759   5.669  1.00  0.00    -0.200 F 
ATOM     69  C   UNL     1       5.842   9.649   5.297  1.00  0.00     0.200 A 
ATOM     70  F   UNL     1       7.234  11.502   4.843  1.00  0.00    -0.200 F 
ATOM     71  F   UNL     1       6.508   9.410   6.435  1.00  0.00    -0.200 F 
ENDBRANCH  38  61
ENDBRANCH  12  13
ENDBRANCH   5   7
ENDBRANCH   2   3
ENDBRANCH   1   2
BRANCH   1  72
ATOM     72  C   UNL     1       5.133  -1.015   3.125  1.00  0.00     0.023 C 
BRANCH  72  73
ATOM     73  C   UNL     1       5.568  -2.473   3.063  1.00  0.00     0.116 C 
BRANCH  73  74
ATOM     74  N   UNL     1       6.872  -2.762   3.587  1.00  0.00    -0.351 N 
ATOM     75  C   UNL     1       7.399  -3.741   4.410  1.00  0.00     0.273 C 
ATOM     76  H   UNL     1       7.550  -2.112   3.292  1.00  0.00     0.163 HD
ATOM     77  O   UNL     1       8.609  -3.622   4.567  1.00  0.00    -0.267 OA
BRANCH  75  78
ATOM     78  C   UNL     1       6.672  -4.843   5.094  1.00  0.00     0.178 A 
ATOM     79  N   UNL     1       7.391  -5.470   6.105  1.00  0.00    -0.124 NA
ATOM     80  C   UNL     1       5.406  -5.447   5.056  1.00  0.00     0.122 A 
ATOM     81  N   UNL     1       6.632  -6.369   6.699  1.00  0.00    -0.061 NA
ATOM     82  N   UNL     1       5.484  -6.453   6.014  1.00  0.00    -0.213 N 
BRANCH  80  83
ATOM     83  C   UNL     1       4.121  -5.063   4.386  1.00  0.00     0.262 C 
ATOM     84  C   UNL     1       3.405  -3.963   5.205  1.00  0.00     0.281 C 
ATOM     85  O   UNL     1       3.287  -6.178   4.045  1.00  0.00    -0.477 OA
ATOM     86  O   UNL     1       2.619  -4.508   6.262  1.00  0.00    -0.485 OA
ATOM     87  C   UNL     1       2.019  -6.112   4.565  1.00  0.00     0.162 A 
ATOM     88  C   UNL     1       1.702  -5.345   5.689  1.00  0.00     0.161 A 
ATOM     89  C   UNL     1       1.039  -6.901   3.975  1.00  0.00     0.050 A 
ATOM     90  C   UNL     1       0.440  -5.403   6.264  1.00  0.00     0.050 A 
ATOM     91  C   UNL     1      -0.248  -6.927   4.519  1.00  0.00     0.004 A 
ATOM     92  C   UNL     1      -0.542  -6.191   5.670  1.00  0.00     0.004 A 
ENDBRANCH  80  83
BRANCH  82  93
ATOM     93  C   UNL     1       4.561  -7.463   6.335  1.00  0.00     0.067 A 
ATOM     94  C   UNL     1       3.855  -7.389   7.537  1.00  0.00     0.028 A 
ATOM     95  C   UNL     1       4.301  -8.474   5.402  1.00  0.00     0.041 A 
ATOM     96  C   UNL     1       2.808  -8.282   7.761  1.00  0.00     0.003 A 
ATOM     97  C   UNL     1       3.263  -9.386   5.635  1.00  0.00     0.058 A 
ATOM     98  C   UNL     1       2.504  -9.263   6.811  1.00  0.00     0.013 A 
BRANCH  97  99
ATOM     99  C   UNL     1       2.912 -10.428   4.604  1.00  0.00     0.416 C 
ATOM    100  F   UNL     1       2.617 -11.640   5.152  1.00  0.00    -0.166 F 
ATOM    101  F   UNL     1       1.824 -10.081   3.860  1.00  0.00    -0.166 F 
ATOM    102  F   UNL     1       3.913 -10.660   3.708  1.00  0.00    -0.166 F 
ENDBRANCH  97  99
ENDBRANCH  82  93
ENDBRANCH  75  78
ENDBRANCH  73  74
ENDBRANCH  72  73
ENDBRANCH   1  72
TORSDOF 14
