REMARK SMILES COc1ccccc1[C@@H]1CN(C(=O)Cc2csc(C)n2)C[C@H]1C(=O)NCCCCNC(=O)c1ccc(-c2c3nc(c(-c4c(F)c(F)c(F)c(F)c4F)c4ccc([nH]4)c(-c4c(F)c(F)c(F)c(F)c4F)c4nc(c(-c5c(F)c(F)c(F)c(F)c5F)c5ccc2[nH]5)C=C4)C=C3)cc1
REMARK SMILES IDX 27 1 26 2 25 3 23 4 24 5 22 7 9 8 10 9 11 10 21 11 8 12 3 13
REMARK SMILES IDX 4 14 5 15 7 16 6 17 2 18 1 19 12 20 13 21 14 22 15 23 16 24
REMARK SMILES IDX 20 25 17 26 18 27 19 28 28 29 29 30 30 31 31 32 32 34 33 35
REMARK SMILES IDX 34 36 95 37 35 38 94 39 36 40 37 41 38 42 88 43 39 44 93 45
REMARK SMILES IDX 87 46 89 47 40 48 92 49 86 50 85 51 41 53 73 54 53 55 72 56
REMARK SMILES IDX 54 57 57 58 71 59 90 60 55 61 56 62 70 64 91 65 58 66 42 67
REMARK SMILES IDX 43 68 51 69 44 70 45 71 49 72 52 73 46 74 47 75 50 76 48 77
REMARK SMILES IDX 74 78 75 79 83 80 76 81 77 82 81 83 84 84 78 85 79 86 82 87
REMARK SMILES IDX 80 88 59 89 60 90 68 91 61 92 62 93 66 94 69 95 63 96 64 97
REMARK SMILES IDX 67 98 65 99
REMARK H PARENT 25 6 30 33 89 52 57 63
REMARK Flexibility Score: inf
ROOT
ATOM      1  C   UNL     1       6.281   0.669  -3.015  1.00  0.00     0.023 C 
ENDROOT
BRANCH   1   2
ATOM      2  C   UNL     1       5.746   1.312  -1.737  1.00  0.00     0.116 C 
BRANCH   2   3
ATOM      3  N   UNL     1       4.590   2.147  -2.002  1.00  0.00    -0.356 N 
ATOM      4  C   UNL     1       3.281   1.996  -1.670  1.00  0.00     0.225 C 
ATOM      5  O   UNL     1       2.502   2.879  -2.040  1.00  0.00    -0.275 OA
ATOM      6  H   UNL     1       4.788   2.966  -2.511  1.00  0.00     0.163 HD
BRANCH   4   7
ATOM      7  C   UNL     1       2.769   0.820  -0.858  1.00  0.00     0.107 C 
ATOM      8  C   UNL     1       2.990  -0.558  -1.511  1.00  0.00     0.057 C 
ATOM      9  C   UNL     1       3.362  -1.486  -0.351  1.00  0.00     0.128 C 
ATOM     10  N   UNL     1       3.938  -0.602   0.650  1.00  0.00    -0.341 N 
ATOM     11  C   UNL     1       3.424   0.750   0.518  1.00  0.00     0.133 C 
BRANCH   8  12
ATOM     12  C   UNL     1       1.867  -1.025  -2.412  1.00  0.00    -0.000 A 
ATOM     13  C   UNL     1       0.617  -1.466  -1.953  1.00  0.00     0.122 A 
ATOM     14  C   UNL     1      -0.359  -1.918  -2.845  1.00  0.00     0.047 A 
ATOM     15  C   UNL     1      -0.111  -1.914  -4.217  1.00  0.00     0.004 A 
ATOM     16  C   UNL     1       2.090  -1.015  -3.804  1.00  0.00     0.008 A 
ATOM     17  C   UNL     1       1.114  -1.461  -4.697  1.00  0.00     0.001 A 
BRANCH  13  18
ATOM     18  O   UNL     1       0.368  -1.586  -0.613  1.00  0.00    -0.496 OA
ATOM     19  C   UNL     1      -0.387  -0.493  -0.095  1.00  0.00     0.278 C 
ENDBRANCH  13  18
ENDBRANCH   8  12
BRANCH  10  20
ATOM     20  C   UNL     1       4.771  -0.947   1.693  1.00  0.00     0.228 C 
ATOM     21  O   UNL     1       5.168  -0.102   2.499  1.00  0.00    -0.274 OA
BRANCH  20  22
ATOM     22  C   UNL     1       5.206  -2.396   1.810  1.00  0.00     0.157 C 
BRANCH  22  23
ATOM     23  C   UNL     1       4.105  -3.314   2.230  1.00  0.00     0.061 A 
ATOM     24  C   UNL     1       2.932  -2.993   2.891  1.00  0.00     0.091 A 
ATOM     25  N   UNL     1       4.244  -4.664   1.936  1.00  0.00    -0.246 NA
ATOM     26  S   UNL     1       1.976  -4.393   3.121  1.00  0.00    -0.127 S 
ATOM     27  C   UNL     1       3.200  -5.335   2.373  1.00  0.00     0.090 A 
ATOM     28  C   UNL     1       3.038  -6.809   2.252  1.00  0.00     0.079 C 
ENDBRANCH  22  23
ENDBRANCH  20  22
ENDBRANCH  10  20
ENDBRANCH   4   7
ENDBRANCH   2   3
ENDBRANCH   1   2
BRANCH   1  29
ATOM     29  C   UNL     1       6.847   1.658  -4.031  1.00  0.00     0.023 C 
BRANCH  29  30
ATOM     30  C   UNL     1       7.887   2.619  -3.473  1.00  0.00     0.116 C 
BRANCH  30  31
ATOM     31  N   UNL     1       9.009   1.945  -2.837  1.00  0.00    -0.352 N 
ATOM     32  C   UNL     1      10.337   2.304  -2.868  1.00  0.00     0.251 C 
ATOM     33  H   UNL     1       8.792   1.135  -2.321  1.00  0.00     0.163 HD
ATOM     34  O   UNL     1      11.200   1.600  -2.370  1.00  0.00    -0.269 OA
BRANCH  32  35
ATOM     35  C   UNL     1      10.696   3.552  -3.567  1.00  0.00     0.039 A 
ATOM     36  C   UNL     1      11.597   3.494  -4.631  1.00  0.00     0.014 A 
ATOM     37  C   UNL     1      10.049   4.744  -3.233  1.00  0.00     0.014 A 
ATOM     38  C   UNL     1      11.793   4.627  -5.420  1.00  0.00     0.010 A 
ATOM     39  C   UNL     1      10.190   5.847  -4.062  1.00  0.00     0.010 A 
ATOM     40  C   UNL     1      11.058   5.796  -5.166  1.00  0.00    -0.014 A 
BRANCH  40  41
ATOM     41  C   UNL     1      11.166   6.988  -6.041  1.00  0.00     0.031 A 
ATOM     42  C   UNL     1      11.695   8.274  -5.478  1.00  0.00     0.074 A 
ATOM     43  C   UNL     1      10.682   6.941  -7.296  1.00  0.00     0.049 A 
ATOM     44  N   UNL     1      11.735   9.463  -6.022  1.00  0.00    -0.248 NA
ATOM     45  C   UNL     1      12.211   8.221  -4.102  1.00  0.00     0.031 C 
ATOM     46  C   UNL     1      10.088   5.765  -7.932  1.00  0.00     0.029 A 
ATOM     47  N   UNL     1      10.590   7.920  -8.254  1.00  0.00    -0.354 N 
ATOM     48  C   UNL     1      12.245  10.304  -5.043  1.00  0.00     0.074 A 
ATOM     49  C   UNL     1      12.458   9.499  -3.859  1.00  0.00     0.031 C 
ATOM     50  C   UNL     1       9.697   6.089  -9.175  1.00  0.00     0.029 A 
ATOM     51  C   UNL     1       9.981   7.501  -9.410  1.00  0.00     0.049 A 
ATOM     52  H   UNL     1      10.928   8.836  -8.123  1.00  0.00     0.167 HD
ATOM     53  C   UNL     1      12.526  11.625  -5.131  1.00  0.00     0.037 A 
ATOM     54  C   UNL     1       9.673   8.185 -10.529  1.00  0.00     0.037 A 
ATOM     55  C   UNL     1      12.350  12.408  -6.325  1.00  0.00     0.049 A 
ATOM     56  C   UNL     1      10.032   9.642 -10.620  1.00  0.00     0.074 A 
ATOM     57  C   UNL     1      12.687  13.731  -6.548  1.00  0.00     0.029 A 
ATOM     58  N   UNL     1      11.784  11.934  -7.500  1.00  0.00    -0.354 N 
ATOM     59  N   UNL     1      10.583  10.415  -9.716  1.00  0.00    -0.248 NA
ATOM     60  C   UNL     1       9.733  10.321 -11.888  1.00  0.00     0.031 C 
ATOM     61  C   UNL     1      12.290  14.069  -7.846  1.00  0.00     0.029 A 
ATOM     62  C   UNL     1      11.746  12.945  -8.447  1.00  0.00     0.049 A 
ATOM     63  H   UNL     1      11.458  11.016  -7.641  1.00  0.00     0.167 HD
ATOM     64  C   UNL     1      10.719  11.662 -10.309  1.00  0.00     0.074 A 
ATOM     65  C   UNL     1      10.201  11.540 -11.656  1.00  0.00     0.031 C 
ATOM     66  C   UNL     1      11.229  12.803  -9.785  1.00  0.00     0.037 A 
BRANCH  53  67
ATOM     67  C   UNL     1      13.047  12.300  -3.896  1.00  0.00     0.064 A 
ATOM     68  C   UNL     1      14.324  12.021  -3.385  1.00  0.00     0.173 A 
ATOM     69  C   UNL     1      12.258  13.237  -3.213  1.00  0.00     0.173 A 
ATOM     70  F   UNL     1      15.113  11.123  -3.994  1.00  0.00    -0.203 F 
ATOM     71  C   UNL     1      14.775  12.624  -2.214  1.00  0.00     0.198 A 
ATOM     72  C   UNL     1      12.724  13.861  -2.059  1.00  0.00     0.198 A 
ATOM     73  F   UNL     1      11.031  13.543  -3.661  1.00  0.00    -0.203 F 
ATOM     74  F   UNL     1      15.972  12.293  -1.710  1.00  0.00    -0.200 F 
ATOM     75  C   UNL     1      13.976  13.546  -1.554  1.00  0.00     0.200 A 
ATOM     76  F   UNL     1      11.956  14.760  -1.429  1.00  0.00    -0.200 F 
ATOM     77  F   UNL     1      14.410  14.122  -0.425  1.00  0.00    -0.200 F 
ENDBRANCH  53  67
BRANCH  54  78
ATOM     78  C   UNL     1       9.014   7.482 -11.658  1.00  0.00     0.064 A 
ATOM     79  C   UNL     1       9.727   7.171 -12.824  1.00  0.00     0.173 A 
ATOM     80  C   UNL     1       7.674   7.077 -11.583  1.00  0.00     0.173 A 
ATOM     81  F   UNL     1      11.006   7.555 -12.947  1.00  0.00    -0.203 F 
ATOM     82  C   UNL     1       9.122   6.488 -13.876  1.00  0.00     0.198 A 
ATOM     83  C   UNL     1       7.076   6.373 -12.626  1.00  0.00     0.198 A 
ATOM     84  F   UNL     1       6.952   7.344 -10.484  1.00  0.00    -0.203 F 
ATOM     85  F   UNL     1       9.818   6.226 -14.990  1.00  0.00    -0.200 F 
ATOM     86  C   UNL     1       7.799   6.082 -13.773  1.00  0.00     0.200 A 
ATOM     87  F   UNL     1       5.803   5.970 -12.518  1.00  0.00    -0.200 F 
ATOM     88  F   UNL     1       7.222   5.413 -14.780  1.00  0.00    -0.200 F 
ENDBRANCH  54  78
BRANCH  66  89
ATOM     89  C   UNL     1      11.281  14.006 -10.679  1.00  0.00     0.064 A 
ATOM     90  C   UNL     1      10.125  14.729 -11.006  1.00  0.00     0.173 A 
ATOM     91  C   UNL     1      12.511  14.472 -11.169  1.00  0.00     0.173 A 
ATOM     92  F   UNL     1       8.925  14.315 -10.574  1.00  0.00    -0.203 F 
ATOM     93  C   UNL     1      10.197  15.866 -11.806  1.00  0.00     0.198 A 
ATOM     94  C   UNL     1      12.582  15.623 -11.947  1.00  0.00     0.198 A 
ATOM     95  F   UNL     1      13.646  13.817 -10.879  1.00  0.00    -0.203 F 
ATOM     96  F   UNL     1       9.076  16.521 -12.138  1.00  0.00    -0.200 F 
ATOM     97  C   UNL     1      11.425  16.316 -12.269  1.00  0.00     0.200 A 
ATOM     98  F   UNL     1      13.770  16.063 -12.383  1.00  0.00    -0.200 F 
ATOM     99  F   UNL     1      11.493  17.417 -13.031  1.00  0.00    -0.200 F 
ENDBRANCH  66  89
ENDBRANCH  40  41
ENDBRANCH  32  35
ENDBRANCH  30  31
ENDBRANCH  29  30
ENDBRANCH   1  29
TORSDOF 16
