REMARK SMILES Cc1cc(NC(=O)COc2cc(C)c(Cl)c(C)c2)cc(C(=O)NCCCCNC(=O)c2ccc(-c3c4nc(c(-c5c(F)c(F)c(F)c(F)c5F)c5ccc([nH]5)c(-c5c(F)c(F)c(F)c(F)c5F)c5nc(c(-c6c(F)c(F)c(F)c(F)c6F)c6ccc3[nH]6)C=C5)C=C4)cc2)c1O
REMARK SMILES IDX 24 1 23 2 21 3 22 4 20 6 1 7 2 8 3 9 94 10 4 11 19 12 95 13
REMARK SMILES IDX 5 15 6 16 7 18 8 19 9 20 10 21 11 22 18 23 12 24 16 25 13 26
REMARK SMILES IDX 14 27 17 28 15 29 25 30 26 31 27 32 28 33 29 34 30 36 31 37
REMARK SMILES IDX 32 38 93 39 33 40 92 41 34 42 35 43 36 44 86 45 37 46 91 47
REMARK SMILES IDX 85 48 87 49 38 50 90 51 84 52 83 53 39 55 71 56 51 57 70 58
REMARK SMILES IDX 52 59 55 60 69 61 88 62 53 63 54 64 68 66 89 67 56 68 40 69
REMARK SMILES IDX 41 70 49 71 42 72 43 73 47 74 50 75 44 76 45 77 48 78 46 79
REMARK SMILES IDX 72 80 73 81 81 82 74 83 75 84 79 85 82 86 76 87 77 88 80 89
REMARK SMILES IDX 78 90 57 91 58 92 66 93 59 94 60 95 64 96 67 97 61 98 62 99
REMARK SMILES IDX 65 100 63 101
REMARK H PARENT 23 5 95 14 5 17 28 35 87 54 55 65
REMARK Flexibility Score: inf
ROOT
ATOM      1  C   UNL     1       2.682   3.772   0.626  1.00  0.00     0.116 C 
ENDROOT
BRANCH   1   2
ATOM      2  N   UNL     1       1.236   3.772   0.557  1.00  0.00    -0.352 N 
ATOM      3  C   UNL     1       0.235   2.841   0.417  1.00  0.00     0.255 C 
ATOM      4  O   UNL     1      -0.887   3.350   0.475  1.00  0.00    -0.269 OA
ATOM      5  H   UNL     1       0.873   4.683   0.629  1.00  0.00     0.163 HD
BRANCH   3   6
ATOM      6  C   UNL     1       0.405   1.346   0.234  1.00  0.00     0.083 A 
ATOM      7  C   UNL     1      -1.859  -1.748  -0.236  1.00  0.00     0.048 C 
ATOM      8  C   UNL     1      -0.655  -0.867  -0.045  1.00  0.00    -0.006 A 
ATOM      9  C   UNL     1       0.604  -1.466   0.052  1.00  0.00     0.033 A 
ATOM     10  C   UNL     1      -0.742   0.536   0.031  1.00  0.00     0.131 A 
ATOM     11  C   UNL     1       1.764  -0.700   0.186  1.00  0.00     0.042 A 
ATOM     12  C   UNL     1       1.648   0.691   0.295  1.00  0.00     0.043 A 
BRANCH  10  13
ATOM     13  O   UNL     1      -1.970   1.126  -0.117  1.00  0.00    -0.507 OA
ATOM     14  H   UNL     1      -2.731   0.596  -0.251  1.00  0.00     0.293 HD
ENDBRANCH  10  13
BRANCH  11  15
ATOM     15  N   UNL     1       2.965  -1.429   0.244  1.00  0.00    -0.323 N 
ATOM     16  C   UNL     1       4.281  -1.118   0.082  1.00  0.00     0.262 C 
ATOM     17  H   UNL     1       2.822  -2.382   0.448  1.00  0.00     0.170 HD
ATOM     18  O   UNL     1       5.105  -2.014   0.308  1.00  0.00    -0.271 OA
BRANCH  16  19
ATOM     19  C   UNL     1       4.764   0.248  -0.387  1.00  0.00     0.329 C 
BRANCH  19  20
ATOM     20  O   UNL     1       4.043   0.844  -1.453  1.00  0.00    -0.484 OA
BRANCH  20  21
ATOM     21  C   UNL     1       4.464   0.567  -2.720  1.00  0.00     0.120 A 
ATOM     22  C   UNL     1       4.925  -0.672  -3.149  1.00  0.00     0.051 A 
ATOM     23  C   UNL     1       4.342   1.613  -3.636  1.00  0.00     0.051 A 
ATOM     24  C   UNL     1       5.286  -0.872  -4.492  1.00  0.00    -0.029 A 
ATOM     25  C   UNL     1       4.715   1.455  -4.977  1.00  0.00    -0.029 A 
ATOM     26  C   UNL     1       5.753  -2.237  -4.920  1.00  0.00     0.046 C 
ATOM     27  C   UNL     1       5.186   0.201  -5.401  1.00  0.00     0.047 A 
ATOM     28  C   UNL     1       4.591   2.628  -5.910  1.00  0.00     0.046 C 
ATOM     29  Cl  UNL     1       5.638  -0.030  -7.060  1.00  0.00    -0.084 Cl
ENDBRANCH  20  21
ENDBRANCH  19  20
ENDBRANCH  16  19
ENDBRANCH  11  15
ENDBRANCH   3   6
ENDBRANCH   1   2
BRANCH   1  30
ATOM     30  C   UNL     1       3.320   3.809  -0.759  1.00  0.00     0.023 C 
BRANCH  30  31
ATOM     31  C   UNL     1       3.711   5.203  -1.258  1.00  0.00     0.023 C 
BRANCH  31  32
ATOM     32  C   UNL     1       4.761   5.915  -0.410  1.00  0.00     0.116 C 
BRANCH  32  33
ATOM     33  N   UNL     1       6.004   5.174  -0.233  1.00  0.00    -0.352 N 
ATOM     34  C   UNL     1       7.245   5.675   0.098  1.00  0.00     0.251 C 
ATOM     35  H   UNL     1       5.951   4.200  -0.366  1.00  0.00     0.163 HD
ATOM     36  O   UNL     1       8.224   4.946   0.170  1.00  0.00    -0.269 OA
BRANCH  34  37
ATOM     37  C   UNL     1       7.379   7.133   0.297  1.00  0.00     0.039 A 
ATOM     38  C   UNL     1       8.293   7.837  -0.490  1.00  0.00     0.014 A 
ATOM     39  C   UNL     1       6.517   7.808   1.163  1.00  0.00     0.014 A 
ATOM     40  C   UNL     1       8.266   9.232  -0.489  1.00  0.00     0.010 A 
ATOM     41  C   UNL     1       6.437   9.193   1.102  1.00  0.00     0.010 A 
ATOM     42  C   UNL     1       7.296   9.918   0.261  1.00  0.00    -0.014 A 
BRANCH  42  43
ATOM     43  C   UNL     1       7.129  11.389   0.156  1.00  0.00     0.031 A 
ATOM     44  C   UNL     1       7.322  12.254   1.368  1.00  0.00     0.074 A 
ATOM     45  C   UNL     1       6.696  11.930  -1.000  1.00  0.00     0.049 A 
ATOM     46  N   UNL     1       7.096  13.534   1.516  1.00  0.00    -0.248 NA
ATOM     47  C   UNL     1       7.794  11.581   2.588  1.00  0.00     0.031 C 
ATOM     48  C   UNL     1       6.404  11.187  -2.228  1.00  0.00     0.029 A 
ATOM     49  N   UNL     1       6.408  13.232  -1.325  1.00  0.00    -0.354 N 
ATOM     50  C   UNL     1       7.364  13.811   2.849  1.00  0.00     0.074 A 
ATOM     51  C   UNL     1       7.727  12.559   3.478  1.00  0.00     0.031 C 
ATOM     52  C   UNL     1       6.002  12.047  -3.178  1.00  0.00     0.029 A 
ATOM     53  C   UNL     1       5.975  13.394  -2.618  1.00  0.00     0.049 A 
ATOM     54  H   UNL     1       6.503  13.979  -0.691  1.00  0.00     0.167 HD
ATOM     55  C   UNL     1       7.330  15.005   3.487  1.00  0.00     0.037 A 
ATOM     56  C   UNL     1       5.596  14.506  -3.277  1.00  0.00     0.037 A 
ATOM     57  C   UNL     1       7.020  16.255   2.847  1.00  0.00     0.049 A 
ATOM     58  C   UNL     1       5.623  15.828  -2.562  1.00  0.00     0.074 A 
ATOM     59  C   UNL     1       7.033  17.529   3.387  1.00  0.00     0.029 A 
ATOM     60  N   UNL     1       6.651  16.387   1.516  1.00  0.00    -0.354 N 
ATOM     61  N   UNL     1       5.940  16.088  -1.317  1.00  0.00    -0.248 NA
ATOM     62  C   UNL     1       5.245  17.014  -3.345  1.00  0.00     0.031 C 
ATOM     63  C   UNL     1       6.649  18.431   2.389  1.00  0.00     0.029 A 
ATOM     64  C   UNL     1       6.429  17.722   1.219  1.00  0.00     0.049 A 
ATOM     65  H   UNL     1       6.559  15.643   0.878  1.00  0.00     0.167 HD
ATOM     66  C   UNL     1       5.829  17.463  -1.174  1.00  0.00     0.074 A 
ATOM     67  C   UNL     1       5.421  17.987  -2.462  1.00  0.00     0.031 C 
ATOM     68  C   UNL     1       6.045  18.224  -0.074  1.00  0.00     0.037 A 
BRANCH  55  69
ATOM     69  C   UNL     1       7.651  15.013   4.951  1.00  0.00     0.064 A 
ATOM     70  C   UNL     1       8.956  14.793   5.417  1.00  0.00     0.173 A 
ATOM     71  C   UNL     1       6.647  15.262   5.899  1.00  0.00     0.173 A 
ATOM     72  F   UNL     1       9.947  14.537   4.550  1.00  0.00    -0.203 F 
ATOM     73  C   UNL     1       9.238  14.790   6.780  1.00  0.00     0.198 A 
ATOM     74  C   UNL     1       6.939  15.285   7.260  1.00  0.00     0.198 A 
ATOM     75  F   UNL     1       5.383  15.482   5.505  1.00  0.00    -0.203 F 
ATOM     76  F   UNL     1      10.482  14.525   7.204  1.00  0.00    -0.200 F 
ATOM     77  C   UNL     1       8.231  15.041   7.700  1.00  0.00     0.200 A 
ATOM     78  F   UNL     1       5.967  15.537   8.148  1.00  0.00    -0.200 F 
ATOM     79  F   UNL     1       8.505  15.039   9.011  1.00  0.00    -0.200 F 
ENDBRANCH  55  69
BRANCH  56  80
ATOM     80  C   UNL     1       5.202  14.422  -4.706  1.00  0.00     0.064 A 
ATOM     81  C   UNL     1       6.051  14.912  -5.709  1.00  0.00     0.173 A 
ATOM     82  C   UNL     1       3.984  13.853  -5.100  1.00  0.00     0.173 A 
ATOM     83  F   UNL     1       7.218  15.482  -5.378  1.00  0.00    -0.203 F 
ATOM     84  C   UNL     1       5.687  14.852  -7.052  1.00  0.00     0.198 A 
ATOM     85  C   UNL     1       3.630  13.773  -6.446  1.00  0.00     0.198 A 
ATOM     86  F   UNL     1       3.141  13.365  -4.178  1.00  0.00    -0.203 F 
ATOM     87  F   UNL     1       6.499  15.361  -7.988  1.00  0.00    -0.200 F 
ATOM     88  C   UNL     1       4.479  14.278  -7.420  1.00  0.00     0.200 A 
ATOM     89  F   UNL     1       2.468  13.208  -6.799  1.00  0.00    -0.200 F 
ATOM     90  F   UNL     1       4.130  14.217  -8.712  1.00  0.00    -0.200 F 
ENDBRANCH  56  80
BRANCH  68  91
ATOM     91  C   UNL     1       5.889  19.707  -0.223  1.00  0.00     0.064 A 
ATOM     92  C   UNL     1       4.625  20.307  -0.296  1.00  0.00     0.173 A 
ATOM     93  C   UNL     1       7.018  20.538  -0.237  1.00  0.00     0.173 A 
ATOM     94  F   UNL     1       3.517  19.550  -0.301  1.00  0.00    -0.203 F 
ATOM     95  C   UNL     1       4.497  21.690  -0.392  1.00  0.00     0.198 A 
ATOM     96  C   UNL     1       6.886  21.922  -0.311  1.00  0.00     0.198 A 
ATOM     97  F   UNL     1       8.249  20.009  -0.165  1.00  0.00    -0.203 F 
ATOM     98  F   UNL     1       3.280  22.243  -0.494  1.00  0.00    -0.200 F 
ATOM     99  C   UNL     1       5.626  22.496  -0.392  1.00  0.00     0.200 A 
ATOM    100  F   UNL     1       7.977  22.699  -0.301  1.00  0.00    -0.200 F 
ATOM    101  F   UNL     1       5.500  23.827  -0.476  1.00  0.00    -0.200 F 
ENDBRANCH  68  91
ENDBRANCH  42  43
ENDBRANCH  34  37
ENDBRANCH  32  33
ENDBRANCH  31  32
ENDBRANCH  30  31
ENDBRANCH   1  30
TORSDOF 16
