REMARK SMILES CC[C@H]1CC[C@](O)([C@H](F)C(=O)NCCCCNC(=O)c2ccc(-c3c4nc(c(-c5c(F)c(F)c(F)c(F)c5F)c5ccc([nH]5)c(-c5c(F)c(F)c(F)c(F)c5F)c5nc(c(-c6c(F)c(F)c(F)c(F)c6F)c6ccc3[nH]6)C=C5)C=C4)cc2)CC1
REMARK SMILES IDX 14 1 13 2 12 3 10 4 11 5 8 7 9 8 6 9 3 10 4 11 84 12 5 13
REMARK SMILES IDX 83 14 2 15 1 16 7 17 15 19 16 20 17 21 18 22 19 24 20 25
REMARK SMILES IDX 21 26 82 27 22 28 81 29 23 30 24 31 25 32 75 33 26 34 80 35
REMARK SMILES IDX 74 36 76 37 27 38 79 39 73 40 72 41 28 43 60 44 40 45 59 46
REMARK SMILES IDX 41 47 44 48 58 49 77 50 42 51 43 52 57 54 78 55 45 56 29 57
REMARK SMILES IDX 30 58 38 59 31 60 32 61 36 62 39 63 33 64 34 65 37 66 35 67
REMARK SMILES IDX 61 68 62 69 70 70 63 71 64 72 68 73 71 74 65 75 66 76 69 77
REMARK SMILES IDX 67 78 46 79 47 80 55 81 48 82 49 83 53 84 56 85 50 86 51 87
REMARK SMILES IDX 54 88 52 89
REMARK H PARENT 12 6 7 18 17 23 76 42 44 53
REMARK Flexibility Score: inf
ROOT
ATOM      1  C   UNL     1       0.692   5.807   2.128  1.00  0.00     0.023 C 
ENDROOT
BRANCH   1   2
ATOM      2  C   UNL     1       1.433   5.564   0.820  1.00  0.00     0.116 C 
BRANCH   2   3
ATOM      3  N   UNL     1       2.735   6.197   0.809  1.00  0.00    -0.353 N 
ATOM      4  C   UNL     1       3.906   5.685   0.345  1.00  0.00     0.257 C 
ATOM      5  O   UNL     1       4.906   6.409   0.392  1.00  0.00    -0.272 OA
ATOM      6  H   UNL     1       2.777   7.107   1.183  1.00  0.00     0.163 HD
BRANCH   4   7
ATOM      7  C   UNL     1       3.972   4.291  -0.267  1.00  0.00     0.286 C 
ATOM      8  F   UNL     1       3.505   3.324   0.586  1.00  0.00    -0.234 F 
BRANCH   7   9
ATOM      9  C   UNL     1       3.296   4.129  -1.665  1.00  0.00     0.105 C 
ATOM     10  C   UNL     1       5.236   4.817  -3.877  1.00  0.00    -0.011 C 
ATOM     11  C   UNL     1       5.399   3.560  -3.009  1.00  0.00     0.006 C 
ATOM     12  C   UNL     1       4.519   5.910  -3.067  1.00  0.00     0.006 C 
ATOM     13  C   UNL     1       4.061   3.051  -2.467  1.00  0.00     0.039 C 
ATOM     14  C   UNL     1       3.191   5.427  -2.494  1.00  0.00     0.039 C 
BRANCH  10  15
ATOM     15  C   UNL     1       4.512   4.571  -5.218  1.00  0.00    -0.000 C 
ATOM     16  C   UNL     1       5.032   3.376  -6.002  1.00  0.00     0.004 C 
ENDBRANCH  10  15
BRANCH   9  17
ATOM     17  O   UNL     1       1.945   3.651  -1.500  1.00  0.00    -0.386 OA
ATOM     18  H   UNL     1       1.528   3.552  -2.370  1.00  0.00     0.211 HD
ENDBRANCH   9  17
ENDBRANCH   7   9
ENDBRANCH   4   7
ENDBRANCH   2   3
ENDBRANCH   1   2
BRANCH   1  19
ATOM     19  C   UNL     1       0.459   7.276   2.474  1.00  0.00     0.023 C 
BRANCH  19  20
ATOM     20  C   UNL     1      -0.213   8.096   1.381  1.00  0.00     0.116 C 
BRANCH  20  21
ATOM     21  N   UNL     1      -1.534   7.593   1.036  1.00  0.00    -0.352 N 
ATOM     22  C   UNL     1      -2.755   8.212   1.129  1.00  0.00     0.251 C 
ATOM     23  H   UNL     1      -1.555   6.674   0.684  1.00  0.00     0.163 HD
ATOM     24  O   UNL     1      -3.790   7.572   0.958  1.00  0.00    -0.269 OA
BRANCH  22  25
ATOM     25  C   UNL     1      -2.828   9.649   1.464  1.00  0.00     0.039 A 
ATOM     26  C   UNL     1      -3.741  10.072   2.432  1.00  0.00     0.014 A 
ATOM     27  C   UNL     1      -1.990  10.574   0.836  1.00  0.00     0.014 A 
ATOM     28  C   UNL     1      -3.763  11.413   2.820  1.00  0.00     0.010 A 
ATOM     29  C   UNL     1      -1.952  11.890   1.285  1.00  0.00     0.010 A 
ATOM     30  C   UNL     1      -2.841  12.325   2.280  1.00  0.00    -0.014 A 
BRANCH  30  31
ATOM     31  C   UNL     1      -2.799  13.737   2.743  1.00  0.00     0.031 A 
ATOM     32  C   UNL     1      -3.095  14.857   1.782  1.00  0.00     0.074 A 
ATOM     33  C   UNL     1      -2.450  14.012   4.015  1.00  0.00     0.049 A 
ATOM     34  N   UNL     1      -3.065  16.150   1.985  1.00  0.00    -0.248 NA
ATOM     35  C   UNL     1      -3.448  14.476   0.405  1.00  0.00     0.031 C 
ATOM     36  C   UNL     1      -2.093  13.017   5.029  1.00  0.00     0.029 A 
ATOM     37  N   UNL     1      -2.332  15.211   4.674  1.00  0.00    -0.354 N 
ATOM     38  C   UNL     1      -3.389  16.731   0.766  1.00  0.00     0.074 A 
ATOM     39  C   UNL     1      -3.549  15.656  -0.187  1.00  0.00     0.031 C 
ATOM     40  C   UNL     1      -1.823  13.644   6.185  1.00  0.00     0.029 A 
ATOM     41  C   UNL     1      -1.947  15.084   5.987  1.00  0.00     0.049 A 
ATOM     42  H   UNL     1      -2.507  16.080   4.245  1.00  0.00     0.167 HD
ATOM     43  C   UNL     1      -3.568  18.042   0.476  1.00  0.00     0.037 A 
ATOM     44  C   UNL     1      -1.712  16.025   6.922  1.00  0.00     0.037 A 
ATOM     45  C   UNL     1      -3.428  19.109   1.431  1.00  0.00     0.049 A 
ATOM     46  C   UNL     1      -1.897  17.477   6.562  1.00  0.00     0.074 A 
ATOM     47  C   UNL     1      -3.629  20.465   1.244  1.00  0.00     0.029 A 
ATOM     48  N   UNL     1      -3.049  18.940   2.754  1.00  0.00    -0.354 N 
ATOM     49  N   UNL     1      -2.274  18.008   5.424  1.00  0.00    -0.248 NA
ATOM     50  C   UNL     1      -1.632  18.460   7.622  1.00  0.00     0.031 C 
ATOM     51  C   UNL     1      -3.325  21.122   2.439  1.00  0.00     0.029 A 
ATOM     52  C   UNL     1      -2.992  20.170   3.389  1.00  0.00     0.049 A 
ATOM     53  H   UNL     1      -2.850  18.074   3.179  1.00  0.00     0.167 HD
ATOM     54  C   UNL     1      -2.326  19.378   5.641  1.00  0.00     0.074 A 
ATOM     55  C   UNL     1      -1.960  19.596   7.024  1.00  0.00     0.031 C 
ATOM     56  C   UNL     1      -2.646  20.369   4.773  1.00  0.00     0.037 A 
BRANCH  43  57
ATOM     57  C   UNL     1      -3.953  18.400  -0.931  1.00  0.00     0.064 A 
ATOM     58  C   UNL     1      -5.221  18.090  -1.446  1.00  0.00     0.173 A 
ATOM     59  C   UNL     1      -3.069  19.116  -1.753  1.00  0.00     0.173 A 
ATOM     60  F   UNL     1      -6.099  17.396  -0.705  1.00  0.00    -0.203 F 
ATOM     61  C   UNL     1      -5.583  18.465  -2.737  1.00  0.00     0.198 A 
ATOM     62  C   UNL     1      -3.446  19.517  -3.032  1.00  0.00     0.198 A 
ATOM     63  F   UNL     1      -1.846  19.443  -1.309  1.00  0.00    -0.203 F 
ATOM     64  F   UNL     1      -6.784  18.121  -3.220  1.00  0.00    -0.200 F 
ATOM     65  C   UNL     1      -4.699  19.186  -3.525  1.00  0.00     0.200 A 
ATOM     66  F   UNL     1      -2.597  20.228  -3.787  1.00  0.00    -0.200 F 
ATOM     67  F   UNL     1      -5.055  19.561  -4.761  1.00  0.00    -0.200 F 
ENDBRANCH  43  57
BRANCH  44  68
ATOM     68  C   UNL     1      -1.288  15.635   8.294  1.00  0.00     0.064 A 
ATOM     69  C   UNL     1      -2.116  15.870   9.401  1.00  0.00     0.173 A 
ATOM     70  C   UNL     1      -0.031  15.060   8.533  1.00  0.00     0.173 A 
ATOM     71  F   UNL     1      -3.320  16.436   9.228  1.00  0.00    -0.203 F 
ATOM     72  C   UNL     1      -1.689  15.581  10.696  1.00  0.00     0.198 A 
ATOM     73  C   UNL     1       0.381  14.738   9.825  1.00  0.00     0.198 A 
ATOM     74  F   UNL     1       0.799  14.808   7.510  1.00  0.00    -0.203 F 
ATOM     75  F   UNL     1      -2.475  15.879  11.739  1.00  0.00    -0.200 F 
ATOM     76  C   UNL     1      -0.443  15.012  10.906  1.00  0.00     0.200 A 
ATOM     77  F   UNL     1       1.580  14.175  10.023  1.00  0.00    -0.200 F 
ATOM     78  F   UNL     1      -0.030  14.741  12.152  1.00  0.00    -0.200 F 
ENDBRANCH  44  68
BRANCH  56  79
ATOM     79  C   UNL     1      -2.665  21.774   5.303  1.00  0.00     0.064 A 
ATOM     80  C   UNL     1      -1.487  22.449   5.653  1.00  0.00     0.173 A 
ATOM     81  C   UNL     1      -3.880  22.467   5.424  1.00  0.00     0.173 A 
ATOM     82  F   UNL     1      -0.301  21.826   5.569  1.00  0.00    -0.203 F 
ATOM     83  C   UNL     1      -1.526  23.755   6.134  1.00  0.00     0.198 A 
ATOM     84  C   UNL     1      -3.912  23.784   5.871  1.00  0.00     0.198 A 
ATOM     85  F   UNL     1      -5.035  21.870   5.094  1.00  0.00    -0.203 F 
ATOM     86  F   UNL     1      -0.393  24.362   6.513  1.00  0.00    -0.200 F 
ATOM     87  C   UNL     1      -2.737  24.424   6.234  1.00  0.00     0.200 A 
ATOM     88  F   UNL     1      -5.081  24.434   5.951  1.00  0.00    -0.200 F 
ATOM     89  F   UNL     1      -2.772  25.684   6.688  1.00  0.00    -0.200 F 
ENDBRANCH  56  79
ENDBRANCH  30  31
ENDBRANCH  22  25
ENDBRANCH  20  21
ENDBRANCH  19  20
ENDBRANCH   1  19
TORSDOF 14
