REMARK SMILES Cc1cccc(Cl)c1Nc1ccccc1CC(=O)NCCCCNC(=O)c1ccc(-c2c3nc(c(-c4c(F)c(F)c(F)c(F)c4F)c4ccc([nH]4)c(-c4c(F)c(F)c(F)c(F)c4F)c4nc(c(-c5c(F)c(F)c(F)c(F)c5F)c5ccc2[nH]5)C=C4)C=C3)cc1
REMARK SMILES IDX 21 1 20 2 19 3 17 4 18 5 16 7 15 8 10 9 11 10 12 11 14 12
REMARK SMILES IDX 13 13 9 14 8 16 1 17 2 18 3 19 4 20 6 21 5 22 7 23 22 24
REMARK SMILES IDX 23 25 24 26 25 27 26 29 27 30 28 31 89 32 29 33 88 34 30 35
REMARK SMILES IDX 31 36 32 37 82 38 33 39 87 40 81 41 83 42 34 43 86 44 80 45
REMARK SMILES IDX 79 46 35 48 67 49 47 50 66 51 48 52 51 53 65 54 84 55 49 56
REMARK SMILES IDX 50 57 64 59 85 60 52 61 36 62 37 63 45 64 38 65 39 66 43 67
REMARK SMILES IDX 46 68 40 69 41 70 44 71 42 72 68 73 69 74 77 75 70 76 71 77
REMARK SMILES IDX 75 78 78 79 72 80 73 81 76 82 74 83 53 84 54 85 62 86 55 87
REMARK SMILES IDX 56 88 60 89 63 90 57 91 58 92 61 93 59 94
REMARK H PARENT 19 6 9 15 24 28 83 47 51 58
REMARK Flexibility Score: inf
ROOT
ATOM      1  C   UNL     1       0.647   5.066  -2.131  1.00  0.00     0.023 C 
ENDROOT
BRANCH   1   2
ATOM      2  C   UNL     1       0.076   3.778  -2.725  1.00  0.00     0.116 C 
BRANCH   2   3
ATOM      3  N   UNL     1       1.006   3.149  -3.640  1.00  0.00    -0.356 N 
ATOM      4  C   UNL     1       1.881   2.129  -3.386  1.00  0.00     0.224 C 
ATOM      5  O   UNL     1       2.663   1.795  -4.278  1.00  0.00    -0.275 OA
ATOM      6  H   UNL     1       1.009   3.500  -4.560  1.00  0.00     0.163 HD
BRANCH   4   7
ATOM      7  C   UNL     1       1.839   1.408  -2.046  1.00  0.00     0.137 C 
BRANCH   7   8
ATOM      8  C   UNL     1       2.357   2.232  -0.885  1.00  0.00    -0.015 A 
ATOM      9  C   UNL     1       1.597   2.506   0.274  1.00  0.00     0.042 A 
ATOM     10  C   UNL     1       2.132   3.382   1.238  1.00  0.00     0.026 A 
ATOM     11  C   UNL     1       3.395   3.953   1.086  1.00  0.00     0.002 A 
ATOM     12  C   UNL     1       3.648   2.790  -1.005  1.00  0.00     0.006 A 
ATOM     13  C   UNL     1       4.160   3.645  -0.031  1.00  0.00     0.000 A 
BRANCH   9  14
ATOM     14  N   UNL     1       0.345   1.925   0.567  1.00  0.00    -0.354 N 
ATOM     15  H   UNL     1      -0.312   2.561   0.930  1.00  0.00     0.167 HD
BRANCH  14  16
ATOM     16  C   UNL     1      -0.148   0.603   0.441  1.00  0.00     0.060 A 
ATOM     17  C   UNL     1      -2.465   1.603   0.011  1.00  0.00     0.046 C 
ATOM     18  C   UNL     1      -1.526   0.430   0.141  1.00  0.00    -0.026 A 
ATOM     19  C   UNL     1      -2.043  -0.859  -0.082  1.00  0.00     0.005 A 
ATOM     20  C   UNL     1      -1.225  -1.980  -0.001  1.00  0.00     0.002 A 
ATOM     21  C   UNL     1       0.656  -0.556   0.547  1.00  0.00     0.064 A 
ATOM     22  C   UNL     1       0.119  -1.829   0.320  1.00  0.00     0.023 A 
ATOM     23  Cl  UNL     1       2.309  -0.519   1.065  1.00  0.00    -0.082 Cl
ENDBRANCH  14  16
ENDBRANCH   9  14
ENDBRANCH   7   8
ENDBRANCH   4   7
ENDBRANCH   2   3
ENDBRANCH   1   2
BRANCH   1  24
ATOM     24  C   UNL     1       0.792   6.217  -3.128  1.00  0.00     0.023 C 
BRANCH  24  25
ATOM     25  C   UNL     1      -0.504   6.653  -3.798  1.00  0.00     0.116 C 
BRANCH  25  26
ATOM     26  N   UNL     1      -1.516   7.104  -2.855  1.00  0.00    -0.352 N 
ATOM     27  C   UNL     1      -2.458   8.089  -3.027  1.00  0.00     0.251 C 
ATOM     28  H   UNL     1      -1.526   6.646  -1.984  1.00  0.00     0.163 HD
ATOM     29  O   UNL     1      -3.184   8.432  -2.100  1.00  0.00    -0.269 OA
BRANCH  27  30
ATOM     30  C   UNL     1      -2.559   8.764  -4.337  1.00  0.00     0.039 A 
ATOM     31  C   UNL     1      -2.527  10.160  -4.382  1.00  0.00     0.014 A 
ATOM     32  C   UNL     1      -2.632   8.018  -5.516  1.00  0.00     0.014 A 
ATOM     33  C   UNL     1      -2.495  10.809  -5.617  1.00  0.00     0.010 A 
ATOM     34  C   UNL     1      -2.535   8.662  -6.744  1.00  0.00     0.010 A 
ATOM     35  C   UNL     1      -2.460  10.063  -6.806  1.00  0.00    -0.014 A 
BRANCH  35  36
ATOM     36  C   UNL     1      -2.338  10.720  -8.131  1.00  0.00     0.031 A 
ATOM     37  C   UNL     1      -3.455  10.605  -9.128  1.00  0.00     0.074 A 
ATOM     38  C   UNL     1      -1.189  11.337  -8.467  1.00  0.00     0.049 A 
ATOM     39  N   UNL     1      -3.496  10.998 -10.376  1.00  0.00    -0.248 NA
ATOM     40  C   UNL     1      -4.680   9.933  -8.669  1.00  0.00     0.031 C 
ATOM     41  C   UNL     1      -0.017  11.475  -7.601  1.00  0.00     0.029 A 
ATOM     42  N   UNL     1      -0.811  11.948  -9.637  1.00  0.00    -0.354 N 
ATOM     43  C   UNL     1      -4.736  10.601 -10.855  1.00  0.00     0.074 A 
ATOM     44  C   UNL     1      -5.402   9.898  -9.779  1.00  0.00     0.031 C 
ATOM     45  C   UNL     1       0.944  12.137  -8.265  1.00  0.00     0.029 A 
ATOM     46  C   UNL     1       0.472  12.437  -9.614  1.00  0.00     0.049 A 
ATOM     47  H   UNL     1      -1.404  12.028 -10.419  1.00  0.00     0.167 HD
ATOM     48  C   UNL     1      -5.278  10.820 -12.076  1.00  0.00     0.037 A 
ATOM     49  C   UNL     1       1.190  13.046 -10.577  1.00  0.00     0.037 A 
ATOM     50  C   UNL     1      -4.625  11.548 -13.132  1.00  0.00     0.049 A 
ATOM     51  C   UNL     1       0.563  13.281 -11.924  1.00  0.00     0.074 A 
ATOM     52  C   UNL     1      -5.116  11.878 -14.383  1.00  0.00     0.029 A 
ATOM     53  N   UNL     1      -3.338  12.059 -13.058  1.00  0.00    -0.354 N 
ATOM     54  N   UNL     1      -0.634  12.956 -12.347  1.00  0.00    -0.248 NA
ATOM     55  C   UNL     1       1.385  13.972 -12.927  1.00  0.00     0.031 C 
ATOM     56  C   UNL     1      -4.112  12.557 -15.081  1.00  0.00     0.029 A 
ATOM     57  C   UNL     1      -3.012  12.689 -14.248  1.00  0.00     0.049 A 
ATOM     58  H   UNL     1      -2.745  11.986 -12.276  1.00  0.00     0.167 HD
ATOM     59  C   UNL     1      -0.721  13.428 -13.649  1.00  0.00     0.074 A 
ATOM     60  C   UNL     1       0.543  14.069 -13.946  1.00  0.00     0.031 C 
ATOM     61  C   UNL     1      -1.756  13.338 -14.520  1.00  0.00     0.037 A 
BRANCH  48  62
ATOM     62  C   UNL     1      -6.648  10.268 -12.336  1.00  0.00     0.064 A 
ATOM     63  C   UNL     1      -7.787  10.811 -11.723  1.00  0.00     0.173 A 
ATOM     64  C   UNL     1      -6.830   9.207 -13.236  1.00  0.00     0.173 A 
ATOM     65  F   UNL     1      -7.666  11.818 -10.845  1.00  0.00    -0.203 F 
ATOM     66  C   UNL     1      -9.054  10.294 -11.980  1.00  0.00     0.198 A 
ATOM     67  C   UNL     1      -8.101   8.712 -13.513  1.00  0.00     0.198 A 
ATOM     68  F   UNL     1      -5.774   8.654 -13.852  1.00  0.00    -0.203 F 
ATOM     69  F   UNL     1     -10.123  10.798 -11.347  1.00  0.00    -0.200 F 
ATOM     70  C   UNL     1      -9.211   9.251 -12.880  1.00  0.00     0.200 A 
ATOM     71  F   UNL     1      -8.252   7.711 -14.391  1.00  0.00    -0.200 F 
ATOM     72  F   UNL     1     -10.432   8.759 -13.131  1.00  0.00    -0.200 F 
ENDBRANCH  48  62
BRANCH  49  73
ATOM     73  C   UNL     1       2.577  13.496 -10.294  1.00  0.00     0.064 A 
ATOM     74  C   UNL     1       2.880  14.861 -10.187  1.00  0.00     0.173 A 
ATOM     75  C   UNL     1       3.625  12.579 -10.128  1.00  0.00     0.173 A 
ATOM     76  F   UNL     1       1.915  15.775 -10.359  1.00  0.00    -0.203 F 
ATOM     77  C   UNL     1       4.182  15.292  -9.942  1.00  0.00     0.198 A 
ATOM     78  C   UNL     1       4.922  13.011  -9.857  1.00  0.00     0.198 A 
ATOM     79  F   UNL     1       3.386  11.263 -10.217  1.00  0.00    -0.203 F 
ATOM     80  F   UNL     1       4.451  16.603  -9.886  1.00  0.00    -0.200 F 
ATOM     81  C   UNL     1       5.201  14.367  -9.772  1.00  0.00     0.200 A 
ATOM     82  F   UNL     1       5.901  12.114  -9.681  1.00  0.00    -0.200 F 
ATOM     83  F   UNL     1       6.452  14.782  -9.533  1.00  0.00    -0.200 F 
ENDBRANCH  49  73
BRANCH  61  84
ATOM     84  C   UNL     1      -1.587  13.987 -15.861  1.00  0.00     0.064 A 
ATOM     85  C   UNL     1      -0.770  13.425 -16.853  1.00  0.00     0.173 A 
ATOM     86  C   UNL     1      -2.297  15.155 -16.176  1.00  0.00     0.173 A 
ATOM     87  F   UNL     1      -0.060  12.317 -16.594  1.00  0.00    -0.203 F 
ATOM     88  C   UNL     1      -0.659  14.019 -18.107  1.00  0.00     0.198 A 
ATOM     89  C   UNL     1      -2.204  15.732 -17.439  1.00  0.00     0.198 A 
ATOM     90  F   UNL     1      -3.096  15.728 -15.262  1.00  0.00    -0.203 F 
ATOM     91  F   UNL     1       0.155  13.486 -19.029  1.00  0.00    -0.200 F 
ATOM     92  C   UNL     1      -1.381  15.166 -18.402  1.00  0.00     0.200 A 
ATOM     93  F   UNL     1      -2.912  16.832 -17.726  1.00  0.00    -0.200 F 
ATOM     94  F   UNL     1      -1.282  15.729 -19.613  1.00  0.00    -0.200 F 
ENDBRANCH  61  84
ENDBRANCH  35  36
ENDBRANCH  27  30
ENDBRANCH  25  26
ENDBRANCH  24  25
ENDBRANCH   1  24
TORSDOF 14
