REMARK SMILES O=C(NCCCCNC(=O)c1ccc2nc(-n3cccc3)sc2c1)c1ccc(-c2c3nc(c(-c4c(F)c(F)c(F)c(F)c4F)c4ccc([nH]4)c(-c4c(F)c(F)c(F)c(F)c4F)c4nc(c(-c5c(F)c(F)c(F)c(F)c5F)c5ccc2[nH]5)C=C4)C=C3)cc1
REMARK SMILES IDX 5 1 4 2 3 3 1 4 2 5 25 7 26 8 87 9 27 10 86 11 28 12 29 13
REMARK SMILES IDX 30 14 80 15 31 16 85 17 79 18 81 19 32 20 84 21 78 22 77 23
REMARK SMILES IDX 33 25 65 26 45 27 64 28 46 29 49 30 63 31 82 32 47 33 48 34
REMARK SMILES IDX 62 36 83 37 50 38 34 39 35 40 43 41 36 42 37 43 41 44 44 45
REMARK SMILES IDX 38 46 39 47 42 48 40 49 66 50 67 51 75 52 68 53 69 54 73 55
REMARK SMILES IDX 76 56 70 57 71 58 74 59 72 60 51 61 52 62 60 63 53 64 54 65
REMARK SMILES IDX 58 66 61 67 55 68 56 69 59 70 57 71 6 72 7 73 8 74 9 75
REMARK SMILES IDX 10 77 11 78 12 79 24 80 13 81 23 82 14 83 22 84 15 85 16 86
REMARK SMILES IDX 17 87 18 88 21 89 19 90 20 91
REMARK H PARENT 3 6 81 24 49 35 8 76
REMARK Flexibility Score: inf
ROOT
ATOM      1  C   UNL     1       4.973  -1.881  -1.109  1.00  0.00     0.023 C 
ENDROOT
BRANCH   1   2
ATOM      2  C   UNL     1       4.720  -0.381  -1.280  1.00  0.00     0.116 C 
BRANCH   2   3
ATOM      3  N   UNL     1       3.329   0.039  -1.263  1.00  0.00    -0.352 N 
ATOM      4  O   UNL     1       1.303   0.628  -0.525  1.00  0.00    -0.269 OA
ATOM      5  C   UNL     1       2.375   0.076  -0.278  1.00  0.00     0.251 C 
ATOM      6  H   UNL     1       3.007   0.364  -2.134  1.00  0.00     0.163 HD
BRANCH   5   7
ATOM      7  C   UNL     1       2.549  -0.599   1.030  1.00  0.00     0.039 A 
ATOM      8  C   UNL     1       3.783  -0.731   1.666  1.00  0.00     0.014 A 
ATOM      9  C   UNL     1       1.401  -1.138   1.636  1.00  0.00     0.014 A 
ATOM     10  C   UNL     1       3.905  -1.520   2.798  1.00  0.00     0.010 A 
ATOM     11  C   UNL     1       1.504  -1.877   2.814  1.00  0.00     0.010 A 
ATOM     12  C   UNL     1       2.766  -2.087   3.377  1.00  0.00    -0.014 A 
BRANCH  12  13
ATOM     13  C   UNL     1       2.950  -2.709   4.704  1.00  0.00     0.031 A 
ATOM     14  C   UNL     1       3.144  -1.650   5.795  1.00  0.00     0.074 A 
ATOM     15  C   UNL     1       3.023  -4.071   4.751  1.00  0.00     0.049 A 
ATOM     16  N   UNL     1       3.807  -1.715   6.909  1.00  0.00    -0.248 NA
ATOM     17  C   UNL     1       2.591  -0.285   5.574  1.00  0.00     0.031 C 
ATOM     18  C   UNL     1       2.819  -4.952   3.587  1.00  0.00     0.029 A 
ATOM     19  N   UNL     1       3.297  -4.988   5.750  1.00  0.00    -0.354 N 
ATOM     20  C   UNL     1       3.582  -0.505   7.599  1.00  0.00     0.074 A 
ATOM     21  C   UNL     1       2.949   0.382   6.673  1.00  0.00     0.031 C 
ATOM     22  C   UNL     1       3.040  -6.240   3.916  1.00  0.00     0.029 A 
ATOM     23  C   UNL     1       3.394  -6.339   5.319  1.00  0.00     0.049 A 
ATOM     24  H   UNL     1       3.416  -4.724   6.691  1.00  0.00     0.167 HD
ATOM     25  C   UNL     1       3.791  -0.362   8.939  1.00  0.00     0.037 A 
ATOM     26  C   UNL     1       3.766  -7.452   6.028  1.00  0.00     0.037 A 
ATOM     27  C   UNL     1       4.319  -1.565   9.487  1.00  0.00     0.049 A 
ATOM     28  C   UNL     1       3.881  -7.010   7.428  1.00  0.00     0.074 A 
ATOM     29  C   UNL     1       5.551  -2.156   9.418  1.00  0.00     0.029 A 
ATOM     30  N   UNL     1       3.413  -2.471   9.978  1.00  0.00    -0.354 N 
ATOM     31  N   UNL     1       2.872  -6.719   8.194  1.00  0.00    -0.248 NA
ATOM     32  C   UNL     1       5.216  -6.828   8.010  1.00  0.00     0.031 C 
ATOM     33  C   UNL     1       5.270  -3.536   9.484  1.00  0.00     0.029 A 
ATOM     34  C   UNL     1       3.903  -3.725   9.721  1.00  0.00     0.049 A 
ATOM     35  H   UNL     1       2.565  -2.259  10.432  1.00  0.00     0.167 HD
ATOM     36  C   UNL     1       3.470  -6.013   9.210  1.00  0.00     0.074 A 
ATOM     37  C   UNL     1       4.863  -6.394   9.217  1.00  0.00     0.031 C 
ATOM     38  C   UNL     1       2.956  -4.807   9.562  1.00  0.00     0.037 A 
BRANCH  25  39
ATOM     39  C   UNL     1       3.333   0.683   9.919  1.00  0.00     0.064 A 
ATOM     40  C   UNL     1       3.978   0.740  11.180  1.00  0.00     0.173 A 
ATOM     41  C   UNL     1       2.101   1.343   9.825  1.00  0.00     0.173 A 
ATOM     42  F   UNL     1       5.185   0.180  11.360  1.00  0.00    -0.203 F 
ATOM     43  C   UNL     1       3.361   1.287  12.303  1.00  0.00     0.198 A 
ATOM     44  C   UNL     1       1.509   1.939  10.944  1.00  0.00     0.198 A 
ATOM     45  F   UNL     1       1.394   1.339   8.689  1.00  0.00    -0.203 F 
ATOM     46  F   UNL     1       3.945   1.180  13.505  1.00  0.00    -0.200 F 
ATOM     47  C   UNL     1       2.116   1.870  12.187  1.00  0.00     0.200 A 
ATOM     48  F   UNL     1       0.304   2.512  10.826  1.00  0.00    -0.200 F 
ATOM     49  F   UNL     1       1.484   2.330  13.275  1.00  0.00    -0.200 F 
ENDBRANCH  25  39
BRANCH  26  50
ATOM     50  C   UNL     1       4.122  -8.904   5.757  1.00  0.00     0.064 A 
ATOM     51  C   UNL     1       4.047  -9.559   4.521  1.00  0.00     0.173 A 
ATOM     52  C   UNL     1       4.675  -9.711   6.797  1.00  0.00     0.173 A 
ATOM     53  F   UNL     1       3.447  -8.997   3.469  1.00  0.00    -0.203 F 
ATOM     54  C   UNL     1       4.581 -10.847   4.317  1.00  0.00     0.198 A 
ATOM     55  C   UNL     1       5.250 -10.965   6.586  1.00  0.00     0.198 A 
ATOM     56  F   UNL     1       4.684  -9.308   8.074  1.00  0.00    -0.203 F 
ATOM     57  F   UNL     1       4.489 -11.417   3.108  1.00  0.00    -0.200 F 
ATOM     58  C   UNL     1       5.219 -11.530   5.336  1.00  0.00     0.200 A 
ATOM     59  F   UNL     1       5.848 -11.601   7.604  1.00  0.00    -0.200 F 
ATOM     60  F   UNL     1       5.784 -12.724   5.119  1.00  0.00    -0.200 F 
ENDBRANCH  26  50
BRANCH  38  61
ATOM     61  C   UNL     1       1.471  -4.676   9.272  1.00  0.00     0.064 A 
ATOM     62  C   UNL     1       0.553  -5.533   9.899  1.00  0.00     0.173 A 
ATOM     63  C   UNL     1       0.940  -3.823   8.293  1.00  0.00     0.173 A 
ATOM     64  F   UNL     1       0.969  -6.369  10.862  1.00  0.00    -0.203 F 
ATOM     65  C   UNL     1      -0.800  -5.548   9.545  1.00  0.00     0.198 A 
ATOM     66  C   UNL     1      -0.410  -3.829   7.938  1.00  0.00     0.198 A 
ATOM     67  F   UNL     1       1.722  -2.957   7.657  1.00  0.00    -0.203 F 
ATOM     68  F   UNL     1      -1.643  -6.387  10.162  1.00  0.00    -0.200 F 
ATOM     69  C   UNL     1      -1.280  -4.699   8.561  1.00  0.00     0.200 A 
ATOM     70  F   UNL     1      -0.859  -2.985   6.996  1.00  0.00    -0.200 F 
ATOM     71  F   UNL     1      -2.578  -4.708   8.226  1.00  0.00    -0.200 F 
ENDBRANCH  38  61
ENDBRANCH  12  13
ENDBRANCH   5   7
ENDBRANCH   2   3
ENDBRANCH   1   2
BRANCH   1  72
ATOM     72  C   UNL     1       4.434  -2.765  -2.231  1.00  0.00     0.023 C 
BRANCH  72  73
ATOM     73  C   UNL     1       4.868  -2.355  -3.631  1.00  0.00     0.116 C 
BRANCH  73  74
ATOM     74  N   UNL     1       6.315  -2.318  -3.769  1.00  0.00    -0.352 N 
ATOM     75  C   UNL     1       7.091  -2.875  -4.756  1.00  0.00     0.251 C 
ATOM     76  H   UNL     1       6.801  -1.831  -3.064  1.00  0.00     0.163 HD
ATOM     77  O   UNL     1       8.304  -2.853  -4.701  1.00  0.00    -0.269 OA
BRANCH  75  78
ATOM     78  C   UNL     1       6.405  -3.533  -5.882  1.00  0.00     0.041 A 
ATOM     79  C   UNL     1       5.631  -2.779  -6.763  1.00  0.00     0.016 A 
ATOM     80  C   UNL     1       6.515  -4.922  -5.988  1.00  0.00     0.035 A 
ATOM     81  C   UNL     1       4.933  -3.416  -7.792  1.00  0.00     0.031 A 
ATOM     82  C   UNL     1       5.768  -5.546  -6.996  1.00  0.00     0.057 A 
ATOM     83  C   UNL     1       5.006  -4.819  -7.919  1.00  0.00     0.084 A 
ATOM     84  S   UNL     1       5.570  -7.228  -7.309  1.00  0.00    -0.096 S 
ATOM     85  N   UNL     1       4.382  -5.575  -8.894  1.00  0.00    -0.219 NA
ATOM     86  C   UNL     1       4.583  -6.847  -8.638  1.00  0.00     0.194 A 
BRANCH  86  87
ATOM     87  N   UNL     1       4.053  -7.875  -9.428  1.00  0.00    -0.300 N 
ATOM     88  C   UNL     1       3.880  -9.212  -9.103  1.00  0.00     0.093 A 
ATOM     89  C   UNL     1       3.579  -7.713 -10.719  1.00  0.00     0.093 A 
ATOM     90  C   UNL     1       3.321  -9.872 -10.175  1.00  0.00     0.020 A 
ATOM     91  C   UNL     1       3.159  -8.929 -11.210  1.00  0.00     0.020 A 
ENDBRANCH  86  87
ENDBRANCH  75  78
ENDBRANCH  73  74
ENDBRANCH  72  73
ENDBRANCH   1  72
TORSDOF 12
