REMARK SMILES COCc1cc(OCC(=O)NCCCCNC(=O)c2ccc(-c3c4nc(c(-c5c(F)c(F)c(F)c(F)c5F)c5ccc([nH]5)c(-c5c(F)c(F)c(F)c(F)c5F)c5nc(c(-c6c(F)c(F)c(F)c(F)c6F)c6ccc3[nH]6)C=C5)C=C4)cc2)nc(Nc2cccc(C)c2C)n1
REMARK SMILES IDX 12 1 11 2 9 3 10 4 8 6 7 7 6 8 4 9 5 10 93 11 83 12 82 13
REMARK SMILES IDX 3 14 2 15 1 16 84 17 85 19 86 20 91 21 87 22 89 23 92 24
REMARK SMILES IDX 88 25 90 26 13 27 14 28 15 29 16 30 17 31 18 33 19 34 20 35
REMARK SMILES IDX 81 36 21 37 80 38 22 39 23 40 24 41 74 42 25 43 79 44 73 45
REMARK SMILES IDX 75 46 26 47 78 48 72 49 71 50 27 52 59 53 39 54 58 55 40 56
REMARK SMILES IDX 43 57 57 58 76 59 41 60 42 61 56 63 77 64 44 65 28 66 29 67
REMARK SMILES IDX 37 68 30 69 31 70 35 71 38 72 32 73 33 74 36 75 34 76 60 77
REMARK SMILES IDX 61 78 69 79 62 80 63 81 67 82 70 83 64 84 65 85 68 86 66 87
REMARK SMILES IDX 45 88 46 89 54 90 47 91 48 92 52 93 55 94 49 95 50 96 53 97
REMARK SMILES IDX 51 98
REMARK H PARENT 11 5 84 18 16 32 75 51 43 62
REMARK Flexibility Score: inf
ROOT
ATOM      1  C   UNL     1      -2.850  -1.634   3.940  1.00  0.00     0.116 C 
ENDROOT
BRANCH   1   2
ATOM      2  N   UNL     1      -2.107  -1.858   2.716  1.00  0.00    -0.353 N 
ATOM      3  C   UNL     1      -0.755  -1.888   2.547  1.00  0.00     0.258 C 
ATOM      4  O   UNL     1      -0.301  -2.205   1.446  1.00  0.00    -0.271 OA
ATOM      5  H   UNL     1      -2.646  -2.009   1.906  1.00  0.00     0.163 HD
BRANCH   3   6
ATOM      6  C   UNL     1       0.177  -1.559   3.722  1.00  0.00     0.331 C 
BRANCH   6   7
ATOM      7  O   UNL     1       0.011  -0.311   4.371  1.00  0.00    -0.467 OA
BRANCH   7   8
ATOM      8  C   UNL     1       0.194   0.829   3.640  1.00  0.00     0.218 A 
ATOM      9  C   UNL     1       0.714   2.102   1.746  1.00  0.00     0.076 A 
ATOM     10  C   UNL     1       0.719   0.875   2.370  1.00  0.00     0.095 A 
ATOM     11  N   UNL     1       0.289   3.206   2.384  1.00  0.00    -0.215 NA
ATOM     12  C   UNL     1      -0.146   3.094   3.647  1.00  0.00     0.230 A 
ATOM     13  N   UNL     1      -0.207   1.929   4.301  1.00  0.00    -0.177 NA
BRANCH   9  14
ATOM     14  C   UNL     1       1.231   2.288   0.338  1.00  0.00     0.216 C 
BRANCH  14  15
ATOM     15  O   UNL     1       0.534   1.528  -0.653  1.00  0.00    -0.378 OA
ATOM     16  C   UNL     1       1.038   0.215  -0.848  1.00  0.00     0.195 C 
ENDBRANCH  14  15
ENDBRANCH   9  14
BRANCH  12  17
ATOM     17  N   UNL     1      -0.527   4.237   4.347  1.00  0.00    -0.324 N 
ATOM     18  H   UNL     1      -0.738   4.107   5.300  1.00  0.00     0.170 HD
BRANCH  17  19
ATOM     19  C   UNL     1      -0.648   5.549   3.864  1.00  0.00     0.044 A 
ATOM     20  C   UNL     1       0.142   6.544   4.461  1.00  0.00     0.026 A 
ATOM     21  C   UNL     1      -1.458   5.885   2.750  1.00  0.00    -0.025 A 
ATOM     22  C   UNL     1       0.172   7.839   3.952  1.00  0.00     0.002 A 
ATOM     23  C   UNL     1      -1.404   7.196   2.218  1.00  0.00    -0.046 A 
ATOM     24  C   UNL     1      -2.387   4.864   2.136  1.00  0.00     0.047 C 
ATOM     25  C   UNL     1      -0.589   8.159   2.832  1.00  0.00     0.004 A 
ATOM     26  C   UNL     1      -2.188   7.627   1.006  1.00  0.00     0.044 C 
ENDBRANCH  17  19
ENDBRANCH  12  17
ENDBRANCH   7   8
ENDBRANCH   6   7
ENDBRANCH   3   6
ENDBRANCH   1   2
BRANCH   1  27
ATOM     27  C   UNL     1      -3.680  -0.353   3.898  1.00  0.00     0.023 C 
BRANCH  27  28
ATOM     28  C   UNL     1      -4.775  -0.316   2.828  1.00  0.00     0.023 C 
BRANCH  28  29
ATOM     29  C   UNL     1      -5.729  -1.506   2.808  1.00  0.00     0.116 C 
BRANCH  29  30
ATOM     30  N   UNL     1      -6.429  -1.704   4.067  1.00  0.00    -0.352 N 
ATOM     31  C   UNL     1      -7.769  -1.908   4.305  1.00  0.00     0.251 C 
ATOM     32  H   UNL     1      -5.859  -1.691   4.870  1.00  0.00     0.163 HD
ATOM     33  O   UNL     1      -8.190  -1.941   5.454  1.00  0.00    -0.269 OA
BRANCH  31  34
ATOM     34  C   UNL     1      -8.711  -2.054   3.172  1.00  0.00     0.039 A 
ATOM     35  C   UNL     1      -9.919  -1.352   3.212  1.00  0.00     0.014 A 
ATOM     36  C   UNL     1      -8.412  -2.870   2.079  1.00  0.00     0.014 A 
ATOM     37  C   UNL     1     -10.792  -1.410   2.123  1.00  0.00     0.010 A 
ATOM     38  C   UNL     1      -9.246  -2.866   0.963  1.00  0.00     0.010 A 
ATOM     39  C   UNL     1     -10.444  -2.135   0.971  1.00  0.00    -0.014 A 
BRANCH  39  40
ATOM     40  C   UNL     1     -11.312  -2.126  -0.235  1.00  0.00     0.031 A 
ATOM     41  C   UNL     1     -11.940  -3.400  -0.730  1.00  0.00     0.074 A 
ATOM     42  C   UNL     1     -11.484  -0.981  -0.924  1.00  0.00     0.049 A 
ATOM     43  N   UNL     1     -12.671  -3.604  -1.797  1.00  0.00    -0.248 NA
ATOM     44  C   UNL     1     -11.691  -4.611   0.067  1.00  0.00     0.031 C 
ATOM     45  C   UNL     1     -10.893   0.312  -0.576  1.00  0.00     0.029 A 
ATOM     46  N   UNL     1     -12.197  -0.720  -2.069  1.00  0.00    -0.354 N 
ATOM     47  C   UNL     1     -12.958  -4.963  -1.805  1.00  0.00     0.074 A 
ATOM     48  C   UNL     1     -12.276  -5.545  -0.670  1.00  0.00     0.031 C 
ATOM     49  C   UNL     1     -11.285   1.232  -1.472  1.00  0.00     0.029 A 
ATOM     50  C   UNL     1     -12.118   0.588  -2.482  1.00  0.00     0.049 A 
ATOM     51  H   UNL     1     -12.717  -1.406  -2.548  1.00  0.00     0.167 HD
ATOM     52  C   UNL     1     -13.739  -5.658  -2.667  1.00  0.00     0.037 A 
ATOM     53  C   UNL     1     -12.646   1.197  -3.561  1.00  0.00     0.037 A 
ATOM     54  C   UNL     1     -14.429  -5.072  -3.788  1.00  0.00     0.049 A 
ATOM     55  C   UNL     1     -13.492   0.397  -4.516  1.00  0.00     0.074 A 
ATOM     56  C   UNL     1     -15.289  -5.681  -4.685  1.00  0.00     0.029 A 
ATOM     57  N   UNL     1     -14.331  -3.742  -4.169  1.00  0.00    -0.354 N 
ATOM     58  N   UNL     1     -13.816  -0.872  -4.472  1.00  0.00    -0.248 NA
ATOM     59  C   UNL     1     -14.050   1.117  -5.669  1.00  0.00     0.031 C 
ATOM     60  C   UNL     1     -15.664  -4.735  -5.643  1.00  0.00     0.029 A 
ATOM     61  C   UNL     1     -15.092  -3.519  -5.306  1.00  0.00     0.049 A 
ATOM     62  H   UNL     1     -13.800  -3.057  -3.702  1.00  0.00     0.167 HD
ATOM     63  C   UNL     1     -14.640  -1.095  -5.568  1.00  0.00     0.074 A 
ATOM     64  C   UNL     1     -14.778   0.175  -6.250  1.00  0.00     0.031 C 
ATOM     65  C   UNL     1     -15.228  -2.248  -5.972  1.00  0.00     0.037 A 
BRANCH  52  66
ATOM     66  C   UNL     1     -13.887  -7.135  -2.436  1.00  0.00     0.064 A 
ATOM     67  C   UNL     1     -14.582  -7.643  -1.326  1.00  0.00     0.173 A 
ATOM     68  C   UNL     1     -13.361  -8.057  -3.354  1.00  0.00     0.173 A 
ATOM     69  F   UNL     1     -15.097  -6.807  -0.412  1.00  0.00    -0.203 F 
ATOM     70  C   UNL     1     -14.715  -9.015  -1.129  1.00  0.00     0.198 A 
ATOM     71  C   UNL     1     -13.527  -9.427  -3.172  1.00  0.00     0.198 A 
ATOM     72  F   UNL     1     -12.694  -7.628  -4.437  1.00  0.00    -0.203 F 
ATOM     73  F   UNL     1     -15.335  -9.475  -0.033  1.00  0.00    -0.200 F 
ATOM     74  C   UNL     1     -14.195  -9.905  -2.055  1.00  0.00     0.200 A 
ATOM     75  F   UNL     1     -13.037 -10.286  -4.077  1.00  0.00    -0.200 F 
ATOM     76  F   UNL     1     -14.331 -11.225  -1.868  1.00  0.00    -0.200 F 
ENDBRANCH  52  66
BRANCH  53  77
ATOM     77  C   UNL     1     -12.406   2.647  -3.790  1.00  0.00     0.064 A 
ATOM     78  C   UNL     1     -13.452   3.575  -3.694  1.00  0.00     0.173 A 
ATOM     79  C   UNL     1     -11.133   3.133  -4.121  1.00  0.00     0.173 A 
ATOM     80  F   UNL     1     -14.693   3.158  -3.402  1.00  0.00    -0.203 F 
ATOM     81  C   UNL     1     -13.240   4.930  -3.944  1.00  0.00     0.198 A 
ATOM     82  C   UNL     1     -10.915   4.492  -4.338  1.00  0.00     0.198 A 
ATOM     83  F   UNL     1     -10.096   2.289  -4.222  1.00  0.00    -0.203 F 
ATOM     84  F   UNL     1     -14.269   5.786  -3.898  1.00  0.00    -0.200 F 
ATOM     85  C   UNL     1     -11.970   5.388  -4.260  1.00  0.00     0.200 A 
ATOM     86  F   UNL     1      -9.683   4.933  -4.628  1.00  0.00    -0.200 F 
ATOM     87  F   UNL     1     -11.766   6.691  -4.498  1.00  0.00    -0.200 F 
ENDBRANCH  53  77
BRANCH  65  88
ATOM     88  C   UNL     1     -16.112  -2.184  -7.186  1.00  0.00     0.064 A 
ATOM     89  C   UNL     1     -15.590  -1.984  -8.473  1.00  0.00     0.173 A 
ATOM     90  C   UNL     1     -17.498  -2.365  -7.063  1.00  0.00     0.173 A 
ATOM     91  F   UNL     1     -14.273  -1.792  -8.645  1.00  0.00    -0.203 F 
ATOM     92  C   UNL     1     -16.425  -1.939  -9.586  1.00  0.00     0.198 A 
ATOM     93  C   UNL     1     -18.327  -2.354  -8.181  1.00  0.00     0.198 A 
ATOM     94  F   UNL     1     -18.050  -2.567  -5.856  1.00  0.00    -0.203 F 
ATOM     95  F   UNL     1     -15.910  -1.694 -10.799  1.00  0.00    -0.200 F 
ATOM     96  C   UNL     1     -17.791  -2.132  -9.441  1.00  0.00     0.200 A 
ATOM     97  F   UNL     1     -19.644  -2.558  -8.040  1.00  0.00    -0.200 F 
ATOM     98  F   UNL     1     -18.592  -2.098 -10.514  1.00  0.00    -0.200 F 
ENDBRANCH  65  88
ENDBRANCH  39  40
ENDBRANCH  31  34
ENDBRANCH  29  30
ENDBRANCH  28  29
ENDBRANCH  27  28
ENDBRANCH   1  27
TORSDOF 17
