REMARK SMILES NC(=O)CC[C@H](NC(=O)N[C@H]1CCOC1)C(=O)NCCCCNC(=O)c1ccc(-c2c3nc(c(-c4c(F)c(F)c(F)c(F)c4F)c4ccc([nH]4)c(-c4c(F)c(F)c(F)c(F)c4F)c4nc(c(-c5c(F)c(F)c(F)c(F)c5F)c5ccc2[nH]5)C=C4)C=C3)cc1
REMARK SMILES IDX 20 1 19 2 18 3 16 4 17 5 6 7 5 8 4 9 2 10 1 11 3 14 7 15
REMARK SMILES IDX 8 16 9 18 10 19 11 21 12 22 15 23 13 24 14 25 21 26 22 27
REMARK SMILES IDX 23 28 24 29 25 31 26 32 27 33 88 34 28 35 87 36 29 37 30 38
REMARK SMILES IDX 31 39 81 40 32 41 86 42 80 43 82 44 33 45 85 46 79 47 78 48
REMARK SMILES IDX 34 50 66 51 46 52 65 53 47 54 50 55 64 56 83 57 48 58 49 59
REMARK SMILES IDX 63 61 84 62 51 63 35 64 36 65 44 66 37 67 38 68 42 69 45 70
REMARK SMILES IDX 39 71 40 72 43 73 41 74 67 75 68 76 76 77 69 78 70 79 74 80
REMARK SMILES IDX 77 81 71 82 72 83 75 84 73 85 52 86 53 87 61 88 54 89 55 90
REMARK SMILES IDX 59 91 62 92 56 93 57 94 60 95 58 96
REMARK H PARENT 18 6 1 12 1 13 7 17 10 20 23 30 82 49 50 60
REMARK Flexibility Score: inf
ROOT
ATOM      1  C   UNL     1       5.050   2.657   5.778  1.00  0.00     0.023 C 
ENDROOT
BRANCH   1   2
ATOM      2  C   UNL     1       5.463   2.524   4.317  1.00  0.00     0.116 C 
BRANCH   2   3
ATOM      3  N   UNL     1       6.730   3.100   3.918  1.00  0.00    -0.354 N 
ATOM      4  C   UNL     1       7.317   3.058   2.674  1.00  0.00     0.242 C 
ATOM      5  O   UNL     1       8.336   3.741   2.517  1.00  0.00    -0.273 OA
ATOM      6  H   UNL     1       7.230   3.577   4.619  1.00  0.00     0.163 HD
BRANCH   4   7
ATOM      7  C   UNL     1       6.815   2.107   1.523  1.00  0.00     0.173 C 
BRANCH   7   8
ATOM      8  C   UNL     1       7.039   2.644   0.096  1.00  0.00     0.045 C 
BRANCH   8   9
ATOM      9  C   UNL     1       7.006   1.608  -1.040  1.00  0.00     0.102 C 
BRANCH   9  10
ATOM     10  C   UNL     1       5.772   0.732  -1.087  1.00  0.00     0.217 C 
ATOM     11  N   UNL     1       5.929  -0.524  -0.577  1.00  0.00    -0.370 N 
ATOM     12  H   UNL     1       5.171  -1.152  -0.573  1.00  0.00     0.159 HD
ATOM     13  H   UNL     1       6.801  -0.801  -0.213  1.00  0.00     0.159 HD
ATOM     14  O   UNL     1       4.689   1.104  -1.522  1.00  0.00    -0.275 OA
ENDBRANCH   9  10
ENDBRANCH   8   9
ENDBRANCH   7   8
BRANCH   7  15
ATOM     15  N   UNL     1       5.542   1.423   1.692  1.00  0.00    -0.326 N 
ATOM     16  C   UNL     1       4.238   1.632   1.640  1.00  0.00     0.315 C 
ATOM     17  H   UNL     1       5.709   0.481   1.926  1.00  0.00     0.166 HD
ATOM     18  O   UNL     1       3.546   0.651   1.941  1.00  0.00    -0.249 OA
ATOM     19  N   UNL     1       3.582   2.756   1.409  1.00  0.00    -0.333 N 
ATOM     20  H   UNL     1       2.643   2.626   1.673  1.00  0.00     0.165 HD
BRANCH  19  21
ATOM     21  C   UNL     1       3.731   4.118   0.907  1.00  0.00     0.112 C 
ATOM     22  C   UNL     1       4.811   5.021   1.438  1.00  0.00     0.056 C 
ATOM     23  C   UNL     1       3.807   4.260  -0.601  1.00  0.00     0.185 C 
ATOM     24  C   UNL     1       5.105   5.975   0.297  1.00  0.00     0.162 C 
ATOM     25  O   UNL     1       4.391   5.541  -0.863  1.00  0.00    -0.379 OA
ENDBRANCH  19  21
ENDBRANCH   7  15
ENDBRANCH   4   7
ENDBRANCH   2   3
ENDBRANCH   1   2
BRANCH   1  26
ATOM     26  C   UNL     1       4.751   4.058   6.310  1.00  0.00     0.023 C 
BRANCH  26  27
ATOM     27  C   UNL     1       3.995   5.018   5.395  1.00  0.00     0.116 C 
BRANCH  27  28
ATOM     28  N   UNL     1       2.623   4.637   5.086  1.00  0.00    -0.352 N 
ATOM     29  C   UNL     1       1.423   5.179   5.494  1.00  0.00     0.251 C 
ATOM     30  H   UNL     1       2.539   3.862   4.484  1.00  0.00     0.163 HD
ATOM     31  O   UNL     1       0.365   4.683   5.114  1.00  0.00    -0.269 OA
BRANCH  29  32
ATOM     32  C   UNL     1       1.390   6.316   6.442  1.00  0.00     0.039 A 
ATOM     33  C   UNL     1       0.574   6.221   7.574  1.00  0.00     0.014 A 
ATOM     34  C   UNL     1       2.176   7.451   6.248  1.00  0.00     0.014 A 
ATOM     35  C   UNL     1       0.654   7.197   8.572  1.00  0.00     0.010 A 
ATOM     36  C   UNL     1       2.325   8.373   7.283  1.00  0.00     0.010 A 
ATOM     37  C   UNL     1       1.585   8.242   8.469  1.00  0.00    -0.014 A 
BRANCH  37  38
ATOM     38  C   UNL     1       1.839   9.170   9.606  1.00  0.00     0.031 A 
ATOM     39  C   UNL     1       1.612  10.649   9.456  1.00  0.00     0.074 A 
ATOM     40  C   UNL     1       2.364   8.688  10.751  1.00  0.00     0.049 A 
ATOM     41  N   UNL     1       1.859  11.615  10.305  1.00  0.00    -0.248 NA
ATOM     42  C   UNL     1       1.065  11.107   8.170  1.00  0.00     0.031 C 
ATOM     43  C   UNL     1       2.697   7.285  11.006  1.00  0.00     0.029 A 
ATOM     44  N   UNL     1       2.724   9.327  11.913  1.00  0.00    -0.354 N 
ATOM     45  C   UNL     1       1.517  12.791   9.651  1.00  0.00     0.074 A 
ATOM     46  C   UNL     1       1.097  12.423   8.316  1.00  0.00     0.031 C 
ATOM     47  C   UNL     1       3.183   7.165  12.252  1.00  0.00     0.029 A 
ATOM     48  C   UNL     1       3.236   8.485  12.871  1.00  0.00     0.049 A 
ATOM     49  H   UNL     1       2.625  10.297  12.047  1.00  0.00     0.167 HD
ATOM     50  C   UNL     1       1.528  14.059  10.127  1.00  0.00     0.037 A 
ATOM     51  C   UNL     1       3.699   8.746  14.109  1.00  0.00     0.037 A 
ATOM     52  C   UNL     1       1.915  14.424  11.465  1.00  0.00     0.049 A 
ATOM     53  C   UNL     1       3.685  10.161  14.619  1.00  0.00     0.074 A 
ATOM     54  C   UNL     1       1.892  15.673  12.060  1.00  0.00     0.029 A 
ATOM     55  N   UNL     1       2.394  13.537  12.418  1.00  0.00    -0.354 N 
ATOM     56  N   UNL     1       3.287  11.254  14.015  1.00  0.00    -0.248 NA
ATOM     57  C   UNL     1       4.180  10.378  15.986  1.00  0.00     0.031 C 
ATOM     58  C   UNL     1       2.395  15.550  13.360  1.00  0.00     0.029 A 
ATOM     59  C   UNL     1       2.688  14.216  13.590  1.00  0.00     0.049 A 
ATOM     60  H   UNL     1       2.509  12.569  12.281  1.00  0.00     0.167 HD
ATOM     61  C   UNL     1       3.454  12.280  14.935  1.00  0.00     0.074 A 
ATOM     62  C   UNL     1       3.977  11.678  16.143  1.00  0.00     0.031 C 
ATOM     63  C   UNL     1       3.198  13.603  14.790  1.00  0.00     0.037 A 
BRANCH  50  64
ATOM     64  C   UNL     1       1.096  15.153   9.193  1.00  0.00     0.064 A 
ATOM     65  C   UNL     1      -0.242  15.289   8.791  1.00  0.00     0.173 A 
ATOM     66  C   UNL     1       2.021  16.096   8.721  1.00  0.00     0.173 A 
ATOM     67  F   UNL     1      -1.164  14.406   9.206  1.00  0.00    -0.203 F 
ATOM     68  C   UNL     1      -0.631  16.308   7.927  1.00  0.00     0.198 A 
ATOM     69  C   UNL     1       1.622  17.133   7.882  1.00  0.00     0.198 A 
ATOM     70  F   UNL     1       3.311  16.017   9.080  1.00  0.00    -0.203 F 
ATOM     71  F   UNL     1      -1.905  16.387   7.517  1.00  0.00    -0.200 F 
ATOM     72  C   UNL     1       0.299  17.233   7.479  1.00  0.00     0.200 A 
ATOM     73  F   UNL     1       2.520  18.035   7.460  1.00  0.00    -0.200 F 
ATOM     74  F   UNL     1      -0.078  18.218   6.652  1.00  0.00    -0.200 F 
ENDBRANCH  50  64
BRANCH  51  75
ATOM     75  C   UNL     1       4.187   7.636  14.970  1.00  0.00     0.064 A 
ATOM     76  C   UNL     1       3.461   7.232  16.099  1.00  0.00     0.173 A 
ATOM     77  C   UNL     1       5.387   6.966  14.692  1.00  0.00     0.173 A 
ATOM     78  F   UNL     1       2.318   7.858  16.418  1.00  0.00    -0.203 F 
ATOM     79  C   UNL     1       3.926   6.215  16.929  1.00  0.00     0.198 A 
ATOM     80  C   UNL     1       5.838   5.930  15.507  1.00  0.00     0.198 A 
ATOM     81  F   UNL     1       6.117   7.311  13.621  1.00  0.00    -0.203 F 
ATOM     82  F   UNL     1       3.235   5.881  18.027  1.00  0.00    -0.200 F 
ATOM     83  C   UNL     1       5.112   5.561  16.630  1.00  0.00     0.200 A 
ATOM     84  F   UNL     1       6.977   5.292  15.208  1.00  0.00    -0.200 F 
ATOM     85  F   UNL     1       5.558   4.581  17.427  1.00  0.00    -0.200 F 
ENDBRANCH  51  75
BRANCH  63  86
ATOM     86  C   UNL     1       3.444  14.486  15.978  1.00  0.00     0.064 A 
ATOM     87  C   UNL     1       4.742  14.804  16.404  1.00  0.00     0.173 A 
ATOM     88  C   UNL     1       2.366  15.052  16.676  1.00  0.00     0.173 A 
ATOM     89  F   UNL     1       5.805  14.275  15.780  1.00  0.00    -0.203 F 
ATOM     90  C   UNL     1       4.951  15.636  17.501  1.00  0.00     0.198 A 
ATOM     91  C   UNL     1       2.579  15.906  17.754  1.00  0.00     0.198 A 
ATOM     92  F   UNL     1       1.105  14.784  16.305  1.00  0.00    -0.203 F 
ATOM     93  F   UNL     1       6.199  15.888  17.919  1.00  0.00    -0.200 F 
ATOM     94  C   UNL     1       3.871  16.192  18.170  1.00  0.00     0.200 A 
ATOM     95  F   UNL     1       1.534  16.453  18.392  1.00  0.00    -0.200 F 
ATOM     96  F   UNL     1       4.075  16.998  19.221  1.00  0.00    -0.200 F 
ENDBRANCH  63  86
ENDBRANCH  37  38
ENDBRANCH  29  32
ENDBRANCH  27  28
ENDBRANCH  26  27
ENDBRANCH   1  26
TORSDOF 16
