REMARK SMILES O=C(NCCCCNC(=O)c1ccc(-c2c3nc(c(-c4c(F)c(F)c(F)c(F)c4F)c4ccc([nH]4)c(-c4c(F)c(F)c(F)c(F)c4F)c4nc(c(-c5c(F)c(F)c(F)c(F)c5F)c5ccc2[nH]5)C=C4)C=C3)cc1)c1ccc(/C=N/NC(=O)c2cccc3ccccc23)cc1
REMARK SMILES IDX 5 1 4 2 3 3 1 4 2 5 74 7 75 8 94 9 76 10 93 11 77 12 78 13
REMARK SMILES IDX 79 14 80 15 81 16 82 18 83 19 84 20 92 21 85 22 87 23 91 24
REMARK SMILES IDX 86 25 88 26 90 27 89 28 6 29 7 30 8 31 9 32 10 34 11 35
REMARK SMILES IDX 12 36 73 37 13 38 72 39 14 40 15 41 16 42 66 43 17 44 71 45
REMARK SMILES IDX 65 46 67 47 18 48 70 49 64 50 63 51 19 53 51 54 31 55 50 56
REMARK SMILES IDX 32 57 35 58 49 59 68 60 33 61 34 62 48 64 69 65 36 66 20 67
REMARK SMILES IDX 21 68 29 69 22 70 23 71 27 72 30 73 24 74 25 75 28 76 26 77
REMARK SMILES IDX 52 78 53 79 61 80 54 81 55 82 59 83 62 84 56 85 57 86 60 87
REMARK SMILES IDX 58 88 37 89 38 90 46 91 39 92 40 93 44 94 47 95 41 96 42 97
REMARK SMILES IDX 45 98 43 99
REMARK H PARENT 3 6 80 17 8 33 67 52 35 63
REMARK Flexibility Score: inf
ROOT
ATOM      1  C   UNL     1       4.952   2.599  -0.013  1.00  0.00     0.023 C 
ENDROOT
BRANCH   1   2
ATOM      2  C   UNL     1       4.520   1.229   0.500  1.00  0.00     0.116 C 
BRANCH   2   3
ATOM      3  N   UNL     1       3.075   1.104   0.602  1.00  0.00    -0.352 N 
ATOM      4  O   UNL     1       1.040   0.236   0.154  1.00  0.00    -0.269 OA
ATOM      5  C   UNL     1       2.261   0.106   0.130  1.00  0.00     0.251 C 
ATOM      6  H   UNL     1       2.617   1.837   1.075  1.00  0.00     0.163 HD
BRANCH   5   7
ATOM      7  C   UNL     1       2.857  -1.122  -0.432  1.00  0.00     0.039 A 
ATOM      8  C   UNL     1       3.854  -1.818   0.263  1.00  0.00     0.014 A 
ATOM      9  C   UNL     1       2.409  -1.572  -1.680  1.00  0.00     0.014 A 
ATOM     10  C   UNL     1       4.475  -2.910  -0.334  1.00  0.00     0.010 A 
ATOM     11  C   UNL     1       3.003  -2.690  -2.262  1.00  0.00     0.010 A 
ATOM     12  C   UNL     1       4.046  -3.336  -1.593  1.00  0.00    -0.005 A 
BRANCH  12  13
ATOM     13  C   UNL     1       4.768  -4.401  -2.299  1.00  0.00     0.141 C 
ATOM     14  N   UNL     1       6.048  -4.496  -2.160  1.00  0.00    -0.180 NA
BRANCH  14  15
ATOM     15  N   UNL     1       6.750  -5.332  -2.964  1.00  0.00    -0.243 N 
ATOM     16  C   UNL     1       6.591  -5.687  -4.288  1.00  0.00     0.271 C 
ATOM     17  H   UNL     1       7.515  -5.766  -2.521  1.00  0.00     0.194 HD
ATOM     18  O   UNL     1       7.401  -6.473  -4.790  1.00  0.00    -0.267 OA
BRANCH  16  19
ATOM     19  C   UNL     1       5.479  -5.218  -5.153  1.00  0.00     0.049 A 
ATOM     20  C   UNL     1       4.763  -6.263  -5.767  1.00  0.00     0.014 A 
ATOM     21  C   UNL     1       5.175  -3.857  -5.450  1.00  0.00    -0.006 A 
ATOM     22  C   UNL     1       3.771  -5.992  -6.698  1.00  0.00     0.001 A 
ATOM     23  C   UNL     1       4.174  -3.608  -6.429  1.00  0.00    -0.018 A 
ATOM     24  C   UNL     1       5.772  -2.723  -4.843  1.00  0.00     0.009 A 
ATOM     25  C   UNL     1       3.501  -4.673  -7.047  1.00  0.00     0.009 A 
ATOM     26  C   UNL     1       3.833  -2.293  -6.782  1.00  0.00     0.009 A 
ATOM     27  C   UNL     1       5.353  -1.421  -5.139  1.00  0.00     0.001 A 
ATOM     28  C   UNL     1       4.398  -1.205  -6.122  1.00  0.00     0.001 A 
ENDBRANCH  16  19
ENDBRANCH  14  15
ENDBRANCH  12  13
ENDBRANCH   5   7
ENDBRANCH   2   3
ENDBRANCH   1   2
BRANCH   1  29
ATOM     29  C   UNL     1       4.521   3.784   0.851  1.00  0.00     0.023 C 
BRANCH  29  30
ATOM     30  C   UNL     1       4.894   3.686   2.326  1.00  0.00     0.116 C 
BRANCH  30  31
ATOM     31  N   UNL     1       6.328   3.575   2.540  1.00  0.00    -0.352 N 
ATOM     32  C   UNL     1       7.161   4.326   3.332  1.00  0.00     0.251 C 
ATOM     33  H   UNL     1       6.769   2.851   2.041  1.00  0.00     0.163 HD
ATOM     34  O   UNL     1       8.376   4.167   3.257  1.00  0.00    -0.269 OA
BRANCH  32  35
ATOM     35  C   UNL     1       6.611   5.349   4.248  1.00  0.00     0.039 A 
ATOM     36  C   UNL     1       7.268   6.578   4.344  1.00  0.00     0.014 A 
ATOM     37  C   UNL     1       5.466   5.111   5.014  1.00  0.00     0.014 A 
ATOM     38  C   UNL     1       6.740   7.586   5.152  1.00  0.00     0.010 A 
ATOM     39  C   UNL     1       4.890   6.147   5.748  1.00  0.00     0.010 A 
ATOM     40  C   UNL     1       5.521   7.396   5.827  1.00  0.00    -0.014 A 
BRANCH  40  41
ATOM     41  C   UNL     1       4.900   8.517   6.580  1.00  0.00     0.031 A 
ATOM     42  C   UNL     1       4.696   8.436   8.067  1.00  0.00     0.074 A 
ATOM     43  C   UNL     1       4.495   9.611   5.907  1.00  0.00     0.049 A 
ATOM     44  N   UNL     1       4.236   9.348   8.889  1.00  0.00    -0.248 NA
ATOM     45  C   UNL     1       5.027   7.160   8.716  1.00  0.00     0.031 C 
ATOM     46  C   UNL     1       4.572   9.784   4.455  1.00  0.00     0.029 A 
ATOM     47  N   UNL     1       3.953  10.791   6.351  1.00  0.00    -0.354 N 
ATOM     48  C   UNL     1       4.218   8.754  10.145  1.00  0.00     0.074 A 
ATOM     49  C   UNL     1       4.655   7.386   9.967  1.00  0.00     0.031 C 
ATOM     50  C   UNL     1       4.152  11.017   4.135  1.00  0.00     0.029 A 
ATOM     51  C   UNL     1       3.739  11.708   5.351  1.00  0.00     0.049 A 
ATOM     52  H   UNL     1       3.739  10.964   7.297  1.00  0.00     0.167 HD
ATOM     53  C   UNL     1       3.891   9.306  11.339  1.00  0.00     0.037 A 
ATOM     54  C   UNL     1       3.274  12.970   5.409  1.00  0.00     0.037 A 
ATOM     55  C   UNL     1       3.464  10.672  11.509  1.00  0.00     0.049 A 
ATOM     56  C   UNL     1       2.921  13.559   6.747  1.00  0.00     0.074 A 
ATOM     57  C   UNL     1       3.178  11.348  12.683  1.00  0.00     0.029 A 
ATOM     58  N   UNL     1       3.245  11.569  10.473  1.00  0.00    -0.354 N 
ATOM     59  N   UNL     1       3.005  13.022   7.940  1.00  0.00    -0.248 NA
ATOM     60  C   UNL     1       2.418  14.939   6.744  1.00  0.00     0.031 C 
ATOM     61  C   UNL     1       2.722  12.629  12.353  1.00  0.00     0.029 A 
ATOM     62  C   UNL     1       2.792  12.779  10.978  1.00  0.00     0.049 A 
ATOM     63  H   UNL     1       3.390  11.374   9.518  1.00  0.00     0.167 HD
ATOM     64  C   UNL     1       2.594  14.004   8.831  1.00  0.00     0.074 A 
ATOM     65  C   UNL     1       2.288  15.179   8.040  1.00  0.00     0.031 C 
ATOM     66  C   UNL     1       2.478  13.940  10.181  1.00  0.00     0.037 A 
BRANCH  53  67
ATOM     67  C   UNL     1       3.970   8.426  12.556  1.00  0.00     0.064 A 
ATOM     68  C   UNL     1       5.195   7.940  13.043  1.00  0.00     0.173 A 
ATOM     69  C   UNL     1       2.807   8.083  13.262  1.00  0.00     0.173 A 
ATOM     70  F   UNL     1       6.338   8.228  12.404  1.00  0.00    -0.203 F 
ATOM     71  C   UNL     1       5.246   7.115  14.164  1.00  0.00     0.198 A 
ATOM     72  C   UNL     1       2.866   7.288  14.405  1.00  0.00     0.198 A 
ATOM     73  F   UNL     1       1.609   8.524  12.849  1.00  0.00    -0.203 F 
ATOM     74  F   UNL     1       6.421   6.614  14.572  1.00  0.00    -0.200 F 
ATOM     75  C   UNL     1       4.083   6.795  14.848  1.00  0.00     0.200 A 
ATOM     76  F   UNL     1       1.742   6.995  15.074  1.00  0.00    -0.200 F 
ATOM     77  F   UNL     1       4.135   6.005  15.929  1.00  0.00    -0.200 F 
ENDBRANCH  53  67
BRANCH  54  78
ATOM     78  C   UNL     1       3.164  13.779   4.166  1.00  0.00     0.064 A 
ATOM     79  C   UNL     1       3.997  14.887   3.952  1.00  0.00     0.173 A 
ATOM     80  C   UNL     1       2.228  13.466   3.170  1.00  0.00     0.173 A 
ATOM     81  F   UNL     1       4.895  15.238   4.884  1.00  0.00    -0.203 F 
ATOM     82  C   UNL     1       3.883  15.663   2.801  1.00  0.00     0.198 A 
ATOM     83  C   UNL     1       2.137  14.223   2.004  1.00  0.00     0.198 A 
ATOM     84  F   UNL     1       1.411  12.413   3.322  1.00  0.00    -0.203 F 
ATOM     85  F   UNL     1       4.657  16.745   2.646  1.00  0.00    -0.200 F 
ATOM     86  C   UNL     1       2.958  15.327   1.825  1.00  0.00     0.200 A 
ATOM     87  F   UNL     1       1.254  13.884   1.055  1.00  0.00    -0.200 F 
ATOM     88  F   UNL     1       2.853  16.069   0.715  1.00  0.00    -0.200 F 
ENDBRANCH  54  78
BRANCH  66  89
ATOM     89  C   UNL     1       2.027  15.190  10.886  1.00  0.00     0.064 A 
ATOM     90  C   UNL     1       0.731  15.705  10.726  1.00  0.00     0.173 A 
ATOM     91  C   UNL     1       2.909  15.890  11.724  1.00  0.00     0.173 A 
ATOM     92  F   UNL     1      -0.149  15.084   9.927  1.00  0.00    -0.203 F 
ATOM     93  C   UNL     1       0.354  16.901  11.334  1.00  0.00     0.198 A 
ATOM     94  C   UNL     1       2.516  17.063  12.363  1.00  0.00     0.198 A 
ATOM     95  F   UNL     1       4.157  15.439  11.923  1.00  0.00    -0.203 F 
ATOM     96  F   UNL     1      -0.861  17.414  11.100  1.00  0.00    -0.200 F 
ATOM     97  C   UNL     1       1.245  17.576  12.154  1.00  0.00     0.200 A 
ATOM     98  F   UNL     1       3.372  17.704  13.170  1.00  0.00    -0.200 F 
ATOM     99  F   UNL     1       0.883  18.730  12.732  1.00  0.00    -0.200 F 
ENDBRANCH  66  89
ENDBRANCH  40  41
ENDBRANCH  32  35
ENDBRANCH  30  31
ENDBRANCH  29  30
ENDBRANCH   1  29
TORSDOF 14
