REMARK SMILES Cc1c(NC(=S)NC(=O)CSc2ccc(Cl)cc2)cccc1C(=O)NCCCCNC(=O)c1ccc(-c2c3nc(c(-c4c(F)c(F)c(F)c(F)c4F)c4ccc([nH]4)c(-c4c(F)c(F)c(F)c(F)c4F)c4nc(c(-c5c(F)c(F)c(F)c(F)c5F)c5ccc2[nH]5)C=C4)C=C3)cc1
REMARK SMILES IDX 23 1 24 2 25 3 22 5 1 6 2 7 3 8 19 9 21 10 20 11 4 12 5 14
REMARK SMILES IDX 6 15 7 16 8 17 9 19 10 20 11 21 12 22 13 23 18 24 14 25
REMARK SMILES IDX 17 26 15 27 16 28 26 29 27 30 28 31 29 32 30 33 31 34 32 36
REMARK SMILES IDX 33 37 34 38 95 39 35 40 94 41 36 42 37 43 38 44 88 45 39 46
REMARK SMILES IDX 93 47 87 48 89 49 40 50 92 51 86 52 85 53 41 55 73 56 53 57
REMARK SMILES IDX 72 58 54 59 57 60 71 61 90 62 55 63 56 64 70 66 91 67 58 68
REMARK SMILES IDX 42 69 43 70 51 71 44 72 45 73 49 74 52 75 46 76 47 77 50 78
REMARK SMILES IDX 48 79 74 80 75 81 83 82 76 83 77 84 81 85 84 86 78 87 79 88
REMARK SMILES IDX 82 89 80 90 59 91 60 92 68 93 61 94 62 95 66 96 69 97 63 98
REMARK SMILES IDX 64 99 67 100 65 101
REMARK H PARENT 25 4 4 13 7 18 30 35 89 54 57 65
REMARK Flexibility Score: inf
ROOT
ATOM      1  C   UNL     1       1.235   2.195  -0.276  1.00  0.00     0.251 C 
ATOM      2  O   UNL     1       0.484   3.151  -0.022  1.00  0.00    -0.269 OA
ATOM      3  N   UNL     1       2.542   2.490  -0.011  1.00  0.00    -0.352 N 
ATOM      4  H   UNL     1       2.631   3.418   0.306  1.00  0.00     0.163 HD
ENDROOT
BRANCH   1   5
ATOM      5  C   UNL     1       0.584   0.937  -0.814  1.00  0.00     0.044 A 
ATOM      6  C   UNL     1       2.387  -0.857  -0.479  1.00  0.00     0.047 C 
ATOM      7  C   UNL     1       0.988  -0.422  -0.777  1.00  0.00    -0.015 A 
ATOM      8  C   UNL     1       0.018  -1.442  -1.038  1.00  0.00     0.044 A 
ATOM      9  C   UNL     1      -1.201  -1.123  -1.629  1.00  0.00     0.026 A 
ATOM     10  C   UNL     1      -0.710   1.204  -1.330  1.00  0.00     0.014 A 
ATOM     11  C   UNL     1      -1.567   0.203  -1.782  1.00  0.00     0.003 A 
BRANCH   8  12
ATOM     12  N   UNL     1       0.313  -2.774  -0.680  1.00  0.00    -0.332 N 
ATOM     13  H   UNL     1       1.272  -2.918  -0.510  1.00  0.00     0.169 HD
BRANCH  12  14
ATOM     14  C   UNL     1      -0.412  -3.887  -0.517  1.00  0.00     0.177 C 
ATOM     15  S   UNL     1       0.403  -5.346  -0.673  1.00  0.00    -0.040 S 
BRANCH  14  16
ATOM     16  N   UNL     1      -1.730  -3.948  -0.180  1.00  0.00    -0.302 N 
ATOM     17  C   UNL     1      -2.745  -3.221   0.417  1.00  0.00     0.236 C 
ATOM     18  H   UNL     1      -2.088  -4.821  -0.460  1.00  0.00     0.172 HD
ATOM     19  O   UNL     1      -3.880  -3.713   0.325  1.00  0.00    -0.274 OA
BRANCH  17  20
ATOM     20  C   UNL     1      -2.571  -1.899   1.134  1.00  0.00     0.175 C 
BRANCH  20  21
ATOM     21  S   UNL     1      -1.086  -1.773   2.166  1.00  0.00    -0.116 SA
BRANCH  21  22
ATOM     22  C   UNL     1      -1.864  -1.568   3.746  1.00  0.00     0.008 A 
ATOM     23  C   UNL     1      -2.170  -0.297   4.242  1.00  0.00     0.016 A 
ATOM     24  C   UNL     1      -2.186  -2.706   4.487  1.00  0.00     0.016 A 
ATOM     25  C   UNL     1      -2.810  -0.170   5.477  1.00  0.00     0.021 A 
ATOM     26  C   UNL     1      -2.825  -2.579   5.719  1.00  0.00     0.021 A 
ATOM     27  C   UNL     1      -3.137  -1.312   6.208  1.00  0.00     0.041 A 
ATOM     28  Cl  UNL     1      -3.932  -1.160   7.725  1.00  0.00    -0.084 Cl
ENDBRANCH  21  22
ENDBRANCH  20  21
ENDBRANCH  17  20
ENDBRANCH  14  16
ENDBRANCH  12  14
ENDBRANCH   8  12
ENDBRANCH   1   5
BRANCH   3  29
ATOM     29  C   UNL     1       3.833   1.842  -0.059  1.00  0.00     0.116 C 
BRANCH  29  30
ATOM     30  C   UNL     1       4.344   1.600  -1.484  1.00  0.00     0.023 C 
BRANCH  30  31
ATOM     31  C   UNL     1       5.125   2.751  -2.103  1.00  0.00     0.023 C 
BRANCH  31  32
ATOM     32  C   UNL     1       6.498   2.942  -1.479  1.00  0.00     0.116 C 
BRANCH  32  33
ATOM     33  N   UNL     1       7.516   1.981  -1.889  1.00  0.00    -0.352 N 
ATOM     34  C   UNL     1       8.772   1.733  -1.346  1.00  0.00     0.251 C 
ATOM     35  H   UNL     1       7.279   1.426  -2.666  1.00  0.00     0.163 HD
ATOM     36  O   UNL     1       9.528   0.948  -1.895  1.00  0.00    -0.269 OA
BRANCH  34  37
ATOM     37  C   UNL     1       9.126   2.293  -0.012  1.00  0.00     0.039 A 
ATOM     38  C   UNL     1       9.740   1.437   0.913  1.00  0.00     0.014 A 
ATOM     39  C   UNL     1       8.603   3.505   0.413  1.00  0.00     0.014 A 
ATOM     40  C   UNL     1       9.535   1.650   2.274  1.00  0.00     0.010 A 
ATOM     41  C   UNL     1       8.255   3.628   1.741  1.00  0.00     0.010 A 
ATOM     42  C   UNL     1       8.658   2.658   2.663  1.00  0.00    -0.014 A 
BRANCH  42  43
ATOM     43  C   UNL     1       7.996   2.697   3.963  1.00  0.00     0.031 A 
ATOM     44  C   UNL     1       8.245   3.818   4.894  1.00  0.00     0.074 A 
ATOM     45  C   UNL     1       7.039   1.780   4.239  1.00  0.00     0.049 A 
ATOM     46  N   UNL     1       7.962   3.802   6.152  1.00  0.00    -0.248 NA
ATOM     47  C   UNL     1       8.901   5.050   4.477  1.00  0.00     0.031 C 
ATOM     48  C   UNL     1       6.038   1.834   5.303  1.00  0.00     0.029 A 
ATOM     49  N   UNL     1       6.898   0.489   3.698  1.00  0.00    -0.354 N 
ATOM     50  C   UNL     1       8.116   5.082   6.640  1.00  0.00     0.074 A 
ATOM     51  C   UNL     1       8.792   5.790   5.582  1.00  0.00     0.031 C 
ATOM     52  C   UNL     1       5.601   0.590   5.551  1.00  0.00     0.029 A 
ATOM     53  C   UNL     1       6.416  -0.314   4.760  1.00  0.00     0.049 A 
ATOM     54  H   UNL     1       7.093   0.204   2.776  1.00  0.00     0.167 HD
ATOM     55  C   UNL     1       7.521   5.405   7.827  1.00  0.00     0.037 A 
ATOM     56  C   UNL     1       7.162  -1.336   5.271  1.00  0.00     0.037 A 
ATOM     57  C   UNL     1       7.006   4.199   8.485  1.00  0.00     0.049 A 
ATOM     58  C   UNL     1       7.503  -1.177   6.735  1.00  0.00     0.074 A 
ATOM     59  C   UNL     1       5.737   3.657   8.609  1.00  0.00     0.029 A 
ATOM     60  N   UNL     1       7.897   3.201   8.874  1.00  0.00    -0.354 N 
ATOM     61  N   UNL     1       7.413  -0.049   7.383  1.00  0.00    -0.248 NA
ATOM     62  C   UNL     1       8.011  -2.261   7.572  1.00  0.00     0.031 C 
ATOM     63  C   UNL     1       5.874   2.301   9.006  1.00  0.00     0.029 A 
ATOM     64  C   UNL     1       7.223   2.026   9.148  1.00  0.00     0.049 A 
ATOM     65  H   UNL     1       8.872   3.317   8.944  1.00  0.00     0.167 HD
ATOM     66  C   UNL     1       7.867  -0.218   8.664  1.00  0.00     0.074 A 
ATOM     67  C   UNL     1       8.207  -1.627   8.741  1.00  0.00     0.031 C 
ATOM     68  C   UNL     1       7.945   0.824   9.543  1.00  0.00     0.037 A 
BRANCH  55  69
ATOM     69  C   UNL     1       7.138   6.816   8.262  1.00  0.00     0.064 A 
ATOM     70  C   UNL     1       6.138   7.014   9.243  1.00  0.00     0.173 A 
ATOM     71  C   UNL     1       7.623   8.013   7.699  1.00  0.00     0.173 A 
ATOM     72  F   UNL     1       5.649   5.994   9.961  1.00  0.00    -0.203 F 
ATOM     73  C   UNL     1       5.594   8.272   9.533  1.00  0.00     0.198 A 
ATOM     74  C   UNL     1       7.060   9.267   7.964  1.00  0.00     0.198 A 
ATOM     75  F   UNL     1       8.699   8.045   6.913  1.00  0.00    -0.203 F 
ATOM     76  F   UNL     1       4.627   8.382  10.455  1.00  0.00    -0.200 F 
ATOM     77  C   UNL     1       6.032   9.396   8.868  1.00  0.00     0.200 A 
ATOM     78  F   UNL     1       7.532  10.350   7.328  1.00  0.00    -0.200 F 
ATOM     79  F   UNL     1       5.491  10.595   9.116  1.00  0.00    -0.200 F 
ENDBRANCH  55  69
BRANCH  56  80
ATOM     80  C   UNL     1       8.028  -1.990   4.256  1.00  0.00     0.064 A 
ATOM     81  C   UNL     1       7.407  -2.660   3.184  1.00  0.00     0.173 A 
ATOM     82  C   UNL     1       9.377  -1.650   4.110  1.00  0.00     0.173 A 
ATOM     83  F   UNL     1       6.112  -3.004   3.270  1.00  0.00    -0.203 F 
ATOM     84  C   UNL     1       8.070  -2.870   1.977  1.00  0.00     0.198 A 
ATOM     85  C   UNL     1      10.043  -1.874   2.902  1.00  0.00     0.198 A 
ATOM     86  F   UNL     1      10.018  -0.986   5.083  1.00  0.00    -0.203 F 
ATOM     87  F   UNL     1       7.413  -3.405   0.938  1.00  0.00    -0.200 F 
ATOM     88  C   UNL     1       9.381  -2.451   1.828  1.00  0.00     0.200 A 
ATOM     89  F   UNL     1      11.300  -1.433   2.744  1.00  0.00    -0.200 F 
ATOM     90  F   UNL     1       9.990  -2.558   0.639  1.00  0.00    -0.200 F 
ENDBRANCH  56  80
BRANCH  68  91
ATOM     91  C   UNL     1       8.637   0.798  10.884  1.00  0.00     0.064 A 
ATOM     92  C   UNL     1       9.757   0.002  11.173  1.00  0.00     0.173 A 
ATOM     93  C   UNL     1       8.266   1.719  11.894  1.00  0.00     0.173 A 
ATOM     94  F   UNL     1      10.276  -0.828  10.258  1.00  0.00    -0.203 F 
ATOM     95  C   UNL     1      10.422   0.080  12.400  1.00  0.00     0.198 A 
ATOM     96  C   UNL     1       8.967   1.835  13.093  1.00  0.00     0.198 A 
ATOM     97  F   UNL     1       7.228   2.552  11.733  1.00  0.00    -0.203 F 
ATOM     98  F   UNL     1      11.464  -0.729  12.642  1.00  0.00    -0.200 F 
ATOM     99  C   UNL     1      10.037   1.004  13.353  1.00  0.00     0.200 A 
ATOM    100  F   UNL     1       8.613   2.771  13.984  1.00  0.00    -0.200 F 
ATOM    101  F   UNL     1      10.708   1.108  14.508  1.00  0.00    -0.200 F 
ENDBRANCH  68  91
ENDBRANCH  42  43
ENDBRANCH  34  37
ENDBRANCH  32  33
ENDBRANCH  31  32
ENDBRANCH  30  31
ENDBRANCH  29  30
ENDBRANCH   3  29
TORSDOF 17
