REMARK SMILES N#CCC(=O)NNC(=O)c1ccccc1C(=O)NCCCCNC(=O)c1ccc(-c2c3nc(c(-c4c(F)c(F)c(F)c(F)c4F)c4ccc([nH]4)c(-c4c(F)c(F)c(F)c(F)c4F)c4nc(c(-c5c(F)c(F)c(F)c(F)c5F)c5ccc2[nH]5)C=C4)C=C3)cc1
REMARK SMILES IDX 19 1 18 2 16 3 17 4 15 6 10 7 11 8 12 9 14 10 13 11 8 12
REMARK SMILES IDX 7 13 9 15 6 16 4 17 5 18 3 20 2 21 1 22 20 23 21 24 22 25
REMARK SMILES IDX 23 26 24 27 25 29 26 30 27 31 88 32 28 33 87 34 29 35 30 36
REMARK SMILES IDX 31 37 81 38 32 39 86 40 80 41 82 42 33 43 85 44 79 45 78 46
REMARK SMILES IDX 34 48 66 49 46 50 65 51 47 52 50 53 64 54 83 55 48 56 49 57
REMARK SMILES IDX 63 59 84 60 51 61 35 62 36 63 44 64 37 65 38 66 42 67 45 68
REMARK SMILES IDX 39 69 40 70 43 71 41 72 67 73 68 74 76 75 69 76 70 77 74 78
REMARK SMILES IDX 77 79 71 80 72 81 75 82 73 83 52 84 53 85 61 86 54 87 55 88
REMARK SMILES IDX 59 89 62 90 56 91 57 92 60 93 58 94
REMARK H PARENT 18 5 7 14 6 19 23 28 82 47 50 58
REMARK Flexibility Score: inf
ROOT
ATOM      1  C   UNL     1       3.691  -0.742   4.371  1.00  0.00     0.116 C 
ENDROOT
BRANCH   1   2
ATOM      2  N   UNL     1       4.839  -1.175   3.593  1.00  0.00    -0.352 N 
ATOM      3  C   UNL     1       5.191  -2.436   3.173  1.00  0.00     0.252 C 
ATOM      4  O   UNL     1       6.227  -2.580   2.526  1.00  0.00    -0.269 OA
ATOM      5  H   UNL     1       5.458  -0.457   3.325  1.00  0.00     0.163 HD
BRANCH   3   6
ATOM      6  C   UNL     1       4.409  -3.643   3.519  1.00  0.00     0.052 A 
ATOM      7  C   UNL     1       3.038  -3.804   3.321  1.00  0.00     0.054 A 
ATOM      8  C   UNL     1       2.398  -4.964   3.806  1.00  0.00     0.015 A 
ATOM      9  C   UNL     1       3.125  -5.993   4.401  1.00  0.00     0.001 A 
ATOM     10  C   UNL     1       5.142  -4.712   4.072  1.00  0.00     0.014 A 
ATOM     11  C   UNL     1       4.505  -5.879   4.507  1.00  0.00     0.001 A 
BRANCH   7  12
ATOM     12  C   UNL     1       2.140  -2.851   2.651  1.00  0.00     0.270 C 
ATOM     13  N   UNL     1       2.413  -2.295   1.423  1.00  0.00    -0.263 N 
ATOM     14  H   UNL     1       1.700  -1.741   1.031  1.00  0.00     0.191 HD
ATOM     15  O   UNL     1       1.062  -2.602   3.191  1.00  0.00    -0.267 OA
BRANCH  13  16
ATOM     16  N   UNL     1       3.576  -2.421   0.667  1.00  0.00    -0.266 N 
ATOM     17  C   UNL     1       4.171  -1.405  -0.064  1.00  0.00     0.252 C 
ATOM     18  O   UNL     1       5.141  -1.683  -0.775  1.00  0.00    -0.272 OA
ATOM     19  H   UNL     1       4.011  -3.304   0.650  1.00  0.00     0.191 HD
BRANCH  17  20
ATOM     20  C   UNL     1       3.700   0.052   0.028  1.00  0.00     0.221 C 
BRANCH  20  21
ATOM     21  C   UNL     1       2.180   0.052   0.028  1.00  0.00     0.072 C 
ATOM     22  N   UNL     1       0.919   0.052   0.028  1.00  0.00    -0.198 NA
ENDBRANCH  20  21
ENDBRANCH  17  20
ENDBRANCH  13  16
ENDBRANCH   7  12
ENDBRANCH   3   6
ENDBRANCH   1   2
BRANCH   1  23
ATOM     23  C   UNL     1       3.867   0.610   5.070  1.00  0.00     0.023 C 
BRANCH  23  24
ATOM     24  C   UNL     1       4.197   1.820   4.185  1.00  0.00     0.023 C 
BRANCH  24  25
ATOM     25  C   UNL     1       3.341   2.017   2.940  1.00  0.00     0.116 C 
BRANCH  25  26
ATOM     26  N   UNL     1       2.015   2.556   3.131  1.00  0.00    -0.352 N 
ATOM     27  C   UNL     1       1.363   3.553   2.431  1.00  0.00     0.251 C 
ATOM     28  H   UNL     1       1.501   2.155   3.868  1.00  0.00     0.163 HD
ATOM     29  O   UNL     1       0.192   3.806   2.677  1.00  0.00    -0.269 OA
BRANCH  27  30
ATOM     30  C   UNL     1       2.093   4.395   1.449  1.00  0.00     0.039 A 
ATOM     31  C   UNL     1       2.037   5.780   1.618  1.00  0.00     0.014 A 
ATOM     32  C   UNL     1       2.837   3.862   0.394  1.00  0.00     0.014 A 
ATOM     33  C   UNL     1       2.815   6.617   0.813  1.00  0.00     0.010 A 
ATOM     34  C   UNL     1       3.664   4.690  -0.372  1.00  0.00     0.010 A 
ATOM     35  C   UNL     1       3.684   6.075  -0.148  1.00  0.00    -0.014 A 
BRANCH  35  36
ATOM     36  C   UNL     1       4.661   6.944  -0.861  1.00  0.00     0.031 A 
ATOM     37  C   UNL     1       4.577   7.154  -2.346  1.00  0.00     0.074 A 
ATOM     38  C   UNL     1       5.668   7.508  -0.163  1.00  0.00     0.049 A 
ATOM     39  N   UNL     1       5.368   7.848  -3.127  1.00  0.00    -0.248 NA
ATOM     40  C   UNL     1       3.475   6.483  -3.049  1.00  0.00     0.031 C 
ATOM     41  C   UNL     1       5.895   7.344   1.274  1.00  0.00     0.029 A 
ATOM     42  N   UNL     1       6.696   8.326  -0.567  1.00  0.00    -0.354 N 
ATOM     43  C   UNL     1       4.866   7.690  -4.412  1.00  0.00     0.074 A 
ATOM     44  C   UNL     1       3.728   6.800  -4.312  1.00  0.00     0.031 C 
ATOM     45  C   UNL     1       6.973   8.057   1.635  1.00  0.00     0.029 A 
ATOM     46  C   UNL     1       7.538   8.700   0.453  1.00  0.00     0.049 A 
ATOM     47  H   UNL     1       6.817   8.618  -1.499  1.00  0.00     0.167 HD
ATOM     48  C   UNL     1       5.302   8.251  -5.566  1.00  0.00     0.037 A 
ATOM     49  C   UNL     1       8.644   9.469   0.440  1.00  0.00     0.037 A 
ATOM     50  C   UNL     1       6.417   9.157  -5.665  1.00  0.00     0.049 A 
ATOM     51  C   UNL     1       9.103  10.082  -0.855  1.00  0.00     0.074 A 
ATOM     52  C   UNL     1       6.895   9.819  -6.784  1.00  0.00     0.029 A 
ATOM     53  N   UNL     1       7.230   9.530  -4.604  1.00  0.00    -0.354 N 
ATOM     54  N   UNL     1       8.576   9.980  -2.050  1.00  0.00    -0.248 NA
ATOM     55  C   UNL     1      10.308  10.924  -0.802  1.00  0.00     0.031 C 
ATOM     56  C   UNL     1       8.019  10.562  -6.408  1.00  0.00     0.029 A 
ATOM     57  C   UNL     1       8.215  10.399  -5.047  1.00  0.00     0.049 A 
ATOM     58  H   UNL     1       7.123   9.223  -3.675  1.00  0.00     0.167 HD
ATOM     59  C   UNL     1       9.360  10.767  -2.881  1.00  0.00     0.074 A 
ATOM     60  C   UNL     1      10.397  11.347  -2.055  1.00  0.00     0.031 C 
ATOM     61  C   UNL     1       9.229  10.989  -4.211  1.00  0.00     0.037 A 
BRANCH  48  62
ATOM     62  C   UNL     1       4.566   7.908  -6.827  1.00  0.00     0.064 A 
ATOM     63  C   UNL     1       3.280   8.407  -7.084  1.00  0.00     0.173 A 
ATOM     64  C   UNL     1       5.172   7.117  -7.815  1.00  0.00     0.173 A 
ATOM     65  F   UNL     1       2.654   9.162  -6.168  1.00  0.00    -0.203 F 
ATOM     66  C   UNL     1       2.618   8.106  -8.271  1.00  0.00     0.198 A 
ATOM     67  C   UNL     1       4.519   6.841  -9.013  1.00  0.00     0.198 A 
ATOM     68  F   UNL     1       6.405   6.624  -7.624  1.00  0.00    -0.203 F 
ATOM     69  F   UNL     1       1.375   8.560  -8.477  1.00  0.00    -0.200 F 
ATOM     70  C   UNL     1       3.241   7.329  -9.238  1.00  0.00     0.200 A 
ATOM     71  F   UNL     1       5.127   6.102  -9.952  1.00  0.00    -0.200 F 
ATOM     72  F   UNL     1       2.606   7.048 -10.384  1.00  0.00    -0.200 F 
ENDBRANCH  48  62
BRANCH  49  73
ATOM     73  C   UNL     1       9.386   9.724   1.702  1.00  0.00     0.064 A 
ATOM     74  C   UNL     1       9.379  10.994   2.296  1.00  0.00     0.173 A 
ATOM     75  C   UNL     1      10.123   8.711   2.332  1.00  0.00     0.173 A 
ATOM     76  F   UNL     1       8.706  11.999   1.719  1.00  0.00    -0.203 F 
ATOM     77  C   UNL     1      10.100  11.246   3.462  1.00  0.00     0.198 A 
ATOM     78  C   UNL     1      10.821   8.958   3.512  1.00  0.00     0.198 A 
ATOM     79  F   UNL     1      10.157   7.479   1.806  1.00  0.00    -0.203 F 
ATOM     80  F   UNL     1      10.114  12.480   3.984  1.00  0.00    -0.200 F 
ATOM     81  C   UNL     1      10.816  10.227   4.071  1.00  0.00     0.200 A 
ATOM     82  F   UNL     1      11.501   7.968   4.105  1.00  0.00    -0.200 F 
ATOM     83  F   UNL     1      11.508  10.470   5.193  1.00  0.00    -0.200 F 
ENDBRANCH  49  73
BRANCH  61  84
ATOM     84  C   UNL     1      10.197  11.936  -4.855  1.00  0.00     0.064 A 
ATOM     85  C   UNL     1      11.529  11.573  -5.103  1.00  0.00     0.173 A 
ATOM     86  C   UNL     1       9.770  13.203  -5.280  1.00  0.00     0.173 A 
ATOM     87  F   UNL     1      11.989  10.379  -4.700  1.00  0.00    -0.203 F 
ATOM     88  C   UNL     1      12.402  12.451  -5.741  1.00  0.00     0.198 A 
ATOM     89  C   UNL     1      10.639  14.068  -5.940  1.00  0.00     0.198 A 
ATOM     90  F   UNL     1       8.505  13.596  -5.070  1.00  0.00    -0.203 F 
ATOM     91  F   UNL     1      13.680  12.097  -5.937  1.00  0.00    -0.200 F 
ATOM     92  C   UNL     1      11.954  13.693  -6.166  1.00  0.00     0.200 A 
ATOM     93  F   UNL     1      10.201  15.263  -6.360  1.00  0.00    -0.200 F 
ATOM     94  F   UNL     1      12.793  14.531  -6.790  1.00  0.00    -0.200 F 
ENDBRANCH  61  84
ENDBRANCH  35  36
ENDBRANCH  27  30
ENDBRANCH  25  26
ENDBRANCH  24  25
ENDBRANCH  23  24
ENDBRANCH   1  23
TORSDOF 15
