REMARK SMILES COCCS(=O)(=O)N[C@@H]1C=C[C@@H](C(=O)NCCCCNC(=O)c2ccc(-c3c4nc(c(-c5c(F)c(F)c(F)c(F)c5F)c5ccc([nH]5)c(-c5c(F)c(F)c(F)c(F)c5F)c5nc(c(-c6c(F)c(F)c(F)c(F)c6F)c6ccc3[nH]6)C=C5)C=C4)cc2)C1
REMARK SMILES IDX 16 1 15 2 13 3 14 4 12 6 9 7 10 8 86 9 11 10 8 11 5 13 6 14
REMARK SMILES IDX 7 15 4 16 3 17 2 18 1 19 17 20 18 21 19 22 20 23 21 24 22 26
REMARK SMILES IDX 23 27 24 28 85 29 25 30 84 31 26 32 27 33 28 34 78 35 29 36
REMARK SMILES IDX 83 37 77 38 79 39 30 40 82 41 76 42 75 43 31 45 63 46 43 47
REMARK SMILES IDX 62 48 44 49 47 50 61 51 80 52 45 53 46 54 60 56 81 57 48 58
REMARK SMILES IDX 32 59 33 60 41 61 34 62 35 63 39 64 42 65 36 66 37 67 40 68
REMARK SMILES IDX 38 69 64 70 65 71 73 72 66 73 67 74 71 75 74 76 68 77 69 78
REMARK SMILES IDX 72 79 70 80 49 81 50 82 58 83 51 84 52 85 56 86 59 87 53 88
REMARK SMILES IDX 54 89 57 90 55 91
REMARK H PARENT 15 5 8 12 20 25 79 44 47 55
REMARK Flexibility Score: inf
ROOT
ATOM      1  C   UNL     1       1.605  -2.471   3.080  1.00  0.00     0.116 C 
ENDROOT
BRANCH   1   2
ATOM      2  N   UNL     1       1.431  -3.766   2.457  1.00  0.00    -0.356 N 
ATOM      3  C   UNL     1       1.430  -4.146   1.150  1.00  0.00     0.226 C 
ATOM      4  O   UNL     1       1.346  -5.360   0.933  1.00  0.00    -0.274 OA
ATOM      5  H   UNL     1       1.289  -4.505   3.092  1.00  0.00     0.163 HD
BRANCH   3   6
ATOM      6  C   UNL     1       1.531  -3.168  -0.029  1.00  0.00     0.103 C 
ATOM      7  C   UNL     1       1.064  -0.741  -0.045  1.00  0.00     0.093 C 
ATOM      8  C   UNL     1       2.526  -1.049  -0.078  1.00  0.00    -0.011 C 
ATOM      9  C   UNL     1       0.405  -2.128  -0.150  1.00  0.00     0.042 C 
ATOM     10  C   UNL     1       2.785  -2.359  -0.043  1.00  0.00    -0.016 C 
BRANCH   7  11
ATOM     11  N   UNL     1       0.764   0.124  -1.178  1.00  0.00    -0.208 NA
ATOM     12  H   UNL     1       1.561   0.067  -1.812  1.00  0.00     0.141 HD
BRANCH  11  13
ATOM     13  S   UNL     1       0.460   1.751  -0.924  1.00  0.00     0.214 S 
ATOM     14  O   UNL     1      -0.418   1.865   0.222  1.00  0.00    -0.212 OA
ATOM     15  O   UNL     1       0.039   2.251  -2.214  1.00  0.00    -0.212 OA
BRANCH  13  16
ATOM     16  C   UNL     1       2.071   2.465  -0.566  1.00  0.00     0.182 C 
BRANCH  16  17
ATOM     17  C   UNL     1       2.264   2.780   0.906  1.00  0.00     0.177 C 
BRANCH  17  18
ATOM     18  O   UNL     1       2.626   1.599   1.621  1.00  0.00    -0.384 OA
ATOM     19  C   UNL     1       1.829   1.396   2.781  1.00  0.00     0.194 C 
ENDBRANCH  17  18
ENDBRANCH  16  17
ENDBRANCH  13  16
ENDBRANCH  11  13
ENDBRANCH   7  11
ENDBRANCH   3   6
ENDBRANCH   1   2
BRANCH   1  20
ATOM     20  C   UNL     1       0.414  -2.083   3.955  1.00  0.00     0.023 C 
BRANCH  20  21
ATOM     21  C   UNL     1       0.277  -2.884   5.250  1.00  0.00     0.023 C 
BRANCH  21  22
ATOM     22  C   UNL     1       1.448  -2.766   6.223  1.00  0.00     0.116 C 
BRANCH  22  23
ATOM     23  N   UNL     1       1.639  -1.418   6.739  1.00  0.00    -0.352 N 
ATOM     24  C   UNL     1       1.802  -0.993   8.037  1.00  0.00     0.251 C 
ATOM     25  H   UNL     1       1.655  -0.707   6.059  1.00  0.00     0.163 HD
ATOM     26  O   UNL     1       1.831   0.207   8.290  1.00  0.00    -0.269 OA
BRANCH  24  27
ATOM     27  C   UNL     1       1.904  -1.979   9.137  1.00  0.00     0.039 A 
ATOM     28  C   UNL     1       1.169  -1.765  10.306  1.00  0.00     0.014 A 
ATOM     29  C   UNL     1       2.706  -3.117   9.017  1.00  0.00     0.014 A 
ATOM     30  C   UNL     1       1.174  -2.730  11.317  1.00  0.00     0.010 A 
ATOM     31  C   UNL     1       2.645  -4.115   9.987  1.00  0.00     0.010 A 
ATOM     32  C   UNL     1       1.875  -3.936  11.146  1.00  0.00    -0.014 A 
BRANCH  32  33
ATOM     33  C   UNL     1       1.800  -5.021  12.160  1.00  0.00     0.031 A 
ATOM     34  C   UNL     1       3.037  -5.477  12.884  1.00  0.00     0.074 A 
ATOM     35  C   UNL     1       0.624  -5.642  12.386  1.00  0.00     0.049 A 
ATOM     36  N   UNL     1       3.177  -6.442  13.760  1.00  0.00    -0.248 NA
ATOM     37  C   UNL     1       4.288  -4.774  12.563  1.00  0.00     0.031 C 
ATOM     38  C   UNL     1      -0.638  -5.331  11.713  1.00  0.00     0.029 A 
ATOM     39  N   UNL     1       0.300  -6.671  13.236  1.00  0.00    -0.354 N 
ATOM     40  C   UNL     1       4.527  -6.465  14.085  1.00  0.00     0.074 A 
ATOM     41  C   UNL     1       5.174  -5.461  13.268  1.00  0.00     0.031 C 
ATOM     42  C   UNL     1      -1.603  -6.129  12.196  1.00  0.00     0.029 A 
ATOM     43  C   UNL     1      -1.022  -7.040  13.178  1.00  0.00     0.049 A 
ATOM     44  H   UNL     1       0.954  -7.103  13.832  1.00  0.00     0.167 HD
ATOM     45  C   UNL     1       5.165  -7.235  14.999  1.00  0.00     0.037 A 
ATOM     46  C   UNL     1      -1.690  -8.008  13.834  1.00  0.00     0.037 A 
ATOM     47  C   UNL     1       4.516  -8.224  15.820  1.00  0.00     0.049 A 
ATOM     48  C   UNL     1      -0.952  -8.867  14.826  1.00  0.00     0.074 A 
ATOM     49  C   UNL     1       5.065  -9.014  16.815  1.00  0.00     0.029 A 
ATOM     50  N   UNL     1       3.174  -8.566  15.735  1.00  0.00    -0.354 N 
ATOM     51  N   UNL     1       0.309  -8.826  15.182  1.00  0.00    -0.248 NA
ATOM     52  C   UNL     1      -1.734  -9.904  15.515  1.00  0.00     0.031 C 
ATOM     53  C   UNL     1       4.072  -9.877  17.288  1.00  0.00     0.029 A 
ATOM     54  C   UNL     1       2.886  -9.579  16.637  1.00  0.00     0.049 A 
ATOM     55  H   UNL     1       2.523  -8.152  15.124  1.00  0.00     0.167 HD
ATOM     56  C   UNL     1       0.465  -9.806  16.153  1.00  0.00     0.074 A 
ATOM     57  C   UNL     1      -0.836 -10.412  16.346  1.00  0.00     0.031 C 
ATOM     58  C   UNL     1       1.585 -10.172  16.823  1.00  0.00     0.037 A 
BRANCH  45  59
ATOM     59  C   UNL     1       6.647  -7.041  15.160  1.00  0.00     0.064 A 
ATOM     60  C   UNL     1       7.183  -5.863  15.704  1.00  0.00     0.173 A 
ATOM     61  C   UNL     1       7.543  -8.060  14.802  1.00  0.00     0.173 A 
ATOM     62  F   UNL     1       6.373  -4.852  16.056  1.00  0.00    -0.203 F 
ATOM     63  C   UNL     1       8.558  -5.700  15.853  1.00  0.00     0.198 A 
ATOM     64  C   UNL     1       8.915  -7.908  14.984  1.00  0.00     0.198 A 
ATOM     65  F   UNL     1       7.087  -9.211  14.283  1.00  0.00    -0.203 F 
ATOM     66  F   UNL     1       9.047  -4.545  16.323  1.00  0.00    -0.200 F 
ATOM     67  C   UNL     1       9.422  -6.726  15.500  1.00  0.00     0.200 A 
ATOM     68  F   UNL     1       9.747  -8.907  14.659  1.00  0.00    -0.200 F 
ATOM     69  F   UNL     1      10.744  -6.571  15.652  1.00  0.00    -0.200 F 
ENDBRANCH  45  59
BRANCH  46  70
ATOM     70  C   UNL     1      -3.143  -8.211  13.587  1.00  0.00     0.064 A 
ATOM     71  C   UNL     1      -4.090  -7.943  14.586  1.00  0.00     0.173 A 
ATOM     72  C   UNL     1      -3.616  -8.692  12.357  1.00  0.00     0.173 A 
ATOM     73  F   UNL     1      -3.688  -7.502  15.788  1.00  0.00    -0.203 F 
ATOM     74  C   UNL     1      -5.448  -8.171  14.374  1.00  0.00     0.198 A 
ATOM     75  C   UNL     1      -4.977  -8.888  12.134  1.00  0.00     0.198 A 
ATOM     76  F   UNL     1      -2.754  -8.960  11.364  1.00  0.00    -0.203 F 
ATOM     77  F   UNL     1      -6.324  -7.958  15.366  1.00  0.00    -0.200 F 
ATOM     78  C   UNL     1      -5.891  -8.638  13.146  1.00  0.00     0.200 A 
ATOM     79  F   UNL     1      -5.403  -9.322  10.940  1.00  0.00    -0.200 F 
ATOM     80  F   UNL     1      -7.197  -8.854  12.941  1.00  0.00    -0.200 F 
ENDBRANCH  46  70
BRANCH  58  81
ATOM     81  C   UNL     1       1.449 -11.256  17.857  1.00  0.00     0.064 A 
ATOM     82  C   UNL     1       1.195 -12.589  17.502  1.00  0.00     0.173 A 
ATOM     83  C   UNL     1       1.608 -10.960  19.220  1.00  0.00     0.173 A 
ATOM     84  F   UNL     1       1.021 -12.924  16.214  1.00  0.00    -0.203 F 
ATOM     85  C   UNL     1       1.074 -13.579  18.474  1.00  0.00     0.198 A 
ATOM     86  C   UNL     1       1.523 -11.958  20.186  1.00  0.00     0.198 A 
ATOM     87  F   UNL     1       1.860  -9.703  19.615  1.00  0.00    -0.203 F 
ATOM     88  F   UNL     1       0.774 -14.835  18.115  1.00  0.00    -0.200 F 
ATOM     89  C   UNL     1       1.246 -13.265  19.814  1.00  0.00     0.200 A 
ATOM     90  F   UNL     1       1.707 -11.655  21.478  1.00  0.00    -0.200 F 
ATOM     91  F   UNL     1       1.137 -14.220  20.747  1.00  0.00    -0.200 F 
ENDBRANCH  58  81
ENDBRANCH  32  33
ENDBRANCH  24  27
ENDBRANCH  22  23
ENDBRANCH  21  22
ENDBRANCH  20  21
ENDBRANCH   1  20
TORSDOF 16
