REMARK SMILES CCS(=O)(=O)N1CCC(C(=O)N[C@H](CO)C(=O)NCCCCNC(=O)c2ccc(-c3c4nc(c(-c5c(F)c(F)c(F)c(F)c5F)c5ccc([nH]5)c(-c5c(F)c(F)c(F)c(F)c5F)c5nc(c(-c6c(F)c(F)c(F)c(F)c6F)c6ccc3[nH]6)C=C5)C=C4)cc2)CC1
REMARK SMILES IDX 19 1 18 2 16 3 17 4 13 6 12 7 10 8 11 9 9 11 6 12 7 13 90 14
REMARK SMILES IDX 8 15 89 16 3 17 4 18 5 19 2 20 1 21 14 22 15 23 20 25 21 26
REMARK SMILES IDX 22 27 23 28 24 29 25 31 26 32 27 33 88 34 28 35 87 36 29 37
REMARK SMILES IDX 30 38 31 39 81 40 32 41 86 42 80 43 82 44 33 45 85 46 79 47
REMARK SMILES IDX 78 48 34 50 66 51 46 52 65 53 47 54 50 55 64 56 83 57 48 58
REMARK SMILES IDX 49 59 63 61 84 62 51 63 35 64 36 65 44 66 37 67 38 68 42 69
REMARK SMILES IDX 45 70 39 71 40 72 43 73 41 74 67 75 68 76 76 77 69 78 70 79
REMARK SMILES IDX 74 80 77 81 71 82 72 83 75 84 73 85 52 86 53 87 61 88 54 89
REMARK SMILES IDX 55 90 59 91 62 92 56 93 57 94 60 95 58 96
REMARK H PARENT 18 5 12 10 15 24 23 30 82 49 50 60
REMARK Flexibility Score: inf
ROOT
ATOM      1  C   UNL     1       9.763   1.250  -1.174  1.00  0.00     0.116 C 
ENDROOT
BRANCH   1   2
ATOM      2  N   UNL     1       8.739   2.279  -1.095  1.00  0.00    -0.354 N 
ATOM      3  C   UNL     1       7.384   2.132  -1.139  1.00  0.00     0.244 C 
ATOM      4  O   UNL     1       6.687   3.128  -1.363  1.00  0.00    -0.273 OA
ATOM      5  H   UNL     1       9.067   3.202  -0.997  1.00  0.00     0.163 HD
BRANCH   3   6
ATOM      6  C   UNL     1       6.719   0.756  -1.113  1.00  0.00     0.197 C 
BRANCH   6   7
ATOM      7  N   UNL     1       7.203  -0.155  -0.064  1.00  0.00    -0.342 N 
ATOM      8  C   UNL     1       7.097  -0.114   1.292  1.00  0.00     0.223 C 
ATOM      9  O   UNL     1       7.231  -1.202   1.866  1.00  0.00    -0.275 OA
ATOM     10  H   UNL     1       7.692  -0.938  -0.406  1.00  0.00     0.164 HD
BRANCH   8  11
ATOM     11  C   UNL     1       7.011   1.167   2.142  1.00  0.00     0.081 C 
ATOM     12  N   UNL     1       7.445   4.011   1.703  1.00  0.00    -0.202 NA
ATOM     13  C   UNL     1       8.558   3.283   2.351  1.00  0.00     0.103 C 
ATOM     14  C   UNL     1       6.148   3.561   2.276  1.00  0.00     0.103 C 
ATOM     15  C   UNL     1       8.413   1.773   2.255  1.00  0.00     0.030 C 
ATOM     16  C   UNL     1       5.869   2.130   1.832  1.00  0.00     0.030 C 
BRANCH  12  17
ATOM     17  S   UNL     1       7.691   5.714   1.753  1.00  0.00     0.213 S 
ATOM     18  O   UNL     1       9.096   5.960   1.500  1.00  0.00    -0.212 OA
ATOM     19  O   UNL     1       7.070   6.191   2.973  1.00  0.00    -0.212 OA
BRANCH  17  20
ATOM     20  C   UNL     1       6.755   6.326   0.350  1.00  0.00     0.151 C 
ATOM     21  C   UNL     1       7.516   6.236  -0.957  1.00  0.00     0.022 C 
ENDBRANCH  17  20
ENDBRANCH  12  17
ENDBRANCH   8  11
ENDBRANCH   6   7
BRANCH   6  22
ATOM     22  C   UNL     1       6.770   0.117  -2.529  1.00  0.00     0.191 C 
BRANCH  22  23
ATOM     23  O   UNL     1       7.348   0.925  -3.552  1.00  0.00    -0.394 OA
ATOM     24  H   UNL     1       6.809   1.722  -3.677  1.00  0.00     0.210 HD
ENDBRANCH  22  23
ENDBRANCH   6  22
ENDBRANCH   3   6
ENDBRANCH   1   2
BRANCH   1  25
ATOM     25  C   UNL     1      11.154   1.806  -1.485  1.00  0.00     0.023 C 
BRANCH  25  26
ATOM     26  C   UNL     1      11.687   2.906  -0.558  1.00  0.00     0.023 C 
BRANCH  26  27
ATOM     27  C   UNL     1      11.939   2.523   0.897  1.00  0.00     0.116 C 
BRANCH  27  28
ATOM     28  N   UNL     1      12.989   1.546   1.082  1.00  0.00    -0.352 N 
ATOM     29  C   UNL     1      14.044   1.547   1.962  1.00  0.00     0.251 C 
ATOM     30  H   UNL     1      12.941   0.762   0.488  1.00  0.00     0.163 HD
ATOM     31  O   UNL     1      14.847   0.617   1.940  1.00  0.00    -0.269 OA
BRANCH  29  32
ATOM     32  C   UNL     1      14.261   2.666   2.910  1.00  0.00     0.039 A 
ATOM     33  C   UNL     1      15.558   3.175   3.023  1.00  0.00     0.014 A 
ATOM     34  C   UNL     1      13.244   3.182   3.721  1.00  0.00     0.014 A 
ATOM     35  C   UNL     1      15.831   4.212   3.918  1.00  0.00     0.010 A 
ATOM     36  C   UNL     1      13.507   4.261   4.575  1.00  0.00     0.010 A 
ATOM     37  C   UNL     1      14.807   4.778   4.694  1.00  0.00    -0.014 A 
BRANCH  37  38
ATOM     38  C   UNL     1      15.123   5.892   5.631  1.00  0.00     0.031 A 
ATOM     39  C   UNL     1      15.046   5.698   7.120  1.00  0.00     0.074 A 
ATOM     40  C   UNL     1      15.501   7.089   5.141  1.00  0.00     0.049 A 
ATOM     41  N   UNL     1      15.388   6.521   8.083  1.00  0.00    -0.248 NA
ATOM     42  C   UNL     1      14.496   4.421   7.592  1.00  0.00     0.031 C 
ATOM     43  C   UNL     1      15.559   7.436   3.722  1.00  0.00     0.029 A 
ATOM     44  N   UNL     1      15.915   8.231   5.783  1.00  0.00    -0.354 N 
ATOM     45  C   UNL     1      15.099   5.859   9.269  1.00  0.00     0.074 A 
ATOM     46  C   UNL     1      14.493   4.595   8.905  1.00  0.00     0.031 C 
ATOM     47  C   UNL     1      16.009   8.694   3.597  1.00  0.00     0.029 A 
ATOM     48  C   UNL     1      16.255   9.249   4.927  1.00  0.00     0.049 A 
ATOM     49  H   UNL     1      15.962   8.312   6.763  1.00  0.00     0.167 HD
ATOM     50  C   UNL     1      15.339   6.253  10.545  1.00  0.00     0.037 A 
ATOM     51  C   UNL     1      16.724  10.486   5.179  1.00  0.00     0.037 A 
ATOM     52  C   UNL     1      15.935   7.514  10.911  1.00  0.00     0.049 A 
ATOM     53  C   UNL     1      16.998  10.901   6.599  1.00  0.00     0.074 A 
ATOM     54  C   UNL     1      16.261   7.984  12.172  1.00  0.00     0.029 A 
ATOM     55  N   UNL     1      16.282   8.514  10.014  1.00  0.00    -0.354 N 
ATOM     56  N   UNL     1      16.810  10.230   7.710  1.00  0.00    -0.248 NA
ATOM     57  C   UNL     1      17.576  12.238   6.797  1.00  0.00     0.031 C 
ATOM     58  C   UNL     1      16.754   9.288  12.042  1.00  0.00     0.029 A 
ATOM     59  C   UNL     1      16.797   9.608  10.695  1.00  0.00     0.049 A 
ATOM     60  H   UNL     1      16.178   8.457   9.036  1.00  0.00     0.167 HD
ATOM     61  C   UNL     1      17.267  11.049   8.734  1.00  0.00     0.074 A 
ATOM     62  C   UNL     1      17.760  12.260   8.109  1.00  0.00     0.031 C 
ATOM     63  C   UNL     1      17.280  10.815  10.070  1.00  0.00     0.037 A 
BRANCH  50  64
ATOM     64  C   UNL     1      14.942   5.302  11.641  1.00  0.00     0.064 A 
ATOM     65  C   UNL     1      15.592   4.069  11.819  1.00  0.00     0.173 A 
ATOM     66  C   UNL     1      13.899   5.622  12.523  1.00  0.00     0.173 A 
ATOM     67  F   UNL     1      16.592   3.708  11.000  1.00  0.00    -0.203 F 
ATOM     68  C   UNL     1      15.180   3.175  12.804  1.00  0.00     0.198 A 
ATOM     69  C   UNL     1      13.514   4.741  13.530  1.00  0.00     0.198 A 
ATOM     70  F   UNL     1      13.250   6.791  12.409  1.00  0.00    -0.203 F 
ATOM     71  F   UNL     1      15.769   1.976  12.906  1.00  0.00    -0.200 F 
ATOM     72  C   UNL     1      14.144   3.513  13.661  1.00  0.00     0.200 A 
ATOM     73  F   UNL     1      12.523   5.075  14.369  1.00  0.00    -0.200 F 
ATOM     74  F   UNL     1      13.745   2.649  14.605  1.00  0.00    -0.200 F 
ENDBRANCH  50  64
BRANCH  51  75
ATOM     75  C   UNL     1      17.004  11.404   4.045  1.00  0.00     0.064 A 
ATOM     76  C   UNL     1      18.319  11.725   3.679  1.00  0.00     0.173 A 
ATOM     77  C   UNL     1      15.961  11.957   3.288  1.00  0.00     0.173 A 
ATOM     78  F   UNL     1      19.349  11.238   4.386  1.00  0.00    -0.203 F 
ATOM     79  C   UNL     1      18.579  12.572   2.604  1.00  0.00     0.198 A 
ATOM     80  C   UNL     1      16.224  12.781   2.196  1.00  0.00     0.198 A 
ATOM     81  F   UNL     1      14.687  11.677   3.596  1.00  0.00    -0.203 F 
ATOM     82  F   UNL     1      19.844  12.891   2.296  1.00  0.00    -0.200 F 
ATOM     83  C   UNL     1      17.532  13.092   1.858  1.00  0.00     0.200 A 
ATOM     84  F   UNL     1      15.210  13.269   1.468  1.00  0.00    -0.200 F 
ATOM     85  F   UNL     1      17.784  13.895   0.815  1.00  0.00    -0.200 F 
ENDBRANCH  51  75
BRANCH  63  86
ATOM     86  C   UNL     1      17.878  11.880  10.949  1.00  0.00     0.064 A 
ATOM     87  C   UNL     1      17.256  13.125  11.136  1.00  0.00     0.173 A 
ATOM     88  C   UNL     1      19.087  11.647  11.622  1.00  0.00     0.173 A 
ATOM     89  F   UNL     1      16.105  13.406  10.507  1.00  0.00    -0.203 F 
ATOM     90  C   UNL     1      17.845  14.109  11.928  1.00  0.00     0.198 A 
ATOM     91  C   UNL     1      19.654  12.620  12.441  1.00  0.00     0.198 A 
ATOM     92  F   UNL     1      19.721  10.472  11.488  1.00  0.00    -0.203 F 
ATOM     93  F   UNL     1      17.265  15.312  12.038  1.00  0.00    -0.200 F 
ATOM     94  C   UNL     1      19.040  13.854  12.583  1.00  0.00     0.200 A 
ATOM     95  F   UNL     1      20.802  12.367  13.085  1.00  0.00    -0.200 F 
ATOM     96  F   UNL     1      19.605  14.803  13.343  1.00  0.00    -0.200 F 
ENDBRANCH  63  86
ENDBRANCH  37  38
ENDBRANCH  29  32
ENDBRANCH  27  28
ENDBRANCH  26  27
ENDBRANCH  25  26
ENDBRANCH   1  25
TORSDOF 17
