REMARK SMILES CC[C@@H](Nc1ccn(C)n1)C(=O)NCCCCNC(=O)c1ccc(-c2c3nc(c(-c4c(F)c(F)c(F)c(F)c4F)c4ccc([nH]4)c(-c4c(F)c(F)c(F)c(F)c4F)c4nc(c(-c5c(F)c(F)c(F)c(F)c5F)c5ccc2[nH]5)C=C4)C=C3)cc1
REMARK SMILES IDX 15 1 14 2 13 3 11 4 12 5 3 7 2 8 1 9 4 10 5 12 6 13 10 14
REMARK SMILES IDX 7 15 8 16 9 17 16 18 17 19 18 20 19 21 20 23 21 24 22 25
REMARK SMILES IDX 83 26 23 27 82 28 24 29 25 30 26 31 76 32 27 33 81 34 75 35
REMARK SMILES IDX 77 36 28 37 80 38 74 39 73 40 29 42 61 43 41 44 60 45 42 46
REMARK SMILES IDX 45 47 59 48 78 49 43 50 44 51 58 53 79 54 46 55 30 56 31 57
REMARK SMILES IDX 39 58 32 59 33 60 37 61 40 62 34 63 35 64 38 65 36 66 62 67
REMARK SMILES IDX 63 68 71 69 64 70 65 71 69 72 72 73 66 74 67 75 70 76 68 77
REMARK SMILES IDX 47 78 48 79 56 80 49 81 50 82 54 83 57 84 51 85 52 86 55 87
REMARK SMILES IDX 53 88
REMARK H PARENT 13 6 4 11 18 22 77 41 45 52
REMARK Flexibility Score: inf
ROOT
ATOM      1  C   UNL     1      -2.915   2.672   0.997  1.00  0.00     0.023 C 
ENDROOT
BRANCH   1   2
ATOM      2  C   UNL     1      -2.025   2.931  -0.210  1.00  0.00     0.116 C 
BRANCH   2   3
ATOM      3  N   UNL     1      -0.919   3.813   0.119  1.00  0.00    -0.354 N 
ATOM      4  C   UNL     1       0.415   3.657  -0.146  1.00  0.00     0.242 C 
ATOM      5  O   UNL     1       1.169   4.591   0.150  1.00  0.00    -0.273 OA
ATOM      6  H   UNL     1      -1.162   4.637   0.600  1.00  0.00     0.163 HD
BRANCH   4   7
ATOM      7  C   UNL     1       0.971   2.346  -0.760  1.00  0.00     0.169 C 
BRANCH   7   8
ATOM      8  C   UNL     1       0.825   1.236   0.306  1.00  0.00     0.031 C 
ATOM      9  C   UNL     1       1.392  -0.119  -0.083  1.00  0.00     0.006 C 
ENDBRANCH   7   8
BRANCH   7  10
ATOM     10  N   UNL     1       0.346   1.972  -2.038  1.00  0.00    -0.357 N 
ATOM     11  H   UNL     1       0.406   1.028  -2.311  1.00  0.00     0.162 HD
BRANCH  10  12
ATOM     12  C   UNL     1      -0.299   2.816  -2.864  1.00  0.00     0.148 A 
ATOM     13  C   UNL     1      -0.005   4.174  -3.113  1.00  0.00     0.068 A 
ATOM     14  N   UNL     1      -1.417   2.438  -3.482  1.00  0.00    -0.156 NA
ATOM     15  C   UNL     1      -1.079   4.645  -3.836  1.00  0.00     0.110 A 
ATOM     16  N   UNL     1      -1.908   3.577  -3.997  1.00  0.00    -0.274 N 
ATOM     17  C   UNL     1      -3.254   3.585  -4.516  1.00  0.00     0.173 C 
ENDBRANCH  10  12
ENDBRANCH   7  10
ENDBRANCH   4   7
ENDBRANCH   2   3
ENDBRANCH   1   2
BRANCH   1  18
ATOM     18  C   UNL     1      -3.745   3.881   1.423  1.00  0.00     0.023 C 
BRANCH  18  19
ATOM     19  C   UNL     1      -4.627   4.474   0.329  1.00  0.00     0.116 C 
BRANCH  19  20
ATOM     20  N   UNL     1      -5.557   3.509  -0.239  1.00  0.00    -0.352 N 
ATOM     21  C   UNL     1      -6.907   3.637  -0.455  1.00  0.00     0.251 C 
ATOM     22  H   UNL     1      -5.165   2.646  -0.505  1.00  0.00     0.163 HD
ATOM     23  O   UNL     1      -7.577   2.670  -0.807  1.00  0.00    -0.269 OA
BRANCH  21  24
ATOM     24  C   UNL     1      -7.556   4.944  -0.234  1.00  0.00     0.039 A 
ATOM     25  C   UNL     1      -8.728   4.996   0.523  1.00  0.00     0.014 A 
ATOM     26  C   UNL     1      -6.991   6.116  -0.744  1.00  0.00     0.014 A 
ATOM     27  C   UNL     1      -9.294   6.234   0.830  1.00  0.00     0.010 A 
ATOM     28  C   UNL     1      -7.512   7.352  -0.372  1.00  0.00     0.010 A 
ATOM     29  C   UNL     1      -8.666   7.424   0.421  1.00  0.00    -0.014 A 
BRANCH  29  30
ATOM     30  C   UNL     1      -9.197   8.746   0.839  1.00  0.00     0.031 A 
ATOM     31  C   UNL     1      -9.703   9.723  -0.186  1.00  0.00     0.074 A 
ATOM     32  C   UNL     1      -9.177   9.085   2.143  1.00  0.00     0.049 A 
ATOM     33  N   UNL     1     -10.175  10.932  -0.014  1.00  0.00    -0.248 NA
ATOM     34  C   UNL     1      -9.652   9.295  -1.593  1.00  0.00     0.031 C 
ATOM     35  C   UNL     1      -8.658   8.247   3.226  1.00  0.00     0.029 A 
ATOM     36  N   UNL     1      -9.598  10.225   2.781  1.00  0.00    -0.354 N 
ATOM     37  C   UNL     1     -10.473  11.407  -1.284  1.00  0.00     0.074 A 
ATOM     38  C   UNL     1     -10.072  10.382  -2.224  1.00  0.00     0.031 C 
ATOM     39  C   UNL     1      -8.818   8.888   4.395  1.00  0.00     0.029 A 
ATOM     40  C   UNL     1      -9.412  10.196   4.142  1.00  0.00     0.049 A 
ATOM     41  H   UNL     1      -9.995  10.992   2.308  1.00  0.00     0.167 HD
ATOM     42  C   UNL     1     -11.054  12.579  -1.633  1.00  0.00     0.037 A 
ATOM     43  C   UNL     1      -9.685  11.123   5.080  1.00  0.00     0.037 A 
ATOM     44  C   UNL     1     -11.465  13.591  -0.694  1.00  0.00     0.049 A 
ATOM     45  C   UNL     1     -10.316  12.424   4.659  1.00  0.00     0.074 A 
ATOM     46  C   UNL     1     -12.107  14.791  -0.945  1.00  0.00     0.029 A 
ATOM     47  N   UNL     1     -11.269  13.523   0.677  1.00  0.00    -0.354 N 
ATOM     48  N   UNL     1     -10.664  12.829   3.462  1.00  0.00    -0.248 NA
ATOM     49  C   UNL     1     -10.600  13.395   5.725  1.00  0.00     0.031 C 
ATOM     50  C   UNL     1     -12.253  15.472   0.267  1.00  0.00     0.029 A 
ATOM     51  C   UNL     1     -11.757  14.671   1.282  1.00  0.00     0.049 A 
ATOM     52  H   UNL     1     -10.847  12.770   1.151  1.00  0.00     0.167 HD
ATOM     53  C   UNL     1     -11.233  14.084   3.633  1.00  0.00     0.074 A 
ATOM     54  C   UNL     1     -11.206  14.363   5.053  1.00  0.00     0.031 C 
ATOM     55  C   UNL     1     -11.728  14.932   2.699  1.00  0.00     0.037 A 
BRANCH  42  56
ATOM     56  C   UNL     1     -11.294  12.832  -3.094  1.00  0.00     0.064 A 
ATOM     57  C   UNL     1     -12.258  12.110  -3.815  1.00  0.00     0.173 A 
ATOM     58  C   UNL     1     -10.598  13.848  -3.767  1.00  0.00     0.173 A 
ATOM     59  F   UNL     1     -12.944  11.121  -3.223  1.00  0.00    -0.203 F 
ATOM     60  C   UNL     1     -12.499  12.380  -5.160  1.00  0.00     0.198 A 
ATOM     61  C   UNL     1     -10.864  14.136  -5.103  1.00  0.00     0.198 A 
ATOM     62  F   UNL     1      -9.669  14.572  -3.124  1.00  0.00    -0.203 F 
ATOM     63  F   UNL     1     -13.393  11.649  -5.838  1.00  0.00    -0.200 F 
ATOM     64  C   UNL     1     -11.810  13.399  -5.799  1.00  0.00     0.200 A 
ATOM     65  F   UNL     1     -10.207  15.131  -5.716  1.00  0.00    -0.200 F 
ATOM     66  F   UNL     1     -12.054  13.668  -7.089  1.00  0.00    -0.200 F 
ENDBRANCH  42  56
BRANCH  43  67
ATOM     67  C   UNL     1      -9.379  10.857   6.511  1.00  0.00     0.064 A 
ATOM     68  C   UNL     1     -10.405  10.730   7.458  1.00  0.00     0.173 A 
ATOM     69  C   UNL     1      -8.056  10.759   6.968  1.00  0.00     0.173 A 
ATOM     70  F   UNL     1     -11.686  10.836   7.076  1.00  0.00    -0.203 F 
ATOM     71  C   UNL     1     -10.120  10.550   8.810  1.00  0.00     0.198 A 
ATOM     72  C   UNL     1      -7.773  10.544   8.315  1.00  0.00     0.198 A 
ATOM     73  F   UNL     1      -7.037  10.867   6.103  1.00  0.00    -0.203 F 
ATOM     74  F   UNL     1     -11.119  10.496   9.702  1.00  0.00    -0.200 F 
ATOM     75  C   UNL     1      -8.804  10.453   9.237  1.00  0.00     0.200 A 
ATOM     76  F   UNL     1      -6.500  10.434   8.720  1.00  0.00    -0.200 F 
ATOM     77  F   UNL     1      -8.530  10.283  10.537  1.00  0.00    -0.200 F 
ENDBRANCH  43  67
BRANCH  55  78
ATOM     78  C   UNL     1     -12.313  16.226   3.189  1.00  0.00     0.064 A 
ATOM     79  C   UNL     1     -11.510  17.241   3.731  1.00  0.00     0.173 A 
ATOM     80  C   UNL     1     -13.694  16.461   3.098  1.00  0.00     0.173 A 
ATOM     81  F   UNL     1     -10.186  17.062   3.854  1.00  0.00    -0.203 F 
ATOM     82  C   UNL     1     -12.072  18.426   4.199  1.00  0.00     0.198 A 
ATOM     83  C   UNL     1     -14.248  17.662   3.532  1.00  0.00     0.198 A 
ATOM     84  F   UNL     1     -14.506  15.528   2.579  1.00  0.00    -0.203 F 
ATOM     85  F   UNL     1     -11.293  19.355   4.771  1.00  0.00    -0.200 F 
ATOM     86  C   UNL     1     -13.439  18.638   4.093  1.00  0.00     0.200 A 
ATOM     87  F   UNL     1     -15.566  17.872   3.414  1.00  0.00    -0.200 F 
ATOM     88  F   UNL     1     -13.977  19.780   4.541  1.00  0.00    -0.200 F 
ENDBRANCH  55  78
ENDBRANCH  29  30
ENDBRANCH  21  24
ENDBRANCH  19  20
ENDBRANCH  18  19
ENDBRANCH   1  18
TORSDOF 14
