REMARK SMILES CC(C)[C@@H](NC(=O)/C(=C\c1ccccc1F)NC(=O)c1ccccc1)C(=O)NCCCCNC(=O)c1ccc(-c2c3nc(c(-c4c(F)c(F)c(F)c(F)c4F)c4ccc([nH]4)c(-c4c(F)c(F)c(F)c(F)c4F)c4nc(c(-c5c(F)c(F)c(F)c(F)c5F)c5ccc2[nH]5)C=C4)C=C3)cc1
REMARK SMILES IDX 29 1 28 2 26 3 27 4 4 6 2 7 1 8 3 9 5 10 6 11 7 13 8 14 9 15
REMARK SMILES IDX 17 16 18 17 19 19 20 20 21 21 25 22 22 23 24 24 23 25 10 26
REMARK SMILES IDX 11 27 15 28 12 29 14 30 16 31 13 32 30 33 31 34 32 35 33 36
REMARK SMILES IDX 34 37 35 39 36 40 37 41 98 42 38 43 97 44 39 45 40 46 41 47
REMARK SMILES IDX 91 48 42 49 96 50 90 51 92 52 43 53 95 54 89 55 88 56 44 58
REMARK SMILES IDX 76 59 56 60 75 61 57 62 60 63 74 64 93 65 58 66 59 67 73 69
REMARK SMILES IDX 94 70 61 71 45 72 46 73 54 74 47 75 48 76 52 77 55 78 49 79
REMARK SMILES IDX 50 80 53 81 51 82 77 83 78 84 86 85 79 86 80 87 84 88 87 89
REMARK SMILES IDX 81 90 82 91 85 92 83 93 62 94 63 95 71 96 64 97 65 98 69 99
REMARK SMILES IDX 72 100 66 101 67 102 70 103 68 104
REMARK H PARENT 28 5 5 12 17 18 33 38 92 57 60 68
REMARK Flexibility Score: inf
ROOT
ATOM      1  C   UNL     1       0.374  -4.227   0.438  1.00  0.00     0.116 C 
ENDROOT
BRANCH   1   2
ATOM      2  N   UNL     1      -0.184  -3.448   1.514  1.00  0.00    -0.354 N 
ATOM      3  C   UNL     1      -0.013  -2.104   1.640  1.00  0.00     0.242 C 
ATOM      4  O   UNL     1       0.440  -1.693   2.710  1.00  0.00    -0.273 OA
ATOM      5  H   UNL     1      -0.720  -3.914   2.196  1.00  0.00     0.163 HD
BRANCH   3   6
ATOM      6  C   UNL     1      -0.234  -1.178   0.433  1.00  0.00     0.174 C 
BRANCH   6   7
ATOM      7  C   UNL     1       1.105  -0.924  -0.335  1.00  0.00     0.015 C 
ATOM      8  C   UNL     1       1.027   0.345  -1.195  1.00  0.00     0.010 C 
ATOM      9  C   UNL     1       2.330  -0.808   0.583  1.00  0.00     0.010 C 
ENDBRANCH   6   7
BRANCH   6  10
ATOM     10  N   UNL     1      -1.299  -1.629  -0.496  1.00  0.00    -0.339 N 
ATOM     11  C   UNL     1      -2.646  -1.725  -0.246  1.00  0.00     0.268 C 
ATOM     12  H   UNL     1      -1.005  -1.891  -1.399  1.00  0.00     0.164 HD
ATOM     13  O   UNL     1      -3.425  -1.169  -1.020  1.00  0.00    -0.268 OA
BRANCH  11  14
ATOM     14  C   UNL     1      -3.177  -2.692   0.778  1.00  0.00     0.107 C 
ATOM     15  C   UNL     1      -3.284  -2.400   2.092  1.00  0.00     0.043 C 
BRANCH  14  16
ATOM     16  N   UNL     1      -3.659  -3.938   0.392  1.00  0.00    -0.317 N 
ATOM     17  C   UNL     1      -3.823  -4.595  -0.802  1.00  0.00     0.255 C 
ATOM     18  H   UNL     1      -3.955  -4.479   1.160  1.00  0.00     0.170 HD
ATOM     19  O   UNL     1      -4.268  -5.744  -0.792  1.00  0.00    -0.269 OA
BRANCH  17  20
ATOM     20  C   UNL     1      -3.502  -3.994  -2.098  1.00  0.00     0.040 A 
ATOM     21  C   UNL     1      -4.539  -3.485  -2.884  1.00  0.00     0.014 A 
ATOM     22  C   UNL     1      -2.193  -4.038  -2.582  1.00  0.00     0.014 A 
ATOM     23  C   UNL     1      -4.248  -2.952  -4.139  1.00  0.00     0.001 A 
ATOM     24  C   UNL     1      -1.907  -3.497  -3.834  1.00  0.00     0.001 A 
ATOM     25  C   UNL     1      -2.932  -2.947  -4.607  1.00  0.00     0.000 A 
ENDBRANCH  17  20
ENDBRANCH  14  16
BRANCH  15  26
ATOM     26  C   UNL     1      -2.834  -1.229   2.854  1.00  0.00     0.012 A 
ATOM     27  C   UNL     1      -2.139  -1.476   4.050  1.00  0.00     0.011 A 
ATOM     28  C   UNL     1      -3.026   0.095   2.463  1.00  0.00     0.130 A 
ATOM     29  C   UNL     1      -1.546  -0.430   4.759  1.00  0.00     0.001 A 
ATOM     30  C   UNL     1      -2.446   1.145   3.172  1.00  0.00     0.040 A 
ATOM     31  F   UNL     1      -3.755   0.387   1.378  1.00  0.00    -0.206 F 
ATOM     32  C   UNL     1      -1.681   0.880   4.307  1.00  0.00     0.003 A 
ENDBRANCH  15  26
ENDBRANCH  11  14
ENDBRANCH   6  10
ENDBRANCH   3   6
ENDBRANCH   1   2
BRANCH   1  33
ATOM     33  C   UNL     1       1.634  -4.923   0.952  1.00  0.00     0.023 C 
BRANCH  33  34
ATOM     34  C   UNL     1       1.330  -6.028   1.970  1.00  0.00     0.023 C 
BRANCH  34  35
ATOM     35  C   UNL     1       0.314  -7.051   1.476  1.00  0.00     0.116 C 
BRANCH  35  36
ATOM     36  N   UNL     1       0.684  -7.574   0.170  1.00  0.00    -0.352 N 
ATOM     37  C   UNL     1       0.817  -8.876  -0.225  1.00  0.00     0.251 C 
ATOM     38  H   UNL     1       0.864  -6.899  -0.523  1.00  0.00     0.163 HD
ATOM     39  O   UNL     1       1.375  -9.152  -1.280  1.00  0.00    -0.269 OA
BRANCH  37  40
ATOM     40  C   UNL     1       0.280  -9.938   0.639  1.00  0.00     0.039 A 
ATOM     41  C   UNL     1       1.056 -11.073   0.869  1.00  0.00     0.014 A 
ATOM     42  C   UNL     1      -0.996  -9.813   1.199  1.00  0.00     0.014 A 
ATOM     43  C   UNL     1       0.552 -12.089   1.675  1.00  0.00     0.010 A 
ATOM     44  C   UNL     1      -1.465 -10.790   2.064  1.00  0.00     0.010 A 
ATOM     45  C   UNL     1      -0.709 -11.950   2.280  1.00  0.00    -0.014 A 
BRANCH  45  46
ATOM     46  C   UNL     1      -1.287 -13.055   3.074  1.00  0.00     0.031 A 
ATOM     47  C   UNL     1      -2.494 -13.781   2.554  1.00  0.00     0.074 A 
ATOM     48  C   UNL     1      -0.738 -13.384   4.257  1.00  0.00     0.049 A 
ATOM     49  N   UNL     1      -3.165 -14.763   3.099  1.00  0.00    -0.248 NA
ATOM     50  C   UNL     1      -3.039 -13.328   1.263  1.00  0.00     0.031 C 
ATOM     51  C   UNL     1       0.410 -12.715   4.870  1.00  0.00     0.029 A 
ATOM     52  N   UNL     1      -1.069 -14.369   5.150  1.00  0.00    -0.354 N 
ATOM     53  C   UNL     1      -4.212 -15.030   2.228  1.00  0.00     0.074 A 
ATOM     54  C   UNL     1      -4.127 -14.074   1.148  1.00  0.00     0.031 C 
ATOM     55  C   UNL     1       0.710 -13.333   6.024  1.00  0.00     0.029 A 
ATOM     56  C   UNL     1      -0.238 -14.422   6.241  1.00  0.00     0.049 A 
ATOM     57  H   UNL     1      -1.831 -14.979   5.022  1.00  0.00     0.167 HD
ATOM     58  C   UNL     1      -5.143 -16.008   2.308  1.00  0.00     0.037 A 
ATOM     59  C   UNL     1      -0.238 -15.268   7.288  1.00  0.00     0.037 A 
ATOM     60  C   UNL     1      -5.195 -16.980   3.365  1.00  0.00     0.049 A 
ATOM     61  C   UNL     1      -1.261 -16.369   7.335  1.00  0.00     0.074 A 
ATOM     62  C   UNL     1      -6.077 -18.032   3.528  1.00  0.00     0.029 A 
ATOM     63  N   UNL     1      -4.313 -17.023   4.436  1.00  0.00    -0.354 N 
ATOM     64  N   UNL     1      -2.224 -16.639   6.486  1.00  0.00    -0.248 NA
ATOM     65  C   UNL     1      -1.189 -17.293   8.474  1.00  0.00     0.031 C 
ATOM     66  C   UNL     1      -5.746 -18.697   4.713  1.00  0.00     0.029 A 
ATOM     67  C   UNL     1      -4.630 -18.086   5.263  1.00  0.00     0.049 A 
ATOM     68  H   UNL     1      -3.573 -16.392   4.584  1.00  0.00     0.167 HD
ATOM     69  C   UNL     1      -2.850 -17.779   6.968  1.00  0.00     0.074 A 
ATOM     70  C   UNL     1      -2.154 -18.155   8.182  1.00  0.00     0.031 C 
ATOM     71  C   UNL     1      -3.905 -18.454   6.452  1.00  0.00     0.037 A 
BRANCH  58  72
ATOM     72  C   UNL     1      -6.165 -16.087   1.214  1.00  0.00     0.064 A 
ATOM     73  C   UNL     1      -7.510 -15.783   1.470  1.00  0.00     0.173 A 
ATOM     74  C   UNL     1      -5.822 -16.510  -0.080  1.00  0.00     0.173 A 
ATOM     75  F   UNL     1      -7.891 -15.376   2.690  1.00  0.00    -0.203 F 
ATOM     76  C   UNL     1      -8.475 -15.909   0.474  1.00  0.00     0.198 A 
ATOM     77  C   UNL     1      -6.785 -16.607  -1.081  1.00  0.00     0.198 A 
ATOM     78  F   UNL     1      -4.547 -16.798  -0.379  1.00  0.00    -0.203 F 
ATOM     79  F   UNL     1      -9.759 -15.639   0.749  1.00  0.00    -0.200 F 
ATOM     80  C   UNL     1      -8.111 -16.316  -0.801  1.00  0.00     0.200 A 
ATOM     81  F   UNL     1      -6.426 -16.976  -2.318  1.00  0.00    -0.200 F 
ATOM     82  F   UNL     1      -9.039 -16.424  -1.762  1.00  0.00    -0.200 F 
ENDBRANCH  58  72
BRANCH  59  83
ATOM     83  C   UNL     1       0.808 -15.139   8.333  1.00  0.00     0.064 A 
ATOM     84  C   UNL     1       0.815 -14.066   9.234  1.00  0.00     0.173 A 
ATOM     85  C   UNL     1       1.846 -16.077   8.426  1.00  0.00     0.173 A 
ATOM     86  F   UNL     1      -0.151 -13.136   9.179  1.00  0.00    -0.203 F 
ATOM     87  C   UNL     1       1.827 -13.928  10.181  1.00  0.00     0.198 A 
ATOM     88  C   UNL     1       2.845 -15.952   9.388  1.00  0.00     0.198 A 
ATOM     89  F   UNL     1       1.874 -17.128   7.593  1.00  0.00    -0.203 F 
ATOM     90  F   UNL     1       1.827 -12.877  11.012  1.00  0.00    -0.200 F 
ATOM     91  C   UNL     1       2.839 -14.874  10.261  1.00  0.00     0.200 A 
ATOM     92  F   UNL     1       3.809 -16.878   9.474  1.00  0.00    -0.200 F 
ATOM     93  F   UNL     1       3.807 -14.748  11.179  1.00  0.00    -0.200 F 
ENDBRANCH  59  83
BRANCH  71  94
ATOM     94  C   UNL     1      -4.349 -19.697   7.163  1.00  0.00     0.064 A 
ATOM     95  C   UNL     1      -4.138 -20.956   6.580  1.00  0.00     0.173 A 
ATOM     96  C   UNL     1      -5.052 -19.639   8.374  1.00  0.00     0.173 A 
ATOM     97  F   UNL     1      -3.479 -21.060   5.416  1.00  0.00    -0.203 F 
ATOM     98  C   UNL     1      -4.626 -22.112   7.180  1.00  0.00     0.198 A 
ATOM     99  C   UNL     1      -5.515 -20.801   8.985  1.00  0.00     0.198 A 
ATOM    100  F   UNL     1      -5.269 -18.459   8.974  1.00  0.00    -0.203 F 
ATOM    101  F   UNL     1      -4.441 -23.301   6.589  1.00  0.00    -0.200 F 
ATOM    102  C   UNL     1      -5.311 -22.034   8.383  1.00  0.00     0.200 A 
ATOM    103  F   UNL     1      -6.158 -20.728  10.158  1.00  0.00    -0.200 F 
ATOM    104  F   UNL     1      -5.773 -23.150   8.965  1.00  0.00    -0.200 F 
ENDBRANCH  71  94
ENDBRANCH  45  46
ENDBRANCH  37  40
ENDBRANCH  35  36
ENDBRANCH  34  35
ENDBRANCH  33  34
ENDBRANCH   1  33
TORSDOF 17
