REMARK SMILES C[NH+]1CCC2(CC1)OC[C@@H](C(=O)NCCCCNC(=O)c1ccc(-c3c4nc(c(-c5c(F)c(F)c(F)c(F)c5F)c5ccc([nH]5)c(-c5c(F)c(F)c(F)c(F)c5F)c5nc(c(-c6c(F)c(F)c(F)c(F)c6F)c6ccc3[nH]6)C=C5)C=C4)cc1)N2C(=O)c1ccc2ccccc2c1
REMARK SMILES IDX 15 1 14 2 13 3 11 4 12 5 10 7 1 8 2 9 3 10 7 11 4 13 6 14
REMARK SMILES IDX 5 15 8 16 84 17 9 18 85 19 86 20 87 21 88 22 96 23 89 24
REMARK SMILES IDX 95 25 90 26 94 27 91 28 93 29 92 30 16 31 17 32 18 33 19 34
REMARK SMILES IDX 20 36 21 37 22 38 83 39 23 40 82 41 24 42 25 43 26 44 76 45
REMARK SMILES IDX 27 46 81 47 75 48 77 49 28 50 80 51 74 52 73 53 29 55 61 56
REMARK SMILES IDX 41 57 60 58 42 59 45 60 59 61 78 62 43 63 44 64 58 66 79 67
REMARK SMILES IDX 46 68 30 69 31 70 39 71 32 72 33 73 37 74 40 75 34 76 35 77
REMARK SMILES IDX 38 78 36 79 62 80 63 81 71 82 64 83 65 84 69 85 72 86 66 87
REMARK SMILES IDX 67 88 70 89 68 90 47 91 48 92 56 93 49 94 50 95 54 96 57 97
REMARK SMILES IDX 51 98 52 99 55 100 53 101
REMARK H PARENT 13 6 2 12 18 35 77 54 45 65
REMARK Flexibility Score: inf
ROOT
ATOM      1  C   UNL     1      -3.946   1.939  -3.888  1.00  0.00     0.023 C 
ENDROOT
BRANCH   1   2
ATOM      2  C   UNL     1      -2.816   2.503  -4.728  1.00  0.00     0.116 C 
BRANCH   2   3
ATOM      3  N   UNL     1      -2.842   3.945  -4.689  1.00  0.00    -0.354 N 
ATOM      4  C   UNL     1      -2.072   4.809  -3.968  1.00  0.00     0.245 C 
ATOM      5  O   UNL     1      -2.254   6.012  -4.189  1.00  0.00    -0.273 OA
ATOM      6  H   UNL     1      -3.517   4.368  -5.268  1.00  0.00     0.163 HD
BRANCH   4   7
ATOM      7  C   UNL     1      -0.847   4.345  -3.152  1.00  0.00     0.203 C 
ATOM      8  C   UNL     1       2.187  -0.249   0.335  1.00  0.00     0.332 C 
ATOM      9  N   UNL     1       1.268   0.676  -0.273  1.00  0.00    -0.337 N 
ATOM     10  C   UNL     1       1.493   2.095  -0.162  1.00  0.00     0.267 C 
ATOM     11  C   UNL     1       0.283   0.130  -1.170  1.00  0.00     0.267 C 
ATOM     12  H   UNL     1       0.606   0.904   0.468  1.00  0.00     0.347 HD
ATOM     13  C   UNL     1       1.491   2.785  -1.510  1.00  0.00     0.120 C 
ATOM     14  C   UNL     1       0.182   0.864  -2.492  1.00  0.00     0.120 C 
ATOM     15  C   UNL     1       0.312   2.384  -2.414  1.00  0.00     0.155 C 
ATOM     16  O   UNL     1       0.774   2.726  -3.756  1.00  0.00    -0.352 OA
ATOM     17  N   UNL     1      -0.908   3.198  -2.240  1.00  0.00    -0.295 N 
ATOM     18  C   UNL     1       0.215   3.970  -4.168  1.00  0.00     0.198 C 
BRANCH  17  19
ATOM     19  C   UNL     1      -1.777   3.333  -1.146  1.00  0.00     0.256 C 
ATOM     20  O   UNL     1      -2.413   4.369  -0.954  1.00  0.00    -0.269 OA
BRANCH  19  21
ATOM     21  C   UNL     1      -2.089   2.216  -0.220  1.00  0.00     0.040 A 
ATOM     22  C   UNL     1      -2.938   1.191  -0.636  1.00  0.00     0.014 A 
ATOM     23  C   UNL     1      -1.667   2.223   1.113  1.00  0.00     0.022 A 
ATOM     24  C   UNL     1      -3.208   0.091   0.175  1.00  0.00     0.009 A 
ATOM     25  C   UNL     1      -1.870   1.088   1.933  1.00  0.00    -0.018 A 
ATOM     26  C   UNL     1      -2.613  -0.007   1.430  1.00  0.00    -0.018 A 
ATOM     27  C   UNL     1      -1.319   0.980   3.220  1.00  0.00     0.009 A 
ATOM     28  C   UNL     1      -2.725  -1.190   2.171  1.00  0.00     0.009 A 
ATOM     29  C   UNL     1      -1.442  -0.206   3.954  1.00  0.00     0.001 A 
ATOM     30  C   UNL     1      -2.125  -1.296   3.421  1.00  0.00     0.001 A 
ENDBRANCH  19  21
ENDBRANCH  17  19
ENDBRANCH   4   7
ENDBRANCH   2   3
ENDBRANCH   1   2
BRANCH   1  31
ATOM     31  C   UNL     1      -5.354   2.116  -4.429  1.00  0.00     0.023 C 
BRANCH  31  32
ATOM     32  C   UNL     1      -5.558   1.627  -5.848  1.00  0.00     0.116 C 
BRANCH  32  33
ATOM     33  N   UNL     1      -5.285   0.207  -6.010  1.00  0.00    -0.352 N 
ATOM     34  C   UNL     1      -6.079  -0.764  -6.583  1.00  0.00     0.251 C 
ATOM     35  H   UNL     1      -4.418  -0.103  -5.664  1.00  0.00     0.163 HD
ATOM     36  O   UNL     1      -5.763  -1.939  -6.528  1.00  0.00    -0.269 OA
BRANCH  34  37
ATOM     37  C   UNL     1      -7.347  -0.357  -7.229  1.00  0.00     0.039 A 
ATOM     38  C   UNL     1      -8.514  -1.058  -6.922  1.00  0.00     0.014 A 
ATOM     39  C   UNL     1      -7.391   0.752  -8.077  1.00  0.00     0.014 A 
ATOM     40  C   UNL     1      -9.740  -0.590  -7.398  1.00  0.00     0.010 A 
ATOM     41  C   UNL     1      -8.619   1.274  -8.463  1.00  0.00     0.010 A 
ATOM     42  C   UNL     1      -9.807   0.607  -8.130  1.00  0.00    -0.014 A 
BRANCH  42  43
ATOM     43  C   UNL     1     -11.108   1.181  -8.556  1.00  0.00     0.031 A 
ATOM     44  C   UNL     1     -11.408   1.358 -10.019  1.00  0.00     0.074 A 
ATOM     45  C   UNL     1     -11.989   1.606  -7.628  1.00  0.00     0.049 A 
ATOM     46  N   UNL     1     -12.453   1.902 -10.590  1.00  0.00    -0.248 NA
ATOM     47  C   UNL     1     -10.385   0.888 -10.966  1.00  0.00     0.031 C 
ATOM     48  C   UNL     1     -11.790   1.539  -6.179  1.00  0.00     0.029 A 
ATOM     49  N   UNL     1     -13.224   2.188  -7.766  1.00  0.00    -0.354 N 
ATOM     50  C   UNL     1     -12.206   1.849 -11.956  1.00  0.00     0.074 A 
ATOM     51  C   UNL     1     -10.888   1.279 -12.127  1.00  0.00     0.031 C 
ATOM     52  C   UNL     1     -12.875   2.033  -5.562  1.00  0.00     0.029 A 
ATOM     53  C   UNL     1     -13.827   2.493  -6.569  1.00  0.00     0.049 A 
ATOM     54  H   UNL     1     -13.640   2.369  -8.639  1.00  0.00     0.167 HD
ATOM     55  C   UNL     1     -13.017   2.216 -12.976  1.00  0.00     0.037 A 
ATOM     56  C   UNL     1     -15.009   3.085  -6.314  1.00  0.00     0.037 A 
ATOM     57  C   UNL     1     -14.337   2.762 -12.800  1.00  0.00     0.049 A 
ATOM     58  C   UNL     1     -15.883   3.501  -7.467  1.00  0.00     0.074 A 
ATOM     59  C   UNL     1     -15.261   3.110 -13.770  1.00  0.00     0.029 A 
ATOM     60  N   UNL     1     -14.918   3.046 -11.573  1.00  0.00    -0.354 N 
ATOM     61  N   UNL     1     -15.672   3.374  -8.755  1.00  0.00    -0.248 NA
ATOM     62  C   UNL     1     -17.165   4.137  -7.131  1.00  0.00     0.031 C 
ATOM     63  C   UNL     1     -16.378   3.656 -13.131  1.00  0.00     0.029 A 
ATOM     64  C   UNL     1     -16.178   3.591 -11.762  1.00  0.00     0.049 A 
ATOM     65  H   UNL     1     -14.498   2.883 -10.698  1.00  0.00     0.167 HD
ATOM     66  C   UNL     1     -16.802   3.885  -9.380  1.00  0.00     0.074 A 
ATOM     67  C   UNL     1     -17.704   4.307  -8.329  1.00  0.00     0.031 C 
ATOM     68  C   UNL     1     -17.068   3.997 -10.704  1.00  0.00     0.037 A 
BRANCH  55  69
ATOM     69  C   UNL     1     -12.503   2.032 -14.375  1.00  0.00     0.064 A 
ATOM     70  C   UNL     1     -12.316   0.757 -14.930  1.00  0.00     0.173 A 
ATOM     71  C   UNL     1     -12.235   3.145 -15.186  1.00  0.00     0.173 A 
ATOM     72  F   UNL     1     -12.545  -0.341 -14.193  1.00  0.00    -0.203 F 
ATOM     73  C   UNL     1     -11.853   0.603 -16.234  1.00  0.00     0.198 A 
ATOM     74  C   UNL     1     -11.805   2.987 -16.501  1.00  0.00     0.198 A 
ATOM     75  F   UNL     1     -12.401   4.387 -14.708  1.00  0.00    -0.203 F 
ATOM     76  F   UNL     1     -11.634  -0.625 -16.724  1.00  0.00    -0.200 F 
ATOM     77  C   UNL     1     -11.607   1.717 -17.021  1.00  0.00     0.200 A 
ATOM     78  F   UNL     1     -11.582   4.065 -17.266  1.00  0.00    -0.200 F 
ATOM     79  F   UNL     1     -11.173   1.567 -18.280  1.00  0.00    -0.200 F 
ENDBRANCH  55  69
BRANCH  56  80
ATOM     80  C   UNL     1     -15.446   3.309  -4.910  1.00  0.00     0.064 A 
ATOM     81  C   UNL     1     -16.544   2.618  -4.377  1.00  0.00     0.173 A 
ATOM     82  C   UNL     1     -14.790   4.229  -4.077  1.00  0.00     0.173 A 
ATOM     83  F   UNL     1     -17.217   1.743  -5.139  1.00  0.00    -0.203 F 
ATOM     84  C   UNL     1     -16.986   2.857  -3.078  1.00  0.00     0.198 A 
ATOM     85  C   UNL     1     -15.213   4.444  -2.767  1.00  0.00     0.198 A 
ATOM     86  F   UNL     1     -13.732   4.913  -4.535  1.00  0.00    -0.203 F 
ATOM     87  F   UNL     1     -18.071   2.223  -2.614  1.00  0.00    -0.200 F 
ATOM     88  C   UNL     1     -16.317   3.766  -2.272  1.00  0.00     0.200 A 
ATOM     89  F   UNL     1     -14.554   5.311  -1.987  1.00  0.00    -0.200 F 
ATOM     90  F   UNL     1     -16.741   3.996  -1.022  1.00  0.00    -0.200 F 
ENDBRANCH  56  80
BRANCH  68  91
ATOM     91  C   UNL     1     -18.404   4.562 -11.095  1.00  0.00     0.064 A 
ATOM     92  C   UNL     1     -18.716   5.917 -10.909  1.00  0.00     0.173 A 
ATOM     93  C   UNL     1     -19.369   3.744 -11.702  1.00  0.00     0.173 A 
ATOM     94  F   UNL     1     -17.833   6.738 -10.320  1.00  0.00    -0.203 F 
ATOM     95  C   UNL     1     -19.955   6.425 -11.290  1.00  0.00     0.198 A 
ATOM     96  C   UNL     1     -20.593   4.263 -12.114  1.00  0.00     0.198 A 
ATOM     97  F   UNL     1     -19.119   2.443 -11.911  1.00  0.00    -0.203 F 
ATOM     98  F   UNL     1     -20.251   7.711 -11.055  1.00  0.00    -0.200 F 
ATOM     99  C   UNL     1     -20.888   5.600 -11.900  1.00  0.00     0.200 A 
ATOM    100  F   UNL     1     -21.487   3.468 -12.719  1.00  0.00    -0.200 F 
ATOM    101  F   UNL     1     -22.076   6.093 -12.275  1.00  0.00    -0.200 F 
ENDBRANCH  68  91
ENDBRANCH  42  43
ENDBRANCH  34  37
ENDBRANCH  32  33
ENDBRANCH  31  32
ENDBRANCH   1  31
TORSDOF 13
