REMARK SMILES O=C(NCCCCNC(=O)[C@H]1SC=C[C@@H]1S(=O)(=O)NCCC1=c2ccccc2=NC1)c1ccc(-c2c3nc(c(-c4c(F)c(F)c(F)c(F)c4F)c4ccc([nH]4)c(-c4c(F)c(F)c(F)c(F)c4F)c4nc(c(-c5c(F)c(F)c(F)c(F)c5F)c5ccc2[nH]5)C=C4)C=C3)cc1
REMARK SMILES IDX 7 1 6 2 5 3 4 4 3 5 1 6 2 7 31 9 32 10 93 11 33 12 92 13
REMARK SMILES IDX 34 14 35 15 36 16 86 17 37 18 91 19 85 20 87 21 38 22 90 23
REMARK SMILES IDX 84 24 83 25 39 27 71 28 51 29 70 30 52 31 55 32 69 33 88 34
REMARK SMILES IDX 53 35 54 36 68 38 89 39 56 40 40 41 41 42 49 43 42 44 43 45
REMARK SMILES IDX 47 46 50 47 44 48 45 49 48 50 46 51 72 52 73 53 81 54 74 55
REMARK SMILES IDX 75 56 79 57 82 58 76 59 77 60 80 61 78 62 57 63 58 64 66 65
REMARK SMILES IDX 59 66 60 67 64 68 67 69 61 70 62 71 65 72 63 73 8 74 9 75
REMARK SMILES IDX 10 77 11 78 12 79 15 80 13 81 14 82 16 83 17 84 18 85 19 86
REMARK SMILES IDX 20 88 21 89 22 90 23 91 30 92 24 93 28 94 29 95 25 96 27 97
REMARK SMILES IDX 26 98
REMARK H PARENT 3 8 87 26 55 37 8 76 19 87
REMARK Flexibility Score: inf
ROOT
ATOM      1  C   UNL     1       4.833   2.968  -2.783  1.00  0.00     0.116 C 
ENDROOT
BRANCH   1   2
ATOM      2  C   UNL     1       4.534   1.564  -3.282  1.00  0.00     0.023 C 
BRANCH   2   3
ATOM      3  C   UNL     1       5.005   0.447  -2.358  1.00  0.00     0.023 C 
BRANCH   3   4
ATOM      4  C   UNL     1       4.655   0.639  -0.890  1.00  0.00     0.116 C 
BRANCH   4   5
ATOM      5  N   UNL     1       3.222   0.723  -0.653  1.00  0.00    -0.352 N 
ATOM      6  O   UNL     1       1.204   0.049   0.102  1.00  0.00    -0.269 OA
ATOM      7  C   UNL     1       2.424  -0.071   0.133  1.00  0.00     0.251 C 
ATOM      8  H   UNL     1       2.759   1.453  -1.123  1.00  0.00     0.163 HD
BRANCH   7   9
ATOM      9  C   UNL     1       3.046  -1.095   0.997  1.00  0.00     0.039 A 
ATOM     10  C   UNL     1       2.495  -2.376   1.032  1.00  0.00     0.014 A 
ATOM     11  C   UNL     1       4.184  -0.797   1.750  1.00  0.00     0.014 A 
ATOM     12  C   UNL     1       3.119  -3.371   1.786  1.00  0.00     0.010 A 
ATOM     13  C   UNL     1       4.869  -1.815   2.400  1.00  0.00     0.010 A 
ATOM     14  C   UNL     1       4.327  -3.107   2.453  1.00  0.00    -0.014 A 
BRANCH  14  15
ATOM     15  C   UNL     1       4.995  -4.154   3.268  1.00  0.00     0.031 A 
ATOM     16  C   UNL     1       5.180  -3.940   4.748  1.00  0.00     0.074 A 
ATOM     17  C   UNL     1       5.441  -5.283   2.683  1.00  0.00     0.049 A 
ATOM     18  N   UNL     1       5.734  -4.729   5.633  1.00  0.00    -0.248 NA
ATOM     19  C   UNL     1       4.709  -2.660   5.308  1.00  0.00     0.031 C 
ATOM     20  C   UNL     1       5.367  -5.580   1.252  1.00  0.00     0.029 A 
ATOM     21  N   UNL     1       6.034  -6.399   3.221  1.00  0.00    -0.354 N 
ATOM     22  C   UNL     1       5.682  -4.040   6.837  1.00  0.00     0.074 A 
ATOM     23  C   UNL     1       5.118  -2.740   6.565  1.00  0.00     0.031 C 
ATOM     24  C   UNL     1       5.842  -6.817   1.033  1.00  0.00     0.029 A 
ATOM     25  C   UNL     1       6.291  -7.387   2.301  1.00  0.00     0.049 A 
ATOM     26  H   UNL     1       6.254  -6.484   4.177  1.00  0.00     0.167 HD
ATOM     27  C   UNL     1       6.028  -4.471   8.071  1.00  0.00     0.037 A 
ATOM     28  C   UNL     1       6.819  -8.617   2.465  1.00  0.00     0.037 A 
ATOM     29  C   UNL     1       6.536  -5.785   8.347  1.00  0.00     0.049 A 
ATOM     30  C   UNL     1       7.202  -9.069   3.850  1.00  0.00     0.074 A 
ATOM     31  C   UNL     1       6.862  -6.337   9.572  1.00  0.00     0.029 A 
ATOM     32  N   UNL     1       6.779  -6.754   7.387  1.00  0.00    -0.354 N 
ATOM     33  N   UNL     1       7.079  -8.432   4.989  1.00  0.00    -0.248 NA
ATOM     34  C   UNL     1       7.793 -10.409   3.977  1.00  0.00     0.031 C 
ATOM     35  C   UNL     1       7.348  -7.626   9.349  1.00  0.00     0.029 A 
ATOM     36  C   UNL     1       7.272  -7.896   7.992  1.00  0.00     0.049 A 
ATOM     37  H   UNL     1       6.625  -6.646   6.420  1.00  0.00     0.167 HD
ATOM     38  C   UNL     1       7.544  -9.301   5.966  1.00  0.00     0.074 A 
ATOM     39  C   UNL     1       7.945 -10.516   5.290  1.00  0.00     0.031 C 
ATOM     40  C   UNL     1       7.632  -9.108   7.303  1.00  0.00     0.037 A 
BRANCH  27  41
ATOM     41  C   UNL     1       5.831  -3.539   9.229  1.00  0.00     0.064 A 
ATOM     42  C   UNL     1       4.548  -3.229   9.704  1.00  0.00     0.173 A 
ATOM     43  C   UNL     1       6.933  -3.036   9.936  1.00  0.00     0.173 A 
ATOM     44  F   UNL     1       3.462  -3.675   9.055  1.00  0.00    -0.203 F 
ATOM     45  C   UNL     1       4.375  -2.444  10.840  1.00  0.00     0.198 A 
ATOM     46  C   UNL     1       6.758  -2.277  11.089  1.00  0.00     0.198 A 
ATOM     47  F   UNL     1       8.181  -3.308   9.526  1.00  0.00    -0.203 F 
ATOM     48  F   UNL     1       3.140  -2.140  11.261  1.00  0.00    -0.200 F 
ATOM     49  C   UNL     1       5.480  -1.982  11.540  1.00  0.00     0.200 A 
ATOM     50  F   UNL     1       7.825  -1.845  11.774  1.00  0.00    -0.200 F 
ATOM     51  F   UNL     1       5.312  -1.252  12.651  1.00  0.00    -0.200 F 
ENDBRANCH  27  41
BRANCH  28  52
ATOM     52  C   UNL     1       6.972  -9.523   1.295  1.00  0.00     0.064 A 
ATOM     53  C   UNL     1       6.201 -10.689   1.181  1.00  0.00     0.173 A 
ATOM     54  C   UNL     1       7.886  -9.247   0.267  1.00  0.00     0.173 A 
ATOM     55  F   UNL     1       5.325 -11.009   2.146  1.00  0.00    -0.203 F 
ATOM     56  C   UNL     1       6.349 -11.551   0.096  1.00  0.00     0.198 A 
ATOM     57  C   UNL     1       8.012 -10.093  -0.833  1.00  0.00     0.198 A 
ATOM     58  F   UNL     1       8.646  -8.143   0.322  1.00  0.00    -0.203 F 
ATOM     59  F   UNL     1       5.630 -12.680   0.036  1.00  0.00    -0.200 F 
ATOM     60  C   UNL     1       7.250 -11.249  -0.914  1.00  0.00     0.200 A 
ATOM     61  F   UNL     1       8.872  -9.789  -1.815  1.00  0.00    -0.200 F 
ATOM     62  F   UNL     1       7.388 -12.074  -1.961  1.00  0.00    -0.200 F 
ENDBRANCH  28  52
BRANCH  40  63
ATOM     63  C   UNL     1       8.147 -10.232   8.152  1.00  0.00     0.064 A 
ATOM     64  C   UNL     1       9.511 -10.548   8.193  1.00  0.00     0.173 A 
ATOM     65  C   UNL     1       7.286 -10.893   9.042  1.00  0.00     0.173 A 
ATOM     66  F   UNL     1      10.369  -9.946   7.356  1.00  0.00    -0.203 F 
ATOM     67  C   UNL     1       9.998 -11.483   9.102  1.00  0.00     0.198 A 
ATOM     68  C   UNL     1       7.781 -11.806   9.967  1.00  0.00     0.198 A 
ATOM     69  F   UNL     1       5.974 -10.613   9.048  1.00  0.00    -0.203 F 
ATOM     70  F   UNL     1      11.305 -11.778   9.120  1.00  0.00    -0.200 F 
ATOM     71  C   UNL     1       9.136 -12.099   9.998  1.00  0.00     0.200 A 
ATOM     72  F   UNL     1       6.950 -12.383  10.848  1.00  0.00    -0.200 F 
ATOM     73  F   UNL     1       9.613 -12.970  10.897  1.00  0.00    -0.200 F 
ENDBRANCH  40  63
ENDBRANCH  14  15
ENDBRANCH   7   9
ENDBRANCH   4   5
ENDBRANCH   3   4
ENDBRANCH   2   3
ENDBRANCH   1   2
BRANCH   1  74
ATOM     74  N   UNL     1       6.246   3.204  -2.544  1.00  0.00    -0.355 N 
ATOM     75  C   UNL     1       6.882   4.418  -2.533  1.00  0.00     0.235 C 
ATOM     76  H   UNL     1       6.803   2.411  -2.371  1.00  0.00     0.163 HD
ATOM     77  O   UNL     1       8.063   4.458  -2.188  1.00  0.00    -0.274 OA
BRANCH  75  78
ATOM     78  C   UNL     1       6.105   5.637  -3.006  1.00  0.00     0.163 C 
ATOM     79  S   UNL     1       4.881   6.132  -1.710  1.00  0.00    -0.119 SA
ATOM     80  C   UNL     1       7.008   6.853  -3.185  1.00  0.00     0.170 C 
ATOM     81  C   UNL     1       5.864   7.432  -1.148  1.00  0.00     0.038 C 
ATOM     82  C   UNL     1       6.891   7.711  -1.952  1.00  0.00     0.002 C 
BRANCH  80  83
ATOM     83  S   UNL     1       6.532   7.743  -4.691  1.00  0.00     0.219 S 
ATOM     84  O   UNL     1       7.717   7.905  -5.505  1.00  0.00    -0.212 OA
ATOM     85  O   UNL     1       5.355   7.128  -5.270  1.00  0.00    -0.212 OA
BRANCH  83  86
ATOM     86  N   UNL     1       5.990   9.250  -4.238  1.00  0.00    -0.214 NA
ATOM     87  H   UNL     1       5.470   9.110  -3.372  1.00  0.00     0.141 HD
BRANCH  86  88
ATOM     88  C   UNL     1       6.873  10.390  -3.991  1.00  0.00     0.103 C 
BRANCH  88  89
ATOM     89  C   UNL     1       7.622  10.911  -5.220  1.00  0.00     0.050 C 
BRANCH  89  90
ATOM     90  C   UNL     1       6.809  11.610  -6.267  1.00  0.00    -0.038 C 
ATOM     91  C   UNL     1       5.886  11.161  -7.117  1.00  0.00     0.001 A 
ATOM     92  C   UNL     1       7.081  13.065  -6.519  1.00  0.00     0.174 C 
ATOM     93  C   UNL     1       5.275   9.908  -7.420  1.00  0.00     0.010 A 
ATOM     94  C   UNL     1       5.515  12.377  -7.865  1.00  0.00     0.065 A 
ATOM     95  N   UNL     1       6.144  13.477  -7.584  1.00  0.00    -0.280 NA
ATOM     96  C   UNL     1       4.289   9.853  -8.329  1.00  0.00     0.001 A 
ATOM     97  C   UNL     1       4.435  12.239  -8.866  1.00  0.00     0.028 A 
ATOM     98  C   UNL     1       3.858  11.039  -9.044  1.00  0.00     0.002 A 
ENDBRANCH  89  90
ENDBRANCH  88  89
ENDBRANCH  86  88
ENDBRANCH  83  86
ENDBRANCH  80  83
ENDBRANCH  75  78
ENDBRANCH   1  74
TORSDOF 16
