REMARK SMILES C[C@@H](C(=O)N(C)C)[N@H+](CC(=O)NCCCCNC(=O)c1ccc(-c2c3nc(c(-c4c(F)c(F)c(F)c(F)c4F)c4ccc([nH]4)c(-c4c(F)c(F)c(F)c(F)c4F)c4nc(c(-c5c(F)c(F)c(F)c(F)c5F)c5ccc2[nH]5)C=C4)C=C3)cc1)CC(F)(F)F
REMARK SMILES IDX 14 1 13 2 12 3 10 4 11 5 9 7 8 8 2 10 1 11 3 12 4 13 5 14
REMARK SMILES IDX 6 15 7 16 83 17 84 18 85 19 86 20 87 21 15 22 16 23 17 24
REMARK SMILES IDX 18 25 19 27 20 28 21 29 82 30 22 31 81 32 23 33 24 34 25 35
REMARK SMILES IDX 75 36 26 37 80 38 74 39 76 40 27 41 79 42 73 43 72 44 28 46
REMARK SMILES IDX 60 47 40 48 59 49 41 50 44 51 58 52 77 53 42 54 43 55 57 57
REMARK SMILES IDX 78 58 45 59 29 60 30 61 38 62 31 63 32 64 36 65 39 66 33 67
REMARK SMILES IDX 34 68 37 69 35 70 61 71 62 72 70 73 63 74 64 75 68 76 71 77
REMARK SMILES IDX 65 78 66 79 69 80 67 81 46 82 47 83 55 84 48 85 49 86 53 87
REMARK SMILES IDX 56 88 50 89 51 90 54 91 52 92
REMARK H PARENT 12 6 8 9 17 26 76 45 44 56
REMARK Flexibility Score: inf
ROOT
ATOM      1  C   UNL     1       3.067   0.542   1.624  1.00  0.00     0.023 C 
ENDROOT
BRANCH   1   2
ATOM      2  C   UNL     1       2.028   0.681   2.829  1.00  0.00     0.116 C 
BRANCH   2   3
ATOM      3  N   UNL     1       1.030   1.726   3.126  1.00  0.00    -0.351 N 
ATOM      4  C   UNL     1      -0.280   2.034   2.866  1.00  0.00     0.275 C 
ATOM      5  O   UNL     1      -0.762   2.937   3.565  1.00  0.00    -0.269 OA
ATOM      6  H   UNL     1       1.433   2.425   3.692  1.00  0.00     0.163 HD
BRANCH   4   7
ATOM      7  C   UNL     1      -1.126   1.415   1.740  1.00  0.00     0.364 C 
BRANCH   7   8
ATOM      8  N   UNL     1      -0.932   2.174   0.482  1.00  0.00    -0.310 N 
ATOM      9  H   UNL     1      -1.050   3.170   0.667  1.00  0.00     0.349 HD
BRANCH   8  10
ATOM     10  C   UNL     1       0.463   2.036   0.005  1.00  0.00     0.271 C 
ATOM     11  C   UNL     1       0.651   0.968  -1.093  1.00  0.00     0.086 C 
BRANCH  10  12
ATOM     12  C   UNL     1       1.053   3.448  -0.317  1.00  0.00     0.280 C 
ATOM     13  O   UNL     1       0.997   3.839  -1.490  1.00  0.00    -0.268 OA
ATOM     14  N   UNL     1       1.628   4.284   0.659  1.00  0.00    -0.344 N 
ATOM     15  C   UNL     1       2.156   4.013   1.990  1.00  0.00     0.146 C 
ATOM     16  C   UNL     1       1.860   5.657   0.275  1.00  0.00     0.146 C 
ENDBRANCH  10  12
ENDBRANCH   8  10
BRANCH   8  17
ATOM     17  C   UNL     1      -2.007   1.910  -0.524  1.00  0.00     0.380 C 
BRANCH  17  18
ATOM     18  C   UNL     1      -2.170   2.830  -1.768  1.00  0.00     0.438 C 
ATOM     19  F   UNL     1      -1.182   2.685  -2.670  1.00  0.00    -0.165 F 
ATOM     20  F   UNL     1      -3.322   2.513  -2.416  1.00  0.00    -0.165 F 
ATOM     21  F   UNL     1      -2.255   4.132  -1.423  1.00  0.00    -0.165 F 
ENDBRANCH  17  18
ENDBRANCH   8  17
ENDBRANCH   7   8
ENDBRANCH   4   7
ENDBRANCH   2   3
ENDBRANCH   1   2
BRANCH   1  22
ATOM     22  C   UNL     1       3.761   1.483   0.571  1.00  0.00     0.023 C 
BRANCH  22  23
ATOM     23  C   UNL     1       4.871   2.538   0.783  1.00  0.00     0.116 C 
BRANCH  23  24
ATOM     24  N   UNL     1       5.982   2.140   1.608  1.00  0.00    -0.352 N 
ATOM     25  C   UNL     1       7.146   2.833   1.846  1.00  0.00     0.251 C 
ATOM     26  H   UNL     1       5.899   1.267   2.055  1.00  0.00     0.163 HD
ATOM     27  O   UNL     1       8.087   2.245   2.403  1.00  0.00    -0.269 OA
BRANCH  25  28
ATOM     28  C   UNL     1       7.346   4.252   1.449  1.00  0.00     0.039 A 
ATOM     29  C   UNL     1       8.486   4.587   0.704  1.00  0.00     0.014 A 
ATOM     30  C   UNL     1       6.538   5.280   1.946  1.00  0.00     0.014 A 
ATOM     31  C   UNL     1       8.807   5.929   0.447  1.00  0.00     0.010 A 
ATOM     32  C   UNL     1       6.850   6.626   1.669  1.00  0.00     0.010 A 
ATOM     33  C   UNL     1       7.995   6.969   0.927  1.00  0.00    -0.014 A 
BRANCH  33  34
ATOM     34  C   UNL     1       8.357   8.397   0.664  1.00  0.00     0.031 A 
ATOM     35  C   UNL     1       8.828   9.299   1.779  1.00  0.00     0.074 A 
ATOM     36  C   UNL     1       8.268   8.896  -0.586  1.00  0.00     0.049 A 
ATOM     37  N   UNL     1       9.203  10.556   1.734  1.00  0.00    -0.248 NA
ATOM     38  C   UNL     1       8.871   8.713   3.125  1.00  0.00     0.031 C 
ATOM     39  C   UNL     1       7.808   8.146  -1.754  1.00  0.00     0.029 A 
ATOM     40  N   UNL     1       8.555  10.145  -1.086  1.00  0.00    -0.354 N 
ATOM     41  C   UNL     1       9.520  10.910   3.041  1.00  0.00     0.074 A 
ATOM     42  C   UNL     1       9.249   9.749   3.862  1.00  0.00     0.031 C 
ATOM     43  C   UNL     1       7.862   8.939  -2.836  1.00  0.00     0.029 A 
ATOM     44  C   UNL     1       8.331  10.265  -2.438  1.00  0.00     0.049 A 
ATOM     45  H   UNL     1       8.890  10.884  -0.528  1.00  0.00     0.167 HD
ATOM     46  C   UNL     1      10.009  12.086   3.512  1.00  0.00     0.037 A 
ATOM     47  C   UNL     1       8.481  11.319  -3.264  1.00  0.00     0.037 A 
ATOM     48  C   UNL     1      10.284  13.241   2.694  1.00  0.00     0.049 A 
ATOM     49  C   UNL     1       9.004  12.622  -2.715  1.00  0.00     0.074 A 
ATOM     50  C   UNL     1      10.819  14.462   3.071  1.00  0.00     0.029 A 
ATOM     51  N   UNL     1      10.037  13.322   1.330  1.00  0.00    -0.354 N 
ATOM     52  N   UNL     1       9.360  12.919  -1.489  1.00  0.00    -0.248 NA
ATOM     53  C   UNL     1       9.154  13.732  -3.667  1.00  0.00     0.031 C 
ATOM     54  C   UNL     1      10.843  15.298   1.950  1.00  0.00     0.029 A 
ATOM     55  C   UNL     1      10.383  14.579   0.858  1.00  0.00     0.049 A 
ATOM     56  H   UNL     1       9.671  12.594   0.779  1.00  0.00     0.167 HD
ATOM     57  C   UNL     1       9.804  14.235  -1.528  1.00  0.00     0.074 A 
ATOM     58  C   UNL     1       9.685  14.675  -2.902  1.00  0.00     0.031 C 
ATOM     59  C   UNL     1      10.269  15.007  -0.514  1.00  0.00     0.037 A 
BRANCH  46  60
ATOM     60  C   UNL     1      10.268  12.191   4.992  1.00  0.00     0.064 A 
ATOM     61  C   UNL     1      11.297  11.467   5.615  1.00  0.00     0.173 A 
ATOM     62  C   UNL     1       9.500  13.052   5.793  1.00  0.00     0.173 A 
ATOM     63  F   UNL     1      12.062  10.630   4.899  1.00  0.00    -0.203 F 
ATOM     64  C   UNL     1      11.519  11.568   6.987  1.00  0.00     0.198 A 
ATOM     65  C   UNL     1       9.747  13.175   7.159  1.00  0.00     0.198 A 
ATOM     66  F   UNL     1       8.514  13.781   5.252  1.00  0.00    -0.203 F 
ATOM     67  F   UNL     1      12.469  10.821   7.567  1.00  0.00    -0.200 F 
ATOM     68  C   UNL     1      10.748  12.425   7.757  1.00  0.00     0.200 A 
ATOM     69  F   UNL     1       9.012  14.018   7.899  1.00  0.00    -0.200 F 
ATOM     70  F   UNL     1      10.963  12.521   9.076  1.00  0.00    -0.200 F 
ENDBRANCH  46  60
BRANCH  47  71
ATOM     71  C   UNL     1       8.152  11.182  -4.710  1.00  0.00     0.064 A 
ATOM     72  C   UNL     1       9.155  11.223  -5.689  1.00  0.00     0.173 A 
ATOM     73  C   UNL     1       6.829  11.007  -5.143  1.00  0.00     0.173 A 
ATOM     74  F   UNL     1      10.433  11.413  -5.331  1.00  0.00    -0.203 F 
ATOM     75  C   UNL     1       8.846  11.109  -7.044  1.00  0.00     0.198 A 
ATOM     76  C   UNL     1       6.524  10.863  -6.495  1.00  0.00     0.198 A 
ATOM     77  F   UNL     1       5.830  10.962  -4.248  1.00  0.00    -0.203 F 
ATOM     78  F   UNL     1       9.819  11.196  -7.961  1.00  0.00    -0.200 F 
ATOM     79  C   UNL     1       7.532  10.921  -7.445  1.00  0.00     0.200 A 
ATOM     80  F   UNL     1       5.255  10.667  -6.877  1.00  0.00    -0.200 F 
ATOM     81  F   UNL     1       7.237  10.802  -8.747  1.00  0.00    -0.200 F 
ENDBRANCH  47  71
BRANCH  59  82
ATOM     82  C   UNL     1      10.723  16.398  -0.855  1.00  0.00     0.064 A 
ATOM     83  C   UNL     1       9.816  17.409  -1.208  1.00  0.00     0.173 A 
ATOM     84  C   UNL     1      12.084  16.736  -0.784  1.00  0.00     0.173 A 
ATOM     85  F   UNL     1       8.506  17.136  -1.304  1.00  0.00    -0.203 F 
ATOM     86  C   UNL     1      10.257  18.697  -1.501  1.00  0.00     0.198 A 
ATOM     87  C   UNL     1      12.517  18.033  -1.046  1.00  0.00     0.198 A 
ATOM     88  F   UNL     1      12.994  15.811  -0.445  1.00  0.00    -0.203 F 
ATOM     89  F   UNL     1       9.377  19.633  -1.883  1.00  0.00    -0.200 F 
ATOM     90  C   UNL     1      11.605  19.010  -1.412  1.00  0.00     0.200 A 
ATOM     91  F   UNL     1      13.819  18.337  -0.944  1.00  0.00    -0.200 F 
ATOM     92  F   UNL     1      12.025  20.253  -1.685  1.00  0.00    -0.200 F 
ENDBRANCH  59  82
ENDBRANCH  33  34
ENDBRANCH  25  28
ENDBRANCH  23  24
ENDBRANCH  22  23
ENDBRANCH   1  22
TORSDOF 16
