REMARK SMILES O=C(CSc1nnc2sc3ccccc3n12)N[C@H](Cc1c[nH]c2ccccc12)C(=O)NCCCCNC(=O)c1ccc(-c2c3nc(c(-c4c(F)c(F)c(F)c(F)c4F)c4ccc([nH]4)c(-c4c(F)c(F)c(F)c(F)c4F)c4nc(c(-c5c(F)c(F)c(F)c(F)c5F)c5ccc2[nH]5)C=C4)C=C3)cc1
REMARK SMILES IDX 32 1 31 2 29 3 30 4 18 6 17 7 1 8 2 9 3 11 4 12 5 13 6 14
REMARK SMILES IDX 16 15 7 16 8 17 15 18 9 19 10 20 14 21 11 22 13 23 12 24
REMARK SMILES IDX 19 25 20 26 21 27 28 28 22 29 23 30 27 31 24 33 26 34 25 35
REMARK SMILES IDX 33 36 34 37 35 38 36 39 37 40 38 42 39 43 40 44 101 45 41 46
REMARK SMILES IDX 100 47 42 48 43 49 44 50 94 51 45 52 99 53 93 54 95 55 46 56
REMARK SMILES IDX 98 57 92 58 91 59 47 61 79 62 59 63 78 64 60 65 63 66 77 67
REMARK SMILES IDX 96 68 61 69 62 70 76 72 97 73 64 74 48 75 49 76 57 77 50 78
REMARK SMILES IDX 51 79 55 80 58 81 52 82 53 83 56 84 54 85 80 86 81 87 89 88
REMARK SMILES IDX 82 89 83 90 87 91 90 92 84 93 85 94 88 95 86 96 65 97 66 98
REMARK SMILES IDX 74 99 67 100 68 101 72 102 75 103 69 104 70 105 73 106
REMARK SMILES IDX 71 107
REMARK H PARENT 31 5 17 10 22 32 36 41 95 60 63 71
REMARK Flexibility Score: inf
ROOT
ATOM      1  C   UNL     1       5.546  -1.672  -3.196  1.00  0.00     0.116 C 
ENDROOT
BRANCH   1   2
ATOM      2  N   UNL     1       4.360  -2.373  -3.636  1.00  0.00    -0.354 N 
ATOM      3  C   UNL     1       3.041  -2.052  -3.499  1.00  0.00     0.242 C 
ATOM      4  O   UNL     1       2.226  -2.728  -4.141  1.00  0.00    -0.273 OA
ATOM      5  H   UNL     1       4.532  -3.219  -4.109  1.00  0.00     0.163 HD
BRANCH   3   6
ATOM      6  C   UNL     1       2.564  -0.791  -2.770  1.00  0.00     0.175 C 
BRANCH   6   7
ATOM      7  N   UNL     1       2.744   0.255  -3.811  1.00  0.00    -0.343 N 
ATOM      8  O   UNL     1       4.588   1.368  -3.064  1.00  0.00    -0.274 OA
ATOM      9  C   UNL     1       3.877   1.007  -4.002  1.00  0.00     0.231 C 
ATOM     10  H   UNL     1       1.986   0.423  -4.417  1.00  0.00     0.164 HD
BRANCH   9  11
ATOM     11  C   UNL     1       4.290   1.346  -5.432  1.00  0.00     0.178 C 
BRANCH  11  12
ATOM     12  S   UNL     1       3.085   1.003  -6.715  1.00  0.00    -0.076 SA
BRANCH  12  13
ATOM     13  C   UNL     1       3.178  -0.699  -7.003  1.00  0.00     0.197 A 
ATOM     14  N   UNL     1       4.221  -1.499  -6.856  1.00  0.00    -0.122 NA
ATOM     15  N   UNL     1       2.140  -1.411  -7.532  1.00  0.00    -0.260 N 
ATOM     16  N   UNL     1       3.860  -2.770  -7.328  1.00  0.00    -0.118 NA
ATOM     17  C   UNL     1       2.619  -2.669  -7.727  1.00  0.00     0.217 A 
ATOM     18  C   UNL     1       0.820  -1.191  -7.917  1.00  0.00     0.068 A 
ATOM     19  S   UNL     1       1.458  -3.729  -8.461  1.00  0.00    -0.094 S 
ATOM     20  C   UNL     1       0.281  -2.366  -8.464  1.00  0.00     0.055 A 
ATOM     21  C   UNL     1       0.088  -0.021  -7.804  1.00  0.00     0.028 A 
ATOM     22  C   UNL     1      -1.025  -2.372  -8.928  1.00  0.00     0.021 A 
ATOM     23  C   UNL     1      -1.226  -0.031  -8.266  1.00  0.00     0.002 A 
ATOM     24  C   UNL     1      -1.778  -1.193  -8.827  1.00  0.00     0.002 A 
ENDBRANCH  12  13
ENDBRANCH  11  12
ENDBRANCH   9  11
ENDBRANCH   6   7
BRANCH   6  25
ATOM     25  C   UNL     1       3.066  -0.526  -1.345  1.00  0.00     0.072 C 
BRANCH  25  26
ATOM     26  C   UNL     1       2.731  -1.519  -0.237  1.00  0.00    -0.020 A 
ATOM     27  C   UNL     1       2.302  -1.094   1.013  1.00  0.00     0.087 A 
ATOM     28  C   UNL     1       2.889  -2.958  -0.122  1.00  0.00     0.003 A 
ATOM     29  N   UNL     1       2.198  -2.168   1.848  1.00  0.00    -0.361 N 
ATOM     30  C   UNL     1       2.552  -3.317   1.190  1.00  0.00     0.046 A 
ATOM     31  C   UNL     1       3.310  -4.019  -0.956  1.00  0.00     0.010 A 
ATOM     32  H   UNL     1       1.911  -2.125   2.789  1.00  0.00     0.166 HD
ATOM     33  C   UNL     1       2.611  -4.634   1.676  1.00  0.00     0.026 A 
ATOM     34  C   UNL     1       3.379  -5.340  -0.493  1.00  0.00     0.001 A 
ATOM     35  C   UNL     1       3.031  -5.643   0.811  1.00  0.00     0.002 A 
ENDBRANCH  25  26
ENDBRANCH   6  25
ENDBRANCH   3   6
ENDBRANCH   1   2
BRANCH   1  36
ATOM     36  C   UNL     1       6.381  -2.406  -2.159  1.00  0.00     0.023 C 
BRANCH  36  37
ATOM     37  C   UNL     1       7.012  -3.714  -2.625  1.00  0.00     0.023 C 
BRANCH  37  38
ATOM     38  C   UNL     1       7.649  -3.678  -4.017  1.00  0.00     0.116 C 
BRANCH  38  39
ATOM     39  N   UNL     1       8.527  -2.547  -4.262  1.00  0.00    -0.352 N 
ATOM     40  C   UNL     1       9.863  -2.314  -4.126  1.00  0.00     0.251 C 
ATOM     41  H   UNL     1       8.043  -1.764  -4.608  1.00  0.00     0.163 HD
ATOM     42  O   UNL     1      10.294  -1.283  -4.659  1.00  0.00    -0.269 OA
BRANCH  40  43
ATOM     43  C   UNL     1      10.803  -3.149  -3.340  1.00  0.00     0.039 A 
ATOM     44  C   UNL     1      10.449  -4.288  -2.624  1.00  0.00     0.014 A 
ATOM     45  C   UNL     1      12.129  -2.679  -3.251  1.00  0.00     0.014 A 
ATOM     46  C   UNL     1      11.352  -4.866  -1.745  1.00  0.00     0.010 A 
ATOM     47  C   UNL     1      13.050  -3.273  -2.397  1.00  0.00     0.010 A 
ATOM     48  C   UNL     1      12.641  -4.337  -1.605  1.00  0.00    -0.014 A 
BRANCH  48  49
ATOM     49  C   UNL     1      13.556  -5.053  -0.724  1.00  0.00     0.031 A 
ATOM     50  C   UNL     1      13.750  -6.473  -1.118  1.00  0.00     0.074 A 
ATOM     51  C   UNL     1      14.207  -4.504   0.321  1.00  0.00     0.049 A 
ATOM     52  N   UNL     1      13.369  -7.524  -0.471  1.00  0.00    -0.248 NA
ATOM     53  C   UNL     1      14.286  -6.756  -2.459  1.00  0.00     0.031 C 
ATOM     54  C   UNL     1      14.309  -3.086   0.668  1.00  0.00     0.029 A 
ATOM     55  N   UNL     1      14.991  -5.109   1.263  1.00  0.00    -0.354 N 
ATOM     56  C   UNL     1      13.780  -8.612  -1.236  1.00  0.00     0.074 A 
ATOM     57  C   UNL     1      14.199  -8.086  -2.507  1.00  0.00     0.031 C 
ATOM     58  C   UNL     1      15.280  -2.921   1.595  1.00  0.00     0.029 A 
ATOM     59  C   UNL     1      15.763  -4.227   2.010  1.00  0.00     0.049 A 
ATOM     60  H   UNL     1      15.007  -6.083   1.401  1.00  0.00     0.167 HD
ATOM     61  C   UNL     1      13.990  -9.822  -0.651  1.00  0.00     0.037 A 
ATOM     62  C   UNL     1      16.757  -4.554   2.873  1.00  0.00     0.037 A 
ATOM     63  C   UNL     1      13.337  -9.892   0.630  1.00  0.00     0.049 A 
ATOM     64  C   UNL     1      16.523  -5.949   3.307  1.00  0.00     0.074 A 
ATOM     65  C   UNL     1      12.041  -9.958   1.091  1.00  0.00     0.029 A 
ATOM     66  N   UNL     1      14.123  -9.509   1.682  1.00  0.00    -0.354 N 
ATOM     67  N   UNL     1      15.529  -6.318   4.065  1.00  0.00    -0.248 NA
ATOM     68  C   UNL     1      17.229  -7.030   2.630  1.00  0.00     0.031 C 
ATOM     69  C   UNL     1      12.055  -9.339   2.377  1.00  0.00     0.029 A 
ATOM     70  C   UNL     1      13.363  -8.955   2.672  1.00  0.00     0.049 A 
ATOM     71  H   UNL     1      15.100  -9.617   1.720  1.00  0.00     0.167 HD
ATOM     72  C   UNL     1      15.213  -7.586   3.619  1.00  0.00     0.074 A 
ATOM     73  C   UNL     1      16.389  -8.036   2.885  1.00  0.00     0.031 C 
ATOM     74  C   UNL     1      13.918  -8.013   3.619  1.00  0.00     0.037 A 
BRANCH  61  75
ATOM     75  C   UNL     1      15.181 -10.708  -0.964  1.00  0.00     0.064 A 
ATOM     76  C   UNL     1      15.292 -11.956  -0.313  1.00  0.00     0.173 A 
ATOM     77  C   UNL     1      16.362 -10.243  -1.584  1.00  0.00     0.173 A 
ATOM     78  F   UNL     1      14.245 -12.482   0.340  1.00  0.00    -0.203 F 
ATOM     79  C   UNL     1      16.509 -12.640  -0.227  1.00  0.00     0.198 A 
ATOM     80  C   UNL     1      17.560 -10.954  -1.539  1.00  0.00     0.198 A 
ATOM     81  F   UNL     1      16.444  -9.035  -2.151  1.00  0.00    -0.203 F 
ATOM     82  F   UNL     1      16.596 -13.754   0.512  1.00  0.00    -0.200 F 
ATOM     83  C   UNL     1      17.643 -12.135  -0.836  1.00  0.00     0.200 A 
ATOM     84  F   UNL     1      18.655 -10.431  -2.109  1.00  0.00    -0.200 F 
ATOM     85  F   UNL     1      18.823 -12.754  -0.702  1.00  0.00    -0.200 F 
ENDBRANCH  61  75
BRANCH  62  86
ATOM     86  C   UNL     1      18.038  -3.857   3.149  1.00  0.00     0.064 A 
ATOM     87  C   UNL     1      18.847  -4.238   4.236  1.00  0.00     0.173 A 
ATOM     88  C   UNL     1      18.643  -3.029   2.184  1.00  0.00     0.173 A 
ATOM     89  F   UNL     1      18.364  -5.051   5.186  1.00  0.00    -0.203 F 
ATOM     90  C   UNL     1      20.193  -3.863   4.320  1.00  0.00     0.198 A 
ATOM     91  C   UNL     1      19.984  -2.649   2.274  1.00  0.00     0.198 A 
ATOM     92  F   UNL     1      17.978  -2.657   1.082  1.00  0.00    -0.203 F 
ATOM     93  F   UNL     1      20.952  -4.317   5.328  1.00  0.00    -0.200 F 
ATOM     94  C   UNL     1      20.764  -3.083   3.330  1.00  0.00     0.200 A 
ATOM     95  F   UNL     1      20.534  -1.921   1.293  1.00  0.00    -0.200 F 
ATOM     96  F   UNL     1      22.071  -2.787   3.369  1.00  0.00    -0.200 F 
ENDBRANCH  62  86
BRANCH  74  97
ATOM     97  C   UNL     1      12.961  -7.323   4.542  1.00  0.00     0.064 A 
ATOM     98  C   UNL     1      12.561  -5.983   4.420  1.00  0.00     0.173 A 
ATOM     99  C   UNL     1      12.339  -8.102   5.527  1.00  0.00     0.173 A 
ATOM    100  F   UNL     1      13.055  -5.197   3.454  1.00  0.00    -0.203 F 
ATOM    101  C   UNL     1      11.597  -5.444   5.272  1.00  0.00     0.198 A 
ATOM    102  C   UNL     1      11.350  -7.573   6.348  1.00  0.00     0.198 A 
ATOM    103  F   UNL     1      12.659  -9.399   5.659  1.00  0.00    -0.203 F 
ATOM    104  F   UNL     1      11.235  -4.159   5.150  1.00  0.00    -0.200 F 
ATOM    105  C   UNL     1      10.985  -6.243   6.226  1.00  0.00     0.200 A 
ATOM    106  F   UNL     1      10.732  -8.362   7.237  1.00  0.00    -0.200 F 
ATOM    107  F   UNL     1      10.024  -5.737   7.013  1.00  0.00    -0.200 F 
ENDBRANCH  74  97
ENDBRANCH  48  49
ENDBRANCH  40  43
ENDBRANCH  38  39
ENDBRANCH  37  38
ENDBRANCH  36  37
ENDBRANCH   1  36
TORSDOF 17
