REMARK SMILES CCCC[C@@H](C(=O)NCCCCNC(=O)c1ccc(-c2c3nc(c(-c4c(F)c(F)c(F)c(F)c4F)c4ccc([nH]4)c(-c4c(F)c(F)c(F)c(F)c4F)c4nc(c(-c5c(F)c(F)c(F)c(F)c5F)c5ccc2[nH]5)C=C4)C=C3)cc1)C1(O)Cc2ccccc2C1
REMARK SMILES IDX 10 1 9 2 8 3 6 4 7 5 5 7 4 8 3 9 2 10 1 11 79 12 81 13 88 14
REMARK SMILES IDX 82 15 87 16 83 17 86 18 84 19 85 20 80 21 11 23 12 24 13 25
REMARK SMILES IDX 14 26 15 28 16 29 17 30 78 31 18 32 77 33 19 34 20 35 21 36
REMARK SMILES IDX 71 37 22 38 76 39 70 40 72 41 23 42 75 43 69 44 68 45 24 47
REMARK SMILES IDX 56 48 36 49 55 50 37 51 40 52 54 53 73 54 38 55 39 56 53 58
REMARK SMILES IDX 74 59 41 60 25 61 26 62 34 63 27 64 28 65 32 66 35 67 29 68
REMARK SMILES IDX 30 69 33 70 31 71 57 72 58 73 66 74 59 75 60 76 64 77 67 78
REMARK SMILES IDX 61 79 62 80 65 81 63 82 42 83 43 84 51 85 44 86 45 87 49 88
REMARK SMILES IDX 52 89 46 90 47 91 50 92 48 93
REMARK H PARENT 8 6 80 22 13 27 72 46 40 57
REMARK Flexibility Score: inf
ROOT
ATOM      1  C   UNL     1       0.772   4.452  -0.704  1.00  0.00     0.023 C 
ENDROOT
BRANCH   1   2
ATOM      2  C   UNL     1      -0.555   3.705  -0.664  1.00  0.00     0.116 C 
BRANCH   2   3
ATOM      3  N   UNL     1      -1.083   3.482  -1.992  1.00  0.00    -0.356 N 
ATOM      4  C   UNL     1      -1.765   2.330  -2.254  1.00  0.00     0.226 C 
ATOM      5  O   UNL     1      -2.995   2.393  -2.211  1.00  0.00    -0.275 OA
ATOM      6  H   UNL     1      -0.953   4.154  -2.699  1.00  0.00     0.163 HD
BRANCH   4   7
ATOM      7  C   UNL     1      -1.021   1.006  -2.534  1.00  0.00     0.111 C 
BRANCH   7   8
ATOM      8  C   UNL     1       0.533   0.983  -2.433  1.00  0.00     0.016 C 
BRANCH   8   9
ATOM      9  C   UNL     1       1.310   1.056  -1.115  1.00  0.00     0.001 C 
BRANCH   9  10
ATOM     10  C   UNL     1       0.731   0.377   0.117  1.00  0.00    -0.003 C 
ATOM     11  C   UNL     1       1.150  -1.076   0.221  1.00  0.00     0.004 C 
ENDBRANCH   9  10
ENDBRANCH   8   9
ENDBRANCH   7   8
BRANCH   7  12
ATOM     12  C   UNL     1      -1.442   0.382  -3.951  1.00  0.00     0.084 C 
ATOM     13  C   UNL     1      -0.516   0.822  -5.129  1.00  0.00     0.072 C 
ATOM     14  C   UNL     1      -2.849   0.754  -4.530  1.00  0.00     0.072 C 
ATOM     15  C   UNL     1      -1.161   2.116  -5.501  1.00  0.00    -0.042 A 
ATOM     16  C   UNL     1      -2.532   2.051  -5.223  1.00  0.00    -0.042 A 
ATOM     17  C   UNL     1      -0.572   3.274  -5.970  1.00  0.00     0.004 A 
ATOM     18  C   UNL     1      -3.361   3.124  -5.485  1.00  0.00     0.004 A 
ATOM     19  C   UNL     1      -1.392   4.383  -6.181  1.00  0.00     0.000 A 
ATOM     20  C   UNL     1      -2.778   4.302  -5.960  1.00  0.00     0.000 A 
BRANCH  12  21
ATOM     21  O   UNL     1      -1.365  -1.051  -3.828  1.00  0.00    -0.388 OA
ATOM     22  H   UNL     1      -0.498  -1.299  -3.470  1.00  0.00     0.211 HD
ENDBRANCH  12  21
ENDBRANCH   7  12
ENDBRANCH   4   7
ENDBRANCH   2   3
ENDBRANCH   1   2
BRANCH   1  23
ATOM     23  C   UNL     1       0.650   5.963  -0.589  1.00  0.00     0.023 C 
BRANCH  23  24
ATOM     24  C   UNL     1      -0.013   6.448   0.692  1.00  0.00     0.116 C 
BRANCH  24  25
ATOM     25  N   UNL     1       0.600   5.937   1.912  1.00  0.00    -0.352 N 
ATOM     26  C   UNL     1       0.775   6.595   3.111  1.00  0.00     0.251 C 
ATOM     27  H   UNL     1       0.928   5.010   1.876  1.00  0.00     0.163 HD
ATOM     28  O   UNL     1       1.371   6.083   4.040  1.00  0.00    -0.269 OA
BRANCH  26  29
ATOM     29  C   UNL     1       0.254   7.972   3.214  1.00  0.00     0.039 A 
ATOM     30  C   UNL     1       1.137   9.004   3.533  1.00  0.00     0.014 A 
ATOM     31  C   UNL     1      -1.069   8.240   2.858  1.00  0.00     0.014 A 
ATOM     32  C   UNL     1       0.709  10.325   3.411  1.00  0.00     0.010 A 
ATOM     33  C   UNL     1      -1.462   9.553   2.648  1.00  0.00     0.010 A 
ATOM     34  C   UNL     1      -0.577  10.608   2.920  1.00  0.00    -0.014 A 
BRANCH  34  35
ATOM     35  C   UNL     1      -1.024  12.002   2.685  1.00  0.00     0.031 A 
ATOM     36  C   UNL     1      -2.193  12.546   3.456  1.00  0.00     0.074 A 
ATOM     37  C   UNL     1      -0.436  12.742   1.726  1.00  0.00     0.049 A 
ATOM     38  N   UNL     1      -2.794  13.702   3.343  1.00  0.00    -0.248 NA
ATOM     39  C   UNL     1      -2.791  11.654   4.463  1.00  0.00     0.031 C 
ATOM     40  C   UNL     1       0.663  12.299   0.866  1.00  0.00     0.029 A 
ATOM     41  N   UNL     1      -0.689  14.024   1.305  1.00  0.00    -0.354 N 
ATOM     42  C   UNL     1      -3.849  13.665   4.244  1.00  0.00     0.074 A 
ATOM     43  C   UNL     1      -3.846  12.352   4.850  1.00  0.00     0.031 C 
ATOM     44  C   UNL     1       1.008  13.301   0.041  1.00  0.00     0.029 A 
ATOM     45  C   UNL     1       0.135  14.443   0.289  1.00  0.00     0.049 A 
ATOM     46  H   UNL     1      -1.394  14.590   1.695  1.00  0.00     0.167 HD
ATOM     47  C   UNL     1      -4.723  14.649   4.561  1.00  0.00     0.037 A 
ATOM     48  C   UNL     1       0.176  15.619  -0.367  1.00  0.00     0.037 A 
ATOM     49  C   UNL     1      -4.695  15.965   3.983  1.00  0.00     0.049 A 
ATOM     50  C   UNL     1      -0.791  16.705   0.020  1.00  0.00     0.074 A 
ATOM     51  C   UNL     1      -5.486  17.058   4.286  1.00  0.00     0.029 A 
ATOM     52  N   UNL     1      -3.821  16.367   2.983  1.00  0.00    -0.354 N 
ATOM     53  N   UNL     1      -1.735  16.687   0.929  1.00  0.00    -0.248 NA
ATOM     54  C   UNL     1      -0.681  17.979  -0.705  1.00  0.00     0.031 C 
ATOM     55  C   UNL     1      -5.118  18.110   3.441  1.00  0.00     0.029 A 
ATOM     56  C   UNL     1      -4.066  17.687   2.644  1.00  0.00     0.049 A 
ATOM     57  H   UNL     1      -3.130  15.797   2.574  1.00  0.00     0.167 HD
ATOM     58  C   UNL     1      -2.312  17.949   0.906  1.00  0.00     0.074 A 
ATOM     59  C   UNL     1      -1.602  18.714  -0.098  1.00  0.00     0.031 C 
ATOM     60  C   UNL     1      -3.339  18.432   1.648  1.00  0.00     0.037 A 
BRANCH  47  61
ATOM     61  C   UNL     1      -5.772  14.336   5.587  1.00  0.00     0.064 A 
ATOM     62  C   UNL     1      -5.444  14.137   6.937  1.00  0.00     0.173 A 
ATOM     63  C   UNL     1      -7.124  14.252   5.221  1.00  0.00     0.173 A 
ATOM     64  F   UNL     1      -4.164  14.192   7.336  1.00  0.00    -0.203 F 
ATOM     65  C   UNL     1      -6.426  13.831   7.876  1.00  0.00     0.198 A 
ATOM     66  C   UNL     1      -8.107  13.978   6.169  1.00  0.00     0.198 A 
ATOM     67  F   UNL     1      -7.493  14.437   3.945  1.00  0.00    -0.203 F 
ATOM     68  F   UNL     1      -6.080  13.588   9.148  1.00  0.00    -0.200 F 
ATOM     69  C   UNL     1      -7.756  13.758   7.493  1.00  0.00     0.200 A 
ATOM     70  F   UNL     1      -9.393  13.919   5.800  1.00  0.00    -0.200 F 
ATOM     71  F   UNL     1      -8.700  13.468   8.399  1.00  0.00    -0.200 F 
ENDBRANCH  47  61
BRANCH  48  72
ATOM     72  C   UNL     1       1.191  15.843  -1.429  1.00  0.00     0.064 A 
ATOM     73  C   UNL     1       2.259  16.729  -1.225  1.00  0.00     0.173 A 
ATOM     74  C   UNL     1       1.118  15.185  -2.665  1.00  0.00     0.173 A 
ATOM     75  F   UNL     1       2.362  17.396  -0.066  1.00  0.00    -0.203 F 
ATOM     76  C   UNL     1       3.203  16.962  -2.223  1.00  0.00     0.198 A 
ATOM     77  C   UNL     1       2.078  15.399  -3.652  1.00  0.00     0.198 A 
ATOM     78  F   UNL     1       0.120  14.323  -2.909  1.00  0.00    -0.203 F 
ATOM     79  F   UNL     1       4.189  17.846  -2.016  1.00  0.00    -0.200 F 
ATOM     80  C   UNL     1       3.115  16.293  -3.434  1.00  0.00     0.200 A 
ATOM     81  F   UNL     1       1.997  14.740  -4.816  1.00  0.00    -0.200 F 
ATOM     82  F   UNL     1       4.025  16.515  -4.392  1.00  0.00    -0.200 F 
ENDBRANCH  48  72
BRANCH  60  83
ATOM     83  C   UNL     1      -3.733  19.862   1.427  1.00  0.00     0.064 A 
ATOM     84  C   UNL     1      -4.412  20.266   0.269  1.00  0.00     0.173 A 
ATOM     85  C   UNL     1      -3.470  20.829   2.408  1.00  0.00     0.173 A 
ATOM     86  F   UNL     1      -4.673  19.381  -0.705  1.00  0.00    -0.203 F 
ATOM     87  C   UNL     1      -4.792  21.593   0.091  1.00  0.00     0.198 A 
ATOM     88  C   UNL     1      -3.877  22.149   2.240  1.00  0.00     0.198 A 
ATOM     89  F   UNL     1      -2.829  20.490   3.537  1.00  0.00    -0.203 F 
ATOM     90  F   UNL     1      -5.401  21.968  -1.043  1.00  0.00    -0.200 F 
ATOM     91  C   UNL     1      -4.532  22.531   1.079  1.00  0.00     0.200 A 
ATOM     92  F   UNL     1      -3.637  23.051   3.202  1.00  0.00    -0.200 F 
ATOM     93  F   UNL     1      -4.907  23.806   0.910  1.00  0.00    -0.200 F 
ENDBRANCH  60  83
ENDBRANCH  34  35
ENDBRANCH  26  29
ENDBRANCH  24  25
ENDBRANCH  23  24
ENDBRANCH   1  23
TORSDOF 16
