REMARK SMILES CN1C(=O)[C@H](CC(=O)NCCCCNC(=O)c2ccc(-c3c4nc(c(-c5c(F)c(F)c(F)c(F)c5F)c5ccc([nH]5)c(-c5c(F)c(F)c(F)c(F)c5F)c5nc(c(-c6c(F)c(F)c(F)c(F)c6F)c6ccc3[nH]6)C=C5)C=C4)cc2)S/C1=[NH+]\N=C\c1ccc(O)cc1O
REMARK SMILES IDX 10 1 9 2 7 3 8 4 6 6 5 7 1 8 2 9 3 10 81 11 4 12 80 13 82 14
REMARK SMILES IDX 83 16 84 17 85 18 86 19 91 20 87 21 90 22 88 23 92 24 89 26
REMARK SMILES IDX 11 28 12 29 13 30 14 31 15 32 16 34 17 35 18 36 79 37 19 38
REMARK SMILES IDX 78 39 20 40 21 41 22 42 72 43 23 44 77 45 71 46 73 47 24 48
REMARK SMILES IDX 76 49 70 50 69 51 25 53 57 54 37 55 56 56 38 57 41 58 55 59
REMARK SMILES IDX 74 60 39 61 40 62 54 64 75 65 42 66 26 67 27 68 35 69 28 70
REMARK SMILES IDX 29 71 33 72 36 73 30 74 31 75 34 76 32 77 58 78 59 79 67 80
REMARK SMILES IDX 60 81 61 82 65 83 68 84 62 85 63 86 66 87 64 88 43 89 44 90
REMARK SMILES IDX 52 91 45 92 46 93 50 94 53 95 47 96 48 97 51 98 49 99
REMARK H PARENT 9 5 82 15 92 25 89 27 14 33 73 52 41 63
REMARK Flexibility Score: inf
ROOT
ATOM      1  C   UNL     1      -3.587  -1.113   2.317  1.00  0.00     0.116 C 
ENDROOT
BRANCH   1   2
ATOM      2  N   UNL     1      -2.838  -1.504   1.138  1.00  0.00    -0.356 N 
ATOM      3  C   UNL     1      -1.640  -2.139   1.031  1.00  0.00     0.221 C 
ATOM      4  O   UNL     1      -1.132  -2.199  -0.088  1.00  0.00    -0.275 OA
ATOM      5  H   UNL     1      -3.263  -1.273   0.281  1.00  0.00     0.163 HD
BRANCH   3   6
ATOM      6  C   UNL     1      -0.981  -2.786   2.237  1.00  0.00     0.127 C 
BRANCH   6   7
ATOM      7  C   UNL     1       0.394  -2.238   2.639  1.00  0.00     0.183 C 
ATOM      8  C   UNL     1       1.506   0.502   0.342  1.00  0.00     0.301 C 
ATOM      9  N   UNL     1       1.082  -0.248   1.504  1.00  0.00    -0.191 N 
ATOM     10  C   UNL     1       1.184  -1.624   1.502  1.00  0.00     0.324 C 
ATOM     11  C   UNL     1       0.587   0.337   2.636  1.00  0.00     0.339 C 
ATOM     12  O   UNL     1       1.823  -2.288   0.693  1.00  0.00    -0.245 OA
ATOM     13  S   UNL     1       0.259  -0.883   3.852  1.00  0.00    -0.020 SA
ATOM     14  N   UNL     1       0.371   1.612   2.739  1.00  0.00    -0.142 N 
ATOM     15  H   UNL     1       0.656   2.252   2.047  1.00  0.00     0.343 HD
BRANCH  14  16
ATOM     16  N   UNL     1      -0.294   2.014   3.900  1.00  0.00    -0.093 NA
ATOM     17  C   UNL     1      -0.800   3.200   3.750  1.00  0.00     0.170 C 
BRANCH  17  18
ATOM     18  C   UNL     1      -1.717   3.793   4.744  1.00  0.00     0.039 A 
ATOM     19  C   UNL     1      -2.231   5.068   4.477  1.00  0.00     0.017 A 
ATOM     20  C   UNL     1      -2.145   3.096   5.881  1.00  0.00     0.128 A 
ATOM     21  C   UNL     1      -3.156   5.642   5.351  1.00  0.00     0.047 A 
ATOM     22  C   UNL     1      -3.078   3.665   6.748  1.00  0.00     0.093 A 
ATOM     23  C   UNL     1      -3.579   4.933   6.470  1.00  0.00     0.119 A 
BRANCH  20  24
ATOM     24  O   UNL     1      -1.707   1.837   6.196  1.00  0.00    -0.507 OA
ATOM     25  H   UNL     1      -1.080   1.409   5.647  1.00  0.00     0.293 HD
ENDBRANCH  20  24
BRANCH  23  26
ATOM     26  O   UNL     1      -4.510   5.521   7.274  1.00  0.00    -0.508 OA
ATOM     27  H   UNL     1      -4.834   6.376   7.068  1.00  0.00     0.293 HD
ENDBRANCH  23  26
ENDBRANCH  17  18
ENDBRANCH  14  16
ENDBRANCH   6   7
ENDBRANCH   3   6
ENDBRANCH   1   2
BRANCH   1  28
ATOM     28  C   UNL     1      -3.090   0.223   2.851  1.00  0.00     0.023 C 
BRANCH  28  29
ATOM     29  C   UNL     1      -3.374   1.417   1.947  1.00  0.00     0.023 C 
BRANCH  29  30
ATOM     30  C   UNL     1      -4.820   1.871   1.950  1.00  0.00     0.116 C 
BRANCH  30  31
ATOM     31  N   UNL     1      -5.314   2.215   3.276  1.00  0.00    -0.352 N 
ATOM     32  C   UNL     1      -6.034   3.307   3.698  1.00  0.00     0.251 C 
ATOM     33  H   UNL     1      -5.098   1.562   3.981  1.00  0.00     0.163 HD
ATOM     34  O   UNL     1      -6.330   3.435   4.875  1.00  0.00    -0.269 OA
BRANCH  32  35
ATOM     35  C   UNL     1      -6.423   4.342   2.717  1.00  0.00     0.039 A 
ATOM     36  C   UNL     1      -6.267   5.688   3.061  1.00  0.00     0.014 A 
ATOM     37  C   UNL     1      -6.926   3.987   1.465  1.00  0.00     0.014 A 
ATOM     38  C   UNL     1      -6.556   6.678   2.121  1.00  0.00     0.010 A 
ATOM     39  C   UNL     1      -7.126   4.964   0.501  1.00  0.00     0.010 A 
ATOM     40  C   UNL     1      -6.965   6.318   0.830  1.00  0.00    -0.014 A 
BRANCH  40  41
ATOM     41  C   UNL     1      -7.354   7.332  -0.175  1.00  0.00     0.031 A 
ATOM     42  C   UNL     1      -8.791   7.396  -0.607  1.00  0.00     0.074 A 
ATOM     43  C   UNL     1      -6.424   8.120  -0.743  1.00  0.00     0.049 A 
ATOM     44  N   UNL     1      -9.340   8.080  -1.575  1.00  0.00    -0.248 NA
ATOM     45  C   UNL     1      -9.732   6.535   0.130  1.00  0.00     0.031 C 
ATOM     46  C   UNL     1      -4.997   8.119  -0.418  1.00  0.00     0.029 A 
ATOM     47  N   UNL     1      -6.542   9.066  -1.728  1.00  0.00    -0.354 N 
ATOM     48  C   UNL     1     -10.676   7.705  -1.585  1.00  0.00     0.074 A 
ATOM     49  C   UNL     1     -10.847   6.696  -0.565  1.00  0.00     0.031 C 
ATOM     50  C   UNL     1      -4.374   9.033  -1.181  1.00  0.00     0.029 A 
ATOM     51  C   UNL     1      -5.350   9.656  -2.070  1.00  0.00     0.049 A 
ATOM     52  H   UNL     1      -7.399   9.300  -2.151  1.00  0.00     0.167 HD
ATOM     53  C   UNL     1     -11.677   8.178  -2.363  1.00  0.00     0.037 A 
ATOM     54  C   UNL     1      -5.086  10.589  -3.004  1.00  0.00     0.037 A 
ATOM     55  C   UNL     1     -11.502   9.215  -3.341  1.00  0.00     0.049 A 
ATOM     56  C   UNL     1      -6.222  11.121  -3.838  1.00  0.00     0.074 A 
ATOM     57  C   UNL     1     -12.450   9.807  -4.156  1.00  0.00     0.029 A 
ATOM     58  N   UNL     1     -10.288   9.825  -3.626  1.00  0.00    -0.354 N 
ATOM     59  N   UNL     1      -7.490  10.786  -3.820  1.00  0.00    -0.248 NA
ATOM     60  C   UNL     1      -5.892  12.164  -4.819  1.00  0.00     0.031 C 
ATOM     61  C   UNL     1     -11.803  10.758  -4.953  1.00  0.00     0.029 A 
ATOM     62  C   UNL     1     -10.461  10.784  -4.608  1.00  0.00     0.049 A 
ATOM     63  H   UNL     1      -9.431   9.607  -3.193  1.00  0.00     0.167 HD
ATOM     64  C   UNL     1      -8.113  11.591  -4.763  1.00  0.00     0.074 A 
ATOM     65  C   UNL     1      -7.084  12.442  -5.327  1.00  0.00     0.031 C 
ATOM     66  C   UNL     1      -9.416  11.625  -5.135  1.00  0.00     0.037 A 
BRANCH  53  67
ATOM     67  C   UNL     1     -13.037   7.573  -2.176  1.00  0.00     0.064 A 
ATOM     68  C   UNL     1     -13.788   7.795  -1.011  1.00  0.00     0.173 A 
ATOM     69  C   UNL     1     -13.591   6.749  -3.166  1.00  0.00     0.173 A 
ATOM     70  F   UNL     1     -13.294   8.558  -0.024  1.00  0.00    -0.203 F 
ATOM     71  C   UNL     1     -15.025   7.183  -0.828  1.00  0.00     0.198 A 
ATOM     72  C   UNL     1     -14.843   6.164  -2.993  1.00  0.00     0.198 A 
ATOM     73  F   UNL     1     -12.916   6.503  -4.298  1.00  0.00    -0.203 F 
ATOM     74  F   UNL     1     -15.694   7.358   0.321  1.00  0.00    -0.200 F 
ATOM     75  C   UNL     1     -15.554   6.372  -1.821  1.00  0.00     0.200 A 
ATOM     76  F   UNL     1     -15.357   5.386  -3.956  1.00  0.00    -0.200 F 
ATOM     77  F   UNL     1     -16.743   5.781  -1.641  1.00  0.00    -0.200 F 
ENDBRANCH  53  67
BRANCH  54  78
ATOM     78  C   UNL     1      -3.702  11.101  -3.178  1.00  0.00     0.064 A 
ATOM     79  C   UNL     1      -3.367  12.407  -2.794  1.00  0.00     0.173 A 
ATOM     80  C   UNL     1      -2.688  10.303  -3.726  1.00  0.00     0.173 A 
ATOM     81  F   UNL     1      -4.306  13.215  -2.281  1.00  0.00    -0.203 F 
ATOM     82  C   UNL     1      -2.076  12.902  -2.970  1.00  0.00     0.198 A 
ATOM     83  C   UNL     1      -1.391  10.790  -3.879  1.00  0.00     0.198 A 
ATOM     84  F   UNL     1      -2.954   9.044  -4.104  1.00  0.00    -0.203 F 
ATOM     85  F   UNL     1      -1.794  14.168  -2.632  1.00  0.00    -0.200 F 
ATOM     86  C   UNL     1      -1.088  12.092  -3.507  1.00  0.00     0.200 A 
ATOM     87  F   UNL     1      -0.435  10.000  -4.386  1.00  0.00    -0.200 F 
ATOM     88  F   UNL     1       0.154  12.567  -3.673  1.00  0.00    -0.200 F 
ENDBRANCH  54  78
BRANCH  66  89
ATOM     89  C   UNL     1      -9.806  12.635  -6.170  1.00  0.00     0.064 A 
ATOM     90  C   UNL     1      -9.478  12.463  -7.522  1.00  0.00     0.173 A 
ATOM     91  C   UNL     1     -10.563  13.760  -5.811  1.00  0.00     0.173 A 
ATOM     92  F   UNL     1      -8.743  11.409  -7.910  1.00  0.00    -0.203 F 
ATOM     93  C   UNL     1      -9.878  13.394  -8.476  1.00  0.00     0.198 A 
ATOM     94  C   UNL     1     -10.983  14.674  -6.771  1.00  0.00     0.198 A 
ATOM     95  F   UNL     1     -10.907  13.963  -4.530  1.00  0.00    -0.203 F 
ATOM     96  F   UNL     1      -9.521  13.231  -9.758  1.00  0.00    -0.200 F 
ATOM     97  C   UNL     1     -10.636  14.493  -8.102  1.00  0.00     0.200 A 
ATOM     98  F   UNL     1     -11.726  15.730  -6.410  1.00  0.00    -0.200 F 
ATOM     99  F   UNL     1     -11.029  15.383  -9.024  1.00  0.00    -0.200 F 
ENDBRANCH  66  89
ENDBRANCH  40  41
ENDBRANCH  32  35
ENDBRANCH  30  31
ENDBRANCH  29  30
ENDBRANCH  28  29
ENDBRANCH   1  28
TORSDOF 16
