REMARK SMILES CC(=O)NCCc1c[nH]c2ccc(C(=O)NCCCCNC(=O)c3ccc(-c4c5nc(c(-c6c(F)c(F)c(F)c(F)c6F)c6ccc([nH]6)c(-c6c(F)c(F)c(F)c(F)c6F)c6nc(c(-c7c(F)c(F)c(F)c(F)c7F)c7ccc4[nH]7)C=C6)C=C5)cc3)cc12
REMARK SMILES IDX 18 1 17 2 16 3 14 4 15 5 13 7 7 8 8 9 88 10 9 11 10 12 87 13
REMARK SMILES IDX 11 15 12 16 6 17 5 18 4 19 1 20 2 21 3 22 19 24 20 25 21 26
REMARK SMILES IDX 22 27 23 29 24 30 25 31 86 32 26 33 85 34 27 35 28 36 29 37
REMARK SMILES IDX 79 38 30 39 84 40 78 41 80 42 31 43 83 44 77 45 76 46 32 48
REMARK SMILES IDX 64 49 44 50 63 51 45 52 48 53 62 54 81 55 46 56 47 57 61 59
REMARK SMILES IDX 82 60 49 61 33 62 34 63 42 64 35 65 36 66 40 67 43 68 37 69
REMARK SMILES IDX 38 70 41 71 39 72 65 73 66 74 74 75 67 76 68 77 72 78 75 79
REMARK SMILES IDX 69 80 70 81 73 82 71 83 50 84 51 85 59 86 52 87 53 88 57 89
REMARK SMILES IDX 60 90 54 91 55 92 58 93 56 94
REMARK H PARENT 16 6 9 14 4 23 21 28 80 47 48 58
REMARK Flexibility Score: inf
ROOT
ATOM      1  C   UNL     1       1.192  -1.769   9.534  1.00  0.00     0.023 C 
ENDROOT
BRANCH   1   2
ATOM      2  C   UNL     1       0.139  -1.739   8.424  1.00  0.00     0.116 C 
BRANCH   2   3
ATOM      3  N   UNL     1       0.573  -0.858   7.364  1.00  0.00    -0.352 N 
ATOM      4  C   UNL     1       1.306  -1.062   6.225  1.00  0.00     0.251 C 
ATOM      5  O   UNL     1       1.616  -0.053   5.588  1.00  0.00    -0.269 OA
ATOM      6  H   UNL     1       0.284   0.076   7.485  1.00  0.00     0.163 HD
BRANCH   4   7
ATOM      7  C   UNL     1       1.698  -2.404   5.696  1.00  0.00     0.040 A 
ATOM      8  C   UNL     1       2.699  -4.021   2.356  1.00  0.00    -0.021 A 
ATOM      9  C   UNL     1       2.888  -5.390   2.352  1.00  0.00     0.087 A 
ATOM     10  C   UNL     1       2.332  -3.662   3.692  1.00  0.00     0.003 A 
ATOM     11  N   UNL     1       2.672  -5.860   3.620  1.00  0.00    -0.361 N 
ATOM     12  C   UNL     1       2.358  -4.820   4.463  1.00  0.00     0.046 A 
ATOM     13  C   UNL     1       1.990  -2.447   4.320  1.00  0.00     0.024 A 
ATOM     14  H   UNL     1       2.733  -6.805   3.889  1.00  0.00     0.166 HD
ATOM     15  C   UNL     1       2.116  -4.812   5.839  1.00  0.00     0.027 A 
ATOM     16  C   UNL     1       1.816  -3.579   6.441  1.00  0.00     0.016 A 
BRANCH   8  17
ATOM     17  C   UNL     1       2.878  -3.088   1.195  1.00  0.00     0.059 C 
BRANCH  17  18
ATOM     18  C   UNL     1       1.578  -2.794   0.440  1.00  0.00     0.120 C 
BRANCH  18  19
ATOM     19  N   UNL     1       0.655  -1.968   1.202  1.00  0.00    -0.356 N 
ATOM     20  C   UNL     1       0.996   0.098  -0.094  1.00  0.00     0.114 C 
ATOM     21  C   UNL     1       0.341  -0.652   1.032  1.00  0.00     0.216 C 
ATOM     22  O   UNL     1      -0.473  -0.118   1.781  1.00  0.00    -0.275 OA
ATOM     23  H   UNL     1       0.193  -2.421   1.943  1.00  0.00     0.163 HD
ENDBRANCH  18  19
ENDBRANCH  17  18
ENDBRANCH   8  17
ENDBRANCH   4   7
ENDBRANCH   2   3
ENDBRANCH   1   2
BRANCH   1  24
ATOM     24  C   UNL     1       1.135  -0.558  10.474  1.00  0.00     0.023 C 
BRANCH  24  25
ATOM     25  C   UNL     1      -0.172  -0.407  11.248  1.00  0.00     0.116 C 
BRANCH  25  26
ATOM     26  N   UNL     1      -0.537  -1.601  11.993  1.00  0.00    -0.352 N 
ATOM     27  C   UNL     1      -1.237  -1.708  13.170  1.00  0.00     0.251 C 
ATOM     28  H   UNL     1      -0.241  -2.453  11.598  1.00  0.00     0.163 HD
ATOM     29  O   UNL     1      -1.360  -2.796  13.716  1.00  0.00    -0.269 OA
BRANCH  27  30
ATOM     30  C   UNL     1      -1.800  -0.495  13.796  1.00  0.00     0.039 A 
ATOM     31  C   UNL     1      -1.590  -0.297  15.162  1.00  0.00     0.014 A 
ATOM     32  C   UNL     1      -2.512   0.445  13.046  1.00  0.00     0.014 A 
ATOM     33  C   UNL     1      -2.039   0.878  15.764  1.00  0.00     0.010 A 
ATOM     34  C   UNL     1      -2.897   1.647  13.632  1.00  0.00     0.010 A 
ATOM     35  C   UNL     1      -2.662   1.876  14.995  1.00  0.00    -0.014 A 
BRANCH  35  36
ATOM     36  C   UNL     1      -3.037   3.172  15.611  1.00  0.00     0.031 A 
ATOM     37  C   UNL     1      -4.477   3.580  15.726  1.00  0.00     0.074 A 
ATOM     38  C   UNL     1      -2.062   4.000  16.036  1.00  0.00     0.049 A 
ATOM     39  N   UNL     1      -4.990   4.660  16.260  1.00  0.00    -0.248 NA
ATOM     40  C   UNL     1      -5.473   2.671  15.141  1.00  0.00     0.031 C 
ATOM     41  C   UNL     1      -0.625   3.745  15.911  1.00  0.00     0.029 A 
ATOM     42  N   UNL     1      -2.130   5.220  16.660  1.00  0.00    -0.354 N 
ATOM     43  C   UNL     1      -6.362   4.561  16.074  1.00  0.00     0.074 A 
ATOM     44  C   UNL     1      -6.598   3.346  15.324  1.00  0.00     0.031 C 
ATOM     45  C   UNL     1       0.051   4.758  16.475  1.00  0.00     0.029 A 
ATOM     46  C   UNL     1      -0.901   5.744  16.975  1.00  0.00     0.049 A 
ATOM     47  H   UNL     1      -2.979   5.675  16.862  1.00  0.00     0.167 HD
ATOM     48  C   UNL     1      -7.336   5.393  16.512  1.00  0.00     0.037 A 
ATOM     49  C   UNL     1      -0.579   6.888  17.606  1.00  0.00     0.037 A 
ATOM     50  C   UNL     1      -7.095   6.595  17.269  1.00  0.00     0.049 A 
ATOM     51  C   UNL     1      -1.682   7.784  18.101  1.00  0.00     0.074 A 
ATOM     52  C   UNL     1      -8.014   7.476  17.809  1.00  0.00     0.029 A 
ATOM     53  N   UNL     1      -5.837   7.086  17.589  1.00  0.00    -0.354 N 
ATOM     54  N   UNL     1      -2.980   7.634  17.998  1.00  0.00    -0.248 NA
ATOM     55  C   UNL     1      -1.272   8.999  18.817  1.00  0.00     0.031 C 
ATOM     56  C   UNL     1      -7.313   8.525  18.415  1.00  0.00     0.029 A 
ATOM     57  C   UNL     1      -5.957   8.269  18.302  1.00  0.00     0.049 A 
ATOM     58  H   UNL     1      -4.984   6.658  17.345  1.00  0.00     0.167 HD
ATOM     59  C   UNL     1      -3.542   8.720  18.654  1.00  0.00     0.074 A 
ATOM     60  C   UNL     1      -2.442   9.506  19.175  1.00  0.00     0.031 C 
ATOM     61  C   UNL     1      -4.851   9.041  18.810  1.00  0.00     0.037 A 
BRANCH  48  62
ATOM     62  C   UNL     1      -8.757   5.028  16.188  1.00  0.00     0.064 A 
ATOM     63  C   UNL     1      -9.384   3.921  16.780  1.00  0.00     0.173 A 
ATOM     64  C   UNL     1      -9.513   5.813  15.304  1.00  0.00     0.173 A 
ATOM     65  F   UNL     1      -8.704   3.130  17.623  1.00  0.00    -0.203 F 
ATOM     66  C   UNL     1     -10.704   3.596  16.476  1.00  0.00     0.198 A 
ATOM     67  C   UNL     1     -10.842   5.503  15.027  1.00  0.00     0.198 A 
ATOM     68  F   UNL     1      -8.965   6.886  14.714  1.00  0.00    -0.203 F 
ATOM     69  F   UNL     1     -11.265   2.504  17.015  1.00  0.00    -0.200 F 
ATOM     70  C   UNL     1     -11.434   4.391  15.606  1.00  0.00     0.200 A 
ATOM     71  F   UNL     1     -11.551   6.281  14.197  1.00  0.00    -0.200 F 
ATOM     72  F   UNL     1     -12.706   4.082  15.321  1.00  0.00    -0.200 F 
ENDBRANCH  48  62
BRANCH  49  73
ATOM     73  C   UNL     1       0.847   7.229  17.846  1.00  0.00     0.064 A 
ATOM     74  C   UNL     1       1.383   7.212  19.142  1.00  0.00     0.173 A 
ATOM     75  C   UNL     1       1.702   7.580  16.791  1.00  0.00     0.173 A 
ATOM     76  F   UNL     1       0.601   6.899  20.186  1.00  0.00    -0.203 F 
ATOM     77  C   UNL     1       2.712   7.557  19.376  1.00  0.00     0.198 A 
ATOM     78  C   UNL     1       3.039   7.896  17.023  1.00  0.00     0.198 A 
ATOM     79  F   UNL     1       1.240   7.603  15.533  1.00  0.00    -0.203 F 
ATOM     80  F   UNL     1       3.185   7.581  20.630  1.00  0.00    -0.200 F 
ATOM     81  C   UNL     1       3.541   7.894  18.316  1.00  0.00     0.200 A 
ATOM     82  F   UNL     1       3.840   8.205  15.995  1.00  0.00    -0.200 F 
ATOM     83  F   UNL     1       4.820   8.223  18.541  1.00  0.00    -0.200 F 
ENDBRANCH  49  73
BRANCH  61  84
ATOM     84  C   UNL     1      -5.157  10.280  19.601  1.00  0.00     0.064 A 
ATOM     85  C   UNL     1      -4.867  11.561  19.107  1.00  0.00     0.173 A 
ATOM     86  C   UNL     1      -5.751  10.185  20.869  1.00  0.00     0.173 A 
ATOM     87  F   UNL     1      -4.286  11.707  17.907  1.00  0.00    -0.203 F 
ATOM     88  C   UNL     1      -5.120  12.697  19.872  1.00  0.00     0.198 A 
ATOM     89  C   UNL     1      -6.034  11.325  21.616  1.00  0.00     0.198 A 
ATOM     90  F   UNL     1      -6.057   8.985  21.385  1.00  0.00    -0.203 F 
ATOM     91  F   UNL     1      -4.771  13.906  19.407  1.00  0.00    -0.200 F 
ATOM     92  C   UNL     1      -5.707  12.579  21.122  1.00  0.00     0.200 A 
ATOM     93  F   UNL     1      -6.614  11.210  22.818  1.00  0.00    -0.200 F 
ATOM     94  F   UNL     1      -5.945  13.673  21.858  1.00  0.00    -0.200 F 
ENDBRANCH  61  84
ENDBRANCH  35  36
ENDBRANCH  27  30
ENDBRANCH  25  26
ENDBRANCH  24  25
ENDBRANCH   1  24
TORSDOF 14
