REMARK SMILES O=C(NCCCCNC(=O)[C@H](c1c[nH]c2cc(F)ccc12)[NH+]1CC[NH+](CC(=O)N2CCOCC2)CC1)c1ccc(-c2c3nc(c(-c4c(F)c(F)c(F)c(F)c4F)c4ccc([nH]4)c(-c4c(F)c(F)c(F)c(F)c4F)c4nc(c(-c5c(F)c(F)c(F)c(F)c5F)c5ccc2[nH]5)C=C4)C=C3)cc1
REMARK SMILES IDX 6 1 5 2 4 3 3 4 1 5 2 6 37 8 38 9 99 10 39 11 98 12 40 13
REMARK SMILES IDX 41 14 42 15 92 16 43 17 97 18 91 19 93 20 44 21 96 22 90 23
REMARK SMILES IDX 89 24 45 26 77 27 57 28 76 29 58 30 61 31 75 32 94 33 59 34
REMARK SMILES IDX 60 35 74 37 95 38 62 39 46 40 47 41 55 42 48 43 49 44 53 45
REMARK SMILES IDX 56 46 50 47 51 48 54 49 52 50 78 51 79 52 87 53 80 54 81 55
REMARK SMILES IDX 85 56 88 57 82 58 83 59 86 60 84 61 63 62 64 63 72 64 65 65
REMARK SMILES IDX 66 66 70 67 73 68 67 69 68 70 71 71 69 72 7 73 8 74 9 75
REMARK SMILES IDX 10 77 11 78 22 79 23 80 36 81 24 83 35 84 25 85 26 87 27 88
REMARK SMILES IDX 28 89 29 90 30 91 34 92 31 93 33 94 32 95 12 96 13 97 21 98
REMARK SMILES IDX 14 99 15 100 20 101 16 103 19 104 17 105 18 106
REMARK H PARENT 3 7 93 25 61 36 8 76 22 82 25 86 14 102
REMARK Flexibility Score: inf
ROOT
ATOM      1  C   UNL     1       6.055   8.212  -6.905  1.00  0.00     0.023 C 
ENDROOT
BRANCH   1   2
ATOM      2  C   UNL     1       4.788   8.105  -7.758  1.00  0.00     0.023 C 
BRANCH   2   3
ATOM      3  C   UNL     1       3.481   8.579  -7.125  1.00  0.00     0.116 C 
BRANCH   3   4
ATOM      4  N   UNL     1       3.369  10.026  -6.986  1.00  0.00    -0.352 N 
ATOM      5  O   UNL     1       2.661  12.133  -7.346  1.00  0.00    -0.269 OA
ATOM      6  C   UNL     1       2.545  10.938  -7.612  1.00  0.00     0.251 C 
ATOM      7  H   UNL     1       3.990  10.421  -6.332  1.00  0.00     0.163 HD
BRANCH   6   8
ATOM      8  C   UNL     1       1.570  10.512  -8.645  1.00  0.00     0.039 A 
ATOM      9  C   UNL     1       0.767   9.389  -8.467  1.00  0.00     0.014 A 
ATOM     10  C   UNL     1       1.466  11.251  -9.831  1.00  0.00     0.014 A 
ATOM     11  C   UNL     1       0.043   8.880  -9.542  1.00  0.00     0.010 A 
ATOM     12  C   UNL     1       0.651  10.796 -10.876  1.00  0.00     0.010 A 
ATOM     13  C   UNL     1      -0.021   9.571 -10.764  1.00  0.00    -0.014 A 
BRANCH  13  14
ATOM     14  C   UNL     1      -0.820   8.995 -11.881  1.00  0.00     0.031 A 
ATOM     15  C   UNL     1      -0.172   8.571 -13.175  1.00  0.00     0.074 A 
ATOM     16  C   UNL     1      -2.139   8.788 -11.695  1.00  0.00     0.049 A 
ATOM     17  N   UNL     1      -0.715   7.997 -14.222  1.00  0.00    -0.248 NA
ATOM     18  C   UNL     1       1.269   8.828 -13.320  1.00  0.00     0.031 C 
ATOM     19  C   UNL     1      -2.887   9.171 -10.496  1.00  0.00     0.029 A 
ATOM     20  N   UNL     1      -3.078   8.180 -12.490  1.00  0.00    -0.354 N 
ATOM     21  C   UNL     1       0.309   7.837 -15.148  1.00  0.00     0.074 A 
ATOM     22  C   UNL     1       1.503   8.400 -14.554  1.00  0.00     0.031 C 
ATOM     23  C   UNL     1      -4.150   8.738 -10.607  1.00  0.00     0.029 A 
ATOM     24  C   UNL     1      -4.321   8.104 -11.909  1.00  0.00     0.049 A 
ATOM     25  H   UNL     1      -2.880   7.832 -13.390  1.00  0.00     0.167 HD
ATOM     26  C   UNL     1       0.258   7.263 -16.375  1.00  0.00     0.037 A 
ATOM     27  C   UNL     1      -5.475   7.593 -12.374  1.00  0.00     0.037 A 
ATOM     28  C   UNL     1      -0.928   6.687 -16.959  1.00  0.00     0.049 A 
ATOM     29  C   UNL     1      -5.498   6.965 -13.738  1.00  0.00     0.074 A 
ATOM     30  C   UNL     1      -1.073   6.069 -18.190  1.00  0.00     0.029 A 
ATOM     31  N   UNL     1      -2.173   6.654 -16.348  1.00  0.00    -0.354 N 
ATOM     32  N   UNL     1      -4.517   6.808 -14.592  1.00  0.00    -0.248 NA
ATOM     33  C   UNL     1      -6.791   6.446 -14.204  1.00  0.00     0.031 C 
ATOM     34  C   UNL     1      -2.413   5.696 -18.340  1.00  0.00     0.029 A 
ATOM     35  C   UNL     1      -3.094   6.040 -17.184  1.00  0.00     0.049 A 
ATOM     36  H   UNL     1      -2.373   7.013 -15.454  1.00  0.00     0.167 HD
ATOM     37  C   UNL     1      -5.070   6.171 -15.693  1.00  0.00     0.074 A 
ATOM     38  C   UNL     1      -6.465   5.936 -15.382  1.00  0.00     0.031 C 
ATOM     39  C   UNL     1      -4.480   5.823 -16.862  1.00  0.00     0.037 A 
BRANCH  26  40
ATOM     40  C   UNL     1       1.522   7.226 -17.189  1.00  0.00     0.064 A 
ATOM     41  C   UNL     1       2.572   6.351 -16.875  1.00  0.00     0.173 A 
ATOM     42  C   UNL     1       1.649   8.014 -18.343  1.00  0.00     0.173 A 
ATOM     43  F   UNL     1       2.504   5.582 -15.777  1.00  0.00    -0.203 F 
ATOM     44  C   UNL     1       3.707   6.274 -17.679  1.00  0.00     0.198 A 
ATOM     45  C   UNL     1       2.775   7.918 -19.159  1.00  0.00     0.198 A 
ATOM     46  F   UNL     1       0.671   8.863 -18.694  1.00  0.00    -0.203 F 
ATOM     47  F   UNL     1       4.710   5.450 -17.345  1.00  0.00    -0.200 F 
ATOM     48  C   UNL     1       3.803   7.050 -18.825  1.00  0.00     0.200 A 
ATOM     49  F   UNL     1       2.860   8.659 -20.272  1.00  0.00    -0.200 F 
ATOM     50  F   UNL     1       4.889   6.963 -19.606  1.00  0.00    -0.200 F 
ENDBRANCH  26  40
BRANCH  27  51
ATOM     51  C   UNL     1      -6.705   7.669 -11.544  1.00  0.00     0.064 A 
ATOM     52  C   UNL     1      -7.298   6.515 -11.016  1.00  0.00     0.173 A 
ATOM     53  C   UNL     1      -7.311   8.903 -11.261  1.00  0.00     0.173 A 
ATOM     54  F   UNL     1      -6.769   5.310 -11.275  1.00  0.00    -0.203 F 
ATOM     55  C   UNL     1      -8.461   6.590 -10.252  1.00  0.00     0.198 A 
ATOM     56  C   UNL     1      -8.454   8.979 -10.470  1.00  0.00     0.198 A 
ATOM     57  F   UNL     1      -6.780  10.037 -11.740  1.00  0.00    -0.203 F 
ATOM     58  F   UNL     1      -9.036   5.467  -9.799  1.00  0.00    -0.200 F 
ATOM     59  C   UNL     1      -9.034   7.822  -9.973  1.00  0.00     0.200 A 
ATOM     60  F   UNL     1      -8.992  10.174 -10.188  1.00  0.00    -0.200 F 
ATOM     61  F   UNL     1     -10.148   7.894  -9.232  1.00  0.00    -0.200 F 
ENDBRANCH  27  51
BRANCH  39  62
ATOM     62  C   UNL     1      -5.349   5.148 -17.882  1.00  0.00     0.064 A 
ATOM     63  C   UNL     1      -6.337   5.854 -18.583  1.00  0.00     0.173 A 
ATOM     64  C   UNL     1      -5.193   3.782 -18.160  1.00  0.00     0.173 A 
ATOM     65  F   UNL     1      -6.535   7.159 -18.339  1.00  0.00    -0.203 F 
ATOM     66  C   UNL     1      -7.163   5.210 -19.499  1.00  0.00     0.198 A 
ATOM     67  C   UNL     1      -6.002   3.147 -19.098  1.00  0.00     0.198 A 
ATOM     68  F   UNL     1      -4.258   3.063 -17.520  1.00  0.00    -0.203 F 
ATOM     69  F   UNL     1      -8.140   5.891 -20.113  1.00  0.00    -0.200 F 
ATOM     70  C   UNL     1      -6.992   3.858 -19.759  1.00  0.00     0.200 A 
ATOM     71  F   UNL     1      -5.830   1.843 -19.355  1.00  0.00    -0.200 F 
ATOM     72  F   UNL     1      -7.792   3.237 -20.637  1.00  0.00    -0.200 F 
ENDBRANCH  39  62
ENDBRANCH  13  14
ENDBRANCH   6   8
ENDBRANCH   3   4
ENDBRANCH   2   3
ENDBRANCH   1   2
BRANCH   1  73
ATOM     73  C   UNL     1       6.014   7.562  -5.523  1.00  0.00     0.116 C 
BRANCH  73  74
ATOM     74  N   UNL     1       5.706   6.144  -5.491  1.00  0.00    -0.351 N 
ATOM     75  C   UNL     1       5.868   5.200  -4.494  1.00  0.00     0.283 C 
ATOM     76  H   UNL     1       5.313   5.794  -6.323  1.00  0.00     0.163 HD
ATOM     77  O   UNL     1       5.258   4.141  -4.694  1.00  0.00    -0.268 OA
BRANCH  75  78
ATOM     78  C   UNL     1       6.757   5.460  -3.195  1.00  0.00     0.308 C 
BRANCH  78  79
ATOM     79  N   UNL     1       5.913   5.958  -2.065  1.00  0.00    -0.312 N 
ATOM     80  C   UNL     1       6.564   6.135  -0.737  1.00  0.00     0.325 C 
ATOM     81  C   UNL     1       5.258   7.219  -2.377  1.00  0.00     0.325 C 
ATOM     82  H   UNL     1       5.259   5.182  -1.972  1.00  0.00     0.349 HD
ATOM     83  C   UNL     1       7.164   7.536  -0.338  1.00  0.00     0.325 C 
ATOM     84  C   UNL     1       6.274   8.386  -2.394  1.00  0.00     0.325 C 
ATOM     85  N   UNL     1       6.720   8.739  -1.064  1.00  0.00    -0.318 N 
ATOM     86  H   UNL     1       7.556   9.318  -1.148  1.00  0.00     0.348 HD
BRANCH  85  87
ATOM     87  C   UNL     1       5.864   9.705  -0.347  1.00  0.00     0.364 C 
BRANCH  87  88
ATOM     88  C   UNL     1       4.396   9.303  -0.124  1.00  0.00     0.277 C 
ATOM     89  O   UNL     1       4.105   8.617   0.862  1.00  0.00    -0.268 OA
ATOM     90  N   UNL     1       3.408   9.717  -1.032  1.00  0.00    -0.333 N 
ATOM     91  C   UNL     1       3.656  10.213  -2.393  1.00  0.00     0.148 C 
ATOM     92  C   UNL     1       2.048   9.211  -0.806  1.00  0.00     0.148 C 
ATOM     93  C   UNL     1       2.485  10.951  -3.042  1.00  0.00     0.181 C 
ATOM     94  C   UNL     1       0.974  10.047  -1.506  1.00  0.00     0.181 C 
ATOM     95  O   UNL     1       1.273  10.206  -2.898  1.00  0.00    -0.378 OA
ENDBRANCH  87  88
ENDBRANCH  85  87
ENDBRANCH  78  79
BRANCH  78  96
ATOM     96  C   UNL     1       7.414   4.156  -2.770  1.00  0.00     0.044 A 
ATOM     97  C   UNL     1       6.781   3.039  -2.247  1.00  0.00     0.094 A 
ATOM     98  C   UNL     1       8.820   3.859  -2.766  1.00  0.00     0.009 A 
ATOM     99  N   UNL     1       7.723   2.109  -1.916  1.00  0.00    -0.361 N 
ATOM    100  C   UNL     1       8.979   2.588  -2.206  1.00  0.00     0.049 A 
ATOM    101  C   UNL     1       9.977   4.566  -3.161  1.00  0.00     0.014 A 
ATOM    102  H   UNL     1       7.532   1.226  -1.527  1.00  0.00     0.166 HD
ATOM    103  C   UNL     1      10.231   1.996  -2.008  1.00  0.00     0.065 A 
ATOM    104  C   UNL     1      11.237   3.985  -2.977  1.00  0.00     0.040 A 
ATOM    105  C   UNL     1      11.349   2.725  -2.405  1.00  0.00     0.125 A 
ATOM    106  F   UNL     1      12.567   2.196  -2.226  1.00  0.00    -0.207 F 
ENDBRANCH  78  96
ENDBRANCH  75  78
ENDBRANCH  73  74
ENDBRANCH   1  73
TORSDOF 15
