REMARK SMILES Cc1nc(-c2ccccc2Cl)nc2sc(C(=O)NCCCCNC(=O)c3ccc(-c4c5nc(c(-c6c(F)c(F)c(F)c(F)c6F)c6ccc([nH]6)c(-c6c(F)c(F)c(F)c(F)c6F)c6nc(c(-c7c(F)c(F)c(F)c(F)c7F)c7ccc4[nH]7)C=C6)C=C5)cc3)c(N)c12
REMARK SMILES IDX 21 1 20 2 19 3 18 4 16 5 17 6 15 8 1 9 2 10 3 11 91 12 4 13
REMARK SMILES IDX 13 14 89 15 12 16 14 17 5 18 6 19 10 20 7 21 9 22 11 23 8 24
REMARK SMILES IDX 90 25 22 28 23 29 24 30 25 32 26 33 27 34 88 35 28 36 87 37
REMARK SMILES IDX 29 38 30 39 31 40 81 41 32 42 86 43 80 44 82 45 33 46 85 47
REMARK SMILES IDX 79 48 78 49 34 51 66 52 46 53 65 54 47 55 50 56 64 57 83 58
REMARK SMILES IDX 48 59 49 60 63 62 84 63 51 64 35 65 36 66 44 67 37 68 38 69
REMARK SMILES IDX 42 70 45 71 39 72 40 73 43 74 41 75 67 76 68 77 76 78 69 79
REMARK SMILES IDX 70 80 74 81 77 82 71 83 72 84 75 85 73 86 52 87 53 88 61 89
REMARK SMILES IDX 54 90 55 91 59 92 62 93 56 94 57 95 60 96 58 97
REMARK H PARENT 18 7 90 26 90 27 23 31 82 50 50 61
REMARK Flexibility Score: inf
ROOT
ATOM      1  C   UNL     1      -0.612   4.190   8.635  1.00  0.00     0.023 C 
ENDROOT
BRANCH   1   2
ATOM      2  C   UNL     1      -0.685   3.074   7.586  1.00  0.00     0.023 C 
BRANCH   2   3
ATOM      3  C   UNL     1      -1.737   3.278   6.485  1.00  0.00     0.116 C 
BRANCH   3   4
ATOM      4  N   UNL     1      -1.257   4.117   5.392  1.00  0.00    -0.351 N 
ATOM      5  C   UNL     1      -0.669   3.833   4.171  1.00  0.00     0.263 C 
ATOM      6  O   UNL     1      -0.533   4.813   3.428  1.00  0.00    -0.268 OA
ATOM      7  H   UNL     1      -1.376   5.081   5.556  1.00  0.00     0.163 HD
BRANCH   5   8
ATOM      8  C   UNL     1      -0.275   2.489   3.750  1.00  0.00     0.118 A 
ATOM      9  C   UNL     1       0.899  -0.038  -0.046  1.00  0.00     0.067 C 
ATOM     10  C   UNL     1       0.528  -0.342   1.374  1.00  0.00     0.052 A 
ATOM     11  N   UNL     1       0.528  -1.673   1.707  1.00  0.00    -0.233 NA
ATOM     12  C   UNL     1       0.250   0.610   2.384  1.00  0.00     0.056 A 
ATOM     13  C   UNL     1       0.306  -2.035   2.982  1.00  0.00     0.162 A 
ATOM     14  C   UNL     1       0.108   0.074   3.651  1.00  0.00     0.130 A 
ATOM     15  C   UNL     1       0.052   2.045   2.465  1.00  0.00     0.067 A 
ATOM     16  N   UNL     1       0.111  -1.209   4.004  1.00  0.00    -0.217 NA
ATOM     17  S   UNL     1      -0.029   1.226   4.861  1.00  0.00    -0.108 S 
BRANCH  13  18
ATOM     18  C   UNL     1       0.256  -3.443   3.355  1.00  0.00     0.038 A 
ATOM     19  C   UNL     1      -0.965  -3.981   3.820  1.00  0.00     0.013 A 
ATOM     20  C   UNL     1       1.406  -4.238   3.451  1.00  0.00     0.052 A 
ATOM     21  C   UNL     1      -1.029  -5.255   4.386  1.00  0.00     0.001 A 
ATOM     22  C   UNL     1       1.341  -5.516   4.020  1.00  0.00     0.021 A 
ATOM     23  Cl  UNL     1       2.964  -3.661   2.965  1.00  0.00    -0.084 Cl
ATOM     24  C   UNL     1       0.128  -6.019   4.494  1.00  0.00     0.002 A 
ENDBRANCH  13  18
BRANCH  15  25
ATOM     25  N   UNL     1       0.106   2.891   1.411  1.00  0.00    -0.397 N 
ATOM     26  H   UNL     1      -0.039   3.855   1.545  1.00  0.00     0.156 HD
ATOM     27  H   UNL     1       0.291   2.542   0.509  1.00  0.00     0.156 HD
ENDBRANCH  15  25
ENDBRANCH   5   8
ENDBRANCH   3   4
ENDBRANCH   2   3
ENDBRANCH   1   2
BRANCH   1  28
ATOM     28  C   UNL     1      -1.817   4.267   9.566  1.00  0.00     0.116 C 
BRANCH  28  29
ATOM     29  N   UNL     1      -1.978   3.082  10.406  1.00  0.00    -0.352 N 
ATOM     30  C   UNL     1      -3.084   2.736  11.165  1.00  0.00     0.251 C 
ATOM     31  H   UNL     1      -1.216   2.460  10.436  1.00  0.00     0.163 HD
ATOM     32  O   UNL     1      -3.006   1.971  12.108  1.00  0.00    -0.269 OA
BRANCH  30  33
ATOM     33  C   UNL     1      -4.378   3.326  10.785  1.00  0.00     0.039 A 
ATOM     34  C   UNL     1      -5.187   3.961  11.729  1.00  0.00     0.014 A 
ATOM     35  C   UNL     1      -4.720   3.304   9.434  1.00  0.00     0.014 A 
ATOM     36  C   UNL     1      -6.304   4.663  11.284  1.00  0.00     0.010 A 
ATOM     37  C   UNL     1      -5.746   4.100   8.987  1.00  0.00     0.010 A 
ATOM     38  C   UNL     1      -6.564   4.755   9.906  1.00  0.00    -0.014 A 
BRANCH  38  39
ATOM     39  C   UNL     1      -7.642   5.610   9.417  1.00  0.00     0.031 A 
ATOM     40  C   UNL     1      -7.628   7.024   9.894  1.00  0.00     0.074 A 
ATOM     41  C   UNL     1      -8.504   5.231   8.451  1.00  0.00     0.049 A 
ATOM     42  N   UNL     1      -8.507   7.623  10.629  1.00  0.00    -0.248 NA
ATOM     43  C   UNL     1      -6.456   7.853   9.576  1.00  0.00     0.031 C 
ATOM     44  C   UNL     1      -8.508   4.004   7.645  1.00  0.00     0.029 A 
ATOM     45  N   UNL     1      -9.547   5.935   7.931  1.00  0.00    -0.354 N 
ATOM     46  C   UNL     1      -8.091   8.949  10.743  1.00  0.00     0.074 A 
ATOM     47  C   UNL     1      -6.764   9.000  10.186  1.00  0.00     0.031 C 
ATOM     48  C   UNL     1      -9.367   4.141   6.612  1.00  0.00     0.029 A 
ATOM     49  C   UNL     1     -10.105   5.375   6.793  1.00  0.00     0.049 A 
ATOM     50  H   UNL     1      -9.877   6.772   8.331  1.00  0.00     0.167 HD
ATOM     51  C   UNL     1      -8.959   9.935  11.112  1.00  0.00     0.037 A 
ATOM     52  C   UNL     1     -11.114   5.884   6.050  1.00  0.00     0.037 A 
ATOM     53  C   UNL     1     -10.121   9.384  11.762  1.00  0.00     0.049 A 
ATOM     54  C   UNL     1     -11.861   6.825   6.916  1.00  0.00     0.074 A 
ATOM     55  C   UNL     1     -10.335   8.640  12.906  1.00  0.00     0.029 A 
ATOM     56  N   UNL     1     -11.280   9.267  11.035  1.00  0.00    -0.354 N 
ATOM     57  N   UNL     1     -12.553   6.458   7.959  1.00  0.00    -0.248 NA
ATOM     58  C   UNL     1     -11.486   8.229   6.875  1.00  0.00     0.031 C 
ATOM     59  C   UNL     1     -11.374   7.724  12.561  1.00  0.00     0.029 A 
ATOM     60  C   UNL     1     -11.765   8.004  11.251  1.00  0.00     0.049 A 
ATOM     61  H   UNL     1     -11.685   9.961  10.465  1.00  0.00     0.167 HD
ATOM     62  C   UNL     1     -12.342   7.461   8.893  1.00  0.00     0.074 A 
ATOM     63  C   UNL     1     -11.764   8.568   8.136  1.00  0.00     0.031 C 
ATOM     64  C   UNL     1     -12.402   7.203  10.232  1.00  0.00     0.037 A 
BRANCH  51  65
ATOM     65  C   UNL     1      -8.932  11.357  10.592  1.00  0.00     0.064 A 
ATOM     66  C   UNL     1      -9.860  12.293  11.099  1.00  0.00     0.173 A 
ATOM     67  C   UNL     1      -8.258  11.756   9.418  1.00  0.00     0.173 A 
ATOM     68  F   UNL     1     -10.567  12.027  12.208  1.00  0.00    -0.203 F 
ATOM     69  C   UNL     1     -10.157  13.484  10.428  1.00  0.00     0.198 A 
ATOM     70  C   UNL     1      -8.520  12.969   8.780  1.00  0.00     0.198 A 
ATOM     71  F   UNL     1      -7.401  10.953   8.778  1.00  0.00    -0.203 F 
ATOM     72  F   UNL     1     -11.143  14.272  10.878  1.00  0.00    -0.200 F 
ATOM     73  C   UNL     1      -9.495  13.815   9.263  1.00  0.00     0.200 A 
ATOM     74  F   UNL     1      -7.875  13.266   7.643  1.00  0.00    -0.200 F 
ATOM     75  F   UNL     1      -9.825  14.919   8.580  1.00  0.00    -0.200 F 
ENDBRANCH  51  65
BRANCH  52  76
ATOM     76  C   UNL     1     -11.289   5.818   4.584  1.00  0.00     0.064 A 
ATOM     77  C   UNL     1     -12.530   6.084   3.988  1.00  0.00     0.173 A 
ATOM     78  C   UNL     1     -10.173   5.772   3.725  1.00  0.00     0.173 A 
ATOM     79  F   UNL     1     -13.633   6.183   4.745  1.00  0.00    -0.203 F 
ATOM     80  C   UNL     1     -12.645   6.322   2.615  1.00  0.00     0.198 A 
ATOM     81  C   UNL     1     -10.290   6.006   2.355  1.00  0.00     0.198 A 
ATOM     82  F   UNL     1      -8.937   5.596   4.214  1.00  0.00    -0.203 F 
ATOM     83  F   UNL     1     -13.838   6.636   2.089  1.00  0.00    -0.200 F 
ATOM     84  C   UNL     1     -11.524   6.295   1.802  1.00  0.00     0.200 A 
ATOM     85  F   UNL     1      -9.191   6.014   1.586  1.00  0.00    -0.200 F 
ATOM     86  F   UNL     1     -11.624   6.590   0.499  1.00  0.00    -0.200 F 
ENDBRANCH  52  76
BRANCH  64  87
ATOM     87  C   UNL     1     -12.941   5.867  10.668  1.00  0.00     0.064 A 
ATOM     88  C   UNL     1     -12.303   4.643  10.401  1.00  0.00     0.173 A 
ATOM     89  C   UNL     1     -14.045   5.840  11.529  1.00  0.00     0.173 A 
ATOM     90  F   UNL     1     -11.188   4.593   9.665  1.00  0.00    -0.203 F 
ATOM     91  C   UNL     1     -12.768   3.447  10.946  1.00  0.00     0.198 A 
ATOM     92  C   UNL     1     -14.488   4.649  12.100  1.00  0.00     0.198 A 
ATOM     93  F   UNL     1     -14.662   6.983  11.865  1.00  0.00    -0.203 F 
ATOM     94  F   UNL     1     -12.139   2.294  10.673  1.00  0.00    -0.200 F 
ATOM     95  C   UNL     1     -13.854   3.453  11.803  1.00  0.00     0.200 A 
ATOM     96  F   UNL     1     -15.509   4.665  12.967  1.00  0.00    -0.200 F 
ATOM     97  F   UNL     1     -14.272   2.311  12.368  1.00  0.00    -0.200 F 
ENDBRANCH  64  87
ENDBRANCH  38  39
ENDBRANCH  30  33
ENDBRANCH  28  29
ENDBRANCH   1  28
TORSDOF 13
