REMARK SMILES Cc1c(Br)c(C(=O)NCCCCNC(=O)c2ccc(-c3c4nc(c(-c5c(F)c(F)c(F)c(F)c5F)c5ccc([nH]5)c(-c5c(F)c(F)c(F)c(F)c5F)c5nc(c(-c6c(F)c(F)c(F)c(F)c6F)c6ccc3[nH]6)C=C5)C=C4)cc2)nn1-c1ccccc1
REMARK SMILES IDX 11 1 10 2 9 3 8 4 6 5 7 6 5 8 1 9 2 10 3 11 80 12 4 13 79 14
REMARK SMILES IDX 81 15 82 16 86 17 83 18 85 19 84 20 12 21 13 22 14 23 15 25
REMARK SMILES IDX 16 26 17 27 78 28 18 29 77 30 19 31 20 32 21 33 71 34 22 35
REMARK SMILES IDX 76 36 70 37 72 38 23 39 75 40 69 41 68 42 24 44 56 45 36 46
REMARK SMILES IDX 55 47 37 48 40 49 54 50 73 51 38 52 39 53 53 55 74 56 41 57
REMARK SMILES IDX 25 58 26 59 34 60 27 61 28 62 32 63 35 64 29 65 30 66 33 67
REMARK SMILES IDX 31 68 57 69 58 70 66 71 59 72 60 73 64 74 67 75 61 76 62 77
REMARK SMILES IDX 65 78 63 79 42 80 43 81 51 82 44 83 45 84 49 85 52 86 46 87
REMARK SMILES IDX 47 88 50 89 48 90
REMARK H PARENT 8 7 13 24 72 43 40 54
REMARK Flexibility Score: inf
ROOT
ATOM      1  C   UNL     1      -3.251  -6.122   4.675  1.00  0.00     0.023 C 
ENDROOT
BRANCH   1   2
ATOM      2  C   UNL     1      -2.864  -4.706   4.231  1.00  0.00     0.023 C 
BRANCH   2   3
ATOM      3  C   UNL     1      -1.375  -4.361   4.309  1.00  0.00     0.116 C 
BRANCH   3   4
ATOM      4  N   UNL     1      -0.572  -5.083   3.332  1.00  0.00    -0.351 N 
ATOM      5  C   UNL     1       0.188  -4.644   2.264  1.00  0.00     0.272 C 
ATOM      6  O   UNL     1       0.738  -5.524   1.589  1.00  0.00    -0.267 OA
ATOM      7  H   UNL     1      -0.571  -6.060   3.453  1.00  0.00     0.163 HD
BRANCH   5   8
ATOM      8  C   UNL     1       0.303  -3.215   1.930  1.00  0.00     0.165 A 
ATOM      9  C   UNL     1       0.888  -0.139  -0.063  1.00  0.00     0.068 C 
ATOM     10  C   UNL     1       0.529  -1.250   0.855  1.00  0.00     0.056 A 
ATOM     11  C   UNL     1       0.674  -2.614   0.702  1.00  0.00     0.072 A 
ATOM     12  N   UNL     1       0.001  -1.099   2.124  1.00  0.00    -0.236 N 
ATOM     13  Br  UNL     1       1.246  -3.494  -0.854  1.00  0.00    -0.046 Br
ATOM     14  N   UNL     1       0.117  -2.241   2.840  1.00  0.00    -0.161 NA
BRANCH  12  15
ATOM     15  C   UNL     1      -0.697  -0.010   2.708  1.00  0.00     0.065 A 
ATOM     16  C   UNL     1      -0.694   0.126   4.106  1.00  0.00     0.028 A 
ATOM     17  C   UNL     1      -1.478   0.850   1.928  1.00  0.00     0.028 A 
ATOM     18  C   UNL     1      -1.443   1.132   4.714  1.00  0.00     0.002 A 
ATOM     19  C   UNL     1      -2.247   1.840   2.547  1.00  0.00     0.002 A 
ATOM     20  C   UNL     1      -2.224   1.984   3.935  1.00  0.00     0.000 A 
ENDBRANCH  12  15
ENDBRANCH   5   8
ENDBRANCH   3   4
ENDBRANCH   2   3
ENDBRANCH   1   2
BRANCH   1  21
ATOM     21  C   UNL     1      -2.902  -6.465   6.121  1.00  0.00     0.116 C 
BRANCH  21  22
ATOM     22  N   UNL     1      -3.557  -5.591   7.088  1.00  0.00    -0.352 N 
ATOM     23  C   UNL     1      -3.342  -5.507   8.445  1.00  0.00     0.251 C 
ATOM     24  H   UNL     1      -4.241  -4.984   6.724  1.00  0.00     0.163 HD
ATOM     25  O   UNL     1      -4.181  -4.984   9.180  1.00  0.00    -0.269 OA
BRANCH  23  26
ATOM     26  C   UNL     1      -2.113  -6.074   9.026  1.00  0.00     0.039 A 
ATOM     27  C   UNL     1      -2.189  -6.880  10.164  1.00  0.00     0.014 A 
ATOM     28  C   UNL     1      -0.882  -5.819   8.420  1.00  0.00     0.014 A 
ATOM     29  C   UNL     1      -1.038  -7.515  10.627  1.00  0.00     0.010 A 
ATOM     30  C   UNL     1       0.243  -6.512   8.831  1.00  0.00     0.010 A 
ATOM     31  C   UNL     1       0.177  -7.361   9.938  1.00  0.00    -0.014 A 
BRANCH  31  32
ATOM     32  C   UNL     1       1.317  -8.218  10.295  1.00  0.00     0.031 A 
ATOM     33  C   UNL     1       1.052  -9.690  10.295  1.00  0.00     0.074 A 
ATOM     34  C   UNL     1       2.594  -7.791  10.396  1.00  0.00     0.049 A 
ATOM     35  N   UNL     1       1.248 -10.540  11.252  1.00  0.00    -0.248 NA
ATOM     36  C   UNL     1       0.451 -10.284   9.090  1.00  0.00     0.031 C 
ATOM     37  C   UNL     1       3.114  -6.451  10.114  1.00  0.00     0.029 A 
ATOM     38  N   UNL     1       3.726  -8.514  10.656  1.00  0.00    -0.354 N 
ATOM     39  C   UNL     1       0.935 -11.797  10.734  1.00  0.00     0.074 A 
ATOM     40  C   UNL     1       0.349 -11.567   9.440  1.00  0.00     0.031 C 
ATOM     41  C   UNL     1       4.457  -6.509   9.995  1.00  0.00     0.029 A 
ATOM     42  C   UNL     1       4.902  -7.847  10.344  1.00  0.00     0.049 A 
ATOM     43  H   UNL     1       3.708  -9.425  11.031  1.00  0.00     0.167 HD
ATOM     44  C   UNL     1       1.359 -12.944  11.337  1.00  0.00     0.037 A 
ATOM     45  C   UNL     1       6.158  -8.350  10.341  1.00  0.00     0.037 A 
ATOM     46  C   UNL     1       1.774 -12.698  12.693  1.00  0.00     0.049 A 
ATOM     47  C   UNL     1       6.168  -9.559  11.193  1.00  0.00     0.074 A 
ATOM     48  C   UNL     1       1.162 -12.288  13.858  1.00  0.00     0.029 A 
ATOM     49  N   UNL     1       3.122 -12.614  12.917  1.00  0.00    -0.354 N 
ATOM     50  N   UNL     1       6.049  -9.545  12.490  1.00  0.00    -0.248 NA
ATOM     51  C   UNL     1       6.034 -10.868  10.569  1.00  0.00     0.031 C 
ATOM     52  C   UNL     1       2.170 -11.598  14.595  1.00  0.00     0.029 A 
ATOM     53  C   UNL     1       3.349 -11.640  13.849  1.00  0.00     0.049 A 
ATOM     54  H   UNL     1       3.812 -13.164  12.481  1.00  0.00     0.167 HD
ATOM     55  C   UNL     1       5.399 -10.728  12.788  1.00  0.00     0.074 A 
ATOM     56  C   UNL     1       5.589 -11.568  11.615  1.00  0.00     0.031 C 
ATOM     57  C   UNL     1       4.516 -10.789  13.826  1.00  0.00     0.037 A 
BRANCH  44  58
ATOM     58  C   UNL     1       1.763 -14.218  10.619  1.00  0.00     0.064 A 
ATOM     59  C   UNL     1       2.125 -15.350  11.385  1.00  0.00     0.173 A 
ATOM     60  C   UNL     1       2.129 -14.272   9.258  1.00  0.00     0.173 A 
ATOM     61  F   UNL     1       1.834 -15.415  12.693  1.00  0.00    -0.203 F 
ATOM     62  C   UNL     1       2.885 -16.396  10.854  1.00  0.00     0.198 A 
ATOM     63  C   UNL     1       2.841 -15.345   8.718  1.00  0.00     0.198 A 
ATOM     64  F   UNL     1       1.915 -13.250   8.422  1.00  0.00    -0.203 F 
ATOM     65  F   UNL     1       3.326 -17.374  11.657  1.00  0.00    -0.200 F 
ATOM     66  C   UNL     1       3.253 -16.387   9.522  1.00  0.00     0.200 A 
ATOM     67  F   UNL     1       3.199 -15.313   7.427  1.00  0.00    -0.200 F 
ATOM     68  F   UNL     1       4.041 -17.349   9.026  1.00  0.00    -0.200 F 
ENDBRANCH  44  58
BRANCH  45  69
ATOM     69  C   UNL     1       7.337  -7.936   9.547  1.00  0.00     0.064 A 
ATOM     70  C   UNL     1       8.636  -8.306   9.930  1.00  0.00     0.173 A 
ATOM     71  C   UNL     1       7.196  -7.386   8.258  1.00  0.00     0.173 A 
ATOM     72  F   UNL     1       8.854  -8.872  11.126  1.00  0.00    -0.203 F 
ATOM     73  C   UNL     1       9.725  -8.164   9.065  1.00  0.00     0.198 A 
ATOM     74  C   UNL     1       8.286  -7.231   7.400  1.00  0.00     0.198 A 
ATOM     75  F   UNL     1       5.986  -7.073   7.772  1.00  0.00    -0.203 F 
ATOM     76  F   UNL     1      10.937  -8.592   9.442  1.00  0.00    -0.200 F 
ATOM     77  C   UNL     1       9.547  -7.635   7.798  1.00  0.00     0.200 A 
ATOM     78  F   UNL     1       8.095  -6.745   6.166  1.00  0.00    -0.200 F 
ATOM     79  F   UNL     1      10.579  -7.553   6.947  1.00  0.00    -0.200 F 
ENDBRANCH  45  69
BRANCH  57  80
ATOM     80  C   UNL     1       4.621  -9.734  14.888  1.00  0.00     0.064 A 
ATOM     81  C   UNL     1       4.431  -8.360  14.665  1.00  0.00     0.173 A 
ATOM     82  C   UNL     1       4.835 -10.152  16.209  1.00  0.00     0.173 A 
ATOM     83  F   UNL     1       4.119  -7.891  13.450  1.00  0.00    -0.203 F 
ATOM     84  C   UNL     1       4.516  -7.444  15.712  1.00  0.00     0.198 A 
ATOM     85  C   UNL     1       4.876  -9.240  17.258  1.00  0.00     0.198 A 
ATOM     86  F   UNL     1       4.969 -11.459  16.488  1.00  0.00    -0.203 F 
ATOM     87  F   UNL     1       4.364  -6.133  15.472  1.00  0.00    -0.200 F 
ATOM     88  C   UNL     1       4.733  -7.885  17.007  1.00  0.00     0.200 A 
ATOM     89  F   UNL     1       5.036  -9.677  18.515  1.00  0.00    -0.200 F 
ATOM     90  F   UNL     1       4.781  -7.007  18.019  1.00  0.00    -0.200 F 
ENDBRANCH  57  80
ENDBRANCH  31  32
ENDBRANCH  23  26
ENDBRANCH  21  22
ENDBRANCH   1  21
TORSDOF 12
