REMARK SMILES CC1=C2C(CSc3c(Cl)cccc3Cl)=CC(=O)N=C2S[C@H]1C(=O)NCCCCNC(=O)c1ccc(-c2c3nc(c(-c4c(F)c(F)c(F)c(F)c4F)c4ccc([nH]4)c(-c4c(F)c(F)c(F)c(F)c4F)c4nc(c(-c5c(F)c(F)c(F)c(F)c5F)c5ccc2[nH]5)C=C4)C=C3)cc1
REMARK SMILES IDX 26 1 25 2 24 3 22 4 23 5 21 7 1 8 2 9 3 10 4 11 19 12 20 13
REMARK SMILES IDX 15 14 18 15 16 16 17 17 5 18 6 19 7 20 8 21 13 22 9 23 10 24
REMARK SMILES IDX 12 25 14 26 11 27 27 28 28 29 29 30 30 31 31 33 32 34 33 35
REMARK SMILES IDX 94 36 34 37 93 38 35 39 36 40 37 41 87 42 38 43 92 44 86 45
REMARK SMILES IDX 88 46 39 47 91 48 85 49 84 50 40 52 72 53 52 54 71 55 53 56
REMARK SMILES IDX 56 57 70 58 89 59 54 60 55 61 69 63 90 64 57 65 41 66 42 67
REMARK SMILES IDX 50 68 43 69 44 70 48 71 51 72 45 73 46 74 49 75 47 76 73 77
REMARK SMILES IDX 74 78 82 79 75 80 76 81 80 82 83 83 77 84 78 85 81 86 79 87
REMARK SMILES IDX 58 88 59 89 67 90 60 91 61 92 65 93 68 94 62 95 63 96 66 97
REMARK SMILES IDX 64 98
REMARK H PARENT 24 6 29 32 88 51 56 62
REMARK Flexibility Score: inf
ROOT
ATOM      1  C   UNL     1       1.706   2.700  -4.140  1.00  0.00     0.023 C 
ENDROOT
BRANCH   1   2
ATOM      2  C   UNL     1       0.440   2.030  -4.672  1.00  0.00     0.116 C 
BRANCH   2   3
ATOM      3  N   UNL     1       0.351   0.630  -4.285  1.00  0.00    -0.355 N 
ATOM      4  C   UNL     1      -0.206  -0.065  -3.262  1.00  0.00     0.237 C 
ATOM      5  O   UNL     1      -0.049  -1.295  -3.341  1.00  0.00    -0.273 OA
ATOM      6  H   UNL     1       0.810   0.040  -4.926  1.00  0.00     0.163 HD
BRANCH   4   7
ATOM      7  C   UNL     1      -0.872   0.506  -1.994  1.00  0.00     0.168 C 
ATOM      8  C   UNL     1       0.676  -0.505  -0.245  1.00  0.00     0.042 C 
ATOM      9  C   UNL     1       0.167   0.729  -0.916  1.00  0.00    -0.040 C 
ATOM     10  C   UNL     1       0.512   2.006  -0.680  1.00  0.00     0.012 C 
ATOM     11  C   UNL     1       1.470   2.675   0.176  1.00  0.00    -0.022 C 
ATOM     12  C   UNL     1      -0.373   2.918  -1.453  1.00  0.00     0.109 C 
ATOM     13  S   UNL     1      -1.723   2.076  -2.160  1.00  0.00    -0.088 SA
ATOM     14  C   UNL     1       1.637   3.997  -0.040  1.00  0.00     0.079 C 
ATOM     15  N   UNL     1      -0.207   4.175  -1.638  1.00  0.00    -0.202 NA
ATOM     16  C   UNL     1       0.940   4.736  -1.131  1.00  0.00     0.271 C 
ATOM     17  O   UNL     1       1.406   5.789  -1.533  1.00  0.00    -0.267 OA
BRANCH  11  18
ATOM     18  C   UNL     1       2.167   2.003   1.332  1.00  0.00     0.111 C 
BRANCH  18  19
ATOM     19  S   UNL     1       3.992   2.077   1.227  1.00  0.00    -0.118 SA
BRANCH  19  20
ATOM     20  C   UNL     1       4.339   0.770   0.039  1.00  0.00     0.045 A 
ATOM     21  C   UNL     1       4.272  -0.594   0.394  1.00  0.00     0.056 A 
ATOM     22  C   UNL     1       4.731   1.084  -1.278  1.00  0.00     0.056 A 
ATOM     23  Cl  UNL     1       3.863  -1.130   1.992  1.00  0.00    -0.083 Cl
ATOM     24  C   UNL     1       4.508  -1.599  -0.556  1.00  0.00     0.022 A 
ATOM     25  C   UNL     1       4.986   0.073  -2.216  1.00  0.00     0.022 A 
ATOM     26  Cl  UNL     1       4.923   2.714  -1.835  1.00  0.00    -0.083 Cl
ATOM     27  C   UNL     1       4.857  -1.266  -1.861  1.00  0.00     0.003 A 
ENDBRANCH  19  20
ENDBRANCH  18  19
ENDBRANCH  11  18
ENDBRANCH   4   7
ENDBRANCH   2   3
ENDBRANCH   1   2
BRANCH   1  28
ATOM     28  C   UNL     1       2.558   3.379  -5.206  1.00  0.00     0.023 C 
BRANCH  28  29
ATOM     29  C   UNL     1       1.837   4.414  -6.058  1.00  0.00     0.116 C 
BRANCH  29  30
ATOM     30  N   UNL     1       1.342   5.586  -5.352  1.00  0.00    -0.352 N 
ATOM     31  C   UNL     1       1.188   6.857  -5.875  1.00  0.00     0.251 C 
ATOM     32  H   UNL     1       1.092   5.462  -4.408  1.00  0.00     0.163 HD
ATOM     33  O   UNL     1       0.757   7.790  -5.209  1.00  0.00    -0.269 OA
BRANCH  31  34
ATOM     34  C   UNL     1       1.632   7.093  -7.266  1.00  0.00     0.039 A 
ATOM     35  C   UNL     1       2.632   8.039  -7.498  1.00  0.00     0.014 A 
ATOM     36  C   UNL     1       1.173   6.274  -8.298  1.00  0.00     0.014 A 
ATOM     37  C   UNL     1       3.248   8.090  -8.749  1.00  0.00     0.010 A 
ATOM     38  C   UNL     1       1.857   6.257  -9.508  1.00  0.00     0.010 A 
ATOM     39  C   UNL     1       2.908   7.159  -9.745  1.00  0.00    -0.014 A 
BRANCH  39  40
ATOM     40  C   UNL     1       3.638   7.107 -11.038  1.00  0.00     0.031 A 
ATOM     41  C   UNL     1       2.893   7.325 -12.326  1.00  0.00     0.074 A 
ATOM     42  C   UNL     1       4.949   6.789 -11.062  1.00  0.00     0.049 A 
ATOM     43  N   UNL     1       3.323   7.238 -13.559  1.00  0.00    -0.248 NA
ATOM     44  C   UNL     1       1.462   7.648 -12.213  1.00  0.00     0.031 C 
ATOM     45  C   UNL     1       5.772   6.494  -9.888  1.00  0.00     0.029 A 
ATOM     46  N   UNL     1       5.820   6.654 -12.116  1.00  0.00    -0.354 N 
ATOM     47  C   UNL     1       2.215   7.474 -14.361  1.00  0.00     0.074 A 
ATOM     48  C   UNL     1       1.080   7.638 -13.480  1.00  0.00     0.031 C 
ATOM     49  C   UNL     1       7.032   6.246 -10.282  1.00  0.00     0.029 A 
ATOM     50  C   UNL     1       7.099   6.324 -11.738  1.00  0.00     0.049 A 
ATOM     51  H   UNL     1       5.552   6.782 -13.055  1.00  0.00     0.167 HD
ATOM     52  C   UNL     1       2.153   7.579 -15.709  1.00  0.00     0.037 A 
ATOM     53  C   UNL     1       8.201   6.107 -12.483  1.00  0.00     0.037 A 
ATOM     54  C   UNL     1       3.291   7.453 -16.580  1.00  0.00     0.049 A 
ATOM     55  C   UNL     1       8.107   6.236 -13.981  1.00  0.00     0.074 A 
ATOM     56  C   UNL     1       3.347   7.606 -17.953  1.00  0.00     0.029 A 
ATOM     57  N   UNL     1       4.576   7.146 -16.157  1.00  0.00    -0.354 N 
ATOM     58  N   UNL     1       7.068   6.532 -14.724  1.00  0.00    -0.248 NA
ATOM     59  C   UNL     1       9.342   6.007 -14.745  1.00  0.00     0.031 C 
ATOM     60  C   UNL     1       4.657   7.345 -18.368  1.00  0.00     0.029 A 
ATOM     61  C   UNL     1       5.429   7.085 -17.247  1.00  0.00     0.049 A 
ATOM     62  H   UNL     1       4.842   6.995 -15.221  1.00  0.00     0.167 HD
ATOM     63  C   UNL     1       7.528   6.557 -16.034  1.00  0.00     0.074 A 
ATOM     64  C   UNL     1       8.944   6.260 -15.983  1.00  0.00     0.031 C 
ATOM     65  C   UNL     1       6.840   6.801 -17.176  1.00  0.00     0.037 A 
BRANCH  52  66
ATOM     66  C   UNL     1       0.810   7.855 -16.321  1.00  0.00     0.064 A 
ATOM     67  C   UNL     1       0.158   9.086 -16.143  1.00  0.00     0.173 A 
ATOM     68  C   UNL     1       0.175   6.888 -17.115  1.00  0.00     0.173 A 
ATOM     69  F   UNL     1       0.715  10.041 -15.383  1.00  0.00    -0.203 F 
ATOM     70  C   UNL     1      -1.093   9.324 -16.707  1.00  0.00     0.198 A 
ATOM     71  C   UNL     1      -1.059   7.142 -17.706  1.00  0.00     0.198 A 
ATOM     72  F   UNL     1       0.755   5.696 -17.322  1.00  0.00    -0.203 F 
ATOM     73  F   UNL     1      -1.720  10.485 -16.474  1.00  0.00    -0.200 F 
ATOM     74  C   UNL     1      -1.696   8.356 -17.494  1.00  0.00     0.200 A 
ATOM     75  F   UNL     1      -1.636   6.210 -18.478  1.00  0.00    -0.200 F 
ATOM     76  F   UNL     1      -2.897   8.589 -18.041  1.00  0.00    -0.200 F 
ENDBRANCH  52  66
BRANCH  53  77
ATOM     77  C   UNL     1       9.495   5.774 -11.829  1.00  0.00     0.064 A 
ATOM     78  C   UNL     1      10.568   6.678 -11.855  1.00  0.00     0.173 A 
ATOM     79  C   UNL     1       9.696   4.546 -11.184  1.00  0.00     0.173 A 
ATOM     80  F   UNL     1      10.434   7.857 -12.479  1.00  0.00    -0.203 F 
ATOM     81  C   UNL     1      11.798   6.356 -11.284  1.00  0.00     0.198 A 
ATOM     82  C   UNL     1      10.917   4.237 -10.586  1.00  0.00     0.198 A 
ATOM     83  F   UNL     1       8.703   3.646 -11.126  1.00  0.00    -0.203 F 
ATOM     84  F   UNL     1      12.821   7.216 -11.371  1.00  0.00    -0.200 F 
ATOM     85  C   UNL     1      11.970   5.137 -10.645  1.00  0.00     0.200 A 
ATOM     86  F   UNL     1      11.075   3.063  -9.958  1.00  0.00    -0.200 F 
ATOM     87  F   UNL     1      13.152   4.827 -10.096  1.00  0.00    -0.200 F 
ENDBRANCH  53  77
BRANCH  65  88
ATOM     88  C   UNL     1       7.614   6.801 -18.462  1.00  0.00     0.064 A 
ATOM     89  C   UNL     1       8.114   5.617 -19.022  1.00  0.00     0.173 A 
ATOM     90  C   UNL     1       7.817   7.999 -19.166  1.00  0.00     0.173 A 
ATOM     91  F   UNL     1       7.959   4.449 -18.382  1.00  0.00    -0.203 F 
ATOM     92  C   UNL     1       8.811   5.635 -20.228  1.00  0.00     0.198 A 
ATOM     93  C   UNL     1       8.485   8.008 -20.386  1.00  0.00     0.198 A 
ATOM     94  F   UNL     1       7.351   9.158 -18.677  1.00  0.00    -0.203 F 
ATOM     95  F   UNL     1       9.322   4.499 -20.721  1.00  0.00    -0.200 F 
ATOM     96  C   UNL     1       8.988   6.829 -20.913  1.00  0.00     0.200 A 
ATOM     97  F   UNL     1       8.640   9.160 -21.054  1.00  0.00    -0.200 F 
ATOM     98  F   UNL     1       9.649   6.842 -22.078  1.00  0.00    -0.200 F 
ENDBRANCH  65  88
ENDBRANCH  39  40
ENDBRANCH  31  34
ENDBRANCH  29  30
ENDBRANCH  28  29
ENDBRANCH   1  28
TORSDOF 14
