REMARK SMILES C[C@H](C(=O)NCCCCNC(=O)c1ccc(-c2c3nc(c(-c4c(F)c(F)c(F)c(F)c4F)c4ccc([nH]4)c(-c4c(F)c(F)c(F)c(F)c4F)c4nc(c(-c5c(F)c(F)c(F)c(F)c5F)c5ccc2[nH]5)C=C4)C=C3)cc1)c1ccc(-c2ccccc2)c(F)c1
REMARK SMILES IDX 7 1 6 2 5 3 3 4 4 5 2 7 1 8 76 9 77 10 88 11 78 12 86 13
REMARK SMILES IDX 79 14 87 15 80 16 81 17 85 18 82 19 84 20 83 21 8 22 9 23
REMARK SMILES IDX 10 24 11 25 12 27 13 28 14 29 75 30 15 31 74 32 16 33 17 34
REMARK SMILES IDX 18 35 68 36 19 37 73 38 67 39 69 40 20 41 72 42 66 43 65 44
REMARK SMILES IDX 21 46 53 47 33 48 52 49 34 50 37 51 51 52 70 53 35 54 36 55
REMARK SMILES IDX 50 57 71 58 38 59 22 60 23 61 31 62 24 63 25 64 29 65 32 66
REMARK SMILES IDX 26 67 27 68 30 69 28 70 54 71 55 72 63 73 56 74 57 75 61 76
REMARK SMILES IDX 64 77 58 78 59 79 62 80 60 81 39 82 40 83 48 84 41 85 42 86
REMARK SMILES IDX 46 87 49 88 43 89 44 90 47 91 45 92
REMARK H PARENT 5 6 10 26 69 45 37 56
REMARK Flexibility Score: inf
ROOT
ATOM      1  C   UNL     1      -1.362   1.979   2.198  1.00  0.00     0.023 C 
ENDROOT
BRANCH   1   2
ATOM      2  C   UNL     1      -1.089   1.139   0.954  1.00  0.00     0.116 C 
BRANCH   2   3
ATOM      3  N   UNL     1       0.306   1.007   0.578  1.00  0.00    -0.356 N 
ATOM      4  C   UNL     1       0.918   0.099  -0.237  1.00  0.00     0.227 C 
ATOM      5  O   UNL     1       2.045   0.422  -0.640  1.00  0.00    -0.274 OA
ATOM      6  H   UNL     1       0.906   1.680   0.974  1.00  0.00     0.163 HD
BRANCH   4   7
ATOM      7  C   UNL     1       0.387  -1.315  -0.554  1.00  0.00     0.105 C 
ATOM      8  C   UNL     1       1.005  -2.239   0.511  1.00  0.00     0.023 C 
BRANCH   7   9
ATOM      9  C   UNL     1      -1.112  -1.494  -0.756  1.00  0.00    -0.033 A 
ATOM     10  C   UNL     1      -1.860  -0.545  -1.463  1.00  0.00     0.005 A 
ATOM     11  C   UNL     1      -1.808  -2.596  -0.245  1.00  0.00     0.044 A 
ATOM     12  C   UNL     1      -3.264  -0.557  -1.412  1.00  0.00     0.012 A 
ATOM     13  C   UNL     1      -3.204  -2.636  -0.257  1.00  0.00     0.131 A 
ATOM     14  C   UNL     1      -3.975  -1.576  -0.752  1.00  0.00     0.017 A 
ATOM     15  F   UNL     1      -3.786  -3.722   0.275  1.00  0.00    -0.206 F 
BRANCH  14  16
ATOM     16  C   UNL     1      -5.442  -1.490  -0.533  1.00  0.00    -0.015 A 
ATOM     17  C   UNL     1      -6.289  -0.795  -1.415  1.00  0.00     0.009 A 
ATOM     18  C   UNL     1      -6.045  -2.048   0.613  1.00  0.00     0.009 A 
ATOM     19  C   UNL     1      -7.660  -0.659  -1.163  1.00  0.00     0.001 A 
ATOM     20  C   UNL     1      -7.417  -1.931   0.860  1.00  0.00     0.001 A 
ATOM     21  C   UNL     1      -8.224  -1.231  -0.028  1.00  0.00     0.000 A 
ENDBRANCH  14  16
ENDBRANCH   7   9
ENDBRANCH   4   7
ENDBRANCH   2   3
ENDBRANCH   1   2
BRANCH   1  22
ATOM     22  C   UNL     1      -0.828   3.410   2.202  1.00  0.00     0.023 C 
BRANCH  22  23
ATOM     23  C   UNL     1      -1.190   4.288   1.007  1.00  0.00     0.116 C 
BRANCH  23  24
ATOM     24  N   UNL     1      -2.618   4.517   0.854  1.00  0.00    -0.352 N 
ATOM     25  C   UNL     1      -3.360   5.677   0.877  1.00  0.00     0.251 C 
ATOM     26  H   UNL     1      -3.147   3.700   0.709  1.00  0.00     0.163 HD
ATOM     27  O   UNL     1      -4.583   5.604   0.813  1.00  0.00    -0.269 OA
BRANCH  25  28
ATOM     28  C   UNL     1      -2.721   7.010   1.018  1.00  0.00     0.039 A 
ATOM     29  C   UNL     1      -3.347   7.960   1.833  1.00  0.00     0.014 A 
ATOM     30  C   UNL     1      -1.544   7.352   0.350  1.00  0.00     0.014 A 
ATOM     31  C   UNL     1      -2.752   9.208   2.040  1.00  0.00     0.010 A 
ATOM     32  C   UNL     1      -0.903   8.561   0.631  1.00  0.00     0.010 A 
ATOM     33  C   UNL     1      -1.496   9.504   1.483  1.00  0.00    -0.014 A 
BRANCH  33  34
ATOM     34  C   UNL     1      -0.802  10.779   1.818  1.00  0.00     0.031 A 
ATOM     35  C   UNL     1      -0.474  11.791   0.753  1.00  0.00     0.074 A 
ATOM     36  C   UNL     1      -0.439  11.016   3.095  1.00  0.00     0.049 A 
ATOM     37  N   UNL     1       0.103  12.962   0.873  1.00  0.00    -0.248 NA
ATOM     38  C   UNL     1      -0.815  11.436  -0.633  1.00  0.00     0.031 C 
ATOM     39  C   UNL     1      -0.627  10.087   4.212  1.00  0.00     0.029 A 
ATOM     40  N   UNL     1       0.162  12.108   3.674  1.00  0.00    -0.354 N 
ATOM     41  C   UNL     1       0.186  13.481  -0.412  1.00  0.00     0.074 A 
ATOM     42  C   UNL     1      -0.332  12.469  -1.307  1.00  0.00     0.031 C 
ATOM     43  C   UNL     1      -0.189  10.661   5.343  1.00  0.00     0.029 A 
ATOM     44  C   UNL     1       0.346  11.982   5.030  1.00  0.00     0.049 A 
ATOM     45  H   UNL     1       0.435  12.905   3.164  1.00  0.00     0.167 HD
ATOM     46  C   UNL     1       0.622  14.702  -0.810  1.00  0.00     0.037 A 
ATOM     47  C   UNL     1       0.883  12.835   5.924  1.00  0.00     0.037 A 
ATOM     48  C   UNL     1       1.136  15.712   0.080  1.00  0.00     0.049 A 
ATOM     49  C   UNL     1       1.357  14.184   5.456  1.00  0.00     0.074 A 
ATOM     50  C   UNL     1       1.569  16.992  -0.223  1.00  0.00     0.029 A 
ATOM     51  N   UNL     1       1.292  15.554   1.450  1.00  0.00    -0.354 N 
ATOM     52  N   UNL     1       1.354  14.691   4.247  1.00  0.00    -0.248 NA
ATOM     53  C   UNL     1       1.895  15.087   6.482  1.00  0.00     0.031 C 
ATOM     54  C   UNL     1       2.031  17.590   0.955  1.00  0.00     0.029 A 
ATOM     55  C   UNL     1       1.831  16.706   2.002  1.00  0.00     0.049 A 
ATOM     56  H   UNL     1       1.055  14.743   1.955  1.00  0.00     0.167 HD
ATOM     57  C   UNL     1       1.868  15.975   4.369  1.00  0.00     0.074 A 
ATOM     58  C   UNL     1       2.138  16.182   5.777  1.00  0.00     0.031 C 
ATOM     59  C   UNL     1       2.104  16.898   3.404  1.00  0.00     0.037 A 
BRANCH  46  60
ATOM     60  C   UNL     1       0.544  15.024  -2.277  1.00  0.00     0.064 A 
ATOM     61  C   UNL     1      -0.690  15.203  -2.922  1.00  0.00     0.173 A 
ATOM     62  C   UNL     1       1.710  15.208  -3.036  1.00  0.00     0.173 A 
ATOM     63  F   UNL     1      -1.837  15.029  -2.247  1.00  0.00    -0.203 F 
ATOM     64  C   UNL     1      -0.754  15.525  -4.276  1.00  0.00     0.198 A 
ATOM     65  C   UNL     1       1.643  15.564  -4.381  1.00  0.00     0.198 A 
ATOM     66  F   UNL     1       2.917  15.058  -2.470  1.00  0.00    -0.203 F 
ATOM     67  F   UNL     1      -1.945  15.643  -4.879  1.00  0.00    -0.200 F 
ATOM     68  C   UNL     1       0.412  15.715  -5.001  1.00  0.00     0.200 A 
ATOM     69  F   UNL     1       2.770  15.762  -5.077  1.00  0.00    -0.200 F 
ATOM     70  F   UNL     1       0.349  16.038  -6.300  1.00  0.00    -0.200 F 
ENDBRANCH  46  60
BRANCH  47  71
ATOM     71  C   UNL     1       0.986  12.447   7.357  1.00  0.00     0.064 A 
ATOM     72  C   UNL     1       0.237  13.104   8.344  1.00  0.00     0.173 A 
ATOM     73  C   UNL     1       1.854  11.426   7.772  1.00  0.00     0.173 A 
ATOM     74  F   UNL     1      -0.593  14.101   8.002  1.00  0.00    -0.203 F 
ATOM     75  C   UNL     1       0.376  12.777   9.692  1.00  0.00     0.198 A 
ATOM     76  C   UNL     1       1.965  11.075   9.116  1.00  0.00     0.198 A 
ATOM     77  F   UNL     1       2.588  10.760   6.869  1.00  0.00    -0.203 F 
ATOM     78  F   UNL     1      -0.306  13.464  10.619  1.00  0.00    -0.200 F 
ATOM     79  C   UNL     1       1.236  11.760  10.076  1.00  0.00     0.200 A 
ATOM     80  F   UNL     1       2.783  10.079   9.480  1.00  0.00    -0.200 F 
ATOM     81  F   UNL     1       1.369  11.445  11.372  1.00  0.00    -0.200 F 
ENDBRANCH  47  71
BRANCH  59  82
ATOM     82  C   UNL     1       2.662  18.221   3.848  1.00  0.00     0.064 A 
ATOM     83  C   UNL     1       3.964  18.339   4.360  1.00  0.00     0.173 A 
ATOM     84  C   UNL     1       1.885  19.387   3.764  1.00  0.00     0.173 A 
ATOM     85  F   UNL     1       4.745  17.254   4.474  1.00  0.00    -0.203 F 
ATOM     86  C   UNL     1       4.447  19.562   4.817  1.00  0.00     0.198 A 
ATOM     87  C   UNL     1       2.385  20.615   4.186  1.00  0.00     0.198 A 
ATOM     88  F   UNL     1       0.637  19.335   3.272  1.00  0.00    -0.203 F 
ATOM     89  F   UNL     1       5.665  19.634   5.371  1.00  0.00    -0.200 F 
ATOM     90  C   UNL     1       3.660  20.700   4.725  1.00  0.00     0.200 A 
ATOM     91  F   UNL     1       1.629  21.717   4.081  1.00  0.00    -0.200 F 
ATOM     92  F   UNL     1       4.124  21.875   5.170  1.00  0.00    -0.200 F 
ENDBRANCH  59  82
ENDBRANCH  33  34
ENDBRANCH  25  28
ENDBRANCH  23  24
ENDBRANCH  22  23
ENDBRANCH   1  22
TORSDOF 13
