REMARK SMILES CCN1C(=O)c2cccc3cc(S(=O)(=O)NCC(=O)NCCCCNC(=O)c4ccc(-c5c6nc(c(-c7c(F)c(F)c(F)c(F)c7F)c7ccc([nH]7)c(-c7c(F)c(F)c(F)c(F)c7F)c7nc(c(-c8c(F)c(F)c(F)c(F)c8F)c8ccc5[nH]8)C=C7)C=C6)cc4)cc(c23)C1=O
REMARK SMILES IDX 21 1 20 2 18 3 19 4 17 6 16 7 13 9 14 10 15 11 12 12 3 13
REMARK SMILES IDX 4 14 94 15 5 16 6 17 92 18 95 19 7 20 93 21 91 22 8 23 10 24
REMARK SMILES IDX 9 25 11 26 2 27 1 28 22 29 23 30 24 31 25 32 26 33 27 35
REMARK SMILES IDX 28 36 29 37 90 38 30 39 89 40 31 41 32 42 33 43 83 44 34 45
REMARK SMILES IDX 88 46 82 47 84 48 35 49 87 50 81 51 80 52 36 54 68 55 48 56
REMARK SMILES IDX 67 57 49 58 52 59 66 60 85 61 50 62 51 63 65 65 86 66 53 67
REMARK SMILES IDX 37 68 38 69 46 70 39 71 40 72 44 73 47 74 41 75 42 76 45 77
REMARK SMILES IDX 43 78 69 79 70 80 78 81 71 82 72 83 76 84 79 85 73 86 74 87
REMARK SMILES IDX 77 88 75 89 54 90 55 91 63 92 56 93 57 94 61 95 64 96 58 97
REMARK SMILES IDX 59 98 62 99 60 100
REMARK H PARENT 20 5 16 8 25 34 84 53 52 64
REMARK Flexibility Score: inf
ROOT
ATOM      1  C   UNL     1       4.455  -3.564  -5.108  1.00  0.00     0.116 C 
ENDROOT
BRANCH   1   2
ATOM      2  N   UNL     1       5.274  -4.123  -6.164  1.00  0.00    -0.355 N 
ATOM      3  C   UNL     1       5.255  -3.820  -7.495  1.00  0.00     0.235 C 
ATOM      4  O   UNL     1       5.771  -4.605  -8.292  1.00  0.00    -0.274 OA
ATOM      5  H   UNL     1       5.926  -4.808  -5.888  1.00  0.00     0.163 HD
BRANCH   3   6
ATOM      6  C   UNL     1       4.674  -2.501  -7.963  1.00  0.00     0.198 C 
BRANCH   6   7
ATOM      7  N   UNL     1       3.422  -2.555  -8.729  1.00  0.00    -0.202 NA
ATOM      8  H   UNL     1       3.410  -1.725  -9.320  1.00  0.00     0.141 HD
BRANCH   7   9
ATOM      9  S   UNL     1       1.929  -2.614  -7.963  1.00  0.00     0.241 S 
ATOM     10  O   UNL     1       1.932  -3.785  -7.118  1.00  0.00    -0.207 OA
ATOM     11  O   UNL     1       0.927  -2.421  -8.978  1.00  0.00    -0.207 OA
BRANCH   9  12
ATOM     12  C   UNL     1       1.902  -1.177  -6.918  1.00  0.00     0.083 A 
ATOM     13  N   UNL     1       1.013   0.921  -2.603  1.00  0.00    -0.275 N 
ATOM     14  C   UNL     1       1.595   2.122  -3.012  1.00  0.00     0.261 C 
ATOM     15  C   UNL     1       0.963  -0.236  -3.381  1.00  0.00     0.261 C 
ATOM     16  O   UNL     1       1.679   3.126  -2.308  1.00  0.00    -0.269 OA
ATOM     17  C   UNL     1       2.141   2.172  -4.388  1.00  0.00     0.049 A 
ATOM     18  C   UNL     1       1.478  -0.147  -4.768  1.00  0.00     0.050 A 
ATOM     19  O   UNL     1       0.542  -1.322  -2.993  1.00  0.00    -0.269 OA
ATOM     20  C   UNL     1       2.731   3.354  -4.854  1.00  0.00     0.014 A 
ATOM     21  C   UNL     1       2.051   1.048  -5.215  1.00  0.00     0.007 A 
ATOM     22  C   UNL     1       1.403  -1.264  -5.615  1.00  0.00     0.036 A 
ATOM     23  C   UNL     1       3.240   3.419  -6.148  1.00  0.00     0.001 A 
ATOM     24  C   UNL     1       2.556   1.123  -6.538  1.00  0.00    -0.015 A 
ATOM     25  C   UNL     1       3.151   2.309  -6.986  1.00  0.00     0.009 A 
ATOM     26  C   UNL     1       2.463   0.012  -7.384  1.00  0.00     0.030 A 
BRANCH  13  27
ATOM     27  C   UNL     1       0.409   0.884  -1.268  1.00  0.00     0.126 C 
ATOM     28  C   UNL     1       1.229   0.095  -0.259  1.00  0.00     0.028 C 
ENDBRANCH  13  27
ENDBRANCH   9  12
ENDBRANCH   7   9
ENDBRANCH   6   7
ENDBRANCH   3   6
ENDBRANCH   1   2
BRANCH   1  29
ATOM     29  C   UNL     1       3.351  -4.546  -4.723  1.00  0.00     0.023 C 
BRANCH  29  30
ATOM     30  C   UNL     1       3.695  -5.444  -3.549  1.00  0.00     0.023 C 
BRANCH  30  31
ATOM     31  C   UNL     1       3.860  -4.702  -2.233  1.00  0.00     0.116 C 
BRANCH  31  32
ATOM     32  N   UNL     1       2.668  -3.987  -1.796  1.00  0.00    -0.352 N 
ATOM     33  C   UNL     1       2.111  -3.945  -0.539  1.00  0.00     0.251 C 
ATOM     34  H   UNL     1       2.202  -3.466  -2.489  1.00  0.00     0.163 HD
ATOM     35  O   UNL     1       1.016  -3.430  -0.347  1.00  0.00    -0.269 OA
BRANCH  33  36
ATOM     36  C   UNL     1       2.810  -4.592   0.586  1.00  0.00     0.039 A 
ATOM     37  C   UNL     1       2.054  -5.367   1.466  1.00  0.00     0.014 A 
ATOM     38  C   UNL     1       4.197  -4.507   0.726  1.00  0.00     0.014 A 
ATOM     39  C   UNL     1       2.702  -6.138   2.425  1.00  0.00     0.010 A 
ATOM     40  C   UNL     1       4.847  -5.366   1.599  1.00  0.00     0.010 A 
ATOM     41  C   UNL     1       4.105  -6.187   2.458  1.00  0.00    -0.014 A 
BRANCH  41  42
ATOM     42  C   UNL     1       4.799  -7.113   3.381  1.00  0.00     0.031 A 
ATOM     43  C   UNL     1       5.712  -6.579   4.444  1.00  0.00     0.074 A 
ATOM     44  C   UNL     1       4.641  -8.440   3.215  1.00  0.00     0.049 A 
ATOM     45  N   UNL     1       6.384  -7.230   5.357  1.00  0.00    -0.248 NA
ATOM     46  C   UNL     1       5.936  -5.125   4.458  1.00  0.00     0.031 C 
ATOM     47  C   UNL     1       3.868  -9.075   2.144  1.00  0.00     0.029 A 
ATOM     48  N   UNL     1       5.120  -9.495   3.947  1.00  0.00    -0.354 N 
ATOM     49  C   UNL     1       7.124  -6.270   6.034  1.00  0.00     0.074 A 
ATOM     50  C   UNL     1       6.873  -5.003   5.384  1.00  0.00     0.031 C 
ATOM     51  C   UNL     1       3.889 -10.405   2.315  1.00  0.00     0.029 A 
ATOM     52  C   UNL     1       4.691 -10.718   3.492  1.00  0.00     0.049 A 
ATOM     53  H   UNL     1       5.715  -9.387   4.723  1.00  0.00     0.167 HD
ATOM     54  C   UNL     1       7.914  -6.428   7.121  1.00  0.00     0.037 A 
ATOM     55  C   UNL     1       4.906 -11.950   3.987  1.00  0.00     0.037 A 
ATOM     56  C   UNL     1       8.116  -7.687   7.786  1.00  0.00     0.049 A 
ATOM     57  C   UNL     1       5.704 -12.091   5.252  1.00  0.00     0.074 A 
ATOM     58  C   UNL     1       8.815  -7.949   8.950  1.00  0.00     0.029 A 
ATOM     59  N   UNL     1       7.612  -8.901   7.338  1.00  0.00    -0.354 N 
ATOM     60  N   UNL     1       6.311 -11.163   5.953  1.00  0.00    -0.248 NA
ATOM     61  C   UNL     1       5.828 -13.444   5.808  1.00  0.00     0.031 C 
ATOM     62  C   UNL     1       8.765  -9.328   9.186  1.00  0.00     0.029 A 
ATOM     63  C   UNL     1       7.999  -9.919   8.193  1.00  0.00     0.049 A 
ATOM     64  H   UNL     1       7.061  -9.020   6.530  1.00  0.00     0.167 HD
ATOM     65  C   UNL     1       6.880 -11.815   7.037  1.00  0.00     0.074 A 
ATOM     66  C   UNL     1       6.518 -13.214   6.916  1.00  0.00     0.031 C 
ATOM     67  C   UNL     1       7.638 -11.306   8.040  1.00  0.00     0.037 A 
BRANCH  54  68
ATOM     68  C   UNL     1       8.604  -5.205   7.653  1.00  0.00     0.064 A 
ATOM     69  C   UNL     1       7.889  -4.157   8.254  1.00  0.00     0.173 A 
ATOM     70  C   UNL     1       9.996  -5.075   7.553  1.00  0.00     0.173 A 
ATOM     71  F   UNL     1       6.553  -4.223   8.358  1.00  0.00    -0.203 F 
ATOM     72  C   UNL     1       8.537  -3.006   8.695  1.00  0.00     0.198 A 
ATOM     73  C   UNL     1      10.646  -3.937   8.025  1.00  0.00     0.198 A 
ATOM     74  F   UNL     1      10.729  -6.046   6.988  1.00  0.00    -0.203 F 
ATOM     75  F   UNL     1       7.825  -1.990   9.203  1.00  0.00    -0.200 F 
ATOM     76  C   UNL     1       9.915  -2.899   8.585  1.00  0.00     0.200 A 
ATOM     77  F   UNL     1      11.978  -3.838   7.926  1.00  0.00    -0.200 F 
ATOM     78  F   UNL     1      10.538  -1.790   9.007  1.00  0.00    -0.200 F 
ENDBRANCH  54  68
BRANCH  55  79
ATOM     79  C   UNL     1       4.302 -13.128   3.315  1.00  0.00     0.064 A 
ATOM     80  C   UNL     1       3.219 -13.809   3.887  1.00  0.00     0.173 A 
ATOM     81  C   UNL     1       4.773 -13.578   2.073  1.00  0.00     0.173 A 
ATOM     82  F   UNL     1       2.742 -13.424   5.080  1.00  0.00    -0.203 F 
ATOM     83  C   UNL     1       2.640 -14.905   3.251  1.00  0.00     0.198 A 
ATOM     84  C   UNL     1       4.178 -14.659   1.426  1.00  0.00     0.198 A 
ATOM     85  F   UNL     1       5.800 -12.953   1.479  1.00  0.00    -0.203 F 
ATOM     86  F   UNL     1       1.627 -15.559   3.837  1.00  0.00    -0.200 F 
ATOM     87  C   UNL     1       3.115 -15.325   2.018  1.00  0.00     0.200 A 
ATOM     88  F   UNL     1       4.630 -15.052   0.228  1.00  0.00    -0.200 F 
ATOM     89  F   UNL     1       2.552 -16.374   1.402  1.00  0.00    -0.200 F 
ENDBRANCH  55  79
BRANCH  67  90
ATOM     90  C   UNL     1       8.120 -12.274   9.080  1.00  0.00     0.064 A 
ATOM     91  C   UNL     1       9.116 -13.219   8.792  1.00  0.00     0.173 A 
ATOM     92  C   UNL     1       7.592 -12.246  10.379  1.00  0.00     0.173 A 
ATOM     93  F   UNL     1       9.641 -13.293   7.560  1.00  0.00    -0.203 F 
ATOM     94  C   UNL     1       9.541 -14.125   9.759  1.00  0.00     0.198 A 
ATOM     95  C   UNL     1       8.041 -13.134  11.351  1.00  0.00     0.198 A 
ATOM     96  F   UNL     1       6.643 -11.356  10.705  1.00  0.00    -0.203 F 
ATOM     97  F   UNL     1      10.453 -15.056   9.447  1.00  0.00    -0.200 F 
ATOM     98  C   UNL     1       9.007 -14.079  11.039  1.00  0.00     0.200 A 
ATOM     99  F   UNL     1       7.533 -13.081  12.590  1.00  0.00    -0.200 F 
ATOM    100  F   UNL     1       9.416 -14.953  11.968  1.00  0.00    -0.200 F 
ENDBRANCH  67  90
ENDBRANCH  41  42
ENDBRANCH  33  36
ENDBRANCH  31  32
ENDBRANCH  30  31
ENDBRANCH  29  30
ENDBRANCH   1  29
TORSDOF 15
