REMARK SMILES CCNS(=O)(=O)c1ccc(CC(=O)NCCCCNC(=O)c2ccc(-c3c4nc(c(-c5c(F)c(F)c(F)c(F)c5F)c5ccc([nH]5)c(-c5c(F)c(F)c(F)c(F)c5F)c5nc(c(-c6c(F)c(F)c(F)c(F)c6F)c6ccc3[nH]6)C=C5)C=C4)cc2)cc1
REMARK SMILES IDX 15 1 14 2 12 3 13 4 11 6 10 7 7 8 8 9 86 10 9 11 85 12 4 13
REMARK SMILES IDX 5 14 6 15 3 16 2 18 1 19 16 20 17 21 18 22 19 23 20 24 21 26
REMARK SMILES IDX 22 27 23 28 84 29 24 30 83 31 25 32 26 33 27 34 77 35 28 36
REMARK SMILES IDX 82 37 76 38 78 39 29 40 81 41 75 42 74 43 30 45 62 46 42 47
REMARK SMILES IDX 61 48 43 49 46 50 60 51 79 52 44 53 45 54 59 56 80 57 47 58
REMARK SMILES IDX 31 59 32 60 40 61 33 62 34 63 38 64 41 65 35 66 36 67 39 68
REMARK SMILES IDX 37 69 63 70 64 71 72 72 65 73 66 74 70 75 73 76 67 77 68 78
REMARK SMILES IDX 71 79 69 80 48 81 49 82 57 83 50 84 51 85 55 86 58 87 52 88
REMARK SMILES IDX 53 89 56 90 54 91
REMARK H PARENT 14 5 3 17 19 25 78 44 46 55
REMARK Flexibility Score: inf
ROOT
ATOM      1  C   UNL     1      -5.200  -5.117   3.665  1.00  0.00     0.116 C 
ENDROOT
BRANCH   1   2
ATOM      2  N   UNL     1      -6.013  -3.951   3.379  1.00  0.00    -0.356 N 
ATOM      3  C   UNL     1      -6.217  -3.325   2.181  1.00  0.00     0.224 C 
ATOM      4  O   UNL     1      -6.893  -2.295   2.167  1.00  0.00    -0.275 OA
ATOM      5  H   UNL     1      -6.480  -3.557   4.150  1.00  0.00     0.163 HD
BRANCH   3   6
ATOM      6  C   UNL     1      -5.648  -3.919   0.902  1.00  0.00     0.135 C 
BRANCH   6   7
ATOM      7  C   UNL     1      -4.141  -3.857   0.809  1.00  0.00    -0.039 A 
ATOM      8  C   UNL     1      -1.346  -3.776   0.723  1.00  0.00     0.082 A 
ATOM      9  C   UNL     1      -2.063  -2.612   1.009  1.00  0.00     0.022 A 
ATOM     10  C   UNL     1      -2.014  -4.975   0.460  1.00  0.00     0.022 A 
ATOM     11  C   UNL     1      -3.458  -2.652   1.035  1.00  0.00     0.005 A 
ATOM     12  C   UNL     1      -3.407  -5.012   0.499  1.00  0.00     0.005 A 
BRANCH   8  13
ATOM     13  S   UNL     1       0.424  -3.792   0.654  1.00  0.00     0.240 S 
ATOM     14  O   UNL     1       0.815  -4.263  -0.655  1.00  0.00    -0.207 OA
ATOM     15  O   UNL     1       0.882  -4.431   1.869  1.00  0.00    -0.207 OA
BRANCH  13  16
ATOM     16  N   UNL     1       0.890  -2.182   0.785  1.00  0.00    -0.211 NA
ATOM     17  H   UNL     1       0.263  -1.739   1.457  1.00  0.00     0.141 HD
BRANCH  16  18
ATOM     18  C   UNL     1       0.880  -1.357  -0.426  1.00  0.00     0.095 C 
ATOM     19  C   UNL     1       1.156   0.084  -0.035  1.00  0.00     0.022 C 
ENDBRANCH  16  18
ENDBRANCH  13  16
ENDBRANCH   8  13
ENDBRANCH   6   7
ENDBRANCH   3   6
ENDBRANCH   1   2
BRANCH   1  20
ATOM     20  C   UNL     1      -3.841  -4.737   4.255  1.00  0.00     0.023 C 
BRANCH  20  21
ATOM     21  C   UNL     1      -3.894  -4.128   5.660  1.00  0.00     0.023 C 
BRANCH  21  22
ATOM     22  C   UNL     1      -4.572  -4.989   6.721  1.00  0.00     0.116 C 
BRANCH  22  23
ATOM     23  N   UNL     1      -3.975  -6.306   6.859  1.00  0.00    -0.352 N 
ATOM     24  C   UNL     1      -3.804  -7.073   7.984  1.00  0.00     0.251 C 
ATOM     25  H   UNL     1      -3.644  -6.707   6.023  1.00  0.00     0.163 HD
ATOM     26  O   UNL     1      -3.184  -8.130   7.912  1.00  0.00    -0.269 OA
BRANCH  24  27
ATOM     27  C   UNL     1      -4.330  -6.620   9.291  1.00  0.00     0.039 A 
ATOM     28  C   UNL     1      -3.520  -6.777  10.420  1.00  0.00     0.014 A 
ATOM     29  C   UNL     1      -5.606  -6.064   9.419  1.00  0.00     0.014 A 
ATOM     30  C   UNL     1      -3.968  -6.330  11.665  1.00  0.00     0.010 A 
ATOM     31  C   UNL     1      -6.025  -5.558  10.649  1.00  0.00     0.010 A 
ATOM     32  C   UNL     1      -5.212  -5.691  11.784  1.00  0.00    -0.014 A 
BRANCH  32  33
ATOM     33  C   UNL     1      -5.666  -5.158  13.094  1.00  0.00     0.031 A 
ATOM     34  C   UNL     1      -6.859  -5.753  13.789  1.00  0.00     0.074 A 
ATOM     35  C   UNL     1      -5.021  -4.110  13.641  1.00  0.00     0.049 A 
ATOM     36  N   UNL     1      -7.400  -5.421  14.934  1.00  0.00    -0.248 NA
ATOM     37  C   UNL     1      -7.552  -6.848  13.094  1.00  0.00     0.031 C 
ATOM     38  C   UNL     1      -3.887  -3.408  13.037  1.00  0.00     0.029 A 
ATOM     39  N   UNL     1      -5.227  -3.451  14.827  1.00  0.00    -0.354 N 
ATOM     40  C   UNL     1      -8.496  -6.258  15.092  1.00  0.00     0.074 A 
ATOM     41  C   UNL     1      -8.577  -7.076  13.902  1.00  0.00     0.031 C 
ATOM     42  C   UNL     1      -3.478  -2.437  13.869  1.00  0.00     0.029 A 
ATOM     43  C   UNL     1      -4.335  -2.431  15.051  1.00  0.00     0.049 A 
ATOM     44  H   UNL     1      -5.946  -3.687  15.457  1.00  0.00     0.167 HD
ATOM     45  C   UNL     1      -9.342  -6.354  16.146  1.00  0.00     0.037 A 
ATOM     46  C   UNL     1      -4.219  -1.590  16.096  1.00  0.00     0.037 A 
ATOM     47  C   UNL     1      -9.246  -5.555  17.340  1.00  0.00     0.049 A 
ATOM     48  C   UNL     1      -5.159  -1.732  17.262  1.00  0.00     0.074 A 
ATOM     49  C   UNL     1     -10.021  -5.616  18.486  1.00  0.00     0.029 A 
ATOM     50  N   UNL     1      -8.314  -4.547  17.542  1.00  0.00    -0.354 N 
ATOM     51  N   UNL     1      -6.144  -2.578  17.433  1.00  0.00    -0.248 NA
ATOM     52  C   UNL     1      -4.959  -0.808  18.386  1.00  0.00     0.031 C 
ATOM     53  C   UNL     1      -9.583  -4.619  19.365  1.00  0.00     0.029 A 
ATOM     54  C   UNL     1      -8.505  -3.968  18.786  1.00  0.00     0.049 A 
ATOM     55  H   UNL     1      -7.620  -4.282  16.896  1.00  0.00     0.167 HD
ATOM     56  C   UNL     1      -6.665  -2.309  18.691  1.00  0.00     0.074 A 
ATOM     57  C   UNL     1      -5.872  -1.232  19.248  1.00  0.00     0.031 C 
ATOM     58  C   UNL     1      -7.706  -2.899  19.328  1.00  0.00     0.037 A 
BRANCH  45  59
ATOM     59  C   UNL     1     -10.445  -7.369  16.057  1.00  0.00     0.064 A 
ATOM     60  C   UNL     1     -10.182  -8.746  16.119  1.00  0.00     0.173 A 
ATOM     61  C   UNL     1     -11.783  -6.961  15.945  1.00  0.00     0.173 A 
ATOM     62  F   UNL     1      -8.919  -9.188  16.215  1.00  0.00    -0.203 F 
ATOM     63  C   UNL     1     -11.214  -9.677  16.041  1.00  0.00     0.198 A 
ATOM     64  C   UNL     1     -12.815  -7.895  15.897  1.00  0.00     0.198 A 
ATOM     65  F   UNL     1     -12.091  -5.657  15.888  1.00  0.00    -0.203 F 
ATOM     66  F   UNL     1     -10.934 -10.988  16.053  1.00  0.00    -0.200 F 
ATOM     67  C   UNL     1     -12.530  -9.252  15.938  1.00  0.00     0.200 A 
ATOM     68  F   UNL     1     -14.087  -7.482  15.809  1.00  0.00    -0.200 F 
ATOM     69  F   UNL     1     -13.523 -10.149  15.870  1.00  0.00    -0.200 F 
ENDBRANCH  45  59
BRANCH  46  70
ATOM     70  C   UNL     1      -3.141  -0.568  16.108  1.00  0.00     0.064 A 
ATOM     71  C   UNL     1      -2.051  -0.684  16.982  1.00  0.00     0.173 A 
ATOM     72  C   UNL     1      -3.178   0.542  15.252  1.00  0.00     0.173 A 
ATOM     73  F   UNL     1      -1.982  -1.718  17.832  1.00  0.00    -0.203 F 
ATOM     74  C   UNL     1      -1.050   0.284  17.015  1.00  0.00     0.198 A 
ATOM     75  C   UNL     1      -2.162   1.495  15.268  1.00  0.00     0.198 A 
ATOM     76  F   UNL     1      -4.197   0.695  14.394  1.00  0.00    -0.203 F 
ATOM     77  F   UNL     1      -0.043   0.172  17.892  1.00  0.00    -0.200 F 
ATOM     78  C   UNL     1      -1.103   1.370  16.154  1.00  0.00     0.200 A 
ATOM     79  F   UNL     1      -2.210   2.536  14.425  1.00  0.00    -0.200 F 
ATOM     80  F   UNL     1      -0.138   2.299  16.185  1.00  0.00    -0.200 F 
ENDBRANCH  46  70
BRANCH  58  81
ATOM     81  C   UNL     1      -8.025  -2.412  20.711  1.00  0.00     0.064 A 
ATOM     82  C   UNL     1      -8.604  -1.153  20.933  1.00  0.00     0.173 A 
ATOM     83  C   UNL     1      -7.766  -3.222  21.827  1.00  0.00     0.173 A 
ATOM     84  F   UNL     1      -8.857  -0.335  19.900  1.00  0.00    -0.203 F 
ATOM     85  C   UNL     1      -8.880  -0.710  22.224  1.00  0.00     0.198 A 
ATOM     86  C   UNL     1      -8.071  -2.788  23.114  1.00  0.00     0.198 A 
ATOM     87  F   UNL     1      -7.220  -4.437  21.669  1.00  0.00    -0.203 F 
ATOM     88  F   UNL     1      -9.381   0.518  22.416  1.00  0.00    -0.200 F 
ATOM     89  C   UNL     1      -8.618  -1.529  23.312  1.00  0.00     0.200 A 
ATOM     90  F   UNL     1      -7.829  -3.585  24.163  1.00  0.00    -0.200 F 
ATOM     91  F   UNL     1      -8.885  -1.101  24.553  1.00  0.00    -0.200 F 
ENDBRANCH  58  81
ENDBRANCH  32  33
ENDBRANCH  24  27
ENDBRANCH  22  23
ENDBRANCH  21  22
ENDBRANCH  20  21
ENDBRANCH   1  20
TORSDOF 15
