REMARK SMILES C[NH+]1CC[NH+](CC[C@H]2CCC[C@@]2([NH3+])C(=O)NCCCCNC(=O)c2ccc(-c3c4nc(c(-c5c(F)c(F)c(F)c(F)c5F)c5ccc([nH]5)c(-c5c(F)c(F)c(F)c(F)c5F)c5nc(c(-c6c(F)c(F)c(F)c(F)c6F)c6ccc3[nH]6)C=C5)C=C4)cc2)CC1
REMARK SMILES IDX 18 1 17 2 16 3 14 4 15 5 12 7 8 8 9 9 10 10 11 11 7 12 6 13
REMARK SMILES IDX 5 14 1 15 2 16 3 17 88 18 4 20 87 21 13 23 19 27 20 28 21 29
REMARK SMILES IDX 22 30 23 32 24 33 25 34 86 35 26 36 85 37 27 38 28 39 29 40
REMARK SMILES IDX 79 41 30 42 84 43 78 44 80 45 31 46 83 47 77 48 76 49 32 51
REMARK SMILES IDX 64 52 44 53 63 54 45 55 48 56 62 57 81 58 46 59 47 60 61 62
REMARK SMILES IDX 82 63 49 64 33 65 34 66 42 67 35 68 36 69 40 70 43 71 37 72
REMARK SMILES IDX 38 73 41 74 39 75 65 76 66 77 74 78 67 79 68 80 72 81 75 82
REMARK SMILES IDX 69 83 70 84 73 85 71 86 50 87 51 88 59 89 52 90 53 91 57 92
REMARK SMILES IDX 60 93 54 94 55 95 58 96 56 97
REMARK H PARENT 16 6 2 19 5 22 13 24 13 25 13 26 21 31 80 50 48 61
REMARK Flexibility Score: inf
ROOT
ATOM      1  C   UNL     1       0.582   1.998  -1.873  1.00  0.00     0.023 C 
ENDROOT
BRANCH   1   2
ATOM      2  C   UNL     1       1.104   3.064  -0.892  1.00  0.00     0.116 C 
BRANCH   2   3
ATOM      3  N   UNL     1       0.072   3.800  -0.185  1.00  0.00    -0.351 N 
ATOM      4  C   UNL     1      -0.255   3.925   1.132  1.00  0.00     0.281 C 
ATOM      5  O   UNL     1      -1.177   4.724   1.353  1.00  0.00    -0.268 OA
ATOM      6  H   UNL     1      -0.515   4.318  -0.782  1.00  0.00     0.163 HD
BRANCH   4   7
ATOM      7  C   UNL     1       0.421   3.127   2.314  1.00  0.00     0.177 C 
ATOM      8  C   UNL     1       0.377   1.552   2.334  1.00  0.00     0.066 C 
ATOM      9  C   UNL     1       1.826   1.135   2.707  1.00  0.00     0.011 C 
ATOM     10  C   UNL     1       2.499   2.374   3.281  1.00  0.00     0.008 C 
ATOM     11  C   UNL     1       1.901   3.509   2.469  1.00  0.00     0.079 C 
BRANCH   8  12
ATOM     12  C   UNL     1      -0.084   0.874   1.044  1.00  0.00     0.072 C 
BRANCH  12  13
ATOM     13  C   UNL     1      -0.919  -0.410   1.076  1.00  0.00     0.263 C 
BRANCH  13  14
ATOM     14  N   UNL     1      -2.377  -0.319   1.028  1.00  0.00    -0.326 N 
ATOM     15  C   UNL     1      -4.196   3.366   2.399  1.00  0.00     0.333 C 
ATOM     16  N   UNL     1      -4.055   2.002   1.884  1.00  0.00    -0.328 N 
ATOM     17  C   UNL     1      -3.315   1.168   2.843  1.00  0.00     0.324 C 
ATOM     18  C   UNL     1      -3.377   2.007   0.576  1.00  0.00     0.324 C 
ATOM     19  H   UNL     1      -4.987   1.607   1.759  1.00  0.00     0.348 HD
ATOM     20  C   UNL     1      -3.057  -0.255   2.319  1.00  0.00     0.324 C 
ATOM     21  C   UNL     1      -2.994   0.596   0.052  1.00  0.00     0.324 C 
ATOM     22  H   UNL     1      -2.552  -1.244   0.636  1.00  0.00     0.348 HD
ENDBRANCH  13  14
ENDBRANCH  12  13
ENDBRANCH   8  12
BRANCH   7  23
ATOM     23  N   UNL     1      -0.216   3.593   3.587  1.00  0.00    -0.345 N 
ATOM     24  H   UNL     1       0.199   3.096   4.375  1.00  0.00     0.345 HD
ATOM     25  H   UNL     1      -1.218   3.405   3.554  1.00  0.00     0.345 HD
ATOM     26  H   UNL     1      -0.061   4.595   3.697  1.00  0.00     0.345 HD
ENDBRANCH   7  23
ENDBRANCH   4   7
ENDBRANCH   2   3
ENDBRANCH   1   2
BRANCH   1  27
ATOM     27  C   UNL     1      -0.443   2.459  -2.895  1.00  0.00     0.023 C 
BRANCH  27  28
ATOM     28  C   UNL     1       0.034   3.600  -3.766  1.00  0.00     0.116 C 
BRANCH  28  29
ATOM     29  N   UNL     1       1.362   3.365  -4.316  1.00  0.00    -0.352 N 
ATOM     30  C   UNL     1       1.786   3.356  -5.620  1.00  0.00     0.251 C 
ATOM     31  H   UNL     1       2.063   3.183  -3.649  1.00  0.00     0.163 HD
ATOM     32  O   UNL     1       2.913   2.963  -5.903  1.00  0.00    -0.269 OA
BRANCH  30  33
ATOM     33  C   UNL     1       0.862   3.803  -6.674  1.00  0.00     0.039 A 
ATOM     34  C   UNL     1       0.778   3.074  -7.861  1.00  0.00     0.014 A 
ATOM     35  C   UNL     1       0.051   4.920  -6.464  1.00  0.00     0.014 A 
ATOM     36  C   UNL     1      -0.174   3.432  -8.813  1.00  0.00     0.010 A 
ATOM     37  C   UNL     1      -0.975   5.194  -7.350  1.00  0.00     0.010 A 
ATOM     38  C   UNL     1      -1.081   4.470  -8.545  1.00  0.00    -0.014 A 
BRANCH  38  39
ATOM     39  C   UNL     1      -2.123   4.861  -9.520  1.00  0.00     0.031 A 
ATOM     40  C   UNL     1      -2.115   6.254 -10.085  1.00  0.00     0.074 A 
ATOM     41  C   UNL     1      -3.103   3.993  -9.835  1.00  0.00     0.049 A 
ATOM     42  N   UNL     1      -2.982   6.833 -10.875  1.00  0.00    -0.248 NA
ATOM     43  C   UNL     1      -1.005   7.130  -9.672  1.00  0.00     0.031 C 
ATOM     44  C   UNL     1      -3.241   2.637  -9.299  1.00  0.00     0.029 A 
ATOM     45  N   UNL     1      -4.174   4.126 -10.680  1.00  0.00    -0.354 N 
ATOM     46  C   UNL     1      -2.533   8.137 -11.031  1.00  0.00     0.074 A 
ATOM     47  C   UNL     1      -1.364   8.291 -10.196  1.00  0.00     0.031 C 
ATOM     48  C   UNL     1      -4.312   2.051  -9.858  1.00  0.00     0.029 A 
ATOM     49  C   UNL     1      -4.957   3.001 -10.757  1.00  0.00     0.049 A 
ATOM     50  H   UNL     1      -4.364   4.951 -11.184  1.00  0.00     0.167 HD
ATOM     51  C   UNL     1      -3.027   9.109 -11.831  1.00  0.00     0.037 A 
ATOM     52  C   UNL     1      -6.071   2.771 -11.477  1.00  0.00     0.037 A 
ATOM     53  C   UNL     1      -4.166   8.931 -12.690  1.00  0.00     0.049 A 
ATOM     54  C   UNL     1      -6.596   3.866 -12.366  1.00  0.00     0.074 A 
ATOM     55  C   UNL     1      -4.723   9.827 -13.584  1.00  0.00     0.029 A 
ATOM     56  N   UNL     1      -4.917   7.766 -12.766  1.00  0.00    -0.354 N 
ATOM     57  N   UNL     1      -6.126   5.076 -12.558  1.00  0.00    -0.248 NA
ATOM     58  C   UNL     1      -7.803   3.562 -13.145  1.00  0.00     0.031 C 
ATOM     59  C   UNL     1      -5.835   9.217 -14.173  1.00  0.00     0.029 A 
ATOM     60  C   UNL     1      -5.941   7.925 -13.682  1.00  0.00     0.049 A 
ATOM     61  H   UNL     1      -4.746   6.949 -12.244  1.00  0.00     0.167 HD
ATOM     62  C   UNL     1      -6.957   5.664 -13.501  1.00  0.00     0.074 A 
ATOM     63  C   UNL     1      -7.952   4.672 -13.854  1.00  0.00     0.031 C 
ATOM     64  C   UNL     1      -6.906   6.912 -14.027  1.00  0.00     0.037 A 
BRANCH  51  65
ATOM     65  C   UNL     1      -2.325  10.436 -11.826  1.00  0.00     0.064 A 
ATOM     66  C   UNL     1      -1.032  10.585 -12.353  1.00  0.00     0.173 A 
ATOM     67  C   UNL     1      -2.955  11.576 -11.305  1.00  0.00     0.173 A 
ATOM     68  F   UNL     1      -0.378   9.523 -12.847  1.00  0.00    -0.203 F 
ATOM     69  C   UNL     1      -0.384  11.816 -12.328  1.00  0.00     0.198 A 
ATOM     70  C   UNL     1      -2.316  12.814 -11.312  1.00  0.00     0.198 A 
ATOM     71  F   UNL     1      -4.190  11.491 -10.790  1.00  0.00    -0.203 F 
ATOM     72  F   UNL     1       0.872  11.920 -12.783  1.00  0.00    -0.200 F 
ATOM     73  C   UNL     1      -1.029  12.931 -11.815  1.00  0.00     0.200 A 
ATOM     74  F   UNL     1      -2.945  13.893 -10.827  1.00  0.00    -0.200 F 
ATOM     75  F   UNL     1      -0.406  14.118 -11.797  1.00  0.00    -0.200 F 
ENDBRANCH  51  65
BRANCH  52  76
ATOM     76  C   UNL     1      -6.738   1.444 -11.422  1.00  0.00     0.064 A 
ATOM     77  C   UNL     1      -6.731   0.592 -12.536  1.00  0.00     0.173 A 
ATOM     78  C   UNL     1      -7.404   1.003 -10.270  1.00  0.00     0.173 A 
ATOM     79  F   UNL     1      -6.120   0.974 -13.667  1.00  0.00    -0.203 F 
ATOM     80  C   UNL     1      -7.389  -0.636 -12.509  1.00  0.00     0.198 A 
ATOM     81  C   UNL     1      -8.037  -0.238 -10.234  1.00  0.00     0.198 A 
ATOM     82  F   UNL     1      -7.434   1.776  -9.174  1.00  0.00    -0.203 F 
ATOM     83  F   UNL     1      -7.410  -1.407 -13.605  1.00  0.00    -0.200 F 
ATOM     84  C   UNL     1      -8.038  -1.052 -11.357  1.00  0.00     0.200 A 
ATOM     85  F   UNL     1      -8.650  -0.643  -9.114  1.00  0.00    -0.200 F 
ATOM     86  F   UNL     1      -8.671  -2.233 -11.331  1.00  0.00    -0.200 F 
ENDBRANCH  52  76
BRANCH  64  87
ATOM     87  C   UNL     1      -7.926   7.257 -15.070  1.00  0.00     0.064 A 
ATOM     88  C   UNL     1      -9.274   7.463 -14.743  1.00  0.00     0.173 A 
ATOM     89  C   UNL     1      -7.539   7.428 -16.408  1.00  0.00     0.173 A 
ATOM     90  F   UNL     1      -9.695   7.297 -13.480  1.00  0.00    -0.203 F 
ATOM     91  C   UNL     1     -10.203   7.800 -15.723  1.00  0.00     0.198 A 
ATOM     92  C   UNL     1      -8.464   7.797 -17.379  1.00  0.00     0.198 A 
ATOM     93  F   UNL     1      -6.259   7.251 -16.770  1.00  0.00    -0.203 F 
ATOM     94  F   UNL     1     -11.495   7.944 -15.397  1.00  0.00    -0.200 F 
ATOM     95  C   UNL     1      -9.796   7.975 -17.038  1.00  0.00     0.200 A 
ATOM     96  F   UNL     1      -8.066   7.981 -18.646  1.00  0.00    -0.200 F 
ATOM     97  F   UNL     1     -10.691   8.309 -17.978  1.00  0.00    -0.200 F 
ENDBRANCH  64  87
ENDBRANCH  38  39
ENDBRANCH  30  33
ENDBRANCH  28  29
ENDBRANCH  27  28
ENDBRANCH   1  27
TORSDOF 15
