REMARK SMILES O=C(NCCCCNC(=O)[C@H]1C[C@H]2CCCC[C@@H]2[N@@H+]1CC[C@@H]1CCCO1)c1ccc(-c2c3nc(c(-c4c(F)c(F)c(F)c(F)c4F)c4ccc([nH]4)c(-c4c(F)c(F)c(F)c(F)c4F)c4nc(c(-c5c(F)c(F)c(F)c(F)c5F)c5ccc2[nH]5)C=C4)C=C3)cc1
REMARK SMILES IDX 6 1 5 2 4 3 3 4 1 5 2 6 27 8 28 9 89 10 29 11 88 12 30 13
REMARK SMILES IDX 31 14 32 15 82 16 33 17 87 18 81 19 83 20 34 21 86 22 80 23
REMARK SMILES IDX 79 24 35 26 67 27 47 28 66 29 48 30 51 31 65 32 84 33 49 34
REMARK SMILES IDX 50 35 64 37 85 38 52 39 36 40 37 41 45 42 38 43 39 44 43 45
REMARK SMILES IDX 46 46 40 47 41 48 44 49 42 50 68 51 69 52 77 53 70 54 71 55
REMARK SMILES IDX 75 56 78 57 72 58 73 59 76 60 74 61 53 62 54 63 62 64 55 65
REMARK SMILES IDX 56 66 60 67 63 68 57 69 58 70 61 71 59 72 7 73 8 74 9 75
REMARK SMILES IDX 10 77 11 78 12 79 19 80 13 81 18 82 14 84 17 85 15 86 16 87
REMARK SMILES IDX 20 88 21 89 22 90 23 91 26 92 24 93 25 94
REMARK H PARENT 3 7 83 25 51 36 8 76 19 83
REMARK Flexibility Score: inf
ROOT
ATOM      1  C   UNL     1       2.887   6.694   3.972  1.00  0.00     0.023 C 
ENDROOT
BRANCH   1   2
ATOM      2  C   UNL     1       1.371   6.633   3.895  1.00  0.00     0.023 C 
BRANCH   2   3
ATOM      3  C   UNL     1       0.645   7.299   5.046  1.00  0.00     0.116 C 
BRANCH   3   4
ATOM      4  N   UNL     1       0.941   8.713   5.227  1.00  0.00    -0.352 N 
ATOM      5  O   UNL     1       0.406  10.823   5.902  1.00  0.00    -0.269 OA
ATOM      6  C   UNL     1       0.117   9.635   5.837  1.00  0.00     0.251 C 
ATOM      7  H   UNL     1       1.804   9.038   4.885  1.00  0.00     0.163 HD
BRANCH   6   8
ATOM      8  C   UNL     1      -1.161   9.134   6.377  1.00  0.00     0.039 A 
ATOM      9  C   UNL     1      -1.144   8.078   7.291  1.00  0.00     0.014 A 
ATOM     10  C   UNL     1      -2.362   9.614   5.852  1.00  0.00     0.014 A 
ATOM     11  C   UNL     1      -2.322   7.407   7.577  1.00  0.00     0.010 A 
ATOM     12  C   UNL     1      -3.560   8.998   6.221  1.00  0.00     0.010 A 
ATOM     13  C   UNL     1      -3.544   7.881   7.071  1.00  0.00    -0.014 A 
BRANCH  13  14
ATOM     14  C   UNL     1      -4.802   7.276   7.565  1.00  0.00     0.031 A 
ATOM     15  C   UNL     1      -5.733   6.530   6.657  1.00  0.00     0.074 A 
ATOM     16  C   UNL     1      -5.084   7.428   8.873  1.00  0.00     0.049 A 
ATOM     17  N   UNL     1      -6.891   5.989   6.940  1.00  0.00    -0.248 NA
ATOM     18  C   UNL     1      -5.326   6.373   5.253  1.00  0.00     0.031 C 
ATOM     19  C   UNL     1      -4.245   8.154   9.832  1.00  0.00     0.029 A 
ATOM     20  N   UNL     1      -6.138   6.985   9.626  1.00  0.00    -0.354 N 
ATOM     21  C   UNL     1      -7.364   5.453   5.750  1.00  0.00     0.074 A 
ATOM     22  C   UNL     1      -6.370   5.735   4.736  1.00  0.00     0.031 C 
ATOM     23  C   UNL     1      -4.799   8.082  11.048  1.00  0.00     0.029 A 
ATOM     24  C   UNL     1      -6.068   7.376  10.941  1.00  0.00     0.049 A 
ATOM     25  H   UNL     1      -6.873   6.441   9.262  1.00  0.00     0.167 HD
ATOM     26  C   UNL     1      -8.526   4.790   5.537  1.00  0.00     0.037 A 
ATOM     27  C   UNL     1      -6.951   7.225  11.943  1.00  0.00     0.037 A 
ATOM     28  C   UNL     1      -9.488   4.494   6.569  1.00  0.00     0.049 A 
ATOM     29  C   UNL     1      -8.236   6.507  11.663  1.00  0.00     0.074 A 
ATOM     30  C   UNL     1     -10.654   3.753   6.474  1.00  0.00     0.029 A 
ATOM     31  N   UNL     1      -9.399   4.931   7.883  1.00  0.00    -0.354 N 
ATOM     32  N   UNL     1      -8.647   5.959  10.546  1.00  0.00    -0.248 NA
ATOM     33  C   UNL     1      -9.186   6.397  12.776  1.00  0.00     0.031 C 
ATOM     34  C   UNL     1     -11.297   3.789   7.715  1.00  0.00     0.029 A 
ATOM     35  C   UNL     1     -10.511   4.513   8.597  1.00  0.00     0.049 A 
ATOM     36  H   UNL     1      -8.657   5.461   8.253  1.00  0.00     0.167 HD
ATOM     37  C   UNL     1      -9.902   5.441  10.818  1.00  0.00     0.074 A 
ATOM     38  C   UNL     1     -10.171   5.710  12.216  1.00  0.00     0.031 C 
ATOM     39  C   UNL     1     -10.762   4.810   9.983  1.00  0.00     0.037 A 
BRANCH  26  40
ATOM     40  C   UNL     1      -8.852   4.346   4.141  1.00  0.00     0.064 A 
ATOM     41  C   UNL     1      -8.224   3.241   3.551  1.00  0.00     0.173 A 
ATOM     42  C   UNL     1      -9.889   4.971   3.429  1.00  0.00     0.173 A 
ATOM     43  F   UNL     1      -7.225   2.613   4.187  1.00  0.00    -0.203 F 
ATOM     44  C   UNL     1      -8.621   2.778   2.297  1.00  0.00     0.198 A 
ATOM     45  C   UNL     1     -10.296   4.494   2.186  1.00  0.00     0.198 A 
ATOM     46  F   UNL     1     -10.526   6.029   3.953  1.00  0.00    -0.203 F 
ATOM     47  F   UNL     1      -7.998   1.728   1.745  1.00  0.00    -0.200 F 
ATOM     48  C   UNL     1      -9.662   3.398   1.621  1.00  0.00     0.200 A 
ATOM     49  F   UNL     1     -11.310   5.087   1.541  1.00  0.00    -0.200 F 
ATOM     50  F   UNL     1     -10.056   2.937   0.426  1.00  0.00    -0.200 F 
ENDBRANCH  26  40
BRANCH  27  51
ATOM     51  C   UNL     1      -6.661   7.812  13.274  1.00  0.00     0.064 A 
ATOM     52  C   UNL     1      -6.420   6.999  14.388  1.00  0.00     0.173 A 
ATOM     53  C   UNL     1      -6.604   9.204  13.454  1.00  0.00     0.173 A 
ATOM     54  F   UNL     1      -6.479   5.665  14.268  1.00  0.00    -0.203 F 
ATOM     55  C   UNL     1      -6.150   7.555  15.637  1.00  0.00     0.198 A 
ATOM     56  C   UNL     1      -6.301   9.757  14.694  1.00  0.00     0.198 A 
ATOM     57  F   UNL     1      -6.818  10.025  12.416  1.00  0.00    -0.203 F 
ATOM     58  F   UNL     1      -5.966   6.757  16.697  1.00  0.00    -0.200 F 
ATOM     59  C   UNL     1      -6.084   8.933  15.787  1.00  0.00     0.200 A 
ATOM     60  F   UNL     1      -6.217  11.088  14.829  1.00  0.00    -0.200 F 
ATOM     61  F   UNL     1      -5.816   9.466  16.987  1.00  0.00    -0.200 F 
ENDBRANCH  27  51
BRANCH  39  62
ATOM     62  C   UNL     1     -12.072   4.380  10.569  1.00  0.00     0.064 A 
ATOM     63  C   UNL     1     -13.075   5.314  10.868  1.00  0.00     0.173 A 
ATOM     64  C   UNL     1     -12.335   3.026  10.817  1.00  0.00     0.173 A 
ATOM     65  F   UNL     1     -12.859   6.623  10.667  1.00  0.00    -0.203 F 
ATOM     66  C   UNL     1     -14.286   4.909  11.418  1.00  0.00     0.198 A 
ATOM     67  C   UNL     1     -13.559   2.621  11.341  1.00  0.00     0.198 A 
ATOM     68  F   UNL     1     -11.407   2.096  10.546  1.00  0.00    -0.203 F 
ATOM     69  F   UNL     1     -15.212   5.822  11.742  1.00  0.00    -0.200 F 
ATOM     70  C   UNL     1     -14.530   3.563  11.648  1.00  0.00     0.200 A 
ATOM     71  F   UNL     1     -13.797   1.320  11.555  1.00  0.00    -0.200 F 
ATOM     72  F   UNL     1     -15.699   3.174  12.175  1.00  0.00    -0.200 F 
ENDBRANCH  39  62
ENDBRANCH  13  14
ENDBRANCH   6   8
ENDBRANCH   3   4
ENDBRANCH   2   3
ENDBRANCH   1   2
BRANCH   1  73
ATOM     73  C   UNL     1       3.517   6.117   5.245  1.00  0.00     0.116 C 
BRANCH  73  74
ATOM     74  N   UNL     1       4.080   4.795   5.069  1.00  0.00    -0.351 N 
ATOM     75  C   UNL     1       5.329   4.344   4.759  1.00  0.00     0.278 C 
ATOM     76  H   UNL     1       3.426   4.071   5.202  1.00  0.00     0.163 HD
ATOM     77  O   UNL     1       5.474   3.116   4.849  1.00  0.00    -0.268 OA
BRANCH  75  78
ATOM     78  C   UNL     1       6.532   5.228   4.307  1.00  0.00     0.274 C 
ATOM     79  C   UNL     1       6.224   6.585   3.682  1.00  0.00     0.085 C 
ATOM     80  N   UNL     1       7.454   5.526   5.449  1.00  0.00    -0.322 N 
ATOM     81  C   UNL     1       6.725   7.593   4.701  1.00  0.00     0.054 C 
ATOM     82  C   UNL     1       7.008   6.816   5.970  1.00  0.00     0.188 C 
ATOM     83  H   UNL     1       7.395   4.832   6.195  1.00  0.00     0.349 HD
ATOM     84  C   UNL     1       5.989   8.899   4.932  1.00  0.00     0.010 C 
ATOM     85  C   UNL     1       7.879   7.646   6.910  1.00  0.00     0.065 C 
ATOM     86  C   UNL     1       6.779   9.752   5.935  1.00  0.00     0.001 C 
ATOM     87  C   UNL     1       7.181   8.985   7.204  1.00  0.00     0.006 C 
BRANCH  80  88
ATOM     88  C   UNL     1       8.888   5.374   5.123  1.00  0.00     0.265 C 
BRANCH  88  89
ATOM     89  C   UNL     1       9.555   5.884   3.808  1.00  0.00     0.093 C 
BRANCH  89  90
ATOM     90  C   UNL     1      10.267   7.256   3.820  1.00  0.00     0.123 C 
ATOM     91  C   UNL     1       9.537   8.434   3.169  1.00  0.00     0.034 C 
ATOM     92  O   UNL     1      11.482   7.150   3.041  1.00  0.00    -0.378 OA
ATOM     93  C   UNL     1      10.542   9.165   2.317  1.00  0.00     0.031 C 
ATOM     94  C   UNL     1      11.840   8.473   2.629  1.00  0.00     0.160 C 
ENDBRANCH  89  90
ENDBRANCH  88  89
ENDBRANCH  80  88
ENDBRANCH  75  78
ENDBRANCH  73  74
ENDBRANCH   1  73
TORSDOF 14
