REMARK SMILES C[C@]1(C(=O)NCCCCNC(=O)c2ccc(-c3c4nc(c(-c5c(F)c(F)c(F)c(F)c5F)c5ccc([nH]5)c(-c5c(F)c(F)c(F)c(F)c5F)c5nc(c(-c6c(F)c(F)c(F)c(F)c6F)c6ccc3[nH]6)C=C5)C=C4)cc2)[NH2+]C2(C(=O)c3ccccc3C2=O)[C@@H]2C(=O)N(c3ccccc3)C(=O)[C@H]21
REMARK SMILES IDX 8 1 7 2 6 3 5 4 3 5 4 6 2 8 1 9 76 10 100 11 77 12 88 15
REMARK SMILES IDX 98 16 78 17 86 18 89 19 91 20 99 21 79 22 80 23 85 24 87 25
REMARK SMILES IDX 90 26 81 27 84 28 82 29 83 30 92 31 93 32 97 33 94 34 96 35
REMARK SMILES IDX 95 36 9 37 10 38 11 39 12 41 13 42 14 43 75 44 15 45 74 46
REMARK SMILES IDX 16 47 17 48 18 49 68 50 19 51 73 52 67 53 69 54 20 55 72 56
REMARK SMILES IDX 66 57 65 58 21 60 53 61 33 62 52 63 34 64 37 65 51 66 70 67
REMARK SMILES IDX 35 68 36 69 50 71 71 72 38 73 22 74 23 75 31 76 24 77 25 78
REMARK SMILES IDX 29 79 32 80 26 81 27 82 30 83 28 84 54 85 55 86 63 87 56 88
REMARK SMILES IDX 57 89 61 90 64 91 58 92 59 93 62 94 60 95 39 96 40 97 48 98
REMARK SMILES IDX 41 99 42 100 46 101 49 102 43 103 44 104 47 105 45 106
REMARK H PARENT 5 7 76 13 76 14 10 40 69 59 37 70
REMARK Flexibility Score: inf
ROOT
ATOM      1  C   UNL     1      -3.674   2.310  -4.559  1.00  0.00     0.023 C 
ENDROOT
BRANCH   1   2
ATOM      2  C   UNL     1      -2.231   1.925  -4.325  1.00  0.00     0.023 C 
BRANCH   2   3
ATOM      3  C   UNL     1      -1.727   2.062  -2.897  1.00  0.00     0.116 C 
BRANCH   3   4
ATOM      4  N   UNL     1      -1.803   0.949  -2.009  1.00  0.00    -0.351 N 
ATOM      5  C   UNL     1      -0.890   0.503  -1.094  1.00  0.00     0.281 C 
ATOM      6  O   UNL     1      -1.289  -0.473  -0.440  1.00  0.00    -0.268 OA
ATOM      7  H   UNL     1      -2.635   0.425  -2.062  1.00  0.00     0.163 HD
BRANCH   5   8
ATOM      8  C   UNL     1       0.564   1.117  -0.806  1.00  0.00     0.186 C 
ATOM      9  C   UNL     1       1.216   0.143   0.212  1.00  0.00     0.091 C 
ATOM     10  N   UNL     1       1.473   1.190  -2.022  1.00  0.00    -0.314 N 
ATOM     11  C   UNL     1       0.699   2.514  -0.266  1.00  0.00     0.170 C 
ATOM     12  C   UNL     1       1.745   2.652  -2.372  1.00  0.00     0.236 C 
ATOM     13  H   UNL     1       1.021   0.730  -2.812  1.00  0.00     0.348 HD
ATOM     14  H   UNL     1       2.356   0.722  -1.814  1.00  0.00     0.348 HD
ATOM     15  C   UNL     1       0.798   3.414  -1.482  1.00  0.00     0.177 C 
ATOM     16  C   UNL     1      -0.299   3.246   0.556  1.00  0.00     0.244 C 
ATOM     17  C   UNL     1       3.213   3.075  -2.249  1.00  0.00     0.232 C 
ATOM     18  C   UNL     1       1.527   2.789  -3.898  1.00  0.00     0.232 C 
ATOM     19  C   UNL     1       0.846   4.743  -0.796  1.00  0.00     0.245 C 
ATOM     20  N   UNL     1      -0.020   4.589   0.295  1.00  0.00    -0.250 N 
ATOM     21  O   UNL     1      -1.129   2.742   1.282  1.00  0.00    -0.273 OA
ATOM     22  O   UNL     1       3.904   2.998  -1.250  1.00  0.00    -0.286 OA
ATOM     23  C   UNL     1       3.675   3.578  -3.561  1.00  0.00     0.036 A 
ATOM     24  C   UNL     1       2.673   3.420  -4.500  1.00  0.00     0.036 A 
ATOM     25  O   UNL     1       0.635   2.383  -4.618  1.00  0.00    -0.286 OA
ATOM     26  O   UNL     1       1.372   5.740  -1.256  1.00  0.00    -0.273 OA
ATOM     27  C   UNL     1       4.890   4.105  -3.952  1.00  0.00     0.013 A 
ATOM     28  C   UNL     1       2.802   3.753  -5.838  1.00  0.00     0.013 A 
ATOM     29  C   UNL     1       5.052   4.463  -5.304  1.00  0.00     0.001 A 
ATOM     30  C   UNL     1       4.016   4.288  -6.241  1.00  0.00     0.001 A 
BRANCH  20  31
ATOM     31  C   UNL     1      -0.760   5.617   0.911  1.00  0.00     0.052 A 
ATOM     32  C   UNL     1      -0.905   5.643   2.305  1.00  0.00     0.027 A 
ATOM     33  C   UNL     1      -1.486   6.524   0.130  1.00  0.00     0.027 A 
ATOM     34  C   UNL     1      -1.754   6.571   2.911  1.00  0.00     0.002 A 
ATOM     35  C   UNL     1      -2.379   7.412   0.738  1.00  0.00     0.002 A 
ATOM     36  C   UNL     1      -2.506   7.442   2.126  1.00  0.00     0.000 A 
ENDBRANCH  20  31
ENDBRANCH   5   8
ENDBRANCH   3   4
ENDBRANCH   2   3
ENDBRANCH   1   2
BRANCH   1  37
ATOM     37  C   UNL     1      -4.074   3.666  -3.992  1.00  0.00     0.116 C 
BRANCH  37  38
ATOM     38  N   UNL     1      -3.406   4.825  -4.590  1.00  0.00    -0.352 N 
ATOM     39  C   UNL     1      -3.936   5.880  -5.310  1.00  0.00     0.251 C 
ATOM     40  H   UNL     1      -2.430   4.858  -4.460  1.00  0.00     0.163 HD
ATOM     41  O   UNL     1      -3.220   6.770  -5.753  1.00  0.00    -0.269 OA
BRANCH  39  42
ATOM     42  C   UNL     1      -5.383   5.873  -5.607  1.00  0.00     0.039 A 
ATOM     43  C   UNL     1      -6.284   5.595  -4.588  1.00  0.00     0.014 A 
ATOM     44  C   UNL     1      -5.808   5.931  -6.936  1.00  0.00     0.014 A 
ATOM     45  C   UNL     1      -7.502   5.027  -4.925  1.00  0.00     0.010 A 
ATOM     46  C   UNL     1      -7.108   5.527  -7.255  1.00  0.00     0.010 A 
ATOM     47  C   UNL     1      -7.930   4.971  -6.263  1.00  0.00    -0.014 A 
BRANCH  47  48
ATOM     48  C   UNL     1      -9.218   4.296  -6.586  1.00  0.00     0.031 A 
ATOM     49  C   UNL     1      -9.280   3.138  -7.552  1.00  0.00     0.074 A 
ATOM     50  C   UNL     1     -10.335   4.685  -5.941  1.00  0.00     0.049 A 
ATOM     51  N   UNL     1     -10.325   2.457  -7.957  1.00  0.00    -0.248 NA
ATOM     52  C   UNL     1      -8.014   2.689  -8.153  1.00  0.00     0.031 C 
ATOM     53  C   UNL     1     -10.404   5.777  -4.968  1.00  0.00     0.029 A 
ATOM     54  N   UNL     1     -11.613   4.190  -5.973  1.00  0.00    -0.354 N 
ATOM     55  C   UNL     1      -9.852   1.542  -8.890  1.00  0.00     0.074 A 
ATOM     56  C   UNL     1      -8.427   1.761  -9.005  1.00  0.00     0.031 C 
ATOM     57  C   UNL     1     -11.631   5.817  -4.437  1.00  0.00     0.029 A 
ATOM     58  C   UNL     1     -12.467   4.831  -5.110  1.00  0.00     0.049 A 
ATOM     59  H   UNL     1     -11.892   3.448  -6.557  1.00  0.00     0.167 HD
ATOM     60  C   UNL     1     -10.543   0.602  -9.580  1.00  0.00     0.037 A 
ATOM     61  C   UNL     1     -13.786   4.676  -4.901  1.00  0.00     0.037 A 
ATOM     62  C   UNL     1     -11.954   0.354  -9.420  1.00  0.00     0.049 A 
ATOM     63  C   UNL     1     -14.534   3.650  -5.695  1.00  0.00     0.074 A 
ATOM     64  C   UNL     1     -12.734  -0.611 -10.034  1.00  0.00     0.029 A 
ATOM     65  N   UNL     1     -12.796   1.073  -8.583  1.00  0.00    -0.354 N 
ATOM     66  N   UNL     1     -14.075   2.800  -6.580  1.00  0.00    -0.248 NA
ATOM     67  C   UNL     1     -15.983   3.573  -5.476  1.00  0.00     0.031 C 
ATOM     68  C   UNL     1     -14.057  -0.438  -9.613  1.00  0.00     0.029 A 
ATOM     69  C   UNL     1     -14.093   0.596  -8.692  1.00  0.00     0.049 A 
ATOM     70  H   UNL     1     -12.513   1.813  -7.998  1.00  0.00     0.167 HD
ATOM     71  C   UNL     1     -15.176   2.088  -7.029  1.00  0.00     0.074 A 
ATOM     72  C   UNL     1     -16.323   2.587  -6.295  1.00  0.00     0.031 C 
ATOM     73  C   UNL     1     -15.229   1.114  -7.970  1.00  0.00     0.037 A 
BRANCH  60  74
ATOM     74  C   UNL     1      -9.798  -0.217 -10.599  1.00  0.00     0.064 A 
ATOM     75  C   UNL     1      -8.860  -1.193 -10.232  1.00  0.00     0.173 A 
ATOM     76  C   UNL     1     -10.071  -0.057 -11.967  1.00  0.00     0.173 A 
ATOM     77  F   UNL     1      -8.555  -1.384  -8.940  1.00  0.00    -0.203 F 
ATOM     78  C   UNL     1      -8.205  -1.958 -11.196  1.00  0.00     0.198 A 
ATOM     79  C   UNL     1      -9.437  -0.844 -12.926  1.00  0.00     0.198 A 
ATOM     80  F   UNL     1     -10.967   0.855 -12.376  1.00  0.00    -0.203 F 
ATOM     81  F   UNL     1      -7.279  -2.853 -10.823  1.00  0.00    -0.200 F 
ATOM     82  C   UNL     1      -8.499  -1.788 -12.540  1.00  0.00     0.200 A 
ATOM     83  F   UNL     1      -9.736  -0.689 -14.223  1.00  0.00    -0.200 F 
ATOM     84  F   UNL     1      -7.875  -2.531 -13.465  1.00  0.00    -0.200 F 
ENDBRANCH  60  74
BRANCH  61  85
ATOM     85  C   UNL     1     -14.458   5.547  -3.904  1.00  0.00     0.064 A 
ATOM     86  C   UNL     1     -14.895   5.031  -2.678  1.00  0.00     0.173 A 
ATOM     87  C   UNL     1     -14.581   6.929  -4.116  1.00  0.00     0.173 A 
ATOM     88  F   UNL     1     -14.812   3.715  -2.438  1.00  0.00    -0.203 F 
ATOM     89  C   UNL     1     -15.418   5.868  -1.695  1.00  0.00     0.198 A 
ATOM     90  C   UNL     1     -15.073   7.769  -3.120  1.00  0.00     0.198 A 
ATOM     91  F   UNL     1     -14.163   7.471  -5.269  1.00  0.00    -0.203 F 
ATOM     92  F   UNL     1     -15.838   5.351  -0.532  1.00  0.00    -0.200 F 
ATOM     93  C   UNL     1     -15.491   7.237  -1.910  1.00  0.00     0.200 A 
ATOM     94  F   UNL     1     -15.115   9.092  -3.323  1.00  0.00    -0.200 F 
ATOM     95  F   UNL     1     -15.958   8.045  -0.949  1.00  0.00    -0.200 F 
ENDBRANCH  61  85
BRANCH  73  96
ATOM     96  C   UNL     1     -16.575   0.522  -8.270  1.00  0.00     0.064 A 
ATOM     97  C   UNL     1     -17.544   1.241  -8.985  1.00  0.00     0.173 A 
ATOM     98  C   UNL     1     -16.876  -0.795  -7.894  1.00  0.00     0.173 A 
ATOM     99  F   UNL     1     -17.309   2.510  -9.352  1.00  0.00    -0.203 F 
ATOM    100  C   UNL     1     -18.773   0.667  -9.299  1.00  0.00     0.198 A 
ATOM    101  C   UNL     1     -18.094  -1.376  -8.236  1.00  0.00     0.198 A 
ATOM    102  F   UNL     1     -15.981  -1.526  -7.213  1.00  0.00    -0.203 F 
ATOM    103  F   UNL     1     -19.699   1.384  -9.950  1.00  0.00    -0.200 F 
ATOM    104  C   UNL     1     -19.043  -0.644  -8.933  1.00  0.00     0.200 A 
ATOM    105  F   UNL     1     -18.348  -2.647  -7.894  1.00  0.00    -0.200 F 
ATOM    106  F   UNL     1     -20.220  -1.200  -9.250  1.00  0.00    -0.200 F 
ENDBRANCH  73  96
ENDBRANCH  47  48
ENDBRANCH  39  42
ENDBRANCH  37  38
ENDBRANCH   1  37
TORSDOF 12
