REMARK SMILES [NH3+][C@@H](CCCCC(=O)NCCCCNC(=O)c1ccc(-c2c3nc(c(-c4c(F)c(F)c(F)c(F)c4F)c4ccc([nH]4)c(-c4c(F)c(F)c(F)c(F)c4F)c4nc(c(-c5c(F)c(F)c(F)c(F)c5F)c5ccc2[nH]5)C=C4)C=C3)cc1)c1ccc(-c2ccccc2)cc1
REMARK SMILES IDX 7 1 8 2 9 3 6 5 5 6 4 7 3 8 2 9 1 10 80 14 81 15 91 16 82 17
REMARK SMILES IDX 90 18 83 19 84 20 85 21 89 22 86 23 88 24 87 25 10 26 11 27
REMARK SMILES IDX 12 28 13 29 14 30 15 31 16 33 17 34 18 35 79 36 19 37 78 38
REMARK SMILES IDX 20 39 21 40 22 41 72 42 23 43 77 44 71 45 73 46 24 47 76 48
REMARK SMILES IDX 70 49 69 50 25 52 57 53 37 54 56 55 38 56 41 57 55 58 74 59
REMARK SMILES IDX 39 60 40 61 54 63 75 64 42 65 26 66 27 67 35 68 28 69 29 70
REMARK SMILES IDX 33 71 36 72 30 73 31 74 34 75 32 76 58 77 59 78 67 79 60 80
REMARK SMILES IDX 61 81 65 82 68 83 62 84 63 85 66 86 64 87 43 88 44 89 52 90
REMARK SMILES IDX 45 91 46 92 50 93 53 94 47 95 48 96 51 97 49 98
REMARK H PARENT 9 4 1 11 1 12 1 13 14 32 73 51 41 62
REMARK Flexibility Score: inf
ROOT
ATOM      1  C   UNL     1      -1.028  -3.543  -4.147  1.00  0.00     0.219 C 
ATOM      2  O   UNL     1      -1.887  -4.362  -4.474  1.00  0.00    -0.275 OA
ATOM      3  N   UNL     1       0.220  -3.659  -4.683  1.00  0.00    -0.356 N 
ATOM      4  H   UNL     1       0.331  -4.360  -5.365  1.00  0.00     0.163 HD
ENDROOT
BRANCH   1   5
ATOM      5  C   UNL     1      -1.335  -2.409  -3.184  1.00  0.00     0.100 C 
BRANCH   5   6
ATOM      6  C   UNL     1      -0.903  -2.683  -1.742  1.00  0.00     0.010 C 
BRANCH   6   7
ATOM      7  C   UNL     1       0.273  -1.897  -1.120  1.00  0.00     0.007 C 
BRANCH   7   8
ATOM      8  C   UNL     1       0.556  -0.448  -1.556  1.00  0.00     0.070 C 
BRANCH   8   9
ATOM      9  C   UNL     1       0.066   0.693  -0.634  1.00  0.00     0.211 C 
BRANCH   9  10
ATOM     10  N   UNL     1       0.675   0.645   0.694  1.00  0.00    -0.351 N 
ATOM     11  H   UNL     1       1.689   0.585   0.602  1.00  0.00     0.345 HD
ATOM     12  H   UNL     1       0.330  -0.172   1.198  1.00  0.00     0.345 HD
ATOM     13  H   UNL     1       0.430   1.490   1.210  1.00  0.00     0.345 HD
ENDBRANCH   9  10
BRANCH   9  14
ATOM     14  C   UNL     1      -1.443   0.783  -0.584  1.00  0.00     0.009 A 
ATOM     15  C   UNL     1      -2.112   1.800  -1.273  1.00  0.00     0.010 A 
ATOM     16  C   UNL     1      -2.216  -0.168   0.086  1.00  0.00     0.010 A 
ATOM     17  C   UNL     1      -3.512   1.823  -1.339  1.00  0.00     0.009 A 
ATOM     18  C   UNL     1      -3.608  -0.173  -0.026  1.00  0.00     0.009 A 
ATOM     19  C   UNL     1      -4.293   0.815  -0.750  1.00  0.00    -0.018 A 
BRANCH  19  20
ATOM     20  C   UNL     1      -5.768   0.766  -0.899  1.00  0.00    -0.018 A 
ATOM     21  C   UNL     1      -6.410   1.258  -2.050  1.00  0.00     0.009 A 
ATOM     22  C   UNL     1      -6.587   0.187   0.090  1.00  0.00     0.009 A 
ATOM     23  C   UNL     1      -7.798   1.171  -2.208  1.00  0.00     0.001 A 
ATOM     24  C   UNL     1      -7.971   0.082  -0.071  1.00  0.00     0.001 A 
ATOM     25  C   UNL     1      -8.577   0.576  -1.221  1.00  0.00     0.000 A 
ENDBRANCH  19  20
ENDBRANCH   9  14
ENDBRANCH   8   9
ENDBRANCH   7   8
ENDBRANCH   6   7
ENDBRANCH   5   6
ENDBRANCH   1   5
BRANCH   3  26
ATOM     26  C   UNL     1       1.400  -2.884  -4.378  1.00  0.00     0.116 C 
BRANCH  26  27
ATOM     27  C   UNL     1       2.240  -3.574  -3.306  1.00  0.00     0.023 C 
BRANCH  27  28
ATOM     28  C   UNL     1       3.202  -4.632  -3.820  1.00  0.00     0.023 C 
BRANCH  28  29
ATOM     29  C   UNL     1       4.282  -4.103  -4.748  1.00  0.00     0.116 C 
BRANCH  29  30
ATOM     30  N   UNL     1       5.101  -3.042  -4.169  1.00  0.00    -0.352 N 
ATOM     31  C   UNL     1       6.459  -2.857  -4.301  1.00  0.00     0.251 C 
ATOM     32  H   UNL     1       4.625  -2.380  -3.617  1.00  0.00     0.163 HD
ATOM     33  O   UNL     1       7.042  -1.954  -3.713  1.00  0.00    -0.269 OA
BRANCH  31  34
ATOM     34  C   UNL     1       7.203  -3.823  -5.129  1.00  0.00     0.039 A 
ATOM     35  C   UNL     1       8.198  -4.596  -4.528  1.00  0.00     0.014 A 
ATOM     36  C   UNL     1       6.772  -4.085  -6.431  1.00  0.00     0.014 A 
ATOM     37  C   UNL     1       8.680  -5.720  -5.197  1.00  0.00     0.010 A 
ATOM     38  C   UNL     1       7.190  -5.251  -7.056  1.00  0.00     0.010 A 
ATOM     39  C   UNL     1       8.126  -6.094  -6.433  1.00  0.00    -0.014 A 
BRANCH  39  40
ATOM     40  C   UNL     1       8.460  -7.388  -7.076  1.00  0.00     0.031 A 
ATOM     41  C   UNL     1       9.089  -7.400  -8.439  1.00  0.00     0.074 A 
ATOM     42  C   UNL     1       8.081  -8.542  -6.490  1.00  0.00     0.049 A 
ATOM     43  N   UNL     1       9.311  -8.412  -9.237  1.00  0.00    -0.248 NA
ATOM     44  C   UNL     1       9.481  -6.096  -8.997  1.00  0.00     0.031 C 
ATOM     45  C   UNL     1       7.393  -8.656  -5.202  1.00  0.00     0.029 A 
ATOM     46  N   UNL     1       8.197  -9.842  -6.917  1.00  0.00    -0.354 N 
ATOM     47  C   UNL     1       9.831  -7.864 -10.400  1.00  0.00     0.074 A 
ATOM     48  C   UNL     1       9.860  -6.429 -10.222  1.00  0.00     0.031 C 
ATOM     49  C   UNL     1       7.160  -9.953  -4.939  1.00  0.00     0.029 A 
ATOM     50  C   UNL     1       7.647 -10.758  -6.054  1.00  0.00     0.049 A 
ATOM     51  H   UNL     1       8.634 -10.094  -7.763  1.00  0.00     0.167 HD
ATOM     52  C   UNL     1      10.265  -8.505 -11.510  1.00  0.00     0.037 A 
ATOM     53  C   UNL     1       7.533 -12.096  -6.159  1.00  0.00     0.037 A 
ATOM     54  C   UNL     1      10.302  -9.934 -11.656  1.00  0.00     0.049 A 
ATOM     55  C   UNL     1       8.066 -12.784  -7.385  1.00  0.00     0.074 A 
ATOM     56  C   UNL     1      10.844 -10.681 -12.686  1.00  0.00     0.029 A 
ATOM     57  N   UNL     1       9.778 -10.833 -10.739  1.00  0.00    -0.354 N 
ATOM     58  N   UNL     1       8.638 -12.260  -8.441  1.00  0.00    -0.248 NA
ATOM     59  C   UNL     1       7.936 -14.247  -7.436  1.00  0.00     0.031 C 
ATOM     60  C   UNL     1      10.621 -12.033 -12.408  1.00  0.00     0.029 A 
ATOM     61  C   UNL     1       9.964 -12.128 -11.192  1.00  0.00     0.049 A 
ATOM     62  H   UNL     1       9.340 -10.586  -9.892  1.00  0.00     0.167 HD
ATOM     63  C   UNL     1       8.946 -13.326  -9.274  1.00  0.00     0.074 A 
ATOM     64  C   UNL     1       8.516 -14.529  -8.594  1.00  0.00     0.031 C 
ATOM     65  C   UNL     1       9.528 -13.310 -10.497  1.00  0.00     0.037 A 
BRANCH  52  66
ATOM     66  C   UNL     1      10.758  -7.668 -12.649  1.00  0.00     0.064 A 
ATOM     67  C   UNL     1      11.994  -7.010 -12.594  1.00  0.00     0.173 A 
ATOM     68  C   UNL     1      10.007  -7.566 -13.830  1.00  0.00     0.173 A 
ATOM     69  F   UNL     1      12.740  -7.067 -11.480  1.00  0.00    -0.203 F 
ATOM     70  C   UNL     1      12.456  -6.265 -13.675  1.00  0.00     0.198 A 
ATOM     71  C   UNL     1      10.482  -6.839 -14.917  1.00  0.00     0.198 A 
ATOM     72  F   UNL     1       8.818  -8.178 -13.931  1.00  0.00    -0.203 F 
ATOM     73  F   UNL     1      13.625  -5.615 -13.589  1.00  0.00    -0.200 F 
ATOM     74  C   UNL     1      11.704  -6.186 -14.838  1.00  0.00     0.200 A 
ATOM     75  F   UNL     1       9.758  -6.769 -16.043  1.00  0.00    -0.200 F 
ATOM     76  F   UNL     1      12.154  -5.476 -15.882  1.00  0.00    -0.200 F 
ENDBRANCH  52  66
BRANCH  53  77
ATOM     77  C   UNL     1       6.890 -12.880  -5.073  1.00  0.00     0.064 A 
ATOM     78  C   UNL     1       7.652 -13.712  -4.241  1.00  0.00     0.173 A 
ATOM     79  C   UNL     1       5.505 -12.833  -4.859  1.00  0.00     0.173 A 
ATOM     80  F   UNL     1       8.978 -13.806  -4.424  1.00  0.00    -0.203 F 
ATOM     81  C   UNL     1       7.051 -14.485  -3.251  1.00  0.00     0.198 A 
ATOM     82  C   UNL     1       4.908 -13.589  -3.853  1.00  0.00     0.198 A 
ATOM     83  F   UNL     1       4.733 -12.050  -5.626  1.00  0.00    -0.203 F 
ATOM     84  F   UNL     1       7.797 -15.307  -2.500  1.00  0.00    -0.200 F 
ATOM     85  C   UNL     1       5.680 -14.421  -3.055  1.00  0.00     0.200 A 
ATOM     86  F   UNL     1       3.584 -13.518  -3.660  1.00  0.00    -0.200 F 
ATOM     87  F   UNL     1       5.101 -15.168  -2.104  1.00  0.00    -0.200 F 
ENDBRANCH  53  77
BRANCH  65  88
ATOM     88  C   UNL     1       9.741 -14.630 -11.172  1.00  0.00     0.064 A 
ATOM     89  C   UNL     1       8.676 -15.320 -11.768  1.00  0.00     0.173 A 
ATOM     90  C   UNL     1      11.025 -15.184 -11.267  1.00  0.00     0.173 A 
ATOM     91  F   UNL     1       7.428 -14.835 -11.687  1.00  0.00    -0.203 F 
ATOM     92  C   UNL     1       8.889 -16.527 -12.427  1.00  0.00     0.198 A 
ATOM     93  C   UNL     1      11.238 -16.380 -11.945  1.00  0.00     0.198 A 
ATOM     94  F   UNL     1      12.074 -14.557 -10.714  1.00  0.00    -0.203 F 
ATOM     95  F   UNL     1       7.853 -17.187 -12.963  1.00  0.00    -0.200 F 
ATOM     96  C   UNL     1      10.169 -17.052 -12.521  1.00  0.00     0.200 A 
ATOM     97  F   UNL     1      12.476 -16.881 -12.044  1.00  0.00    -0.200 F 
ATOM     98  F   UNL     1      10.374 -18.210 -13.164  1.00  0.00    -0.200 F 
ENDBRANCH  65  88
ENDBRANCH  39  40
ENDBRANCH  31  34
ENDBRANCH  29  30
ENDBRANCH  28  29
ENDBRANCH  27  28
ENDBRANCH  26  27
ENDBRANCH   3  26
TORSDOF 18
