REMARK SMILES CC1=C2C(=O)N(C[C@H]3CCCO3)C(=O)N=C2S[C@@H]1C(=O)NCCCCNC(=O)c1ccc(-c2c3nc(c(-c4c(F)c(F)c(F)c(F)c4F)c4ccc([nH]4)c(-c4c(F)c(F)c(F)c(F)c4F)c4nc(c(-c5c(F)c(F)c(F)c(F)c5F)c5ccc2[nH]5)C=C4)C=C3)cc1
REMARK SMILES IDX 23 1 22 2 21 3 19 4 20 5 18 7 1 8 2 9 3 10 4 11 16 12 17 13
REMARK SMILES IDX 5 14 6 15 15 16 13 17 14 18 7 19 8 20 9 21 12 22 10 23 11 24
REMARK SMILES IDX 24 25 25 26 26 27 27 28 28 30 29 31 30 32 91 33 31 34 90 35
REMARK SMILES IDX 32 36 33 37 34 38 84 39 35 40 89 41 83 42 85 43 36 44 88 45
REMARK SMILES IDX 82 46 81 47 37 49 69 50 49 51 68 52 50 53 53 54 67 55 86 56
REMARK SMILES IDX 51 57 52 58 66 60 87 61 54 62 38 63 39 64 47 65 40 66 41 67
REMARK SMILES IDX 45 68 48 69 42 70 43 71 46 72 44 73 70 74 71 75 79 76 72 77
REMARK SMILES IDX 73 78 77 79 80 80 74 81 75 82 78 83 76 84 55 85 56 86 64 87
REMARK SMILES IDX 57 88 58 89 62 90 65 91 59 92 60 93 63 94 61 95
REMARK H PARENT 21 6 26 29 85 48 53 59
REMARK Flexibility Score: inf
ROOT
ATOM      1  C   UNL     1      10.487   0.182   1.302  1.00  0.00     0.023 C 
ENDROOT
BRANCH   1   2
ATOM      2  C   UNL     1       9.480   0.616   0.242  1.00  0.00     0.116 C 
BRANCH   2   3
ATOM      3  N   UNL     1      10.128   1.240  -0.895  1.00  0.00    -0.355 N 
ATOM      4  C   UNL     1      10.349   0.789  -2.163  1.00  0.00     0.237 C 
ATOM      5  O   UNL     1      10.950   1.553  -2.927  1.00  0.00    -0.273 OA
ATOM      6  H   UNL     1      10.468   2.147  -0.721  1.00  0.00     0.163 HD
BRANCH   4   7
ATOM      7  C   UNL     1       9.832  -0.560  -2.681  1.00  0.00     0.169 C 
ATOM      8  C   UNL     1       7.441   0.271  -3.218  1.00  0.00     0.042 C 
ATOM      9  C   UNL     1       8.344  -0.730  -2.570  1.00  0.00    -0.035 C 
ATOM     10  C   UNL     1       7.938  -1.815  -1.896  1.00  0.00     0.073 C 
ATOM     11  C   UNL     1       6.587  -2.236  -1.548  1.00  0.00     0.264 C 
ATOM     12  C   UNL     1       9.015  -2.661  -1.422  1.00  0.00     0.116 C 
ATOM     13  S   UNL     1      10.571  -1.973  -1.788  1.00  0.00    -0.087 SA
ATOM     14  O   UNL     1       5.686  -1.416  -1.441  1.00  0.00    -0.268 OA
ATOM     15  N   UNL     1       6.512  -3.579  -1.280  1.00  0.00    -0.256 N 
ATOM     16  N   UNL     1       8.858  -3.766  -0.801  1.00  0.00    -0.186 NA
ATOM     17  C   UNL     1       7.576  -4.262  -0.668  1.00  0.00     0.351 C 
ATOM     18  O   UNL     1       7.382  -5.291  -0.037  1.00  0.00    -0.246 OA
BRANCH  15  19
ATOM     19  C   UNL     1       5.339  -4.357  -1.677  1.00  0.00     0.163 C 
BRANCH  19  20
ATOM     20  C   UNL     1       3.907  -3.832  -1.439  1.00  0.00     0.138 C 
ATOM     21  C   UNL     1       3.353  -2.789  -2.403  1.00  0.00     0.036 C 
ATOM     22  O   UNL     1       3.026  -4.969  -1.673  1.00  0.00    -0.376 OA
ATOM     23  C   UNL     1       2.983  -3.596  -3.617  1.00  0.00     0.031 C 
ATOM     24  C   UNL     1       2.481  -4.881  -3.003  1.00  0.00     0.160 C 
ENDBRANCH  19  20
ENDBRANCH  15  19
ENDBRANCH   4   7
ENDBRANCH   2   3
ENDBRANCH   1   2
BRANCH   1  25
ATOM     25  C   UNL     1      11.094   1.337   2.099  1.00  0.00     0.023 C 
BRANCH  25  26
ATOM     26  C   UNL     1      10.086   2.234   2.811  1.00  0.00     0.116 C 
BRANCH  26  27
ATOM     27  N   UNL     1       9.202   1.511   3.711  1.00  0.00    -0.352 N 
ATOM     28  C   UNL     1       8.703   1.914   4.927  1.00  0.00     0.251 C 
ATOM     29  H   UNL     1       8.924   0.616   3.410  1.00  0.00     0.163 HD
ATOM     30  O   UNL     1       8.040   1.146   5.615  1.00  0.00    -0.269 OA
BRANCH  28  31
ATOM     31  C   UNL     1       9.012   3.270   5.420  1.00  0.00     0.039 A 
ATOM     32  C   UNL     1       9.536   3.413   6.707  1.00  0.00     0.014 A 
ATOM     33  C   UNL     1       8.823   4.388   4.602  1.00  0.00     0.014 A 
ATOM     34  C   UNL     1       9.943   4.672   7.149  1.00  0.00     0.010 A 
ATOM     35  C   UNL     1       9.284   5.632   5.021  1.00  0.00     0.010 A 
ATOM     36  C   UNL     1       9.855   5.783   6.294  1.00  0.00    -0.014 A 
BRANCH  36  37
ATOM     37  C   UNL     1      10.369   7.111   6.706  1.00  0.00     0.031 A 
ATOM     38  C   UNL     1       9.421   8.259   6.897  1.00  0.00     0.074 A 
ATOM     39  C   UNL     1      11.697   7.299   6.832  1.00  0.00     0.049 A 
ATOM     40  N   UNL     1       9.684   9.513   7.165  1.00  0.00    -0.248 NA
ATOM     41  C   UNL     1       7.989   7.965   6.738  1.00  0.00     0.031 C 
ATOM     42  C   UNL     1      12.721   6.273   6.621  1.00  0.00     0.029 A 
ATOM     43  N   UNL     1      12.415   8.424   7.151  1.00  0.00    -0.354 N 
ATOM     44  C   UNL     1       8.456  10.159   7.185  1.00  0.00     0.074 A 
ATOM     45  C   UNL     1       7.450   9.168   6.865  1.00  0.00     0.031 C 
ATOM     46  C   UNL     1      13.933   6.813   6.831  1.00  0.00     0.029 A 
ATOM     47  C   UNL     1      13.774   8.226   7.159  1.00  0.00     0.049 A 
ATOM     48  H   UNL     1      11.995   9.291   7.354  1.00  0.00     0.167 HD
ATOM     49  C   UNL     1       8.191  11.456   7.465  1.00  0.00     0.037 A 
ATOM     50  C   UNL     1      14.777   9.091   7.399  1.00  0.00     0.037 A 
ATOM     51  C   UNL     1       9.188  12.430   7.821  1.00  0.00     0.049 A 
ATOM     52  C   UNL     1      14.452  10.521   7.732  1.00  0.00     0.074 A 
ATOM     53  C   UNL     1       9.012  13.752   8.189  1.00  0.00     0.029 A 
ATOM     54  N   UNL     1      10.552  12.182   7.859  1.00  0.00    -0.354 N 
ATOM     55  N   UNL     1      13.282  11.105   7.810  1.00  0.00    -0.248 NA
ATOM     56  C   UNL     1      15.588  11.409   8.017  1.00  0.00     0.031 C 
ATOM     57  C   UNL     1      10.272  14.314   8.420  1.00  0.00     0.029 A 
ATOM     58  C   UNL     1      11.230  13.332   8.230  1.00  0.00     0.049 A 
ATOM     59  H   UNL     1      10.976  11.318   7.651  1.00  0.00     0.167 HD
ATOM     60  C   UNL     1      13.536  12.420   8.175  1.00  0.00     0.074 A 
ATOM     61  C   UNL     1      14.972  12.545   8.315  1.00  0.00     0.031 C 
ATOM     62  C   UNL     1      12.659  13.433   8.375  1.00  0.00     0.037 A 
BRANCH  49  63
ATOM     63  C   UNL     1       6.760  11.898   7.407  1.00  0.00     0.064 A 
ATOM     64  C   UNL     1       5.835  11.518   8.392  1.00  0.00     0.173 A 
ATOM     65  C   UNL     1       6.317  12.743   6.379  1.00  0.00     0.173 A 
ATOM     66  F   UNL     1       6.208  10.700   9.387  1.00  0.00    -0.203 F 
ATOM     67  C   UNL     1       4.513  11.950   8.336  1.00  0.00     0.198 A 
ATOM     68  C   UNL     1       5.000  13.194   6.341  1.00  0.00     0.198 A 
ATOM     69  F   UNL     1       7.162  13.138   5.416  1.00  0.00    -0.203 F 
ATOM     70  F   UNL     1       3.638  11.542   9.265  1.00  0.00    -0.200 F 
ATOM     71  C   UNL     1       4.098  12.793   7.316  1.00  0.00     0.200 A 
ATOM     72  F   UNL     1       4.602  14.015   5.360  1.00  0.00    -0.200 F 
ATOM     73  F   UNL     1       2.827  13.213   7.268  1.00  0.00    -0.200 F 
ENDBRANCH  49  63
BRANCH  50  74
ATOM     74  C   UNL     1      16.185   8.622   7.360  1.00  0.00     0.064 A 
ATOM     75  C   UNL     1      16.930   8.491   8.540  1.00  0.00     0.173 A 
ATOM     76  C   UNL     1      16.815   8.303   6.149  1.00  0.00     0.173 A 
ATOM     77  F   UNL     1      16.374   8.805   9.720  1.00  0.00    -0.203 F 
ATOM     78  C   UNL     1      18.259   8.076   8.509  1.00  0.00     0.198 A 
ATOM     79  C   UNL     1      18.138   7.865   6.121  1.00  0.00     0.198 A 
ATOM     80  F   UNL     1      16.143   8.409   4.994  1.00  0.00    -0.203 F 
ATOM     81  F   UNL     1      18.961   7.999   9.648  1.00  0.00    -0.200 F 
ATOM     82  C   UNL     1      18.861   7.759   7.300  1.00  0.00     0.200 A 
ATOM     83  F   UNL     1      18.713   7.550   4.953  1.00  0.00    -0.200 F 
ATOM     84  F   UNL     1      20.139   7.360   7.271  1.00  0.00    -0.200 F 
ENDBRANCH  50  74
BRANCH  62  85
ATOM     85  C   UNL     1      13.225  14.755   8.796  1.00  0.00     0.064 A 
ATOM     86  C   UNL     1      13.892  15.589   7.888  1.00  0.00     0.173 A 
ATOM     87  C   UNL     1      13.061  15.210  10.113  1.00  0.00     0.173 A 
ATOM     88  F   UNL     1      14.087  15.189   6.622  1.00  0.00    -0.203 F 
ATOM     89  C   UNL     1      14.393  16.824   8.289  1.00  0.00     0.198 A 
ATOM     90  C   UNL     1      13.542  16.456  10.504  1.00  0.00     0.198 A 
ATOM     91  F   UNL     1      12.425  14.449  11.017  1.00  0.00    -0.203 F 
ATOM     92  F   UNL     1      15.062  17.589   7.415  1.00  0.00    -0.200 F 
ATOM     93  C   UNL     1      14.212  17.259   9.594  1.00  0.00     0.200 A 
ATOM     94  F   UNL     1      13.358  16.879  11.762  1.00  0.00    -0.200 F 
ATOM     95  F   UNL     1      14.690  18.451   9.976  1.00  0.00    -0.200 F 
ENDBRANCH  62  85
ENDBRANCH  36  37
ENDBRANCH  28  31
ENDBRANCH  26  27
ENDBRANCH  25  26
ENDBRANCH   1  25
TORSDOF 13
