REMARK SMILES Cc1noc(C)c1[C@@H](C)NC(=O)N[C@H](CO)C(=O)NCCCCNC(=O)c1ccc(-c2c3nc(c(-c4c(F)c(F)c(F)c(F)c4F)c4ccc([nH]4)c(-c4c(F)c(F)c(F)c(F)c4F)c4nc(c(-c5c(F)c(F)c(F)c(F)c5F)c5ccc2[nH]5)C=C4)C=C3)cc1
REMARK SMILES IDX 21 1 20 2 19 3 17 4 18 5 14 7 13 8 10 9 11 10 12 12 8 14
REMARK SMILES IDX 9 15 7 16 1 17 2 18 3 19 4 20 5 21 6 22 15 23 16 24 22 26
REMARK SMILES IDX 23 27 24 28 25 29 26 31 27 32 28 33 89 34 29 35 88 36 30 37
REMARK SMILES IDX 31 38 32 39 82 40 33 41 87 42 81 43 83 44 34 45 86 46 80 47
REMARK SMILES IDX 79 48 35 50 67 51 47 52 66 53 48 54 51 55 65 56 84 57 49 58
REMARK SMILES IDX 50 59 64 61 85 62 52 63 36 64 37 65 45 66 38 67 39 68 43 69
REMARK SMILES IDX 46 70 40 71 41 72 44 73 42 74 68 75 69 76 77 77 70 78 71 79
REMARK SMILES IDX 75 80 78 81 72 82 73 83 76 84 74 85 53 86 54 87 62 88 55 89
REMARK SMILES IDX 56 90 60 91 63 92 57 93 58 94 61 95 59 96
REMARK H PARENT 19 6 10 11 13 13 16 25 24 30 83 49 51 60
REMARK Flexibility Score: inf
ROOT
ATOM      1  C   UNL     1       5.428   5.294   2.197  1.00  0.00     0.023 C 
ENDROOT
BRANCH   1   2
ATOM      2  C   UNL     1       5.311   4.607   0.844  1.00  0.00     0.116 C 
BRANCH   2   3
ATOM      3  N   UNL     1       4.573   3.360   0.927  1.00  0.00    -0.354 N 
ATOM      4  C   UNL     1       3.249   3.073   0.788  1.00  0.00     0.245 C 
ATOM      5  O   UNL     1       2.956   1.871   0.801  1.00  0.00    -0.273 OA
ATOM      6  H   UNL     1       5.135   2.574   1.120  1.00  0.00     0.163 HD
BRANCH   4   7
ATOM      7  C   UNL     1       2.169   4.123   0.425  1.00  0.00     0.198 C 
BRANCH   7   8
ATOM      8  N   UNL     1       2.382   5.545   0.705  1.00  0.00    -0.324 N 
ATOM      9  N   UNL     1       2.362   5.979   3.040  1.00  0.00    -0.331 N 
ATOM     10  C   UNL     1       2.483   6.340   1.766  1.00  0.00     0.315 C 
ATOM     11  H   UNL     1       2.706   6.671   3.649  1.00  0.00     0.165 HD
ATOM     12  O   UNL     1       2.786   7.514   1.536  1.00  0.00    -0.249 OA
ATOM     13  H   UNL     1       2.478   6.058  -0.130  1.00  0.00     0.166 HD
BRANCH   9  14
ATOM     14  C   UNL     1       1.852   4.825   3.769  1.00  0.00     0.116 C 
ATOM     15  C   UNL     1       0.646   5.291   4.583  1.00  0.00     0.036 C 
BRANCH  14  16
ATOM     16  C   UNL     1       2.909   4.206   4.647  1.00  0.00     0.040 A 
ATOM     17  C   UNL     1       3.773   6.180   6.181  1.00  0.00     0.071 C 
ATOM     18  C   UNL     1       3.694   4.781   5.701  1.00  0.00     0.086 A 
ATOM     19  N   UNL     1       4.476   3.868   6.290  1.00  0.00    -0.085 NA
ATOM     20  O   UNL     1       4.257   2.692   5.620  1.00  0.00    -0.361 OA
ATOM     21  C   UNL     1       3.331   2.883   4.649  1.00  0.00     0.139 A 
ATOM     22  C   UNL     1       3.028   1.673   3.862  1.00  0.00     0.091 C 
ENDBRANCH  14  16
ENDBRANCH   9  14
ENDBRANCH   7   8
BRANCH   7  23
ATOM     23  C   UNL     1       0.740   3.615   0.736  1.00  0.00     0.191 C 
BRANCH  23  24
ATOM     24  O   UNL     1      -0.132   4.632   1.233  1.00  0.00    -0.394 OA
ATOM     25  H   UNL     1       0.215   4.974   2.072  1.00  0.00     0.210 HD
ENDBRANCH  23  24
ENDBRANCH   7  23
ENDBRANCH   4   7
ENDBRANCH   2   3
ENDBRANCH   1   2
BRANCH   1  26
ATOM     26  C   UNL     1       6.411   4.669   3.171  1.00  0.00     0.023 C 
BRANCH  26  27
ATOM     27  C   UNL     1       7.683   5.472   3.315  1.00  0.00     0.116 C 
BRANCH  27  28
ATOM     28  N   UNL     1       7.483   6.794   3.907  1.00  0.00    -0.352 N 
ATOM     29  C   UNL     1       8.246   7.459   4.848  1.00  0.00     0.251 C 
ATOM     30  H   UNL     1       6.689   7.282   3.589  1.00  0.00     0.163 HD
ATOM     31  O   UNL     1       7.878   8.525   5.304  1.00  0.00    -0.269 OA
BRANCH  29  32
ATOM     32  C   UNL     1       9.497   6.827   5.332  1.00  0.00     0.039 A 
ATOM     33  C   UNL     1       9.823   6.894   6.688  1.00  0.00     0.014 A 
ATOM     34  C   UNL     1      10.301   6.100   4.458  1.00  0.00     0.014 A 
ATOM     35  C   UNL     1      10.903   6.150   7.172  1.00  0.00     0.010 A 
ATOM     36  C   UNL     1      11.253   5.234   4.963  1.00  0.00     0.010 A 
ATOM     37  C   UNL     1      11.592   5.270   6.322  1.00  0.00    -0.014 A 
BRANCH  37  38
ATOM     38  C   UNL     1      12.703   4.407   6.796  1.00  0.00     0.031 A 
ATOM     39  C   UNL     1      14.046   4.494   6.114  1.00  0.00     0.074 A 
ATOM     40  C   UNL     1      12.481   3.487   7.755  1.00  0.00     0.049 A 
ATOM     41  N   UNL     1      15.106   3.743   6.267  1.00  0.00    -0.248 NA
ATOM     42  C   UNL     1      14.199   5.526   5.071  1.00  0.00     0.031 C 
ATOM     43  C   UNL     1      11.201   3.245   8.424  1.00  0.00     0.029 A 
ATOM     44  N   UNL     1      13.328   2.572   8.328  1.00  0.00    -0.354 N 
ATOM     45  C   UNL     1      16.018   4.182   5.316  1.00  0.00     0.074 A 
ATOM     46  C   UNL     1      15.367   5.207   4.537  1.00  0.00     0.031 C 
ATOM     47  C   UNL     1      11.357   2.279   9.343  1.00  0.00     0.029 A 
ATOM     48  C   UNL     1      12.735   1.801   9.299  1.00  0.00     0.049 A 
ATOM     49  H   UNL     1      14.273   2.476   8.068  1.00  0.00     0.167 HD
ATOM     50  C   UNL     1      17.303   3.796   5.136  1.00  0.00     0.037 A 
ATOM     51  C   UNL     1      13.250   0.820  10.063  1.00  0.00     0.037 A 
ATOM     52  C   UNL     1      17.967   2.837   5.973  1.00  0.00     0.049 A 
ATOM     53  C   UNL     1      14.702   0.459   9.890  1.00  0.00     0.074 A 
ATOM     54  C   UNL     1      19.293   2.446   5.954  1.00  0.00     0.029 A 
ATOM     55  N   UNL     1      17.352   2.129   6.995  1.00  0.00    -0.354 N 
ATOM     56  N   UNL     1      15.581   0.944   9.045  1.00  0.00    -0.248 NA
ATOM     57  C   UNL     1      15.237  -0.576  10.783  1.00  0.00     0.031 C 
ATOM     58  C   UNL     1      19.471   1.470   6.938  1.00  0.00     0.029 A 
ATOM     59  C   UNL     1      18.268   1.290   7.604  1.00  0.00     0.049 A 
ATOM     60  H   UNL     1      16.404   2.211   7.250  1.00  0.00     0.167 HD
ATOM     61  C   UNL     1      16.775   0.293   9.322  1.00  0.00     0.074 A 
ATOM     62  C   UNL     1      16.514  -0.603  10.428  1.00  0.00     0.031 C 
ATOM     63  C   UNL     1      17.980   0.418   8.713  1.00  0.00     0.037 A 
BRANCH  50  64
ATOM     64  C   UNL     1      18.079   4.431   4.018  1.00  0.00     0.064 A 
ATOM     65  C   UNL     1      18.441   5.787   4.045  1.00  0.00     0.173 A 
ATOM     66  C   UNL     1      18.500   3.664   2.921  1.00  0.00     0.173 A 
ATOM     67  F   UNL     1      18.051   6.570   5.063  1.00  0.00    -0.203 F 
ATOM     68  C   UNL     1      19.171   6.357   3.005  1.00  0.00     0.198 A 
ATOM     69  C   UNL     1      19.260   4.230   1.899  1.00  0.00     0.198 A 
ATOM     70  F   UNL     1      18.183   2.363   2.842  1.00  0.00    -0.203 F 
ATOM     71  F   UNL     1      19.458   7.666   3.030  1.00  0.00    -0.200 F 
ATOM     72  C   UNL     1      19.588   5.577   1.938  1.00  0.00     0.200 A 
ATOM     73  F   UNL     1      19.673   3.471   0.875  1.00  0.00    -0.200 F 
ATOM     74  F   UNL     1      20.301   6.124   0.945  1.00  0.00    -0.200 F 
ENDBRANCH  50  64
BRANCH  51  75
ATOM     75  C   UNL     1      12.406   0.135  11.078  1.00  0.00     0.064 A 
ATOM     76  C   UNL     1      12.647   0.305  12.450  1.00  0.00     0.173 A 
ATOM     77  C   UNL     1      11.354  -0.715  10.705  1.00  0.00     0.173 A 
ATOM     78  F   UNL     1      13.652   1.093  12.859  1.00  0.00    -0.203 F 
ATOM     79  C   UNL     1      11.892  -0.371  13.406  1.00  0.00     0.198 A 
ATOM     80  C   UNL     1      10.579  -1.367  11.663  1.00  0.00     0.198 A 
ATOM     81  F   UNL     1      11.075  -0.909   9.408  1.00  0.00    -0.203 F 
ATOM     82  F   UNL     1      12.184  -0.235  14.707  1.00  0.00    -0.200 F 
ATOM     83  C   UNL     1      10.855  -1.204  13.012  1.00  0.00     0.200 A 
ATOM     84  F   UNL     1       9.569  -2.159  11.279  1.00  0.00    -0.200 F 
ATOM     85  F   UNL     1      10.132  -1.856  13.932  1.00  0.00    -0.200 F 
ENDBRANCH  51  75
BRANCH  63  86
ATOM     86  C   UNL     1      19.109  -0.407   9.254  1.00  0.00     0.064 A 
ATOM     87  C   UNL     1      19.160  -1.795   9.065  1.00  0.00     0.173 A 
ATOM     88  C   UNL     1      20.175   0.207   9.929  1.00  0.00     0.173 A 
ATOM     89  F   UNL     1      18.158  -2.428   8.435  1.00  0.00    -0.203 F 
ATOM     90  C   UNL     1      20.223  -2.544   9.559  1.00  0.00     0.198 A 
ATOM     91  C   UNL     1      21.252  -0.540  10.392  1.00  0.00     0.198 A 
ATOM     92  F   UNL     1      20.177   1.534  10.125  1.00  0.00    -0.203 F 
ATOM     93  F   UNL     1      20.227  -3.876   9.413  1.00  0.00    -0.200 F 
ATOM     94  C   UNL     1      21.271  -1.916  10.215  1.00  0.00     0.200 A 
ATOM     95  F   UNL     1      22.273   0.070  11.010  1.00  0.00    -0.200 F 
ATOM     96  F   UNL     1      22.299  -2.638  10.683  1.00  0.00    -0.200 F 
ENDBRANCH  63  86
ENDBRANCH  37  38
ENDBRANCH  29  32
ENDBRANCH  27  28
ENDBRANCH  26  27
ENDBRANCH   1  26
TORSDOF 16
