REMARK SMILES Cc1cccc(Cn2c(=O)c3sccc3n(CC(=O)NCCCCNC(=O)c3ccc(-c4c5nc(c(-c6c(F)c(F)c(F)c(F)c6F)c6ccc([nH]6)c(-c6c(F)c(F)c(F)c(F)c6F)c6nc(c(-c7c(F)c(F)c(F)c(F)c7F)c7ccc4[nH]7)C=C6)C=C5)cc3)c2=O)c1
REMARK SMILES IDX 22 1 21 2 20 3 18 4 19 5 17 7 16 8 8 9 9 10 91 11 10 12
REMARK SMILES IDX 11 13 92 14 12 15 15 16 13 17 14 18 7 19 6 20 1 21 2 22 3 23
REMARK SMILES IDX 93 24 4 25 5 26 23 27 24 28 25 29 26 30 27 32 28 33 29 34
REMARK SMILES IDX 90 35 30 36 89 37 31 38 32 39 33 40 83 41 34 42 88 43 82 44
REMARK SMILES IDX 84 45 35 46 87 47 81 48 80 49 36 51 68 52 48 53 67 54 49 55
REMARK SMILES IDX 52 56 66 57 85 58 50 59 51 60 65 62 86 63 53 64 37 65 38 66
REMARK SMILES IDX 46 67 39 68 40 69 44 70 47 71 41 72 42 73 45 74 43 75 69 76
REMARK SMILES IDX 70 77 78 78 71 79 72 80 76 81 79 82 73 83 74 84 77 85 75 86
REMARK SMILES IDX 54 87 55 88 63 89 56 90 57 91 61 92 64 93 58 94 59 95 62 96
REMARK SMILES IDX 60 97
REMARK H PARENT 20 6 25 31 84 50 52 61
REMARK Flexibility Score: inf
ROOT
ATOM      1  C   UNL     1      -5.996   3.713  -0.259  1.00  0.00     0.023 C 
ENDROOT
BRANCH   1   2
ATOM      2  C   UNL     1      -6.778   2.406  -0.465  1.00  0.00     0.116 C 
BRANCH   2   3
ATOM      3  N   UNL     1      -7.379   2.288  -1.779  1.00  0.00    -0.355 N 
ATOM      4  C   UNL     1      -6.957   1.623  -2.892  1.00  0.00     0.240 C 
ATOM      5  O   UNL     1      -7.751   1.543  -3.835  1.00  0.00    -0.273 OA
ATOM      6  H   UNL     1      -8.233   2.767  -1.886  1.00  0.00     0.163 HD
BRANCH   4   7
ATOM      7  C   UNL     1      -5.606   0.906  -2.958  1.00  0.00     0.227 C 
BRANCH   7   8
ATOM      8  N   UNL     1      -4.446   1.764  -2.701  1.00  0.00    -0.283 N 
ATOM      9  N   UNL     1      -2.607   2.364  -1.286  1.00  0.00    -0.254 N 
ATOM     10  C   UNL     1      -2.206   3.433  -2.097  1.00  0.00     0.274 A 
ATOM     11  C   UNL     1      -3.705   1.537  -1.541  1.00  0.00     0.332 A 
ATOM     12  O   UNL     1      -1.267   4.171  -1.812  1.00  0.00    -0.268 OA
ATOM     13  C   UNL     1      -3.034   3.608  -3.263  1.00  0.00     0.116 A 
ATOM     14  O   UNL     1      -4.062   0.669  -0.741  1.00  0.00    -0.247 OA
ATOM     15  S   UNL     1      -2.816   4.863  -4.387  1.00  0.00    -0.136 S 
ATOM     16  C   UNL     1      -4.103   2.807  -3.561  1.00  0.00     0.070 A 
ATOM     17  C   UNL     1      -4.158   4.335  -5.312  1.00  0.00     0.068 A 
ATOM     18  C   UNL     1      -4.749   3.215  -4.765  1.00  0.00     0.039 A 
BRANCH   9  19
ATOM     19  C   UNL     1      -1.917   2.187  -0.009  1.00  0.00     0.166 C 
BRANCH  19  20
ATOM     20  C   UNL     1      -0.991   0.988   0.042  1.00  0.00    -0.028 A 
ATOM     21  C   UNL     1       2.725   0.170  -0.271  1.00  0.00     0.044 C 
ATOM     22  C   UNL     1       1.244   0.022  -0.093  1.00  0.00    -0.051 A 
ATOM     23  C   UNL     1       0.709  -1.245   0.172  1.00  0.00     0.003 A 
ATOM     24  C   UNL     1       0.385   1.129  -0.188  1.00  0.00     0.009 A 
ATOM     25  C   UNL     1      -0.653  -1.398   0.397  1.00  0.00     0.001 A 
ATOM     26  C   UNL     1      -1.490  -0.286   0.357  1.00  0.00     0.005 A 
ENDBRANCH  19  20
ENDBRANCH   9  19
ENDBRANCH   7   8
ENDBRANCH   4   7
ENDBRANCH   2   3
ENDBRANCH   1   2
BRANCH   1  27
ATOM     27  C   UNL     1      -6.810   5.002  -0.427  1.00  0.00     0.023 C 
BRANCH  27  28
ATOM     28  C   UNL     1      -7.912   5.172   0.607  1.00  0.00     0.116 C 
BRANCH  28  29
ATOM     29  N   UNL     1      -7.558   5.955   1.781  1.00  0.00    -0.352 N 
ATOM     30  C   UNL     1      -8.232   6.087   2.989  1.00  0.00     0.251 C 
ATOM     31  H   UNL     1      -6.719   6.465   1.709  1.00  0.00     0.163 HD
ATOM     32  O   UNL     1      -7.852   6.897   3.812  1.00  0.00    -0.269 OA
BRANCH  30  33
ATOM     33  C   UNL     1      -9.331   5.140   3.330  1.00  0.00     0.039 A 
ATOM     34  C   UNL     1      -9.360   4.609   4.627  1.00  0.00     0.014 A 
ATOM     35  C   UNL     1     -10.185   4.631   2.358  1.00  0.00     0.014 A 
ATOM     36  C   UNL     1     -10.042   3.417   4.867  1.00  0.00     0.010 A 
ATOM     37  C   UNL     1     -10.761   3.393   2.556  1.00  0.00     0.010 A 
ATOM     38  C   UNL     1     -10.637   2.756   3.793  1.00  0.00    -0.014 A 
BRANCH  38  39
ATOM     39  C   UNL     1     -11.062   1.364   3.838  1.00  0.00     0.031 A 
ATOM     40  C   UNL     1     -12.496   1.016   3.898  1.00  0.00     0.074 A 
ATOM     41  C   UNL     1     -10.137   0.386   3.714  1.00  0.00     0.049 A 
ATOM     42  N   UNL     1     -12.950  -0.081   4.404  1.00  0.00    -0.248 NA
ATOM     43  C   UNL     1     -13.545   1.897   3.399  1.00  0.00     0.031 C 
ATOM     44  C   UNL     1     -10.378  -1.035   3.478  1.00  0.00     0.029 A 
ATOM     45  N   UNL     1      -8.756   0.468   3.964  1.00  0.00    -0.354 N 
ATOM     46  C   UNL     1     -14.279  -0.178   4.063  1.00  0.00     0.074 A 
ATOM     47  C   UNL     1     -14.617   1.103   3.487  1.00  0.00     0.031 C 
ATOM     48  C   UNL     1      -9.303  -1.729   3.884  1.00  0.00     0.029 A 
ATOM     49  C   UNL     1      -8.396  -0.786   4.512  1.00  0.00     0.049 A 
ATOM     50  H   UNL     1      -8.164   1.235   3.794  1.00  0.00     0.167 HD
ATOM     51  C   UNL     1     -14.917  -1.379   4.179  1.00  0.00     0.037 A 
ATOM     52  C   UNL     1      -7.912  -0.893   5.783  1.00  0.00     0.037 A 
ATOM     53  C   UNL     1     -14.024  -2.407   4.701  1.00  0.00     0.049 A 
ATOM     54  C   UNL     1      -8.760  -1.753   6.689  1.00  0.00     0.074 A 
ATOM     55  C   UNL     1     -13.264  -3.383   4.077  1.00  0.00     0.029 A 
ATOM     56  N   UNL     1     -13.550  -2.312   6.005  1.00  0.00    -0.354 N 
ATOM     57  N   UNL     1     -10.000  -2.068   6.436  1.00  0.00    -0.248 NA
ATOM     58  C   UNL     1      -8.294  -2.301   7.959  1.00  0.00     0.031 C 
ATOM     59  C   UNL     1     -12.295  -3.845   4.999  1.00  0.00     0.029 A 
ATOM     60  C   UNL     1     -12.477  -3.164   6.189  1.00  0.00     0.049 A 
ATOM     61  H   UNL     1     -13.925  -1.723   6.698  1.00  0.00     0.167 HD
ATOM     62  C   UNL     1     -10.503  -2.817   7.467  1.00  0.00     0.074 A 
ATOM     63  C   UNL     1      -9.391  -2.951   8.389  1.00  0.00     0.031 C 
ATOM     64  C   UNL     1     -11.798  -3.252   7.472  1.00  0.00     0.037 A 
BRANCH  51  65
ATOM     65  C   UNL     1     -16.249  -1.670   3.529  1.00  0.00     0.064 A 
ATOM     66  C   UNL     1     -16.533  -2.938   2.976  1.00  0.00     0.173 A 
ATOM     67  C   UNL     1     -17.272  -0.716   3.380  1.00  0.00     0.173 A 
ATOM     68  F   UNL     1     -15.700  -3.974   3.130  1.00  0.00    -0.203 F 
ATOM     69  C   UNL     1     -17.687  -3.188   2.229  1.00  0.00     0.198 A 
ATOM     70  C   UNL     1     -18.401  -0.949   2.587  1.00  0.00     0.198 A 
ATOM     71  F   UNL     1     -17.222   0.456   4.029  1.00  0.00    -0.203 F 
ATOM     72  F   UNL     1     -17.895  -4.410   1.716  1.00  0.00    -0.200 F 
ATOM     73  C   UNL     1     -18.602  -2.182   2.000  1.00  0.00     0.200 A 
ATOM     74  F   UNL     1     -19.291   0.035   2.391  1.00  0.00    -0.200 F 
ATOM     75  F   UNL     1     -19.680  -2.406   1.237  1.00  0.00    -0.200 F 
ENDBRANCH  51  65
BRANCH  52  76
ATOM     76  C   UNL     1      -7.124   0.295   6.201  1.00  0.00     0.064 A 
ATOM     77  C   UNL     1      -5.928   0.566   5.508  1.00  0.00     0.173 A 
ATOM     78  C   UNL     1      -7.702   1.342   6.929  1.00  0.00     0.173 A 
ATOM     79  F   UNL     1      -5.335  -0.405   4.795  1.00  0.00    -0.203 F 
ATOM     80  C   UNL     1      -5.408   1.856   5.436  1.00  0.00     0.198 A 
ATOM     81  C   UNL     1      -7.165   2.631   6.870  1.00  0.00     0.198 A 
ATOM     82  F   UNL     1      -8.850   1.152   7.595  1.00  0.00    -0.203 F 
ATOM     83  F   UNL     1      -4.340   2.104   4.663  1.00  0.00    -0.200 F 
ATOM     84  C   UNL     1      -6.045   2.894   6.093  1.00  0.00     0.200 A 
ATOM     85  F   UNL     1      -7.792   3.641   7.490  1.00  0.00    -0.200 F 
ATOM     86  F   UNL     1      -5.606   4.151   5.943  1.00  0.00    -0.200 F 
ENDBRANCH  52  76
BRANCH  64  87
ATOM     87  C   UNL     1     -12.526  -3.891   8.631  1.00  0.00     0.064 A 
ATOM     88  C   UNL     1     -12.229  -3.638   9.979  1.00  0.00     0.173 A 
ATOM     89  C   UNL     1     -13.677  -4.686   8.399  1.00  0.00     0.173 A 
ATOM     90  F   UNL     1     -11.239  -2.809  10.332  1.00  0.00    -0.203 F 
ATOM     91  C   UNL     1     -12.988  -4.187  11.018  1.00  0.00     0.198 A 
ATOM     92  C   UNL     1     -14.465  -5.182   9.436  1.00  0.00     0.198 A 
ATOM     93  F   UNL     1     -14.087  -4.984   7.157  1.00  0.00    -0.203 F 
ATOM     94  F   UNL     1     -12.639  -3.949  12.290  1.00  0.00    -0.200 F 
ATOM     95  C   UNL     1     -14.112  -4.946  10.747  1.00  0.00     0.200 A 
ATOM     96  F   UNL     1     -15.581  -5.870   9.154  1.00  0.00    -0.200 F 
ATOM     97  F   UNL     1     -14.863  -5.428  11.746  1.00  0.00    -0.200 F 
ENDBRANCH  64  87
ENDBRANCH  38  39
ENDBRANCH  30  33
ENDBRANCH  28  29
ENDBRANCH  27  28
ENDBRANCH   1  27
TORSDOF 14
