REMARK SMILES C[C@@H](C(=O)NCCCCNC(=O)c1ccc(-c2c3nc(c(-c4c(F)c(F)c(F)c(F)c4F)c4ccc([nH]4)c(-c4c(F)c(F)c(F)c(F)c4F)c4nc(c(-c5c(F)c(F)c(F)c(F)c5F)c5ccc2[nH]5)C=C4)C=C3)cc1)c1cc(/C=C/S(C)(=O)=O)cc(C(=O)c2ccccc2)c1
REMARK SMILES IDX 7 1 6 2 5 3 3 4 4 5 2 7 1 8 76 9 77 10 95 11 78 12 86 13
REMARK SMILES IDX 85 14 79 15 80 16 81 17 82 18 83 19 84 20 87 21 88 22 89 23
REMARK SMILES IDX 90 24 94 25 91 26 93 27 92 28 8 29 9 30 10 31 11 32 12 34
REMARK SMILES IDX 13 35 14 36 75 37 15 38 74 39 16 40 17 41 18 42 68 43 19 44
REMARK SMILES IDX 73 45 67 46 69 47 20 48 72 49 66 50 65 51 21 53 53 54 33 55
REMARK SMILES IDX 52 56 34 57 37 58 51 59 70 60 35 61 36 62 50 64 71 65 38 66
REMARK SMILES IDX 22 67 23 68 31 69 24 70 25 71 29 72 32 73 26 74 27 75 30 76
REMARK SMILES IDX 28 77 54 78 55 79 63 80 56 81 57 82 61 83 64 84 58 85 59 86
REMARK SMILES IDX 62 87 60 88 39 89 40 90 48 91 41 92 42 93 46 94 49 95 43 96
REMARK SMILES IDX 44 97 47 98 45 99
REMARK H PARENT 5 6 10 33 69 52 37 63
REMARK Flexibility Score: inf
ROOT
ATOM      1  C   UNL     1       4.155  -0.409   1.099  1.00  0.00     0.023 C 
ENDROOT
BRANCH   1   2
ATOM      2  C   UNL     1       3.400  -1.687   0.726  1.00  0.00     0.116 C 
BRANCH   2   3
ATOM      3  N   UNL     1       2.320  -1.925   1.656  1.00  0.00    -0.356 N 
ATOM      4  C   UNL     1       0.995  -1.630   1.547  1.00  0.00     0.227 C 
ATOM      5  O   UNL     1       0.311  -1.809   2.558  1.00  0.00    -0.274 OA
ATOM      6  H   UNL     1       2.582  -2.367   2.496  1.00  0.00     0.163 HD
BRANCH   4   7
ATOM      7  C   UNL     1       0.402  -1.160   0.200  1.00  0.00     0.105 C 
ATOM      8  C   UNL     1       0.922   0.227  -0.206  1.00  0.00     0.023 C 
BRANCH   7   9
ATOM      9  C   UNL     1      -1.127  -1.211   0.267  1.00  0.00    -0.035 A 
ATOM     10  C   UNL     1      -1.892  -0.058   0.493  1.00  0.00     0.012 A 
ATOM     11  C   UNL     1      -1.785  -2.447   0.225  1.00  0.00     0.016 A 
ATOM     12  C   UNL     1      -3.277  -0.099   0.696  1.00  0.00    -0.024 A 
ATOM     13  C   UNL     1      -3.164  -2.528   0.461  1.00  0.00     0.023 A 
ATOM     14  C   UNL     1      -3.905  -1.351   0.676  1.00  0.00     0.020 A 
BRANCH  12  15
ATOM     15  C   UNL     1      -4.056   1.127   0.973  1.00  0.00     0.020 C 
ATOM     16  C   UNL     1      -3.511   2.347   1.115  1.00  0.00     0.106 C 
BRANCH  16  17
ATOM     17  S   UNL     1      -4.473   3.732   1.507  1.00  0.00     0.168 S 
ATOM     18  C   UNL     1      -3.600   4.348   2.930  1.00  0.00     0.163 C 
ATOM     19  O   UNL     1      -4.300   4.712   0.449  1.00  0.00    -0.225 OA
ATOM     20  O   UNL     1      -5.793   3.334   1.944  1.00  0.00    -0.225 OA
ENDBRANCH  16  17
ENDBRANCH  12  15
BRANCH  13  21
ATOM     21  C   UNL     1      -3.877  -3.838   0.481  1.00  0.00     0.193 C 
ATOM     22  O   UNL     1      -5.098  -3.873   0.353  1.00  0.00    -0.289 OA
BRANCH  21  23
ATOM     23  C   UNL     1      -3.144  -5.121   0.611  1.00  0.00     0.022 A 
ATOM     24  C   UNL     1      -3.433  -6.144  -0.299  1.00  0.00     0.012 A 
ATOM     25  C   UNL     1      -2.192  -5.326   1.617  1.00  0.00     0.012 A 
ATOM     26  C   UNL     1      -2.738  -7.352  -0.233  1.00  0.00     0.001 A 
ATOM     27  C   UNL     1      -1.500  -6.538   1.679  1.00  0.00     0.001 A 
ATOM     28  C   UNL     1      -1.768  -7.546   0.751  1.00  0.00     0.000 A 
ENDBRANCH  21  23
ENDBRANCH  13  21
ENDBRANCH   7   9
ENDBRANCH   4   7
ENDBRANCH   2   3
ENDBRANCH   1   2
BRANCH   1  29
ATOM     29  C   UNL     1       4.929  -0.496   2.418  1.00  0.00     0.023 C 
BRANCH  29  30
ATOM     30  C   UNL     1       5.938  -1.635   2.496  1.00  0.00     0.116 C 
BRANCH  30  31
ATOM     31  N   UNL     1       6.915  -1.594   1.420  1.00  0.00    -0.352 N 
ATOM     32  C   UNL     1       8.267  -1.823   1.468  1.00  0.00     0.251 C 
ATOM     33  H   UNL     1       6.556  -1.371   0.531  1.00  0.00     0.163 HD
ATOM     34  O   UNL     1       8.961  -1.603   0.481  1.00  0.00    -0.269 OA
BRANCH  32  35
ATOM     35  C   UNL     1       8.889  -2.302   2.720  1.00  0.00     0.039 A 
ATOM     36  C   UNL     1      10.085  -1.715   3.138  1.00  0.00     0.014 A 
ATOM     37  C   UNL     1       8.301  -3.318   3.480  1.00  0.00     0.014 A 
ATOM     38  C   UNL     1      10.661  -2.108   4.346  1.00  0.00     0.010 A 
ATOM     39  C   UNL     1       8.833  -3.651   4.722  1.00  0.00     0.010 A 
ATOM     40  C   UNL     1      10.023  -3.054   5.165  1.00  0.00    -0.014 A 
BRANCH  40  41
ATOM     41  C   UNL     1      10.595  -3.424   6.484  1.00  0.00     0.031 A 
ATOM     42  C   UNL     1      11.064  -4.829   6.744  1.00  0.00     0.074 A 
ATOM     43  C   UNL     1      10.663  -2.498   7.460  1.00  0.00     0.049 A 
ATOM     44  N   UNL     1      11.580  -5.342   7.833  1.00  0.00    -0.248 NA
ATOM     45  C   UNL     1      10.909  -5.795   5.644  1.00  0.00     0.031 C 
ATOM     46  C   UNL     1      10.188  -1.117   7.349  1.00  0.00     0.029 A 
ATOM     47  N   UNL     1      11.156  -2.577   8.738  1.00  0.00    -0.354 N 
ATOM     48  C   UNL     1      11.816  -6.680   7.547  1.00  0.00     0.074 A 
ATOM     49  C   UNL     1      11.319  -6.920   6.210  1.00  0.00     0.031 C 
ATOM     50  C   UNL     1      10.438  -0.472   8.499  1.00  0.00     0.029 A 
ATOM     51  C   UNL     1      11.058  -1.400   9.440  1.00  0.00     0.049 A 
ATOM     52  H   UNL     1      11.544  -3.399   9.116  1.00  0.00     0.167 HD
ATOM     53  C   UNL     1      12.424  -7.615   8.315  1.00  0.00     0.037 A 
ATOM     54  C   UNL     1      11.423  -1.105  10.702  1.00  0.00     0.037 A 
ATOM     55  C   UNL     1      12.923  -7.372   9.643  1.00  0.00     0.049 A 
ATOM     56  C   UNL     1      12.081  -2.169  11.540  1.00  0.00     0.074 A 
ATOM     57  C   UNL     1      13.579  -8.245  10.494  1.00  0.00     0.029 A 
ATOM     58  N   UNL     1      12.819  -6.163  10.316  1.00  0.00    -0.354 N 
ATOM     59  N   UNL     1      12.362  -3.412  11.232  1.00  0.00    -0.248 NA
ATOM     60  C   UNL     1      12.486  -1.783  12.899  1.00  0.00     0.031 C 
ATOM     61  C   UNL     1      13.831  -7.579  11.697  1.00  0.00     0.029 A 
ATOM     62  C   UNL     1      13.385  -6.273  11.577  1.00  0.00     0.049 A 
ATOM     63  H   UNL     1      12.405  -5.347   9.952  1.00  0.00     0.167 HD
ATOM     64  C   UNL     1      13.001  -3.946  12.343  1.00  0.00     0.074 A 
ATOM     65  C   UNL     1      13.089  -2.883  13.323  1.00  0.00     0.031 C 
ATOM     66  C   UNL     1      13.471  -5.203  12.538  1.00  0.00     0.037 A 
BRANCH  53  67
ATOM     67  C   UNL     1      12.597  -8.988   7.729  1.00  0.00     0.064 A 
ATOM     68  C   UNL     1      13.479  -9.222   6.662  1.00  0.00     0.173 A 
ATOM     69  C   UNL     1      11.909 -10.088   8.261  1.00  0.00     0.173 A 
ATOM     70  F   UNL     1      14.153  -8.202   6.107  1.00  0.00    -0.203 F 
ATOM     71  C   UNL     1      13.644 -10.499   6.132  1.00  0.00     0.198 A 
ATOM     72  C   UNL     1      12.101 -11.370   7.750  1.00  0.00     0.198 A 
ATOM     73  F   UNL     1      11.056  -9.924   9.284  1.00  0.00    -0.203 F 
ATOM     74  F   UNL     1      14.453 -10.687   5.080  1.00  0.00    -0.200 F 
ATOM     75  C   UNL     1      12.961 -11.573   6.682  1.00  0.00     0.200 A 
ATOM     76  F   UNL     1      11.451 -12.410   8.291  1.00  0.00    -0.200 F 
ATOM     77  F   UNL     1      13.128 -12.803   6.178  1.00  0.00    -0.200 F 
ENDBRANCH  53  67
BRANCH  54  78
ATOM     78  C   UNL     1      11.192   0.259  11.249  1.00  0.00     0.064 A 
ATOM     79  C   UNL     1      12.265   1.105  11.565  1.00  0.00     0.173 A 
ATOM     80  C   UNL     1       9.896   0.735  11.492  1.00  0.00     0.173 A 
ATOM     81  F   UNL     1      13.525   0.690  11.367  1.00  0.00    -0.203 F 
ATOM     82  C   UNL     1      12.052   2.358  12.136  1.00  0.00     0.198 A 
ATOM     83  C   UNL     1       9.682   2.002  12.031  1.00  0.00     0.198 A 
ATOM     84  F   UNL     1       8.833  -0.029  11.200  1.00  0.00    -0.203 F 
ATOM     85  F   UNL     1      13.098   3.119  12.485  1.00  0.00    -0.200 F 
ATOM     86  C   UNL     1      10.761   2.807  12.364  1.00  0.00     0.200 A 
ATOM     87  F   UNL     1       8.432   2.440  12.233  1.00  0.00    -0.200 F 
ATOM     88  F   UNL     1      10.556   4.011  12.915  1.00  0.00    -0.200 F 
ENDBRANCH  54  78
BRANCH  66  89
ATOM     89  C   UNL     1      14.156  -5.484  13.845  1.00  0.00     0.064 A 
ATOM     90  C   UNL     1      13.450  -5.528  15.056  1.00  0.00     0.173 A 
ATOM     91  C   UNL     1      15.538  -5.730  13.882  1.00  0.00     0.173 A 
ATOM     92  F   UNL     1      12.130  -5.286  15.077  1.00  0.00    -0.203 F 
ATOM     93  C   UNL     1      14.107  -5.770  16.260  1.00  0.00     0.198 A 
ATOM     94  C   UNL     1      16.185  -6.007  15.083  1.00  0.00     0.198 A 
ATOM     95  F   UNL     1      16.260  -5.709  12.752  1.00  0.00    -0.203 F 
ATOM     96  F   UNL     1      13.421  -5.744  17.411  1.00  0.00    -0.200 F 
ATOM     97  C   UNL     1      15.471  -6.015  16.272  1.00  0.00     0.200 A 
ATOM     98  F   UNL     1      17.501  -6.260  15.090  1.00  0.00    -0.200 F 
ATOM     99  F   UNL     1      16.101  -6.250  17.431  1.00  0.00    -0.200 F 
ENDBRANCH  66  89
ENDBRANCH  40  41
ENDBRANCH  32  35
ENDBRANCH  30  31
ENDBRANCH  29  30
ENDBRANCH   1  29
TORSDOF 16
