REMARK SMILES CCCC(=O)Nc1cccc(C(=O)N[C@@H](C(=O)NCCCCNC(=O)c2ccc(-c3c4nc(c(-c5c(F)c(F)c(F)c(F)c5F)c5ccc([nH]5)c(-c5c(F)c(F)c(F)c(F)c5F)c5nc(c(-c6c(F)c(F)c(F)c(F)c6F)c6ccc3[nH]6)C=C5)C=C4)cc2)C2=C(C)N=N[C@@H]2C)c1
REMARK SMILES IDX 19 1 18 2 16 3 17 4 15 6 14 7 12 8 13 9 11 11 7 12 8 13
REMARK SMILES IDX 96 14 9 15 10 16 6 17 4 18 5 19 3 21 2 22 1 23 89 24 90 25
REMARK SMILES IDX 94 26 91 27 92 28 93 29 95 30 20 31 21 32 22 33 23 34 24 35
REMARK SMILES IDX 25 37 26 38 27 39 88 40 28 41 87 42 29 43 30 44 31 45 81 46
REMARK SMILES IDX 32 47 86 48 80 49 82 50 33 51 85 52 79 53 78 54 34 56 66 57
REMARK SMILES IDX 46 58 65 59 47 60 50 61 64 62 83 63 48 64 49 65 63 67 84 68
REMARK SMILES IDX 51 69 35 70 36 71 44 72 37 73 38 74 42 75 45 76 39 77 40 78
REMARK SMILES IDX 43 79 41 80 67 81 68 82 76 83 69 84 70 85 74 86 77 87 71 88
REMARK SMILES IDX 72 89 75 90 73 91 52 92 53 93 61 94 54 95 55 96 59 97 62 98
REMARK SMILES IDX 56 99 57 100 60 101 58 102
REMARK H PARENT 18 5 14 10 6 20 23 36 82 55 50 66
REMARK Flexibility Score: inf
ROOT
ATOM      1  C   UNL     1      -1.635  -0.829   2.159  1.00  0.00     0.116 C 
ENDROOT
BRANCH   1   2
ATOM      2  N   UNL     1      -2.388   0.333   1.761  1.00  0.00    -0.354 N 
ATOM      3  C   UNL     1      -1.974   1.464   1.121  1.00  0.00     0.247 C 
ATOM      4  O   UNL     1      -2.876   2.231   0.768  1.00  0.00    -0.272 OA
ATOM      5  H   UNL     1      -3.346   0.306   1.985  1.00  0.00     0.163 HD
BRANCH   3   6
ATOM      6  C   UNL     1      -0.477   1.673   0.698  1.00  0.00     0.202 C 
BRANCH   6   7
ATOM      7  N   UNL     1       0.507   1.417   1.758  1.00  0.00    -0.337 N 
ATOM      8  C   UNL     1       1.453   0.474   2.082  1.00  0.00     0.252 C 
ATOM      9  O   UNL     1       1.965   0.614   3.197  1.00  0.00    -0.269 OA
ATOM     10  H   UNL     1       0.482   2.130   2.436  1.00  0.00     0.165 HD
BRANCH   8  11
ATOM     11  C   UNL     1       1.920  -0.688   1.252  1.00  0.00     0.041 A 
ATOM     12  C   UNL     1       1.901  -2.175  -0.680  1.00  0.00     0.041 A 
ATOM     13  C   UNL     1       2.964  -2.911  -0.180  1.00  0.00     0.026 A 
ATOM     14  C   UNL     1       1.353  -1.114   0.053  1.00  0.00     0.040 A 
ATOM     15  C   UNL     1       3.541  -2.518   1.024  1.00  0.00     0.003 A 
ATOM     16  C   UNL     1       3.029  -1.416   1.725  1.00  0.00     0.014 A 
BRANCH  12  17
ATOM     17  N   UNL     1       1.330  -2.513  -1.911  1.00  0.00    -0.326 N 
ATOM     18  C   UNL     1       1.087  -1.617  -2.924  1.00  0.00     0.224 C 
ATOM     19  O   UNL     1       0.093  -1.735  -3.637  1.00  0.00    -0.275 OA
ATOM     20  H   UNL     1       1.085  -3.454  -2.062  1.00  0.00     0.169 HD
BRANCH  18  21
ATOM     21  C   UNL     1       2.155  -0.559  -3.190  1.00  0.00     0.100 C 
BRANCH  21  22
ATOM     22  C   UNL     1       1.864   0.820  -2.614  1.00  0.00     0.006 C 
ATOM     23  C   UNL     1       2.836   1.268  -1.523  1.00  0.00     0.004 C 
ENDBRANCH  21  22
ENDBRANCH  18  21
ENDBRANCH  12  17
ENDBRANCH   8  11
ENDBRANCH   6   7
BRANCH   6  24
ATOM     24  C   UNL     1      -0.321   3.073   0.179  1.00  0.00     0.011 C 
ATOM     25  C   UNL     1      -0.378   4.279   0.760  1.00  0.00     0.064 C 
ATOM     26  C   UNL     1      -0.222   3.372  -1.284  1.00  0.00     0.156 C 
ATOM     27  C   UNL     1      -0.593   4.636   2.188  1.00  0.00     0.069 C 
ATOM     28  N   UNL     1      -0.306   5.307  -0.149  1.00  0.00    -0.160 NA
ATOM     29  N   UNL     1      -0.247   4.856  -1.323  1.00  0.00    -0.181 NA
ATOM     30  C   UNL     1      -1.350   2.827  -2.151  1.00  0.00     0.040 C 
ENDBRANCH   6  24
ENDBRANCH   3   6
ENDBRANCH   1   2
BRANCH   1  31
ATOM     31  C   UNL     1      -1.369  -0.850   3.659  1.00  0.00     0.023 C 
BRANCH  31  32
ATOM     32  C   UNL     1      -2.579  -1.287   4.482  1.00  0.00     0.023 C 
BRANCH  32  33
ATOM     33  C   UNL     1      -3.109  -2.674   4.141  1.00  0.00     0.116 C 
BRANCH  33  34
ATOM     34  N   UNL     1      -2.129  -3.733   4.329  1.00  0.00    -0.352 N 
ATOM     35  C   UNL     1      -2.365  -5.029   4.735  1.00  0.00     0.251 C 
ATOM     36  H   UNL     1      -1.191  -3.498   4.145  1.00  0.00     0.163 HD
ATOM     37  O   UNL     1      -1.450  -5.803   4.959  1.00  0.00    -0.269 OA
BRANCH  35  38
ATOM     38  C   UNL     1      -3.768  -5.442   4.937  1.00  0.00     0.039 A 
ATOM     39  C   UNL     1      -4.157  -5.925   6.186  1.00  0.00     0.014 A 
ATOM     40  C   UNL     1      -4.706  -5.244   3.920  1.00  0.00     0.014 A 
ATOM     41  C   UNL     1      -5.510  -6.149   6.439  1.00  0.00     0.010 A 
ATOM     42  C   UNL     1      -6.058  -5.392   4.200  1.00  0.00     0.010 A 
ATOM     43  C   UNL     1      -6.474  -5.847   5.462  1.00  0.00    -0.014 A 
BRANCH  43  44
ATOM     44  C   UNL     1      -7.923  -6.002   5.737  1.00  0.00     0.031 A 
ATOM     45  C   UNL     1      -8.731  -6.995   4.950  1.00  0.00     0.074 A 
ATOM     46  C   UNL     1      -8.522  -5.207   6.645  1.00  0.00     0.049 A 
ATOM     47  N   UNL     1     -10.016  -7.238   4.994  1.00  0.00    -0.248 NA
ATOM     48  C   UNL     1      -8.002  -7.801   3.958  1.00  0.00     0.031 C 
ATOM     49  C   UNL     1      -7.856  -4.170   7.435  1.00  0.00     0.029 A 
ATOM     50  N   UNL     1      -9.832  -5.141   7.051  1.00  0.00    -0.354 N 
ATOM     51  C   UNL     1     -10.249  -8.206   4.027  1.00  0.00     0.074 A 
ATOM     52  C   UNL     1      -8.986  -8.467   3.373  1.00  0.00     0.031 C 
ATOM     53  C   UNL     1      -8.753  -3.593   8.250  1.00  0.00     0.029 A 
ATOM     54  C   UNL     1     -10.064  -4.189   8.014  1.00  0.00     0.049 A 
ATOM     55  H   UNL     1     -10.539  -5.720   6.685  1.00  0.00     0.167 HD
ATOM     56  C   UNL     1     -11.408  -8.840   3.729  1.00  0.00     0.037 A 
ATOM     57  C   UNL     1     -11.207  -3.839   8.634  1.00  0.00     0.037 A 
ATOM     58  C   UNL     1     -12.655  -8.602   4.407  1.00  0.00     0.049 A 
ATOM     59  C   UNL     1     -12.482  -4.559   8.281  1.00  0.00     0.074 A 
ATOM     60  C   UNL     1     -13.867  -9.245   4.232  1.00  0.00     0.029 A 
ATOM     61  N   UNL     1     -12.848  -7.641   5.389  1.00  0.00    -0.354 N 
ATOM     62  N   UNL     1     -12.674  -5.531   7.423  1.00  0.00    -0.248 NA
ATOM     63  C   UNL     1     -13.698  -4.135   8.989  1.00  0.00     0.031 C 
ATOM     64  C   UNL     1     -14.807  -8.640   5.072  1.00  0.00     0.029 A 
ATOM     65  C   UNL     1     -14.167  -7.657   5.811  1.00  0.00     0.049 A 
ATOM     66  H   UNL     1     -12.150  -7.038   5.735  1.00  0.00     0.167 HD
ATOM     67  C   UNL     1     -14.021  -5.858   7.512  1.00  0.00     0.074 A 
ATOM     68  C   UNL     1     -14.596  -4.989   8.517  1.00  0.00     0.031 C 
ATOM     69  C   UNL     1     -14.719  -6.794   6.823  1.00  0.00     0.037 A 
BRANCH  56  70
ATOM     70  C   UNL     1     -11.382  -9.856   2.624  1.00  0.00     0.064 A 
ATOM     71  C   UNL     1     -10.716 -11.082   2.766  1.00  0.00     0.173 A 
ATOM     72  C   UNL     1     -12.064  -9.615   1.422  1.00  0.00     0.173 A 
ATOM     73  F   UNL     1     -10.036 -11.356   3.890  1.00  0.00    -0.203 F 
ATOM     74  C   UNL     1     -10.710 -12.018   1.735  1.00  0.00     0.198 A 
ATOM     75  C   UNL     1     -12.083 -10.567   0.406  1.00  0.00     0.198 A 
ATOM     76  F   UNL     1     -12.721  -8.460   1.236  1.00  0.00    -0.203 F 
ATOM     77  F   UNL     1     -10.024 -13.161   1.874  1.00  0.00    -0.200 F 
ATOM     78  C   UNL     1     -11.400 -11.764   0.560  1.00  0.00     0.200 A 
ATOM     79  F   UNL     1     -12.762 -10.325  -0.724  1.00  0.00    -0.200 F 
ATOM     80  F   UNL     1     -11.402 -12.669  -0.428  1.00  0.00    -0.200 F 
ENDBRANCH  56  70
BRANCH  57  81
ATOM     81  C   UNL     1     -11.200  -2.776   9.673  1.00  0.00     0.064 A 
ATOM     82  C   UNL     1     -11.439  -3.087  11.020  1.00  0.00     0.173 A 
ATOM     83  C   UNL     1     -10.976  -1.431   9.346  1.00  0.00     0.173 A 
ATOM     84  F   UNL     1     -11.680  -4.356  11.380  1.00  0.00    -0.203 F 
ATOM     85  C   UNL     1     -11.480  -2.091  11.994  1.00  0.00     0.198 A 
ATOM     86  C   UNL     1     -10.988  -0.440  10.325  1.00  0.00     0.198 A 
ATOM     87  F   UNL     1     -10.738  -1.080   8.073  1.00  0.00    -0.203 F 
ATOM     88  F   UNL     1     -11.762  -2.411  13.264  1.00  0.00    -0.200 F 
ATOM     89  C   UNL     1     -11.249  -0.769  11.647  1.00  0.00     0.200 A 
ATOM     90  F   UNL     1     -10.750   0.836   9.988  1.00  0.00    -0.200 F 
ATOM     91  F   UNL     1     -11.289   0.188  12.583  1.00  0.00    -0.200 F 
ENDBRANCH  57  81
BRANCH  69  92
ATOM     92  C   UNL     1     -16.172  -6.958   7.162  1.00  0.00     0.064 A 
ATOM     93  C   UNL     1     -17.127  -5.995   6.807  1.00  0.00     0.173 A 
ATOM     94  C   UNL     1     -16.619  -8.118   7.814  1.00  0.00     0.173 A 
ATOM     95  F   UNL     1     -16.748  -4.862   6.196  1.00  0.00    -0.203 F 
ATOM     96  C   UNL     1     -18.473  -6.174   7.116  1.00  0.00     0.198 A 
ATOM     97  C   UNL     1     -17.970  -8.308   8.092  1.00  0.00     0.198 A 
ATOM     98  F   UNL     1     -15.748  -9.074   8.169  1.00  0.00    -0.203 F 
ATOM     99  F   UNL     1     -19.360  -5.217   6.811  1.00  0.00    -0.200 F 
ATOM    100  C   UNL     1     -18.894  -7.333   7.750  1.00  0.00     0.200 A 
ATOM    101  F   UNL     1     -18.377  -9.436   8.691  1.00  0.00    -0.200 F 
ATOM    102  F   UNL     1     -20.191  -7.507   8.037  1.00  0.00    -0.200 F 
ENDBRANCH  69  92
ENDBRANCH  43  44
ENDBRANCH  35  38
ENDBRANCH  33  34
ENDBRANCH  32  33
ENDBRANCH  31  32
ENDBRANCH   1  31
TORSDOF 17
