REMARK SMILES CC[C@@H](C)[C@@H](C(=O)NCCCCNC(=O)c1ccc(-c2c3nc(c(-c4c(F)c(F)c(F)c(F)c4F)c4ccc([nH]4)c(-c4c(F)c(F)c(F)c(F)c4F)c4nc(c(-c5c(F)c(F)c(F)c(F)c5F)c5ccc2[nH]5)C=C4)C=C3)cc1)N1C(=O)/C(=C/c2ccc(O)cc2)SC1=S
REMARK SMILES IDX 10 1 9 2 8 3 6 4 7 5 5 7 3 8 4 9 2 10 1 11 79 12 80 13 92 14
REMARK SMILES IDX 81 15 82 16 91 17 93 18 83 19 84 20 85 21 90 22 86 23 89 24
REMARK SMILES IDX 87 25 88 26 11 28 12 29 13 30 14 31 15 33 16 34 17 35 78 36
REMARK SMILES IDX 18 37 77 38 19 39 20 40 21 41 71 42 22 43 76 44 70 45 72 46
REMARK SMILES IDX 23 47 75 48 69 49 68 50 24 52 56 53 36 54 55 55 37 56 40 57
REMARK SMILES IDX 54 58 73 59 38 60 39 61 53 63 74 64 41 65 25 66 26 67 34 68
REMARK SMILES IDX 27 69 28 70 32 71 35 72 29 73 30 74 33 75 31 76 57 77 58 78
REMARK SMILES IDX 66 79 59 80 60 81 64 82 67 83 61 84 62 85 65 86 63 87 42 88
REMARK SMILES IDX 43 89 51 90 44 91 45 92 49 93 52 94 46 95 47 96 50 97 48 98
REMARK H PARENT 8 6 88 27 13 32 72 51 40 62
REMARK Flexibility Score: inf
ROOT
ATOM      1  C   UNL     1       0.385  -1.110  -2.808  1.00  0.00     0.023 C 
ENDROOT
BRANCH   1   2
ATOM      2  C   UNL     1      -0.094  -2.484  -2.321  1.00  0.00     0.116 C 
BRANCH   2   3
ATOM      3  N   UNL     1       1.033  -3.317  -1.941  1.00  0.00    -0.354 N 
ATOM      4  C   UNL     1       1.454  -3.762  -0.719  1.00  0.00     0.243 C 
ATOM      5  O   UNL     1       2.504  -4.411  -0.706  1.00  0.00    -0.273 OA
ATOM      6  H   UNL     1       1.592  -3.614  -2.695  1.00  0.00     0.163 HD
BRANCH   4   7
ATOM      7  C   UNL     1       0.620  -3.516   0.572  1.00  0.00     0.184 C 
BRANCH   7   8
ATOM      8  C   UNL     1       0.904  -2.174   1.332  1.00  0.00     0.018 C 
ATOM      9  C   UNL     1       0.035  -2.081   2.595  1.00  0.00     0.010 C 
BRANCH   8  10
ATOM     10  C   UNL     1       0.707  -0.926   0.465  1.00  0.00     0.002 C 
ATOM     11  C   UNL     1       1.117   0.392   1.106  1.00  0.00     0.004 C 
ENDBRANCH   8  10
ENDBRANCH   7   8
BRANCH   7  12
ATOM     12  N   UNL     1       0.843  -4.732   1.412  1.00  0.00    -0.280 N 
ATOM     13  C   UNL     1       1.926  -4.800   2.275  1.00  0.00     0.266 C 
ATOM     14  C   UNL     1       0.117  -5.903   1.290  1.00  0.00     0.149 C 
ATOM     15  O   UNL     1       2.812  -3.971   2.430  1.00  0.00    -0.268 OA
ATOM     16  C   UNL     1       1.888  -6.053   3.063  1.00  0.00     0.081 C 
ATOM     17  S   UNL     1       0.704  -7.111   2.437  1.00  0.00    -0.054 SA
ATOM     18  S   UNL     1      -1.154  -6.224   0.254  1.00  0.00    -0.052 S 
ATOM     19  C   UNL     1       2.685  -6.188   4.130  1.00  0.00     0.029 C 
BRANCH  19  20
ATOM     20  C   UNL     1       2.807  -7.350   5.005  1.00  0.00    -0.024 A 
ATOM     21  C   UNL     1       2.344  -7.288   6.324  1.00  0.00     0.012 A 
ATOM     22  C   UNL     1       3.487  -8.488   4.559  1.00  0.00     0.012 A 
ATOM     23  C   UNL     1       2.568  -8.357   7.192  1.00  0.00     0.047 A 
ATOM     24  C   UNL     1       3.716  -9.555   5.429  1.00  0.00     0.047 A 
ATOM     25  C   UNL     1       3.260  -9.476   6.741  1.00  0.00     0.115 A 
BRANCH  25  26
ATOM     26  O   UNL     1       3.486 -10.484   7.631  1.00  0.00    -0.508 OA
ATOM     27  H   UNL     1       3.171 -10.412   8.510  1.00  0.00     0.293 HD
ENDBRANCH  25  26
ENDBRANCH  19  20
ENDBRANCH   7  12
ENDBRANCH   4   7
ENDBRANCH   2   3
ENDBRANCH   1   2
BRANCH   1  28
ATOM     28  C   UNL     1       0.747  -1.045  -4.283  1.00  0.00     0.023 C 
BRANCH  28  29
ATOM     29  C   UNL     1      -0.447  -1.113  -5.216  1.00  0.00     0.116 C 
BRANCH  29  30
ATOM     30  N   UNL     1      -1.371   0.004  -5.050  1.00  0.00    -0.352 N 
ATOM     31  C   UNL     1      -1.847   0.887  -5.991  1.00  0.00     0.251 C 
ATOM     32  H   UNL     1      -1.701   0.145  -4.133  1.00  0.00     0.163 HD
ATOM     33  O   UNL     1      -2.532   1.848  -5.659  1.00  0.00    -0.269 OA
BRANCH  31  34
ATOM     34  C   UNL     1      -1.482   0.685  -7.406  1.00  0.00     0.039 A 
ATOM     35  C   UNL     1      -0.969   1.759  -8.137  1.00  0.00     0.014 A 
ATOM     36  C   UNL     1      -1.564  -0.587  -7.974  1.00  0.00     0.014 A 
ATOM     37  C   UNL     1      -0.443   1.530  -9.409  1.00  0.00     0.010 A 
ATOM     38  C   UNL     1      -0.944  -0.831  -9.190  1.00  0.00     0.010 A 
ATOM     39  C   UNL     1      -0.376   0.224  -9.920  1.00  0.00    -0.014 A 
BRANCH  39  40
ATOM     40  C   UNL     1       0.274  -0.078 -11.219  1.00  0.00     0.031 A 
ATOM     41  C   UNL     1      -0.534  -0.705 -12.320  1.00  0.00     0.074 A 
ATOM     42  C   UNL     1       1.599   0.111 -11.369  1.00  0.00     0.049 A 
ATOM     43  N   UNL     1      -0.136  -1.182 -13.472  1.00  0.00    -0.248 NA
ATOM     44  C   UNL     1      -1.977  -0.859 -12.073  1.00  0.00     0.031 C 
ATOM     45  C   UNL     1       2.501   0.652 -10.350  1.00  0.00     0.029 A 
ATOM     46  N   UNL     1       2.423  -0.150 -12.435  1.00  0.00    -0.354 N 
ATOM     47  C   UNL     1      -1.270  -1.720 -14.066  1.00  0.00     0.074 A 
ATOM     48  C   UNL     1      -2.359  -1.563 -13.128  1.00  0.00     0.031 C 
ATOM     49  C   UNL     1       3.748   0.704 -10.848  1.00  0.00     0.029 A 
ATOM     50  C   UNL     1       3.740   0.164 -12.204  1.00  0.00     0.049 A 
ATOM     51  H   UNL     1       2.101  -0.527 -13.285  1.00  0.00     0.167 HD
ATOM     52  C   UNL     1      -1.397  -2.271 -15.295  1.00  0.00     0.037 A 
ATOM     53  C   UNL     1       4.820   0.024 -12.997  1.00  0.00     0.037 A 
ATOM     54  C   UNL     1      -0.323  -2.370 -16.246  1.00  0.00     0.049 A 
ATOM     55  C   UNL     1       4.646  -0.559 -14.373  1.00  0.00     0.074 A 
ATOM     56  C   UNL     1      -0.366  -2.827 -17.551  1.00  0.00     0.029 A 
ATOM     57  N   UNL     1       0.988  -1.996 -15.992  1.00  0.00    -0.354 N 
ATOM     58  N   UNL     1       3.555  -1.000 -14.952  1.00  0.00    -0.248 NA
ATOM     59  C   UNL     1       5.851  -0.662 -15.207  1.00  0.00     0.031 C 
ATOM     60  C   UNL     1       0.928  -2.760 -18.077  1.00  0.00     0.029 A 
ATOM     61  C   UNL     1       1.768  -2.227 -17.113  1.00  0.00     0.049 A 
ATOM     62  H   UNL     1       1.316  -1.623 -15.143  1.00  0.00     0.167 HD
ATOM     63  C   UNL     1       3.936  -1.409 -16.222  1.00  0.00     0.074 A 
ATOM     64  C   UNL     1       5.357  -1.152 -16.335  1.00  0.00     0.031 C 
ATOM     65  C   UNL     1       3.179  -1.953 -17.205  1.00  0.00     0.037 A 
BRANCH  52  66
ATOM     66  C   UNL     1      -2.748  -2.791 -15.685  1.00  0.00     0.064 A 
ATOM     67  C   UNL     1      -3.823  -1.926 -15.939  1.00  0.00     0.173 A 
ATOM     68  C   UNL     1      -2.966  -4.169 -15.829  1.00  0.00     0.173 A 
ATOM     69  F   UNL     1      -3.671  -0.600 -15.799  1.00  0.00    -0.203 F 
ATOM     70  C   UNL     1      -5.075  -2.423 -16.292  1.00  0.00     0.198 A 
ATOM     71  C   UNL     1      -4.211  -4.661 -16.212  1.00  0.00     0.198 A 
ATOM     72  F   UNL     1      -1.970  -5.039 -15.600  1.00  0.00    -0.203 F 
ATOM     73  F   UNL     1      -6.100  -1.580 -16.477  1.00  0.00    -0.200 F 
ATOM     74  C   UNL     1      -5.266  -3.789 -16.435  1.00  0.00     0.200 A 
ATOM     75  F   UNL     1      -4.392  -5.981 -16.359  1.00  0.00    -0.200 F 
ATOM     76  F   UNL     1      -6.470  -4.266 -16.779  1.00  0.00    -0.200 F 
ENDBRANCH  52  66
BRANCH  53  77
ATOM     77  C   UNL     1       6.155   0.468 -12.521  1.00  0.00     0.064 A 
ATOM     78  C   UNL     1       6.767   1.606 -13.066  1.00  0.00     0.173 A 
ATOM     79  C   UNL     1       6.847  -0.229 -11.520  1.00  0.00     0.173 A 
ATOM     80  F   UNL     1       6.154   2.293 -14.040  1.00  0.00    -0.203 F 
ATOM     81  C   UNL     1       8.028   2.018 -12.641  1.00  0.00     0.198 A 
ATOM     82  C   UNL     1       8.097   0.199 -11.078  1.00  0.00     0.198 A 
ATOM     83  F   UNL     1       6.302  -1.321 -10.963  1.00  0.00    -0.203 F 
ATOM     84  F   UNL     1       8.608   3.085 -13.208  1.00  0.00    -0.200 F 
ATOM     85  C   UNL     1       8.690   1.318 -11.644  1.00  0.00     0.200 A 
ATOM     86  F   UNL     1       8.729  -0.474 -10.106  1.00  0.00    -0.200 F 
ATOM     87  F   UNL     1       9.902   1.716 -11.233  1.00  0.00    -0.200 F 
ENDBRANCH  53  77
BRANCH  65  88
ATOM     88  C   UNL     1       3.863  -2.280 -18.498  1.00  0.00     0.064 A 
ATOM     89  C   UNL     1       4.713  -3.388 -18.616  1.00  0.00     0.173 A 
ATOM     90  C   UNL     1       3.618  -1.509 -19.645  1.00  0.00     0.173 A 
ATOM     91  F   UNL     1       4.988  -4.144 -17.543  1.00  0.00    -0.203 F 
ATOM     92  C   UNL     1       5.307  -3.705 -19.834  1.00  0.00     0.198 A 
ATOM     93  C   UNL     1       4.193  -1.844 -20.866  1.00  0.00     0.198 A 
ATOM     94  F   UNL     1       2.807  -0.443 -19.582  1.00  0.00    -0.203 F 
ATOM     95  F   UNL     1       6.144  -4.748 -19.917  1.00  0.00    -0.200 F 
ATOM     96  C   UNL     1       5.040  -2.938 -20.959  1.00  0.00     0.200 A 
ATOM     97  F   UNL     1       3.925  -1.110 -21.955  1.00  0.00    -0.200 F 
ATOM     98  F   UNL     1       5.604  -3.252 -22.133  1.00  0.00    -0.200 F 
ENDBRANCH  65  88
ENDBRANCH  39  40
ENDBRANCH  31  34
ENDBRANCH  29  30
ENDBRANCH  28  29
ENDBRANCH   1  28
TORSDOF 16
