REMARK SMILES O=C(NCCCCNC(=O)c1cc(N2CCN(c3ccc(F)cc3)CC2)ccc1NC(=O)C1CCCC1)c1ccc(-c2c3nc(c(-c4c(F)c(F)c(F)c(F)c4F)c4ccc([nH]4)c(-c4c(F)c(F)c(F)c(F)c4F)c4nc(c(-c5c(F)c(F)c(F)c(F)c5F)c5ccc2[nH]5)C=C4)C=C3)cc1
REMARK SMILES IDX 5 1 4 2 3 3 1 4 2 5 38 7 39 8 100 9 40 10 99 11 41 12 42 13
REMARK SMILES IDX 43 14 93 15 44 16 98 17 92 18 94 19 45 20 97 21 91 22 90 23
REMARK SMILES IDX 46 25 78 26 58 27 77 28 59 29 62 30 76 31 95 32 60 33 61 34
REMARK SMILES IDX 75 36 96 37 63 38 47 39 48 40 56 41 49 42 50 43 54 44 57 45
REMARK SMILES IDX 51 46 52 47 55 48 53 49 79 50 80 51 88 52 81 53 82 54 86 55
REMARK SMILES IDX 89 56 83 57 84 58 87 59 85 60 64 61 65 62 73 63 66 64 67 65
REMARK SMILES IDX 71 66 74 67 68 68 69 69 72 70 70 71 6 72 7 73 8 74 9 75
REMARK SMILES IDX 10 77 11 78 12 79 29 80 13 81 28 82 27 83 30 84 31 85 32 87
REMARK SMILES IDX 33 88 34 89 37 90 35 91 36 92 14 93 15 94 26 95 16 96 25 97
REMARK SMILES IDX 17 98 18 99 19 100 24 101 20 102 23 103 21 104 22 105
REMARK H PARENT 3 6 94 24 62 35 8 76 30 86
REMARK Flexibility Score: inf
ROOT
ATOM      1  C   UNL     1       4.877   2.628   0.617  1.00  0.00     0.023 C 
ENDROOT
BRANCH   1   2
ATOM      2  C   UNL     1       4.529   1.163   0.852  1.00  0.00     0.116 C 
BRANCH   2   3
ATOM      3  N   UNL     1       3.098   0.914   0.813  1.00  0.00    -0.352 N 
ATOM      4  O   UNL     1       1.150   0.183  -0.065  1.00  0.00    -0.269 OA
ATOM      5  C   UNL     1       2.373   0.140  -0.063  1.00  0.00     0.251 C 
ATOM      6  H   UNL     1       2.572   1.364   1.513  1.00  0.00     0.163 HD
BRANCH   5   7
ATOM      7  C   UNL     1       3.081  -0.742  -1.018  1.00  0.00     0.039 A 
ATOM      8  C   UNL     1       4.140  -1.546  -0.591  1.00  0.00     0.014 A 
ATOM      9  C   UNL     1       2.657  -0.787  -2.350  1.00  0.00     0.014 A 
ATOM     10  C   UNL     1       4.853  -2.301  -1.515  1.00  0.00     0.010 A 
ATOM     11  C   UNL     1       3.319  -1.615  -3.260  1.00  0.00     0.010 A 
ATOM     12  C   UNL     1       4.429  -2.371  -2.851  1.00  0.00    -0.014 A 
BRANCH  12  13
ATOM     13  C   UNL     1       5.073  -3.345  -3.767  1.00  0.00     0.031 A 
ATOM     14  C   UNL     1       5.840  -2.899  -4.977  1.00  0.00     0.074 A 
ATOM     15  C   UNL     1       4.934  -4.658  -3.491  1.00  0.00     0.049 A 
ATOM     16  N   UNL     1       6.420  -3.630  -5.896  1.00  0.00    -0.248 NA
ATOM     17  C   UNL     1       5.972  -1.450  -5.193  1.00  0.00     0.031 C 
ATOM     18  C   UNL     1       4.193  -5.202  -2.349  1.00  0.00     0.029 A 
ATOM     19  N   UNL     1       5.401  -5.771  -4.141  1.00  0.00    -0.354 N 
ATOM     20  C   UNL     1       6.965  -2.736  -6.808  1.00  0.00     0.074 A 
ATOM     21  C   UNL     1       6.639  -1.405  -6.340  1.00  0.00     0.031 C 
ATOM     22  C   UNL     1       4.269  -6.539  -2.369  1.00  0.00     0.029 A 
ATOM     23  C   UNL     1       4.999  -6.950  -3.561  1.00  0.00     0.049 A 
ATOM     24  H   UNL     1       5.968  -5.730  -4.945  1.00  0.00     0.167 HD
ATOM     25  C   UNL     1       7.671  -3.012  -7.930  1.00  0.00     0.037 A 
ATOM     26  C   UNL     1       5.158  -8.223  -3.967  1.00  0.00     0.037 A 
ATOM     27  C   UNL     1       8.008  -4.343  -8.370  1.00  0.00     0.049 A 
ATOM     28  C   UNL     1       5.910  -8.488  -5.239  1.00  0.00     0.074 A 
ATOM     29  C   UNL     1       8.795  -4.721  -9.445  1.00  0.00     0.029 A 
ATOM     30  N   UNL     1       7.564  -5.512  -7.770  1.00  0.00    -0.354 N 
ATOM     31  N   UNL     1       6.491  -7.636  -6.048  1.00  0.00    -0.248 NA
ATOM     32  C   UNL     1       6.023  -9.890  -5.662  1.00  0.00     0.031 C 
ATOM     33  C   UNL     1       8.768  -6.115  -9.539  1.00  0.00     0.029 A 
ATOM     34  C   UNL     1       8.016  -6.610  -8.486  1.00  0.00     0.049 A 
ATOM     35  H   UNL     1       7.011  -5.556  -6.957  1.00  0.00     0.167 HD
ATOM     36  C   UNL     1       7.044  -8.396  -7.067  1.00  0.00     0.074 A 
ATOM     37  C   UNL     1       6.760  -9.781  -6.758  1.00  0.00     0.031 C 
ATOM     38  C   UNL     1       7.719  -7.983  -8.167  1.00  0.00     0.037 A 
BRANCH  25  39
ATOM     39  C   UNL     1       8.121  -1.869  -8.794  1.00  0.00     0.064 A 
ATOM     40  C   UNL     1       9.175  -1.024  -8.417  1.00  0.00     0.173 A 
ATOM     41  C   UNL     1       7.564  -1.693 -10.071  1.00  0.00     0.173 A 
ATOM     42  F   UNL     1       9.740  -1.148  -7.207  1.00  0.00    -0.203 F 
ATOM     43  C   UNL     1       9.650  -0.042  -9.284  1.00  0.00     0.198 A 
ATOM     44  C   UNL     1       8.058  -0.727 -10.944  1.00  0.00     0.198 A 
ATOM     45  F   UNL     1       6.560  -2.481 -10.485  1.00  0.00    -0.203 F 
ATOM     46  F   UNL     1      10.646   0.766  -8.897  1.00  0.00    -0.200 F 
ATOM     47  C   UNL     1       9.100   0.097 -10.550  1.00  0.00     0.200 A 
ATOM     48  F   UNL     1       7.536  -0.607 -12.173  1.00  0.00    -0.200 F 
ATOM     49  F   UNL     1       9.576   1.026 -11.391  1.00  0.00    -0.200 F 
ENDBRANCH  25  39
BRANCH  26  50
ATOM     50  C   UNL     1       4.545  -9.334  -3.192  1.00  0.00     0.064 A 
ATOM     51  C   UNL     1       5.335 -10.301  -2.557  1.00  0.00     0.173 A 
ATOM     52  C   UNL     1       3.150  -9.464  -3.093  1.00  0.00     0.173 A 
ATOM     53  F   UNL     1       6.672 -10.232  -2.639  1.00  0.00    -0.203 F 
ATOM     54  C   UNL     1       4.755 -11.372  -1.881  1.00  0.00     0.198 A 
ATOM     55  C   UNL     1       2.572 -10.513  -2.383  1.00  0.00     0.198 A 
ATOM     56  F   UNL     1       2.346  -8.564  -3.678  1.00  0.00    -0.203 F 
ATOM     57  F   UNL     1       5.534 -12.317  -1.337  1.00  0.00    -0.200 F 
ATOM     58  C   UNL     1       3.375 -11.474  -1.789  1.00  0.00     0.200 A 
ATOM     59  F   UNL     1       1.239 -10.597  -2.282  1.00  0.00    -0.200 F 
ATOM     60  F   UNL     1       2.819 -12.506  -1.140  1.00  0.00    -0.200 F 
ENDBRANCH  26  50
BRANCH  38  61
ATOM     61  C   UNL     1       8.200  -9.043  -9.113  1.00  0.00     0.064 A 
ATOM     62  C   UNL     1       7.307  -9.757  -9.925  1.00  0.00     0.173 A 
ATOM     63  C   UNL     1       9.570  -9.320  -9.238  1.00  0.00     0.173 A 
ATOM     64  F   UNL     1       5.986  -9.542  -9.827  1.00  0.00    -0.203 F 
ATOM     65  C   UNL     1       7.766 -10.723 -10.816  1.00  0.00     0.198 A 
ATOM     66  C   UNL     1      10.028 -10.263 -10.153  1.00  0.00     0.198 A 
ATOM     67  F   UNL     1      10.465  -8.663  -8.486  1.00  0.00    -0.203 F 
ATOM     68  F   UNL     1       6.891 -11.425 -11.549  1.00  0.00    -0.200 F 
ATOM     69  C   UNL     1       9.126 -10.968 -10.936  1.00  0.00     0.200 A 
ATOM     70  F   UNL     1      11.343 -10.489 -10.279  1.00  0.00    -0.200 F 
ATOM     71  F   UNL     1       9.567 -11.889 -11.803  1.00  0.00    -0.200 F 
ENDBRANCH  38  61
ENDBRANCH  12  13
ENDBRANCH   5   7
ENDBRANCH   2   3
ENDBRANCH   1   2
BRANCH   1  72
ATOM     72  C   UNL     1       4.387   3.602   1.692  1.00  0.00     0.023 C 
BRANCH  72  73
ATOM     73  C   UNL     1       4.757   3.234   3.127  1.00  0.00     0.116 C 
BRANCH  73  74
ATOM     74  N   UNL     1       6.190   3.078   3.303  1.00  0.00    -0.352 N 
ATOM     75  C   UNL     1       7.034   3.581   4.256  1.00  0.00     0.253 C 
ATOM     76  H   UNL     1       6.628   2.517   2.623  1.00  0.00     0.163 HD
ATOM     77  O   UNL     1       8.246   3.482   4.072  1.00  0.00    -0.269 OA
BRANCH  75  78
ATOM     78  C   UNL     1       6.556   4.209   5.510  1.00  0.00     0.065 A 
ATOM     79  C   UNL     1       7.173   5.434   5.861  1.00  0.00     0.042 A 
ATOM     80  C   UNL     1       5.677   3.576   6.409  1.00  0.00     0.054 A 
ATOM     81  C   UNL     1       6.981   6.015   7.117  1.00  0.00     0.038 A 
ATOM     82  C   UNL     1       5.576   4.108   7.689  1.00  0.00     0.029 A 
ATOM     83  C   UNL     1       6.178   5.317   8.020  1.00  0.00     0.028 A 
BRANCH  80  84
ATOM     84  N   UNL     1       4.933   2.437   6.037  1.00  0.00    -0.325 N 
ATOM     85  C   UNL     1       3.657   2.047   6.372  1.00  0.00     0.227 C 
ATOM     86  H   UNL     1       5.407   1.816   5.438  1.00  0.00     0.169 HD
ATOM     87  O   UNL     1       3.202   1.048   5.808  1.00  0.00    -0.274 OA
BRANCH  85  88
ATOM     88  C   UNL     1       2.824   2.832   7.379  1.00  0.00     0.079 C 
ATOM     89  C   UNL     1       2.485   4.273   6.989  1.00  0.00     0.013 C 
ATOM     90  C   UNL     1       1.416   2.294   7.648  1.00  0.00     0.013 C 
ATOM     91  C   UNL     1       1.551   4.689   8.116  1.00  0.00     0.001 C 
ATOM     92  C   UNL     1       0.737   3.431   8.424  1.00  0.00     0.001 C 
ENDBRANCH  85  88
ENDBRANCH  80  84
BRANCH  81  93
ATOM     93  N   UNL     1       7.618   7.165   7.512  1.00  0.00    -0.368 N 
ATOM     94  C   UNL     1       7.649   8.414   6.730  1.00  0.00     0.138 C 
ATOM     95  C   UNL     1       8.225   7.244   8.850  1.00  0.00     0.138 C 
ATOM     96  C   UNL     1       7.106   9.622   7.562  1.00  0.00     0.138 C 
ATOM     97  C   UNL     1       7.554   8.362   9.663  1.00  0.00     0.138 C 
ATOM     98  N   UNL     1       7.641   9.638   8.941  1.00  0.00    -0.368 N 
BRANCH  98  99
ATOM     99  C   UNL     1       8.543  10.604   9.340  1.00  0.00     0.037 A 
ATOM    100  C   UNL     1       8.164  11.954   9.364  1.00  0.00     0.029 A 
ATOM    101  C   UNL     1       9.835  10.281   9.785  1.00  0.00     0.029 A 
ATOM    102  C   UNL     1       9.034  12.942   9.838  1.00  0.00     0.041 A 
ATOM    103  C   UNL     1      10.717  11.264  10.241  1.00  0.00     0.041 A 
ATOM    104  C   UNL     1      10.303  12.586  10.271  1.00  0.00     0.123 A 
ATOM    105  F   UNL     1      11.137  13.529  10.728  1.00  0.00    -0.207 F 
ENDBRANCH  98  99
ENDBRANCH  81  93
ENDBRANCH  75  78
ENDBRANCH  73  74
ENDBRANCH  72  73
ENDBRANCH   1  72
TORSDOF 15
