REMARK SMILES C[C@@H]1[NH2+]CC[C@H]1C(=O)NCc1cccc(C(=O)NCCCCNC(=O)c2ccc(-c3c4nc(c(-c5c(F)c(F)c(F)c(F)c5F)c5ccc([nH]5)c(-c5c(F)c(F)c(F)c(F)c5F)c5nc(c(-c6c(F)c(F)c(F)c(F)c6F)c6ccc3[nH]6)C=C5)C=C4)cc2)c1
REMARK SMILES IDX 20 1 19 2 18 3 16 4 17 5 15 7 11 8 12 9 89 10 13 11 14 12
REMARK SMILES IDX 10 13 9 14 7 15 8 16 6 18 1 19 2 20 3 21 4 22 5 25 21 26
REMARK SMILES IDX 22 27 23 28 24 29 25 31 26 32 27 33 88 34 28 35 87 36 29 37
REMARK SMILES IDX 30 38 31 39 81 40 32 41 86 42 80 43 82 44 33 45 85 46 79 47
REMARK SMILES IDX 78 48 34 50 66 51 46 52 65 53 47 54 50 55 64 56 83 57 48 58
REMARK SMILES IDX 49 59 63 61 84 62 51 63 35 64 36 65 44 66 37 67 38 68 42 69
REMARK SMILES IDX 45 70 39 71 40 72 43 73 41 74 67 75 68 76 76 77 69 78 70 79
REMARK SMILES IDX 74 80 77 81 71 82 72 83 75 84 73 85 52 86 53 87 61 88 54 89
REMARK SMILES IDX 55 90 59 91 62 92 56 93 57 94 60 95 58 96
REMARK H PARENT 18 6 9 17 3 23 3 24 23 30 82 49 50 60
REMARK Flexibility Score: inf
ROOT
ATOM      1  C   UNL     1      -0.035   4.132   6.388  1.00  0.00     0.023 C 
ENDROOT
BRANCH   1   2
ATOM      2  C   UNL     1       0.904   3.170   5.677  1.00  0.00     0.116 C 
BRANCH   2   3
ATOM      3  N   UNL     1       1.812   2.420   6.533  1.00  0.00    -0.352 N 
ATOM      4  C   UNL     1       2.144   1.076   6.556  1.00  0.00     0.251 C 
ATOM      5  O   UNL     1       2.979   0.691   7.373  1.00  0.00    -0.269 OA
ATOM      6  H   UNL     1       2.269   2.963   7.215  1.00  0.00     0.163 HD
BRANCH   4   7
ATOM      7  C   UNL     1       1.453   0.076   5.693  1.00  0.00     0.040 A 
ATOM      8  C   UNL     1      -0.086  -0.356   3.873  1.00  0.00    -0.028 A 
ATOM      9  C   UNL     1      -0.328  -1.634   4.391  1.00  0.00     0.005 A 
ATOM     10  C   UNL     1       0.938   0.407   4.443  1.00  0.00     0.019 A 
ATOM     11  C   UNL     1       0.364  -2.079   5.519  1.00  0.00     0.001 A 
ATOM     12  C   UNL     1       1.213  -1.204   6.201  1.00  0.00     0.014 A 
BRANCH   8  13
ATOM     13  C   UNL     1      -1.043   0.236   2.863  1.00  0.00     0.151 C 
BRANCH  13  14
ATOM     14  N   UNL     1      -0.679   1.573   2.429  1.00  0.00    -0.352 N 
ATOM     15  C   UNL     1      -0.171   2.029   1.256  1.00  0.00     0.229 C 
ATOM     16  O   UNL     1       0.189   3.208   1.222  1.00  0.00    -0.275 OA
ATOM     17  H   UNL     1      -0.828   2.272   3.106  1.00  0.00     0.163 HD
BRANCH  15  18
ATOM     18  C   UNL     1      -0.068   1.147   0.025  1.00  0.00     0.142 C 
ATOM     19  C   UNL     1       2.082   0.010  -0.687  1.00  0.00     0.076 C 
ATOM     20  C   UNL     1       0.852  -0.059   0.213  1.00  0.00     0.192 C 
ATOM     21  N   UNL     1       0.078  -1.263  -0.129  1.00  0.00    -0.343 N 
ATOM     22  C   UNL     1      -1.156  -0.844  -0.789  1.00  0.00     0.261 C 
ATOM     23  H   UNL     1      -0.144  -1.783   0.721  1.00  0.00     0.346 HD
ATOM     24  H   UNL     1       0.621  -1.865  -0.748  1.00  0.00     0.346 HD
ATOM     25  C   UNL     1      -1.417   0.602  -0.416  1.00  0.00     0.081 C 
ENDBRANCH  15  18
ENDBRANCH  13  14
ENDBRANCH   8  13
ENDBRANCH   4   7
ENDBRANCH   2   3
ENDBRANCH   1   2
BRANCH   1  26
ATOM     26  C   UNL     1       0.612   5.308   7.096  1.00  0.00     0.023 C 
BRANCH  26  27
ATOM     27  C   UNL     1       1.604   6.112   6.269  1.00  0.00     0.116 C 
BRANCH  27  28
ATOM     28  N   UNL     1       1.049   6.663   5.042  1.00  0.00    -0.352 N 
ATOM     29  C   UNL     1       1.127   7.947   4.547  1.00  0.00     0.251 C 
ATOM     30  H   UNL     1       0.546   6.027   4.484  1.00  0.00     0.163 HD
ATOM     31  O   UNL     1       0.515   8.261   3.539  1.00  0.00    -0.269 OA
BRANCH  29  32
ATOM     32  C   UNL     1       1.930   8.963   5.268  1.00  0.00     0.039 A 
ATOM     33  C   UNL     1       1.396  10.242   5.445  1.00  0.00     0.014 A 
ATOM     34  C   UNL     1       3.193   8.655   5.776  1.00  0.00     0.014 A 
ATOM     35  C   UNL     1       2.103  11.189   6.189  1.00  0.00     0.010 A 
ATOM     36  C   UNL     1       3.847   9.562   6.602  1.00  0.00     0.010 A 
ATOM     37  C   UNL     1       3.320  10.846   6.800  1.00  0.00    -0.014 A 
BRANCH  37  38
ATOM     38  C   UNL     1       4.085  11.832   7.605  1.00  0.00     0.031 A 
ATOM     39  C   UNL     1       5.460  12.252   7.159  1.00  0.00     0.074 A 
ATOM     40  C   UNL     1       3.572  12.307   8.757  1.00  0.00     0.049 A 
ATOM     41  N   UNL     1       6.314  13.054   7.743  1.00  0.00    -0.248 NA
ATOM     42  C   UNL     1       5.956  11.664   5.904  1.00  0.00     0.031 C 
ATOM     43  C   UNL     1       2.276  11.936   9.325  1.00  0.00     0.029 A 
ATOM     44  N   UNL     1       4.086  13.204   9.660  1.00  0.00    -0.354 N 
ATOM     45  C   UNL     1       7.446  13.048   6.939  1.00  0.00     0.074 A 
ATOM     46  C   UNL     1       7.201  12.112   5.865  1.00  0.00     0.031 C 
ATOM     47  C   UNL     1       2.082  12.621  10.463  1.00  0.00     0.029 A 
ATOM     48  C   UNL     1       3.253  13.454  10.724  1.00  0.00     0.049 A 
ATOM     49  H   UNL     1       4.968  13.628   9.556  1.00  0.00     0.167 HD
ATOM     50  C   UNL     1       8.578  13.782   7.063  1.00  0.00     0.037 A 
ATOM     51  C   UNL     1       3.417  14.265  11.786  1.00  0.00     0.037 A 
ATOM     52  C   UNL     1       8.805  14.738   8.114  1.00  0.00     0.049 A 
ATOM     53  C   UNL     1       4.678  15.082  11.894  1.00  0.00     0.074 A 
ATOM     54  C   UNL     1       9.893  15.571   8.304  1.00  0.00     0.029 A 
ATOM     55  N   UNL     1       7.920  14.990   9.153  1.00  0.00    -0.354 N 
ATOM     56  N   UNL     1       5.713  15.120  11.091  1.00  0.00    -0.248 NA
ATOM     57  C   UNL     1       4.784  15.983  13.050  1.00  0.00     0.031 C 
ATOM     58  C   UNL     1       9.687  16.295   9.482  1.00  0.00     0.029 A 
ATOM     59  C   UNL     1       8.444  15.958   9.994  1.00  0.00     0.049 A 
ATOM     60  H   UNL     1       7.050  14.547   9.274  1.00  0.00     0.167 HD
ATOM     61  C   UNL     1       6.572  16.075  11.619  1.00  0.00     0.074 A 
ATOM     62  C   UNL     1       5.932  16.599  12.807  1.00  0.00     0.031 C 
ATOM     63  C   UNL     1       7.781  16.484  11.160  1.00  0.00     0.037 A 
BRANCH  50  64
ATOM     64  C   UNL     1       9.650  13.582   6.030  1.00  0.00     0.064 A 
ATOM     65  C   UNL     1       9.472  13.982   4.696  1.00  0.00     0.173 A 
ATOM     66  C   UNL     1      10.879  13.005   6.381  1.00  0.00     0.173 A 
ATOM     67  F   UNL     1       8.311  14.528   4.303  1.00  0.00    -0.203 F 
ATOM     68  C   UNL     1      10.469  13.777   3.746  1.00  0.00     0.198 A 
ATOM     69  C   UNL     1      11.888  12.834   5.436  1.00  0.00     0.198 A 
ATOM     70  F   UNL     1      11.106  12.609   7.643  1.00  0.00    -0.203 F 
ATOM     71  F   UNL     1      10.252  14.113   2.466  1.00  0.00    -0.200 F 
ATOM     72  C   UNL     1      11.679  13.211   4.118  1.00  0.00     0.200 A 
ATOM     73  F   UNL     1      13.062  12.300   5.800  1.00  0.00    -0.200 F 
ATOM     74  F   UNL     1      12.640  13.021   3.204  1.00  0.00    -0.200 F 
ENDBRANCH  50  64
BRANCH  51  75
ATOM     75  C   UNL     1       2.346  14.380  12.810  1.00  0.00     0.064 A 
ATOM     76  C   UNL     1       1.607  15.565  12.949  1.00  0.00     0.173 A 
ATOM     77  C   UNL     1       2.046  13.321  13.679  1.00  0.00     0.173 A 
ATOM     78  F   UNL     1       1.868  16.613  12.154  1.00  0.00    -0.203 F 
ATOM     79  C   UNL     1       0.631  15.695  13.935  1.00  0.00     0.198 A 
ATOM     80  C   UNL     1       1.048  13.442  14.645  1.00  0.00     0.198 A 
ATOM     81  F   UNL     1       2.718  12.165  13.585  1.00  0.00    -0.203 F 
ATOM     82  F   UNL     1      -0.022  16.856  14.079  1.00  0.00    -0.200 F 
ATOM     83  C   UNL     1       0.349  14.632  14.779  1.00  0.00     0.200 A 
ATOM     84  F   UNL     1       0.768  12.407  15.449  1.00  0.00    -0.200 F 
ATOM     85  F   UNL     1      -0.590  14.757  15.726  1.00  0.00    -0.200 F 
ENDBRANCH  51  75
BRANCH  63  86
ATOM     86  C   UNL     1       8.462  17.596  11.906  1.00  0.00     0.064 A 
ATOM     87  C   UNL     1       9.004  17.410  13.186  1.00  0.00     0.173 A 
ATOM     88  C   UNL     1       8.602  18.859  11.310  1.00  0.00     0.173 A 
ATOM     89  F   UNL     1       8.886  16.225  13.804  1.00  0.00    -0.203 F 
ATOM     90  C   UNL     1       9.630  18.457  13.856  1.00  0.00     0.198 A 
ATOM     91  C   UNL     1       9.259  19.894  11.969  1.00  0.00     0.198 A 
ATOM     92  F   UNL     1       8.111  19.087  10.083  1.00  0.00    -0.203 F 
ATOM     93  F   UNL     1      10.089  18.273  15.102  1.00  0.00    -0.200 F 
ATOM     94  C   UNL     1       9.763  19.695  13.245  1.00  0.00     0.200 A 
ATOM     95  F   UNL     1       9.401  21.084  11.370  1.00  0.00    -0.200 F 
ATOM     96  F   UNL     1      10.371  20.701  13.890  1.00  0.00    -0.200 F 
ENDBRANCH  63  86
ENDBRANCH  37  38
ENDBRANCH  29  32
ENDBRANCH  27  28
ENDBRANCH  26  27
ENDBRANCH   1  26
TORSDOF 14
