REMARK SMILES COc1ccc(OC)c(NC(=O)[C@@H]2[C@@H](C(=O)NCCCCNC(=O)c3ccc(-c4c5nc(c(-c6c(F)c(F)c(F)c(F)c6F)c6ccc([nH]6)c(-c6c(F)c(F)c(F)c(F)c6F)c6nc(c(-c7c(F)c(F)c(F)c(F)c7F)c7ccc4[nH]7)C=C6)C=C5)cc3)[C@H]3C=C[C@@H]2C3)c1
REMARK SMILES IDX 19 1 18 2 17 3 15 4 16 5 14 7 13 8 91 9 88 10 90 11 92 12
REMARK SMILES IDX 89 13 11 14 10 15 12 17 9 18 3 19 4 20 93 21 5 22 6 23 2 24
REMARK SMILES IDX 1 25 7 26 8 27 20 28 21 29 22 30 23 31 24 33 25 34 26 35
REMARK SMILES IDX 87 36 27 37 86 38 28 39 29 40 30 41 80 42 31 43 85 44 79 45
REMARK SMILES IDX 81 46 32 47 84 48 78 49 77 50 33 52 65 53 45 54 64 55 46 56
REMARK SMILES IDX 49 57 63 58 82 59 47 60 48 61 62 63 83 64 50 65 34 66 35 67
REMARK SMILES IDX 43 68 36 69 37 70 41 71 44 72 38 73 39 74 42 75 40 76 66 77
REMARK SMILES IDX 67 78 75 79 68 80 69 81 73 82 76 83 70 84 71 85 74 86 72 87
REMARK SMILES IDX 51 88 52 89 60 90 53 91 54 92 58 93 61 94 55 95 56 96 59 97
REMARK SMILES IDX 57 98
REMARK H PARENT 17 6 10 16 22 32 81 51 49 62
REMARK Flexibility Score: inf
ROOT
ATOM      1  C   UNL     1       1.871  11.743  -1.468  1.00  0.00     0.023 C 
ENDROOT
BRANCH   1   2
ATOM      2  C   UNL     1       1.674  10.326  -2.013  1.00  0.00     0.116 C 
BRANCH   2   3
ATOM      3  N   UNL     1       2.870   9.813  -2.631  1.00  0.00    -0.356 N 
ATOM      4  C   UNL     1       3.859   9.013  -2.183  1.00  0.00     0.224 C 
ATOM      5  O   UNL     1       4.655   8.640  -3.056  1.00  0.00    -0.275 OA
ATOM      6  H   UNL     1       2.989  10.103  -3.564  1.00  0.00     0.163 HD
BRANCH   4   7
ATOM      7  C   UNL     1       4.061   8.521  -0.757  1.00  0.00     0.098 C 
ATOM      8  C   UNL     1       3.365   7.162  -0.376  1.00  0.00     0.099 C 
ATOM      9  C   UNL     1       3.140   7.395   1.146  1.00  0.00     0.025 C 
ATOM     10  C   UNL     1       3.842   9.418   0.494  1.00  0.00     0.025 C 
ATOM     11  C   UNL     1       1.966   8.325   1.294  1.00  0.00    -0.027 C 
ATOM     12  C   UNL     1       4.245   8.387   1.553  1.00  0.00     0.017 C 
ATOM     13  C   UNL     1       2.402   9.541   0.946  1.00  0.00    -0.027 C 
BRANCH   8  14
ATOM     14  C   UNL     1       4.270   5.947  -0.564  1.00  0.00     0.229 C 
ATOM     15  N   UNL     1       3.817   4.691  -0.857  1.00  0.00    -0.323 N 
ATOM     16  H   UNL     1       4.554   4.064  -1.043  1.00  0.00     0.170 HD
ATOM     17  O   UNL     1       5.498   6.055  -0.459  1.00  0.00    -0.274 OA
BRANCH  15  18
ATOM     18  C   UNL     1       2.554   4.071  -0.957  1.00  0.00     0.087 A 
ATOM     19  C   UNL     1       1.296   2.116  -1.643  1.00  0.00     0.121 A 
ATOM     20  C   UNL     1       0.086   2.730  -1.337  1.00  0.00     0.050 A 
ATOM     21  C   UNL     1       2.511   2.805  -1.552  1.00  0.00     0.076 A 
ATOM     22  C   UNL     1       0.119   3.951  -0.687  1.00  0.00     0.052 A 
ATOM     23  C   UNL     1       1.361   4.521  -0.381  1.00  0.00     0.142 A 
BRANCH  19  24
ATOM     24  O   UNL     1       1.298   0.776  -1.930  1.00  0.00    -0.497 OA
ATOM     25  C   UNL     1       1.351   0.049  -0.690  1.00  0.00     0.278 C 
ENDBRANCH  19  24
BRANCH  23  26
ATOM     26  O   UNL     1       1.366   5.258   0.780  1.00  0.00    -0.495 OA
ATOM     27  C   UNL     1       1.812   4.395   1.849  1.00  0.00     0.278 C 
ENDBRANCH  23  26
ENDBRANCH  15  18
ENDBRANCH   8  14
ENDBRANCH   4   7
ENDBRANCH   2   3
ENDBRANCH   1   2
BRANCH   1  28
ATOM     28  C   UNL     1       1.393  12.855  -2.402  1.00  0.00     0.023 C 
BRANCH  28  29
ATOM     29  C   UNL     1      -0.098  12.821  -2.719  1.00  0.00     0.116 C 
BRANCH  29  30
ATOM     30  N   UNL     1      -0.965  12.920  -1.552  1.00  0.00    -0.352 N 
ATOM     31  C   UNL     1      -2.227  13.474  -1.489  1.00  0.00     0.251 C 
ATOM     32  H   UNL     1      -0.610  12.549  -0.712  1.00  0.00     0.163 HD
ATOM     33  O   UNL     1      -2.839  13.555  -0.437  1.00  0.00    -0.269 OA
BRANCH  31  34
ATOM     34  C   UNL     1      -2.799  14.022  -2.736  1.00  0.00     0.039 A 
ATOM     35  C   UNL     1      -3.153  15.371  -2.780  1.00  0.00     0.014 A 
ATOM     36  C   UNL     1      -2.850  13.229  -3.884  1.00  0.00     0.014 A 
ATOM     37  C   UNL     1      -3.477  15.951  -4.007  1.00  0.00     0.010 A 
ATOM     38  C   UNL     1      -3.089  13.827  -5.114  1.00  0.00     0.010 A 
ATOM     39  C   UNL     1      -3.397  15.195  -5.189  1.00  0.00    -0.014 A 
BRANCH  39  40
ATOM     40  C   UNL     1      -3.628  15.814  -6.518  1.00  0.00     0.031 A 
ATOM     41  C   UNL     1      -4.766  15.340  -7.375  1.00  0.00     0.074 A 
ATOM     42  C   UNL     1      -2.768  16.741  -6.985  1.00  0.00     0.049 A 
ATOM     43  N   UNL     1      -5.085  15.687  -8.596  1.00  0.00    -0.248 NA
ATOM     44  C   UNL     1      -5.643  14.310  -6.796  1.00  0.00     0.031 C 
ATOM     45  C   UNL     1      -1.586  17.235  -6.276  1.00  0.00     0.029 A 
ATOM     46  N   UNL     1      -2.748  17.423  -8.176  1.00  0.00    -0.354 N 
ATOM     47  C   UNL     1      -6.182  14.907  -8.934  1.00  0.00     0.074 A 
ATOM     48  C   UNL     1      -6.436  14.024  -7.816  1.00  0.00     0.031 C 
ATOM     49  C   UNL     1      -0.971  18.158  -7.035  1.00  0.00     0.029 A 
ATOM     50  C   UNL     1      -1.694  18.296  -8.295  1.00  0.00     0.049 A 
ATOM     51  H   UNL     1      -3.426  17.299  -8.879  1.00  0.00     0.167 HD
ATOM     52  C   UNL     1      -6.931  14.944 -10.061  1.00  0.00     0.037 A 
ATOM     53  C   UNL     1      -1.350  19.113  -9.309  1.00  0.00     0.037 A 
ATOM     54  C   UNL     1      -6.697  15.847 -11.155  1.00  0.00     0.049 A 
ATOM     55  C   UNL     1      -2.211  19.152 -10.543  1.00  0.00     0.074 A 
ATOM     56  C   UNL     1      -7.434  16.008 -12.315  1.00  0.00     0.029 A 
ATOM     57  N   UNL     1      -5.643  16.747 -11.222  1.00  0.00    -0.354 N 
ATOM     58  N   UNL     1      -3.289  18.461 -10.822  1.00  0.00    -0.248 NA
ATOM     59  C   UNL     1      -1.811  20.091 -11.601  1.00  0.00     0.031 C 
ATOM     60  C   UNL     1      -6.806  16.980 -13.100  1.00  0.00     0.029 A 
ATOM     61  C   UNL     1      -5.703  17.457 -12.410  1.00  0.00     0.049 A 
ATOM     62  H   UNL     1      -4.955  16.863 -10.528  1.00  0.00     0.167 HD
ATOM     63  C   UNL     1      -3.711  18.897 -12.070  1.00  0.00     0.074 A 
ATOM     64  C   UNL     1      -2.781  19.925 -12.489  1.00  0.00     0.031 C 
ATOM     65  C   UNL     1      -4.773  18.484 -12.804  1.00  0.00     0.037 A 
BRANCH  52  66
ATOM     66  C   UNL     1      -8.083  13.987 -10.154  1.00  0.00     0.064 A 
ATOM     67  C   UNL     1      -9.222  14.129  -9.346  1.00  0.00     0.173 A 
ATOM     68  C   UNL     1      -8.057  12.926 -11.072  1.00  0.00     0.173 A 
ATOM     69  F   UNL     1      -9.289  15.118  -8.442  1.00  0.00    -0.203 F 
ATOM     70  C   UNL     1     -10.277  13.224  -9.429  1.00  0.00     0.198 A 
ATOM     71  C   UNL     1      -9.129  12.042 -11.174  1.00  0.00     0.198 A 
ATOM     72  F   UNL     1      -6.995  12.747 -11.871  1.00  0.00    -0.203 F 
ATOM     73  F   UNL     1     -11.328  13.347  -8.606  1.00  0.00    -0.200 F 
ATOM     74  C   UNL     1     -10.232  12.186 -10.347  1.00  0.00     0.200 A 
ATOM     75  F   UNL     1      -9.090  11.046 -12.069  1.00  0.00    -0.200 F 
ATOM     76  F   UNL     1     -11.250  11.318 -10.427  1.00  0.00    -0.200 F 
ENDBRANCH  52  66
BRANCH  53  77
ATOM     77  C   UNL     1      -0.153  19.986  -9.187  1.00  0.00     0.064 A 
ATOM     78  C   UNL     1      -0.288  21.374  -9.047  1.00  0.00     0.173 A 
ATOM     79  C   UNL     1       1.144  19.455  -9.210  1.00  0.00     0.173 A 
ATOM     80  F   UNL     1      -1.508  21.931  -9.040  1.00  0.00    -0.203 F 
ATOM     81  C   UNL     1       0.830  22.201  -8.956  1.00  0.00     0.198 A 
ATOM     82  C   UNL     1       2.261  20.280  -9.092  1.00  0.00     0.198 A 
ATOM     83  F   UNL     1       1.327  18.133  -9.336  1.00  0.00    -0.203 F 
ATOM     84  F   UNL     1       0.673  23.529  -8.868  1.00  0.00    -0.200 F 
ATOM     85  C   UNL     1       2.104  21.653  -8.973  1.00  0.00     0.200 A 
ATOM     86  F   UNL     1       3.490  19.746  -9.096  1.00  0.00    -0.200 F 
ATOM     87  F   UNL     1       3.178  22.448  -8.882  1.00  0.00    -0.200 F 
ENDBRANCH  53  77
BRANCH  65  88
ATOM     88  C   UNL     1      -5.006  19.164 -14.120  1.00  0.00     0.064 A 
ATOM     89  C   UNL     1      -4.181  18.924 -15.229  1.00  0.00     0.173 A 
ATOM     90  C   UNL     1      -6.096  20.032 -14.286  1.00  0.00     0.173 A 
ATOM     91  F   UNL     1      -3.117  18.114 -15.115  1.00  0.00    -0.203 F 
ATOM     92  C   UNL     1      -4.427  19.544 -16.450  1.00  0.00     0.198 A 
ATOM     93  C   UNL     1      -6.355  20.628 -15.517  1.00  0.00     0.198 A 
ATOM     94  F   UNL     1      -6.918  20.289 -13.258  1.00  0.00    -0.203 F 
ATOM     95  F   UNL     1      -3.601  19.334 -17.484  1.00  0.00    -0.200 F 
ATOM     96  C   UNL     1      -5.517  20.389 -16.595  1.00  0.00     0.200 A 
ATOM     97  F   UNL     1      -7.417  21.434 -15.659  1.00  0.00    -0.200 F 
ATOM     98  F   UNL     1      -5.757  20.979 -17.775  1.00  0.00    -0.200 F 
ENDBRANCH  65  88
ENDBRANCH  39  40
ENDBRANCH  31  34
ENDBRANCH  29  30
ENDBRANCH  28  29
ENDBRANCH   1  28
TORSDOF 15
