REMARK SMILES NS(=O)(=O)c1ccc(N2N=C(C(=O)NCCCCNC(=O)c3ccc(-c4c5nc(c(-c6c(F)c(F)c(F)c(F)c6F)c6ccc([nH]6)c(-c6c(F)c(F)c(F)c(F)c6F)c6nc(c(-c7c(F)c(F)c(F)c(F)c7F)c7ccc4[nH]7)C=C6)C=C5)cc3)C[C@H]2c2cccs2)cc1
REMARK SMILES IDX 16 1 15 2 14 3 12 4 13 5 11 7 9 8 10 9 86 10 85 11 8 12 5 13
REMARK SMILES IDX 6 14 93 15 7 16 92 17 2 18 3 19 4 20 1 21 87 24 88 25 91 26
REMARK SMILES IDX 89 27 90 28 17 29 18 30 19 31 20 32 21 34 22 35 23 36 84 37
REMARK SMILES IDX 24 38 83 39 25 40 26 41 27 42 77 43 28 44 82 45 76 46 78 47
REMARK SMILES IDX 29 48 81 49 75 50 74 51 30 53 62 54 42 55 61 56 43 57 46 58
REMARK SMILES IDX 60 59 79 60 44 61 45 62 59 64 80 65 47 66 31 67 32 68 40 69
REMARK SMILES IDX 33 70 34 71 38 72 41 73 35 74 36 75 39 76 37 77 63 78 64 79
REMARK SMILES IDX 72 80 65 81 66 82 70 83 73 84 67 85 68 86 71 87 69 88 48 89
REMARK SMILES IDX 49 90 57 91 50 92 51 93 55 94 58 95 52 96 53 97 56 98 54 99
REMARK H PARENT 14 6 1 22 1 23 19 33 78 52 46 63
REMARK Flexibility Score: inf
ROOT
ATOM      1  C   UNL     1       3.169  -9.418  -8.371  1.00  0.00     0.023 C 
ENDROOT
BRANCH   1   2
ATOM      2  C   UNL     1       2.943  -7.913  -8.437  1.00  0.00     0.116 C 
BRANCH   2   3
ATOM      3  N   UNL     1       1.563  -7.573  -8.159  1.00  0.00    -0.351 N 
ATOM      4  C   UNL     1       0.928  -6.877  -7.162  1.00  0.00     0.267 C 
ATOM      5  O   UNL     1      -0.301  -6.860  -7.186  1.00  0.00    -0.268 OA
ATOM      6  H   UNL     1       0.941  -7.919  -8.839  1.00  0.00     0.163 HD
BRANCH   4   7
ATOM      7  C   UNL     1       1.646  -6.094  -6.073  1.00  0.00     0.128 C 
ATOM      8  N   UNL     1       1.897  -4.668  -4.511  1.00  0.00    -0.256 N 
ATOM      9  N   UNL     1       0.980  -5.341  -5.250  1.00  0.00    -0.171 NA
ATOM     10  C   UNL     1       3.280  -5.071  -4.754  1.00  0.00     0.154 C 
ATOM     11  C   UNL     1       3.123  -6.123  -5.856  1.00  0.00     0.097 C 
BRANCH   8  12
ATOM     12  C   UNL     1       1.515  -3.962  -3.380  1.00  0.00     0.060 A 
ATOM     13  C   UNL     1       0.807  -2.499  -1.093  1.00  0.00     0.082 A 
ATOM     14  C   UNL     1       0.451  -3.847  -1.193  1.00  0.00     0.024 A 
ATOM     15  C   UNL     1       1.498  -1.872  -2.127  1.00  0.00     0.024 A 
ATOM     16  C   UNL     1       0.795  -4.568  -2.342  1.00  0.00     0.029 A 
ATOM     17  C   UNL     1       1.847  -2.607  -3.259  1.00  0.00     0.029 A 
BRANCH  13  18
ATOM     18  S   UNL     1       0.360  -1.617   0.369  1.00  0.00     0.238 S 
ATOM     19  O   UNL     1       1.067  -2.200   1.485  1.00  0.00    -0.207 OA
ATOM     20  O   UNL     1      -1.069  -1.412   0.366  1.00  0.00    -0.207 OA
BRANCH  18  21
ATOM     21  N   UNL     1       1.035  -0.088   0.168  1.00  0.00    -0.225 NA
ATOM     22  H   UNL     1       0.818   0.489   0.981  1.00  0.00     0.137 HD
ATOM     23  H   UNL     1       0.648   0.346  -0.670  1.00  0.00     0.137 HD
ENDBRANCH  18  21
ENDBRANCH  13  18
ENDBRANCH   8  12
BRANCH  10  24
ATOM     24  C   UNL     1       4.266  -3.964  -5.088  1.00  0.00     0.030 A 
ATOM     25  C   UNL     1       5.088  -3.292  -4.197  1.00  0.00     0.017 A 
ATOM     26  S   UNL     1       4.447  -3.324  -6.674  1.00  0.00    -0.147 S 
ATOM     27  C   UNL     1       5.889  -2.296  -4.826  1.00  0.00     0.012 A 
ATOM     28  C   UNL     1       5.672  -2.244  -6.183  1.00  0.00     0.065 A 
ENDBRANCH  10  24
ENDBRANCH   4   7
ENDBRANCH   2   3
ENDBRANCH   1   2
BRANCH   1  29
ATOM     29  C   UNL     1       2.602 -10.192  -9.557  1.00  0.00     0.023 C 
BRANCH  29  30
ATOM     30  C   UNL     1       3.085  -9.721 -10.924  1.00  0.00     0.116 C 
BRANCH  30  31
ATOM     31  N   UNL     1       4.537  -9.696 -11.049  1.00  0.00    -0.352 N 
ATOM     32  C   UNL     1       5.311 -10.134 -12.097  1.00  0.00     0.251 C 
ATOM     33  H   UNL     1       5.026  -9.315 -10.284  1.00  0.00     0.163 HD
ATOM     34  O   UNL     1       6.534 -10.141 -12.017  1.00  0.00    -0.269 OA
BRANCH  32  35
ATOM     35  C   UNL     1       4.638 -10.637 -13.309  1.00  0.00     0.039 A 
ATOM     36  C   UNL     1       4.944 -11.917 -13.773  1.00  0.00     0.014 A 
ATOM     37  C   UNL     1       3.643  -9.872 -13.922  1.00  0.00     0.014 A 
ATOM     38  C   UNL     1       4.188 -12.468 -14.808  1.00  0.00     0.010 A 
ATOM     39  C   UNL     1       2.843 -10.451 -14.899  1.00  0.00     0.010 A 
ATOM     40  C   UNL     1       3.102 -11.757 -15.346  1.00  0.00    -0.014 A 
BRANCH  40  41
ATOM     41  C   UNL     1       2.213 -12.352 -16.375  1.00  0.00     0.031 A 
ATOM     42  C   UNL     1       2.120 -11.715 -17.733  1.00  0.00     0.074 A 
ATOM     43  C   UNL     1       1.417 -13.392 -16.054  1.00  0.00     0.049 A 
ATOM     44  N   UNL     1       1.302 -11.983 -18.718  1.00  0.00    -0.248 NA
ATOM     45  C   UNL     1       3.047 -10.605 -18.007  1.00  0.00     0.031 C 
ATOM     46  C   UNL     1       1.378 -14.063 -14.753  1.00  0.00     0.029 A 
ATOM     47  N   UNL     1       0.464 -14.050 -16.793  1.00  0.00    -0.354 N 
ATOM     48  C   UNL     1       1.592 -11.055 -19.710  1.00  0.00     0.074 A 
ATOM     49  C   UNL     1       2.635 -10.195 -19.198  1.00  0.00     0.031 C 
ATOM     50  C   UNL     1       0.456 -15.039 -14.787  1.00  0.00     0.029 A 
ATOM     51  C   UNL     1      -0.193 -15.036 -16.095  1.00  0.00     0.049 A 
ATOM     52  H   UNL     1       0.270 -13.837 -17.734  1.00  0.00     0.167 HD
ATOM     53  C   UNL     1       1.046 -10.945 -20.943  1.00  0.00     0.037 A 
ATOM     54  C   UNL     1      -1.216 -15.831 -16.463  1.00  0.00     0.037 A 
ATOM     55  C   UNL     1       0.050 -11.839 -21.468  1.00  0.00     0.049 A 
ATOM     56  C   UNL     1      -1.786 -15.697 -17.851  1.00  0.00     0.074 A 
ATOM     57  C   UNL     1      -0.491 -11.871 -22.741  1.00  0.00     0.029 A 
ATOM     58  N   UNL     1      -0.552 -12.860 -20.749  1.00  0.00    -0.354 N 
ATOM     59  N   UNL     1      -1.441 -14.874 -18.811  1.00  0.00    -0.248 NA
ATOM     60  C   UNL     1      -2.884 -16.606 -18.210  1.00  0.00     0.031 C 
ATOM     61  C   UNL     1      -1.457 -12.880 -22.779  1.00  0.00     0.029 A 
ATOM     62  C   UNL     1      -1.479 -13.511 -21.545  1.00  0.00     0.049 A 
ATOM     63  H   UNL     1      -0.351 -13.087 -19.812  1.00  0.00     0.167 HD
ATOM     64  C   UNL     1      -2.251 -15.190 -19.894  1.00  0.00     0.074 A 
ATOM     65  C   UNL     1      -3.098 -16.286 -19.478  1.00  0.00     0.031 C 
ATOM     66  C   UNL     1      -2.292 -14.621 -21.123  1.00  0.00     0.037 A 
BRANCH  53  67
ATOM     67  C   UNL     1       1.514  -9.825 -21.824  1.00  0.00     0.064 A 
ATOM     68  C   UNL     1       2.785  -9.834 -22.414  1.00  0.00     0.173 A 
ATOM     69  C   UNL     1       0.645  -8.771 -22.145  1.00  0.00     0.173 A 
ATOM     70  F   UNL     1       3.656 -10.814 -22.129  1.00  0.00    -0.203 F 
ATOM     71  C   UNL     1       3.176  -8.820 -23.285  1.00  0.00     0.198 A 
ATOM     72  C   UNL     1       1.029  -7.774 -23.038  1.00  0.00     0.198 A 
ATOM     73  F   UNL     1      -0.584  -8.719 -21.610  1.00  0.00    -0.203 F 
ATOM     74  F   UNL     1       4.407  -8.832 -23.814  1.00  0.00    -0.200 F 
ATOM     75  C   UNL     1       2.295  -7.798 -23.604  1.00  0.00     0.200 A 
ATOM     76  F   UNL     1       0.171  -6.795 -23.355  1.00  0.00    -0.200 F 
ATOM     77  F   UNL     1       2.665  -6.835 -24.459  1.00  0.00    -0.200 F 
ENDBRANCH  53  67
BRANCH  54  78
ATOM     78  C   UNL     1      -1.777 -16.828 -15.512  1.00  0.00     0.064 A 
ATOM     79  C   UNL     1      -1.638 -18.204 -15.744  1.00  0.00     0.173 A 
ATOM     80  C   UNL     1      -2.503 -16.430 -14.380  1.00  0.00     0.173 A 
ATOM     81  F   UNL     1      -0.971 -18.636 -16.825  1.00  0.00    -0.203 F 
ATOM     82  C   UNL     1      -2.234 -19.142 -14.903  1.00  0.00     0.198 A 
ATOM     83  C   UNL     1      -3.071 -17.369 -13.521  1.00  0.00     0.198 A 
ATOM     84  F   UNL     1      -2.661 -15.126 -14.107  1.00  0.00    -0.203 F 
ATOM     85  F   UNL     1      -2.139 -20.448 -15.186  1.00  0.00    -0.200 F 
ATOM     86  C   UNL     1      -2.948 -18.723 -13.790  1.00  0.00     0.200 A 
ATOM     87  F   UNL     1      -3.748 -16.960 -12.439  1.00  0.00    -0.200 F 
ATOM     88  F   UNL     1      -3.528 -19.624 -12.986  1.00  0.00    -0.200 F 
ENDBRANCH  54  78
BRANCH  66  89
ATOM     89  C   UNL     1      -3.240 -15.205 -22.127  1.00  0.00     0.064 A 
ATOM     90  C   UNL     1      -4.625 -15.013 -22.032  1.00  0.00     0.173 A 
ATOM     91  C   UNL     1      -2.747 -15.914 -23.234  1.00  0.00     0.173 A 
ATOM     92  F   UNL     1      -5.145 -14.354 -20.985  1.00  0.00    -0.203 F 
ATOM     93  C   UNL     1      -5.485 -15.525 -23.000  1.00  0.00     0.198 A 
ATOM     94  C   UNL     1      -3.607 -16.398 -24.215  1.00  0.00     0.198 A 
ATOM     95  F   UNL     1      -1.429 -16.117 -23.374  1.00  0.00    -0.203 F 
ATOM     96  F   UNL     1      -6.809 -15.364 -22.869  1.00  0.00    -0.200 F 
ATOM     97  C   UNL     1      -4.975 -16.208 -24.095  1.00  0.00     0.200 A 
ATOM     98  F   UNL     1      -3.111 -17.044 -25.279  1.00  0.00    -0.200 F 
ATOM     99  F   UNL     1      -5.804 -16.687 -25.032  1.00  0.00    -0.200 F 
ENDBRANCH  66  89
ENDBRANCH  40  41
ENDBRANCH  32  35
ENDBRANCH  30  31
ENDBRANCH  29  30
ENDBRANCH   1  29
TORSDOF 15
