REMARK SMILES CCCCSCC(=O)Nc1sc(C)c(C)c1C(=O)NCCCCNC(=O)c1ccc(-c2c3nc(c(-c4c(F)c(F)c(F)c(F)c4F)c4ccc([nH]4)c(-c4c(F)c(F)c(F)c(F)c4F)c4nc(c(-c5c(F)c(F)c(F)c(F)c5F)c5ccc2[nH]5)C=C4)C=C3)cc1
REMARK SMILES IDX 17 1 18 2 19 3 16 5 10 6 11 7 12 8 14 9 13 10 15 11 9 12
REMARK SMILES IDX 7 13 8 14 6 16 5 17 4 18 3 19 2 20 1 21 20 22 21 23 22 24
REMARK SMILES IDX 23 25 24 26 25 27 26 29 27 30 28 31 89 32 29 33 88 34 30 35
REMARK SMILES IDX 31 36 32 37 82 38 33 39 87 40 81 41 83 42 34 43 86 44 80 45
REMARK SMILES IDX 79 46 35 48 67 49 47 50 66 51 48 52 51 53 65 54 84 55 49 56
REMARK SMILES IDX 50 57 64 59 85 60 52 61 36 62 37 63 45 64 38 65 39 66 43 67
REMARK SMILES IDX 46 68 40 69 41 70 44 71 42 72 68 73 69 74 77 75 70 76 71 77
REMARK SMILES IDX 75 78 78 79 72 80 73 81 76 82 74 83 53 84 54 85 62 86 55 87
REMARK SMILES IDX 56 88 60 89 63 90 57 91 58 92 61 93 59 94
REMARK H PARENT 19 4 9 15 24 28 83 47 51 58
REMARK Flexibility Score: inf
ROOT
ATOM      1  C   UNL     1      -3.771  -3.985   2.724  1.00  0.00     0.254 C 
ATOM      2  O   UNL     1      -4.256  -4.819   3.490  1.00  0.00    -0.269 OA
ATOM      3  N   UNL     1      -3.584  -2.726   3.259  1.00  0.00    -0.352 N 
ATOM      4  H   UNL     1      -3.898  -2.626   4.187  1.00  0.00     0.163 HD
ENDROOT
BRANCH   1   5
ATOM      5  C   UNL     1      -3.478  -4.333   1.316  1.00  0.00     0.077 A 
ATOM      6  C   UNL     1      -2.447  -3.875   0.513  1.00  0.00     0.108 A 
ATOM      7  S   UNL     1      -2.396  -4.595  -1.020  1.00  0.00    -0.122 S 
ATOM      8  C   UNL     1      -3.816  -5.476  -0.743  1.00  0.00     0.007 A 
ATOM      9  C   UNL     1      -4.284  -5.300   0.551  1.00  0.00    -0.022 A 
ATOM     10  C   UNL     1      -4.357  -6.331  -1.843  1.00  0.00     0.057 C 
ATOM     11  C   UNL     1      -5.480  -6.015   1.106  1.00  0.00     0.046 C 
BRANCH   6  12
ATOM     12  N   UNL     1      -1.359  -3.098   0.820  1.00  0.00    -0.316 N 
ATOM     13  C   UNL     1      -1.074  -1.880   0.262  1.00  0.00     0.234 C 
ATOM     14  O   UNL     1      -0.270  -1.173   0.880  1.00  0.00    -0.274 OA
ATOM     15  H   UNL     1      -0.733  -3.443   1.496  1.00  0.00     0.170 HD
BRANCH  13  16
ATOM     16  C   UNL     1      -1.820  -1.319  -0.939  1.00  0.00     0.169 C 
BRANCH  16  17
ATOM     17  S   UNL     1      -1.097  -1.708  -2.561  1.00  0.00    -0.152 SA
BRANCH  17  18
ATOM     18  C   UNL     1       0.696  -1.769  -2.218  1.00  0.00     0.070 C 
BRANCH  18  19
ATOM     19  C   UNL     1       1.418  -0.450  -2.494  1.00  0.00     0.011 C 
BRANCH  19  20
ATOM     20  C   UNL     1       1.206   0.654  -1.458  1.00  0.00    -0.003 C 
ATOM     21  C   UNL     1       2.019   0.440  -0.189  1.00  0.00     0.004 C 
ENDBRANCH  19  20
ENDBRANCH  18  19
ENDBRANCH  17  18
ENDBRANCH  16  17
ENDBRANCH  13  16
ENDBRANCH   6  12
ENDBRANCH   1   5
BRANCH   3  22
ATOM     22  C   UNL     1      -3.006  -1.532   2.691  1.00  0.00     0.116 C 
BRANCH  22  23
ATOM     23  C   UNL     1      -3.443  -0.199   3.286  1.00  0.00     0.023 C 
BRANCH  23  24
ATOM     24  C   UNL     1      -3.168   0.020   4.771  1.00  0.00     0.023 C 
BRANCH  24  25
ATOM     25  C   UNL     1      -1.773  -0.334   5.278  1.00  0.00     0.116 C 
BRANCH  25  26
ATOM     26  N   UNL     1      -0.699   0.471   4.716  1.00  0.00    -0.352 N 
ATOM     27  C   UNL     1       0.161   1.375   5.308  1.00  0.00     0.251 C 
ATOM     28  H   UNL     1      -0.562   0.350   3.748  1.00  0.00     0.163 HD
ATOM     29  O   UNL     1       0.962   1.992   4.621  1.00  0.00    -0.269 OA
BRANCH  27  30
ATOM     30  C   UNL     1       0.095   1.650   6.765  1.00  0.00     0.039 A 
ATOM     31  C   UNL     1       0.173   2.979   7.197  1.00  0.00     0.014 A 
ATOM     32  C   UNL     1      -0.039   0.629   7.705  1.00  0.00     0.014 A 
ATOM     33  C   UNL     1       0.005   3.285   8.552  1.00  0.00     0.010 A 
ATOM     34  C   UNL     1      -0.305   0.940   9.038  1.00  0.00     0.010 A 
ATOM     35  C   UNL     1      -0.297   2.273   9.477  1.00  0.00    -0.014 A 
BRANCH  35  36
ATOM     36  C   UNL     1      -0.626   2.589  10.894  1.00  0.00     0.031 A 
ATOM     37  C   UNL     1       0.217   2.044  12.015  1.00  0.00     0.074 A 
ATOM     38  C   UNL     1      -1.731   3.307  11.179  1.00  0.00     0.049 A 
ATOM     39  N   UNL     1       0.043   2.147  13.310  1.00  0.00    -0.248 NA
ATOM     40  C   UNL     1       1.393   1.249  11.632  1.00  0.00     0.031 C 
ATOM     41  C   UNL     1      -2.670   3.845  10.193  1.00  0.00     0.029 A 
ATOM     42  N   UNL     1      -2.259   3.701  12.385  1.00  0.00    -0.354 N 
ATOM     43  C   UNL     1       1.073   1.418  13.890  1.00  0.00     0.074 A 
ATOM     44  C   UNL     1       1.833   0.828  12.808  1.00  0.00     0.031 C 
ATOM     45  C   UNL     1      -3.638   4.524  10.829  1.00  0.00     0.029 A 
ATOM     46  C   UNL     1      -3.413   4.438  12.268  1.00  0.00     0.049 A 
ATOM     47  H   UNL     1      -1.850   3.475  13.251  1.00  0.00     0.167 HD
ATOM     48  C   UNL     1       1.377   1.274  15.203  1.00  0.00     0.037 A 
ATOM     49  C   UNL     1      -4.202   4.984  13.213  1.00  0.00     0.037 A 
ATOM     50  C   UNL     1       0.641   1.884  16.279  1.00  0.00     0.049 A 
ATOM     51  C   UNL     1      -3.836   4.820  14.663  1.00  0.00     0.074 A 
ATOM     52  C   UNL     1       0.905   1.845  17.637  1.00  0.00     0.029 A 
ATOM     53  N   UNL     1      -0.505   2.649  16.118  1.00  0.00    -0.354 N 
ATOM     54  N   UNL     1      -2.821   4.183  15.195  1.00  0.00    -0.248 NA
ATOM     55  C   UNL     1      -4.723   5.459  15.645  1.00  0.00     0.031 C 
ATOM     56  C   UNL     1      -0.103   2.554  18.301  1.00  0.00     0.029 A 
ATOM     57  C   UNL     1      -0.968   3.075  17.353  1.00  0.00     0.049 A 
ATOM     58  H   UNL     1      -0.927   2.859  15.253  1.00  0.00     0.167 HD
ATOM     59  C   UNL     1      -2.929   4.370  16.566  1.00  0.00     0.074 A 
ATOM     60  C   UNL     1      -4.101   5.193  16.784  1.00  0.00     0.031 C 
ATOM     61  C   UNL     1      -2.130   3.902  17.556  1.00  0.00     0.037 A 
BRANCH  48  62
ATOM     62  C   UNL     1       2.568   0.425  15.547  1.00  0.00     0.064 A 
ATOM     63  C   UNL     1       3.876   0.842  15.253  1.00  0.00     0.173 A 
ATOM     64  C   UNL     1       2.405  -0.805  16.201  1.00  0.00     0.173 A 
ATOM     65  F   UNL     1       4.087   2.005  14.618  1.00  0.00    -0.203 F 
ATOM     66  C   UNL     1       4.972   0.044  15.569  1.00  0.00     0.198 A 
ATOM     67  C   UNL     1       3.505  -1.586  16.544  1.00  0.00     0.198 A 
ATOM     68  F   UNL     1       1.177  -1.248  16.512  1.00  0.00    -0.203 F 
ATOM     69  F   UNL     1       6.206   0.438  15.227  1.00  0.00    -0.200 F 
ATOM     70  C   UNL     1       4.786  -1.166  16.220  1.00  0.00     0.200 A 
ATOM     71  F   UNL     1       3.326  -2.749  17.186  1.00  0.00    -0.200 F 
ATOM     72  F   UNL     1       5.842  -1.932  16.527  1.00  0.00    -0.200 F 
ENDBRANCH  48  62
BRANCH  49  73
ATOM     73  C   UNL     1      -5.398   5.774  12.819  1.00  0.00     0.064 A 
ATOM     74  C   UNL     1      -5.429   7.164  13.000  1.00  0.00     0.173 A 
ATOM     75  C   UNL     1      -6.531   5.162  12.266  1.00  0.00     0.173 A 
ATOM     76  F   UNL     1      -4.377   7.791  13.546  1.00  0.00    -0.203 F 
ATOM     77  C   UNL     1      -6.556   7.910  12.662  1.00  0.00     0.198 A 
ATOM     78  C   UNL     1      -7.648   5.913  11.902  1.00  0.00     0.198 A 
ATOM     79  F   UNL     1      -6.551   3.836  12.068  1.00  0.00    -0.203 F 
ATOM     80  F   UNL     1      -6.576   9.230  12.889  1.00  0.00    -0.200 F 
ATOM     81  C   UNL     1      -7.663   7.284  12.109  1.00  0.00     0.200 A 
ATOM     82  F   UNL     1      -8.711   5.307  11.356  1.00  0.00    -0.200 F 
ATOM     83  F   UNL     1      -8.746   8.002  11.782  1.00  0.00    -0.200 F 
ENDBRANCH  49  73
BRANCH  61  84
ATOM     84  C   UNL     1      -2.471   4.303  18.962  1.00  0.00     0.064 A 
ATOM     85  C   UNL     1      -3.591   3.783  19.626  1.00  0.00     0.173 A 
ATOM     86  C   UNL     1      -1.651   5.202  19.661  1.00  0.00     0.173 A 
ATOM     87  F   UNL     1      -4.415   2.932  18.996  1.00  0.00    -0.203 F 
ATOM     88  C   UNL     1      -3.895   4.171  20.928  1.00  0.00     0.198 A 
ATOM     89  C   UNL     1      -1.941   5.565  20.973  1.00  0.00     0.198 A 
ATOM     90  F   UNL     1      -0.564   5.724  19.073  1.00  0.00    -0.203 F 
ATOM     91  F   UNL     1      -5.000   3.702  21.525  1.00  0.00    -0.200 F 
ATOM     92  C   UNL     1      -3.067   5.056  21.602  1.00  0.00     0.200 A 
ATOM     93  F   UNL     1      -1.133   6.410  21.627  1.00  0.00    -0.200 F 
ATOM     94  F   UNL     1      -3.359   5.427  22.857  1.00  0.00    -0.200 F 
ENDBRANCH  61  84
ENDBRANCH  35  36
ENDBRANCH  27  30
ENDBRANCH  25  26
ENDBRANCH  24  25
ENDBRANCH  23  24
ENDBRANCH  22  23
ENDBRANCH   3  22
TORSDOF 17
