REMARK SMILES Cc1cccc(Nc2nc(C)c(CCO)c(OCC(=O)NCCCCNC(=O)c3ccc(-c4c5nc(c(-c6c(F)c(F)c(F)c(F)c6F)c6ccc([nH]6)c(-c6c(F)c(F)c(F)c(F)c6F)c6nc(c(-c7c(F)c(F)c(F)c(F)c7F)c7ccc4[nH]7)C=C6)C=C5)cc3)n2)c1
REMARK SMILES IDX 22 1 21 2 19 3 20 4 18 6 17 7 16 8 8 9 9 10 92 11 10 12
REMARK SMILES IDX 11 13 12 14 7 15 6 17 1 18 2 19 3 20 93 21 4 22 5 23 13 24
REMARK SMILES IDX 14 25 15 26 23 28 24 29 25 30 26 31 27 32 28 34 29 35 30 36
REMARK SMILES IDX 91 37 31 38 90 39 32 40 33 41 34 42 84 43 35 44 89 45 83 46
REMARK SMILES IDX 85 47 36 48 88 49 82 50 81 51 37 53 69 54 49 55 68 56 50 57
REMARK SMILES IDX 53 58 67 59 86 60 51 61 52 62 66 64 87 65 54 66 38 67 39 68
REMARK SMILES IDX 47 69 40 70 41 71 45 72 48 73 42 74 43 75 46 76 44 77 70 78
REMARK SMILES IDX 71 79 79 80 72 81 73 82 77 83 80 84 74 85 75 86 78 87 76 88
REMARK SMILES IDX 55 89 56 90 64 91 57 92 58 93 62 94 65 95 59 96 60 97 63 98
REMARK SMILES IDX 61 99
REMARK H PARENT 21 5 7 16 15 27 26 33 85 52 53 63
REMARK Flexibility Score: inf
ROOT
ATOM      1  C   UNL     1      -6.227   2.999   4.538  1.00  0.00     0.116 C 
ENDROOT
BRANCH   1   2
ATOM      2  N   UNL     1      -7.345   3.356   3.688  1.00  0.00    -0.353 N 
ATOM      3  C   UNL     1      -7.916   2.664   2.666  1.00  0.00     0.258 C 
ATOM      4  O   UNL     1      -8.863   3.196   2.082  1.00  0.00    -0.271 OA
ATOM      5  H   UNL     1      -7.752   4.232   3.879  1.00  0.00     0.163 HD
BRANCH   3   6
ATOM      6  C   UNL     1      -7.444   1.244   2.318  1.00  0.00     0.331 C 
BRANCH   6   7
ATOM      7  O   UNL     1      -6.168   0.955   1.796  1.00  0.00    -0.467 OA
BRANCH   7   8
ATOM      8  C   UNL     1      -5.589   1.736   0.848  1.00  0.00     0.222 A 
ATOM      9  C   UNL     1      -3.495   2.431   0.175  1.00  0.00     0.230 A 
ATOM     10  N   UNL     1      -4.006   3.190  -0.793  1.00  0.00    -0.218 NA
ATOM     11  N   UNL     1      -4.256   1.755   1.036  1.00  0.00    -0.177 NA
ATOM     12  C   UNL     1      -5.330   3.090  -1.038  1.00  0.00     0.050 A 
ATOM     13  C   UNL     1      -5.767   3.819  -2.277  1.00  0.00     0.067 C 
ATOM     14  C   UNL     1      -6.185   2.290  -0.275  1.00  0.00     0.038 A 
BRANCH   9  15
ATOM     15  N   UNL     1      -2.106   2.304   0.181  1.00  0.00    -0.324 N 
ATOM     16  H   UNL     1      -1.599   3.149   0.189  1.00  0.00     0.170 HD
BRANCH  15  17
ATOM     17  C   UNL     1      -1.333   1.126   0.177  1.00  0.00     0.041 A 
ATOM     18  C   UNL     1       2.378   0.188   0.020  1.00  0.00     0.044 C 
ATOM     19  C   UNL     1       0.883   0.080   0.084  1.00  0.00    -0.049 A 
ATOM     20  C   UNL     1       0.283  -1.184   0.087  1.00  0.00     0.003 A 
ATOM     21  C   UNL     1       0.069   1.224   0.138  1.00  0.00     0.029 A 
ATOM     22  C   UNL     1      -1.101  -1.300   0.164  1.00  0.00     0.002 A 
ATOM     23  C   UNL     1      -1.898  -0.154   0.224  1.00  0.00     0.026 A 
ENDBRANCH  15  17
ENDBRANCH   9  15
BRANCH  14  24
ATOM     24  C   UNL     1      -7.576   1.958  -0.753  1.00  0.00     0.071 C 
BRANCH  24  25
ATOM     25  C   UNL     1      -7.704   0.552  -1.352  1.00  0.00     0.161 C 
BRANCH  25  26
ATOM     26  O   UNL     1      -7.466  -0.479  -0.403  1.00  0.00    -0.396 OA
ATOM     27  H   UNL     1      -6.558  -0.406  -0.069  1.00  0.00     0.210 HD
ENDBRANCH  25  26
ENDBRANCH  24  25
ENDBRANCH  14  24
ENDBRANCH   7   8
ENDBRANCH   6   7
ENDBRANCH   3   6
ENDBRANCH   1   2
BRANCH   1  28
ATOM     28  C   UNL     1      -4.938   3.745   4.178  1.00  0.00     0.023 C 
BRANCH  28  29
ATOM     29  C   UNL     1      -5.081   5.244   3.893  1.00  0.00     0.023 C 
BRANCH  29  30
ATOM     30  C   UNL     1      -5.676   6.066   5.028  1.00  0.00     0.116 C 
BRANCH  30  31
ATOM     31  N   UNL     1      -4.715   6.575   5.992  1.00  0.00    -0.352 N 
ATOM     32  C   UNL     1      -4.928   7.260   7.181  1.00  0.00     0.251 C 
ATOM     33  H   UNL     1      -3.771   6.410   5.767  1.00  0.00     0.163 HD
ATOM     34  O   UNL     1      -3.987   7.718   7.795  1.00  0.00    -0.269 OA
BRANCH  32  35
ATOM     35  C   UNL     1      -6.293   7.303   7.776  1.00  0.00     0.039 A 
ATOM     36  C   UNL     1      -6.407   7.090   9.157  1.00  0.00     0.014 A 
ATOM     37  C   UNL     1      -7.438   7.357   6.989  1.00  0.00     0.014 A 
ATOM     38  C   UNL     1      -7.625   6.676   9.691  1.00  0.00     0.010 A 
ATOM     39  C   UNL     1      -8.618   6.846   7.488  1.00  0.00     0.010 A 
ATOM     40  C   UNL     1      -8.688   6.441   8.823  1.00  0.00    -0.014 A 
BRANCH  40  41
ATOM     41  C   UNL     1      -9.878   5.688   9.192  1.00  0.00     0.031 A 
ATOM     42  C   UNL     1     -11.148   6.389   9.460  1.00  0.00     0.074 A 
ATOM     43  C   UNL     1      -9.823   4.338   9.158  1.00  0.00     0.049 A 
ATOM     44  N   UNL     1     -12.128   5.893  10.133  1.00  0.00    -0.248 NA
ATOM     45  C   UNL     1     -11.397   7.750   9.001  1.00  0.00     0.031 C 
ATOM     46  C   UNL     1     -10.936   3.396   9.213  1.00  0.00     0.029 A 
ATOM     47  N   UNL     1      -8.677   3.530   9.262  1.00  0.00    -0.354 N 
ATOM     48  C   UNL     1     -13.212   6.729   9.980  1.00  0.00     0.074 A 
ATOM     49  C   UNL     1     -12.688   7.897   9.311  1.00  0.00     0.031 C 
ATOM     50  C   UNL     1     -10.474   2.209   9.641  1.00  0.00     0.029 A 
ATOM     51  C   UNL     1      -9.083   2.403  10.013  1.00  0.00     0.049 A 
ATOM     52  H   UNL     1      -7.783   3.710   8.891  1.00  0.00     0.167 HD
ATOM     53  C   UNL     1     -14.453   6.276  10.325  1.00  0.00     0.037 A 
ATOM     54  C   UNL     1      -8.567   2.166  11.254  1.00  0.00     0.037 A 
ATOM     55  C   UNL     1     -14.370   4.951  10.937  1.00  0.00     0.049 A 
ATOM     56  C   UNL     1      -9.605   2.159  12.353  1.00  0.00     0.074 A 
ATOM     57  C   UNL     1     -14.530   3.673  10.427  1.00  0.00     0.029 A 
ATOM     58  N   UNL     1     -13.741   4.807  12.170  1.00  0.00    -0.354 N 
ATOM     59  N   UNL     1     -10.790   2.693  12.238  1.00  0.00    -0.248 NA
ATOM     60  C   UNL     1      -9.378   1.583  13.675  1.00  0.00     0.031 C 
ATOM     61  C   UNL     1     -13.917   2.762  11.324  1.00  0.00     0.029 A 
ATOM     62  C   UNL     1     -13.414   3.483  12.393  1.00  0.00     0.049 A 
ATOM     63  H   UNL     1     -13.556   5.544  12.795  1.00  0.00     0.167 HD
ATOM     64  C   UNL     1     -11.463   2.568  13.423  1.00  0.00     0.074 A 
ATOM     65  C   UNL     1     -10.545   1.849  14.287  1.00  0.00     0.031 C 
ATOM     66  C   UNL     1     -12.715   3.082  13.603  1.00  0.00     0.037 A 
BRANCH  53  67
ATOM     67  C   UNL     1     -15.744   6.897   9.833  1.00  0.00     0.064 A 
ATOM     68  C   UNL     1     -16.885   6.100   9.590  1.00  0.00     0.173 A 
ATOM     69  C   UNL     1     -15.904   8.258   9.514  1.00  0.00     0.173 A 
ATOM     70  F   UNL     1     -16.929   4.811   9.950  1.00  0.00    -0.203 F 
ATOM     71  C   UNL     1     -18.031   6.597   8.961  1.00  0.00     0.198 A 
ATOM     72  C   UNL     1     -17.026   8.744   8.832  1.00  0.00     0.198 A 
ATOM     73  F   UNL     1     -15.008   9.173   9.905  1.00  0.00    -0.203 F 
ATOM     74  F   UNL     1     -19.077   5.786   8.748  1.00  0.00    -0.200 F 
ATOM     75  C   UNL     1     -18.084   7.909   8.543  1.00  0.00     0.200 A 
ATOM     76  F   UNL     1     -17.070  10.031   8.459  1.00  0.00    -0.200 F 
ATOM     77  F   UNL     1     -19.160   8.373   7.893  1.00  0.00    -0.200 F 
ENDBRANCH  53  67
BRANCH  54  78
ATOM     78  C   UNL     1      -7.165   2.643  11.401  1.00  0.00     0.064 A 
ATOM     79  C   UNL     1      -6.179   2.079  10.566  1.00  0.00     0.173 A 
ATOM     80  C   UNL     1      -6.859   3.857  12.028  1.00  0.00     0.173 A 
ATOM     81  F   UNL     1      -6.421   0.915   9.940  1.00  0.00    -0.203 F 
ATOM     82  C   UNL     1      -5.001   2.759  10.269  1.00  0.00     0.198 A 
ATOM     83  C   UNL     1      -5.666   4.526  11.744  1.00  0.00     0.198 A 
ATOM     84  F   UNL     1      -7.758   4.455  12.823  1.00  0.00    -0.203 F 
ATOM     85  F   UNL     1      -4.144   2.251   9.372  1.00  0.00    -0.200 F 
ATOM     86  C   UNL     1      -4.758   3.997  10.838  1.00  0.00     0.200 A 
ATOM     87  F   UNL     1      -5.439   5.736  12.276  1.00  0.00    -0.200 F 
ATOM     88  F   UNL     1      -3.672   4.697  10.482  1.00  0.00    -0.200 F 
ENDBRANCH  54  78
BRANCH  66  89
ATOM     89  C   UNL     1     -13.433   3.186  14.923  1.00  0.00     0.064 A 
ATOM     90  C   UNL     1     -12.781   3.411  16.145  1.00  0.00     0.173 A 
ATOM     91  C   UNL     1     -14.847   3.218  14.963  1.00  0.00     0.173 A 
ATOM     92  F   UNL     1     -11.447   3.513  16.213  1.00  0.00    -0.203 F 
ATOM     93  C   UNL     1     -13.492   3.598  17.334  1.00  0.00     0.198 A 
ATOM     94  C   UNL     1     -15.552   3.462  16.140  1.00  0.00     0.198 A 
ATOM     95  F   UNL     1     -15.582   3.039  13.855  1.00  0.00    -0.203 F 
ATOM     96  F   UNL     1     -12.825   3.772  18.484  1.00  0.00    -0.200 F 
ATOM     97  C   UNL     1     -14.874   3.637  17.329  1.00  0.00     0.200 A 
ATOM     98  F   UNL     1     -16.889   3.547  16.111  1.00  0.00    -0.200 F 
ATOM     99  F   UNL     1     -15.549   3.864  18.463  1.00  0.00    -0.200 F 
ENDBRANCH  66  89
ENDBRANCH  40  41
ENDBRANCH  32  35
ENDBRANCH  30  31
ENDBRANCH  29  30
ENDBRANCH  28  29
ENDBRANCH   1  28
TORSDOF 18
