REMARK SMILES O=C(CC[C@H]1CCCC[N@H+]1C[C@@H]1COc2ccccc21)NCCCCNC(=O)c1ccc(-c2c3nc(c(-c4c(F)c(F)c(F)c(F)c4F)c4ccc([nH]4)c(-c4c(F)c(F)c(F)c(F)c4F)c4nc(c(-c5c(F)c(F)c(F)c(F)c5F)c5ccc2[nH]5)C=C4)C=C3)cc1
REMARK SMILES IDX 22 1 21 2 1 3 2 4 3 6 4 7 5 8 6 9 10 10 7 11 9 12 8 14 11 15
REMARK SMILES IDX 12 16 13 17 20 18 14 19 15 20 19 21 16 22 18 23 17 24 23 25
REMARK SMILES IDX 24 26 25 27 26 28 27 29 28 31 29 32 30 33 91 34 31 35 90 36
REMARK SMILES IDX 32 37 33 38 34 39 84 40 35 41 89 42 83 43 85 44 36 45 88 46
REMARK SMILES IDX 82 47 81 48 37 50 69 51 49 52 68 53 50 54 53 55 67 56 86 57
REMARK SMILES IDX 51 58 52 59 66 61 87 62 54 63 38 64 39 65 47 66 40 67 41 68
REMARK SMILES IDX 45 69 48 70 42 71 43 72 46 73 44 74 70 75 71 76 79 77 72 78
REMARK SMILES IDX 73 79 77 80 80 81 74 82 75 83 78 84 76 85 55 86 56 87 64 88
REMARK SMILES IDX 57 89 58 90 62 91 65 92 59 93 60 94 63 95 61 96
REMARK H PARENT 21 5 10 13 26 30 85 49 53 60
REMARK Flexibility Score: inf
ROOT
ATOM      1  C   UNL     1       7.431   4.625  -3.164  1.00  0.00     0.116 C 
ENDROOT
BRANCH   1   2
ATOM      2  N   UNL     1       7.783   3.785  -2.022  1.00  0.00    -0.356 N 
ATOM      3  O   UNL     1       9.325   2.416  -3.035  1.00  0.00    -0.275 OA
ATOM      4  C   UNL     1       8.740   2.766  -2.014  1.00  0.00     0.220 C 
ATOM      5  H   UNL     1       7.302   3.952  -1.180  1.00  0.00     0.163 HD
BRANCH   4   6
ATOM      6  C   UNL     1       9.035   2.100  -0.637  1.00  0.00     0.106 C 
BRANCH   6   7
ATOM      7  C   UNL     1      10.123   2.485   0.388  1.00  0.00     0.075 C 
BRANCH   7   8
ATOM      8  C   UNL     1       9.981   3.781   1.239  1.00  0.00     0.184 C 
ATOM      9  C   UNL     1      11.366   4.500   1.396  1.00  0.00     0.065 C 
ATOM     10  N   UNL     1       9.033   4.717   0.687  1.00  0.00    -0.332 N 
ATOM     11  C   UNL     1      11.958   4.944   0.061  1.00  0.00     0.012 C 
ATOM     12  C   UNL     1       9.543   5.386  -0.507  1.00  0.00     0.262 C 
ATOM     13  H   UNL     1       8.847   5.430   1.392  1.00  0.00     0.348 HD
ATOM     14  C   UNL     1      10.985   5.886  -0.614  1.00  0.00     0.062 C 
BRANCH  10  15
ATOM     15  C   UNL     1       7.596   4.751   1.088  1.00  0.00     0.274 C 
BRANCH  15  16
ATOM     16  C   UNL     1       6.463   3.617   1.357  1.00  0.00     0.116 C 
ATOM     17  C   UNL     1       6.797   2.603   2.464  1.00  0.00     0.244 C 
ATOM     18  C   UNL     1       5.896   2.655   0.346  1.00  0.00     0.006 A 
ATOM     19  O   UNL     1       6.883   1.267   1.913  1.00  0.00    -0.492 OA
ATOM     20  C   UNL     1       6.220   1.350   0.715  1.00  0.00     0.123 A 
ATOM     21  C   UNL     1       5.211   2.858  -0.845  1.00  0.00     0.008 A 
ATOM     22  C   UNL     1       6.084   0.271  -0.148  1.00  0.00     0.047 A 
ATOM     23  C   UNL     1       5.068   1.781  -1.740  1.00  0.00     0.001 A 
ATOM     24  C   UNL     1       5.540   0.503  -1.410  1.00  0.00     0.004 A 
ENDBRANCH  15  16
ENDBRANCH  10  15
ENDBRANCH   7   8
ENDBRANCH   6   7
ENDBRANCH   4   6
ENDBRANCH   1   2
BRANCH   1  25
ATOM     25  C   UNL     1       6.531   5.863  -2.881  1.00  0.00     0.023 C 
BRANCH  25  26
ATOM     26  C   UNL     1       7.063   7.142  -2.203  1.00  0.00     0.023 C 
BRANCH  26  27
ATOM     27  C   UNL     1       8.389   7.738  -2.681  1.00  0.00     0.116 C 
BRANCH  27  28
ATOM     28  N   UNL     1       8.349   8.296  -4.012  1.00  0.00    -0.352 N 
ATOM     29  C   UNL     1       8.989   9.400  -4.517  1.00  0.00     0.251 C 
ATOM     30  H   UNL     1       7.778   7.812  -4.652  1.00  0.00     0.163 HD
ATOM     31  O   UNL     1       8.841   9.681  -5.709  1.00  0.00    -0.269 OA
BRANCH  29  32
ATOM     32  C   UNL     1       9.803  10.307  -3.664  1.00  0.00     0.039 A 
ATOM     33  C   UNL     1       9.624  11.685  -3.838  1.00  0.00     0.014 A 
ATOM     34  C   UNL     1      10.755   9.855  -2.744  1.00  0.00     0.014 A 
ATOM     35  C   UNL     1      10.344  12.600  -3.063  1.00  0.00     0.010 A 
ATOM     36  C   UNL     1      11.439  10.771  -1.931  1.00  0.00     0.010 A 
ATOM     37  C   UNL     1      11.237  12.155  -2.076  1.00  0.00    -0.014 A 
BRANCH  37  38
ATOM     38  C   UNL     1      11.931  13.134  -1.190  1.00  0.00     0.031 A 
ATOM     39  C   UNL     1      13.423  13.315  -1.248  1.00  0.00     0.074 A 
ATOM     40  C   UNL     1      11.212  13.859  -0.308  1.00  0.00     0.049 A 
ATOM     41  N   UNL     1      14.192  14.109  -0.541  1.00  0.00    -0.248 NA
ATOM     42  C   UNL     1      14.152  12.485  -2.218  1.00  0.00     0.031 C 
ATOM     43  C   UNL     1       9.764  13.765  -0.124  1.00  0.00     0.029 A 
ATOM     44  N   UNL     1      11.600  14.813   0.603  1.00  0.00    -0.354 N 
ATOM     45  C   UNL     1      15.489  13.872  -0.977  1.00  0.00     0.074 A 
ATOM     46  C   UNL     1      15.410  12.824  -1.974  1.00  0.00     0.031 C 
ATOM     47  C   UNL     1       9.383  14.635   0.825  1.00  0.00     0.029 A 
ATOM     48  C   UNL     1      10.562  15.322   1.345  1.00  0.00     0.049 A 
ATOM     49  H   UNL     1      12.534  15.103   0.714  1.00  0.00     0.167 HD
ATOM     50  C   UNL     1      16.639  14.484  -0.598  1.00  0.00     0.037 A 
ATOM     51  C   UNL     1      10.556  16.231   2.341  1.00  0.00     0.037 A 
ATOM     52  C   UNL     1      16.721  15.532   0.389  1.00  0.00     0.049 A 
ATOM     53  C   UNL     1      11.849  16.874   2.765  1.00  0.00     0.074 A 
ATOM     54  C   UNL     1      17.835  16.240   0.806  1.00  0.00     0.029 A 
ATOM     55  N   UNL     1      15.646  16.017   1.120  1.00  0.00    -0.354 N 
ATOM     56  N   UNL     1      13.059  16.684   2.300  1.00  0.00    -0.248 NA
ATOM     57  C   UNL     1      11.773  17.865   3.849  1.00  0.00     0.031 C 
ATOM     58  C   UNL     1      17.445  17.113   1.827  1.00  0.00     0.029 A 
ATOM     59  C   UNL     1      16.077  16.996   2.004  1.00  0.00     0.049 A 
ATOM     60  H   UNL     1      14.715  15.712   1.025  1.00  0.00     0.167 HD
ATOM     61  C   UNL     1      13.882  17.548   3.011  1.00  0.00     0.074 A 
ATOM     62  C   UNL     1      13.031  18.276   3.928  1.00  0.00     0.031 C 
ATOM     63  C   UNL     1      15.223  17.720   2.912  1.00  0.00     0.037 A 
BRANCH  50  64
ATOM     64  C   UNL     1      17.915  14.032  -1.253  1.00  0.00     0.064 A 
ATOM     65  C   UNL     1      18.182  14.296  -2.605  1.00  0.00     0.173 A 
ATOM     66  C   UNL     1      18.903  13.367  -0.510  1.00  0.00     0.173 A 
ATOM     67  F   UNL     1      17.271  14.925  -3.363  1.00  0.00    -0.203 F 
ATOM     68  C   UNL     1      19.373  13.881  -3.197  1.00  0.00     0.198 A 
ATOM     69  C   UNL     1      20.106  12.982  -1.096  1.00  0.00     0.198 A 
ATOM     70  F   UNL     1      18.707  13.099   0.790  1.00  0.00    -0.203 F 
ATOM     71  F   UNL     1      19.582  14.099  -4.503  1.00  0.00    -0.200 F 
ATOM     72  C   UNL     1      20.336  13.230  -2.441  1.00  0.00     0.200 A 
ATOM     73  F   UNL     1      21.043  12.370  -0.359  1.00  0.00    -0.200 F 
ATOM     74  F   UNL     1      21.485  12.838  -3.009  1.00  0.00    -0.200 F 
ENDBRANCH  50  64
BRANCH  51  75
ATOM     75  C   UNL     1       9.275  16.595   3.004  1.00  0.00     0.064 A 
ATOM     76  C   UNL     1       8.716  17.871   2.850  1.00  0.00     0.173 A 
ATOM     77  C   UNL     1       8.588  15.677   3.813  1.00  0.00     0.173 A 
ATOM     78  F   UNL     1       9.346  18.792   2.105  1.00  0.00    -0.203 F 
ATOM     79  C   UNL     1       7.532  18.222   3.495  1.00  0.00     0.198 A 
ATOM     80  C   UNL     1       7.388  16.018   4.432  1.00  0.00     0.198 A 
ATOM     81  F   UNL     1       9.078  14.441   3.993  1.00  0.00    -0.203 F 
ATOM     82  F   UNL     1       7.046  19.465   3.370  1.00  0.00    -0.200 F 
ATOM     83  C   UNL     1       6.865  17.294   4.280  1.00  0.00     0.200 A 
ATOM     84  F   UNL     1       6.739  15.113   5.177  1.00  0.00    -0.200 F 
ATOM     85  F   UNL     1       5.723  17.629   4.896  1.00  0.00    -0.200 F 
ENDBRANCH  51  75
BRANCH  63  86
ATOM     86  C   UNL     1      15.854  18.763   3.791  1.00  0.00     0.064 A 
ATOM     87  C   UNL     1      15.973  18.587   5.178  1.00  0.00     0.173 A 
ATOM     88  C   UNL     1      16.380  19.939   3.233  1.00  0.00     0.173 A 
ATOM     89  F   UNL     1      15.473  17.489   5.765  1.00  0.00    -0.203 F 
ATOM     90  C   UNL     1      16.569  19.562   5.976  1.00  0.00     0.198 A 
ATOM     91  C   UNL     1      17.005  20.895   4.029  1.00  0.00     0.198 A 
ATOM     92  F   UNL     1      16.299  20.155   1.912  1.00  0.00    -0.203 F 
ATOM     93  F   UNL     1      16.625  19.395   7.305  1.00  0.00    -0.200 F 
ATOM     94  C   UNL     1      17.091  20.710   5.400  1.00  0.00     0.200 A 
ATOM     95  F   UNL     1      17.522  21.997   3.469  1.00  0.00    -0.200 F 
ATOM     96  F   UNL     1      17.672  21.642   6.168  1.00  0.00    -0.200 F 
ENDBRANCH  63  86
ENDBRANCH  37  38
ENDBRANCH  29  32
ENDBRANCH  27  28
ENDBRANCH  26  27
ENDBRANCH  25  26
ENDBRANCH   1  25
TORSDOF 15
