REMARK SMILES Cn1c(SCC(=O)Nc2cccc(C(=O)NCCCCNC(=O)c3ccc(-c4c5nc(c(-c6c(F)c(F)c(F)c(F)c6F)c6ccc([nH]6)c(-c6c(F)c(F)c(F)c(F)c6F)c6nc(c(-c7c(F)c(F)c(F)c(F)c7F)c7ccc4[nH]7)C=C6)C=C5)cc3)c2)nnc1[C@@H]1CCCN1C(=O)c1ccccc1Cl
REMARK SMILES IDX 14 1 15 2 16 3 13 5 9 6 10 7 87 8 11 9 12 10 8 11 6 12 7 13
REMARK SMILES IDX 5 15 4 16 3 17 1 18 2 19 90 20 88 21 89 22 91 23 92 24 95 25
REMARK SMILES IDX 93 26 94 27 96 28 97 29 98 30 99 31 103 32 100 33 102 34
REMARK SMILES IDX 104 35 101 36 17 37 18 38 19 39 20 40 21 41 22 42 23 44
REMARK SMILES IDX 24 45 25 46 86 47 26 48 85 49 27 50 28 51 29 52 79 53 30 54
REMARK SMILES IDX 84 55 78 56 80 57 31 58 83 59 77 60 76 61 32 63 64 64 44 65
REMARK SMILES IDX 63 66 45 67 48 68 62 69 81 70 46 71 47 72 61 74 82 75 49 76
REMARK SMILES IDX 33 77 34 78 42 79 35 80 36 81 40 82 43 83 37 84 38 85 41 86
REMARK SMILES IDX 39 87 65 88 66 89 74 90 67 91 68 92 72 93 75 94 69 95 70 96
REMARK SMILES IDX 73 97 71 98 50 99 51 100 59 101 52 102 53 103 57 104 60 105
REMARK SMILES IDX 54 106 55 107 58 108 56 109
REMARK H PARENT 16 4 8 14 21 43 80 62 48 73
REMARK Flexibility Score: inf
ROOT
ATOM      1  C   UNL     1      -1.902   5.245   1.999  1.00  0.00     0.251 C 
ATOM      2  O   UNL     1      -2.591   6.241   2.249  1.00  0.00    -0.269 OA
ATOM      3  N   UNL     1      -2.507   4.336   1.173  1.00  0.00    -0.352 N 
ATOM      4  H   UNL     1      -3.429   4.593   0.939  1.00  0.00     0.163 HD
ENDROOT
BRANCH   1   5
ATOM      5  C   UNL     1      -0.519   5.178   2.596  1.00  0.00     0.041 A 
ATOM      6  C   UNL     1       1.674   4.240   3.150  1.00  0.00     0.041 A 
ATOM      7  C   UNL     1       1.995   5.369   3.898  1.00  0.00     0.026 A 
ATOM      8  C   UNL     1       0.403   4.120   2.557  1.00  0.00     0.040 A 
ATOM      9  C   UNL     1       1.095   6.421   3.973  1.00  0.00     0.003 A 
ATOM     10  C   UNL     1      -0.134   6.329   3.316  1.00  0.00     0.014 A 
BRANCH   6  11
ATOM     11  N   UNL     1       2.610   3.200   3.154  1.00  0.00    -0.325 N 
ATOM     12  C   UNL     1       3.276   2.609   2.122  1.00  0.00     0.234 C 
ATOM     13  O   UNL     1       4.112   1.745   2.416  1.00  0.00    -0.274 OA
ATOM     14  H   UNL     1       2.820   2.836   4.044  1.00  0.00     0.169 HD
BRANCH  12  15
ATOM     15  C   UNL     1       3.181   3.096   0.699  1.00  0.00     0.178 C 
BRANCH  15  16
ATOM     16  S   UNL     1       1.718   2.707  -0.215  1.00  0.00    -0.076 SA
BRANCH  16  17
ATOM     17  C   UNL     1       1.123   1.139   0.172  1.00  0.00     0.191 A 
ATOM     18  C   UNL     1       3.101  -0.366   0.644  1.00  0.00     0.154 C 
ATOM     19  N   UNL     1       1.760  -0.073   0.226  1.00  0.00    -0.307 N 
ATOM     20  C   UNL     1       0.776  -1.000  -0.062  1.00  0.00     0.156 A 
ATOM     21  N   UNL     1      -0.170   0.923   0.144  1.00  0.00    -0.123 NA
ATOM     22  N   UNL     1      -0.390  -0.407   0.077  1.00  0.00    -0.132 NA
BRANCH  20  23
ATOM     23  C   UNL     1       0.901  -2.425  -0.447  1.00  0.00     0.154 C 
ATOM     24  C   UNL     1       1.414  -3.307   0.694  1.00  0.00     0.035 C 
ATOM     25  N   UNL     1       1.760  -2.742  -1.593  1.00  0.00    -0.328 N 
ATOM     26  C   UNL     1       1.902  -4.552  -0.024  1.00  0.00     0.024 C 
ATOM     27  C   UNL     1       2.345  -4.061  -1.397  1.00  0.00     0.120 C 
BRANCH  25  28
ATOM     28  C   UNL     1       1.720  -2.269  -2.910  1.00  0.00     0.255 C 
ATOM     29  O   UNL     1       2.121  -2.944  -3.860  1.00  0.00    -0.269 OA
BRANCH  28  30
ATOM     30  C   UNL     1       1.277  -0.903  -3.255  1.00  0.00     0.058 A 
ATOM     31  C   UNL     1       0.135  -0.744  -4.047  1.00  0.00     0.015 A 
ATOM     32  C   UNL     1       2.106   0.205  -3.068  1.00  0.00     0.053 A 
ATOM     33  C   UNL     1      -0.268   0.528  -4.475  1.00  0.00     0.001 A 
ATOM     34  C   UNL     1       1.678   1.483  -3.454  1.00  0.00     0.021 A 
ATOM     35  Cl  UNL     1       3.734   0.057  -2.510  1.00  0.00    -0.083 Cl
ATOM     36  C   UNL     1       0.471   1.651  -4.124  1.00  0.00     0.002 A 
ENDBRANCH  28  30
ENDBRANCH  25  28
ENDBRANCH  20  23
ENDBRANCH  16  17
ENDBRANCH  15  16
ENDBRANCH  12  15
ENDBRANCH   6  11
ENDBRANCH   1   5
BRANCH   3  37
ATOM     37  C   UNL     1      -2.109   3.088   0.565  1.00  0.00     0.116 C 
BRANCH  37  38
ATOM     38  C   UNL     1      -2.982   1.912   1.013  1.00  0.00     0.023 C 
BRANCH  38  39
ATOM     39  C   UNL     1      -4.013   1.423  -0.009  1.00  0.00     0.023 C 
BRANCH  39  40
ATOM     40  C   UNL     1      -3.519   1.095  -1.416  1.00  0.00     0.116 C 
BRANCH  40  41
ATOM     41  N   UNL     1      -2.637  -0.054  -1.492  1.00  0.00    -0.352 N 
ATOM     42  C   UNL     1      -2.593  -1.088  -2.394  1.00  0.00     0.251 C 
ATOM     43  H   UNL     1      -1.958  -0.100  -0.779  1.00  0.00     0.163 HD
ATOM     44  O   UNL     1      -1.879  -2.071  -2.184  1.00  0.00    -0.269 OA
BRANCH  42  45
ATOM     45  C   UNL     1      -3.419  -1.078  -3.625  1.00  0.00     0.039 A 
ATOM     46  C   UNL     1      -3.841  -2.307  -4.144  1.00  0.00     0.014 A 
ATOM     47  C   UNL     1      -3.798   0.105  -4.264  1.00  0.00     0.014 A 
ATOM     48  C   UNL     1      -4.785  -2.340  -5.167  1.00  0.00     0.010 A 
ATOM     49  C   UNL     1      -4.801   0.083  -5.221  1.00  0.00     0.010 A 
ATOM     50  C   UNL     1      -5.346  -1.140  -5.626  1.00  0.00    -0.014 A 
BRANCH  50  51
ATOM     51  C   UNL     1      -6.622  -1.146  -6.371  1.00  0.00     0.031 A 
ATOM     52  C   UNL     1      -6.700  -0.625  -7.769  1.00  0.00     0.074 A 
ATOM     53  C   UNL     1      -7.729  -1.522  -5.699  1.00  0.00     0.049 A 
ATOM     54  N   UNL     1      -7.745  -0.513  -8.546  1.00  0.00    -0.248 NA
ATOM     55  C   UNL     1      -5.448  -0.136  -8.368  1.00  0.00     0.031 C 
ATOM     56  C   UNL     1      -7.758  -1.947  -4.294  1.00  0.00     0.029 A 
ATOM     57  N   UNL     1      -9.040  -1.595  -6.088  1.00  0.00    -0.354 N 
ATOM     58  C   UNL     1      -7.281   0.055  -9.722  1.00  0.00     0.074 A 
ATOM     59  C   UNL     1      -5.870   0.318  -9.541  1.00  0.00     0.031 C 
ATOM     60  C   UNL     1      -9.015  -2.264  -3.951  1.00  0.00     0.029 A 
ATOM     61  C   UNL     1      -9.886  -2.025  -5.093  1.00  0.00     0.049 A 
ATOM     62  H   UNL     1      -9.348  -1.362  -6.994  1.00  0.00     0.167 HD
ATOM     63  C   UNL     1      -7.977   0.311 -10.854  1.00  0.00     0.037 A 
ATOM     64  C   UNL     1     -11.220  -2.199  -5.104  1.00  0.00     0.037 A 
ATOM     65  C   UNL     1      -9.384   0.038 -11.004  1.00  0.00     0.049 A 
ATOM     66  C   UNL     1     -11.959  -1.917  -6.382  1.00  0.00     0.074 A 
ATOM     67  C   UNL     1     -10.179   0.195 -12.124  1.00  0.00     0.029 A 
ATOM     68  N   UNL     1     -10.207  -0.438  -9.991  1.00  0.00    -0.354 N 
ATOM     69  N   UNL     1     -11.491  -1.485  -7.529  1.00  0.00    -0.248 NA
ATOM     70  C   UNL     1     -13.407  -2.158  -6.375  1.00  0.00     0.031 C 
ATOM     71  C   UNL     1     -11.493  -0.131 -11.774  1.00  0.00     0.029 A 
ATOM     72  C   UNL     1     -11.507  -0.554 -10.455  1.00  0.00     0.049 A 
ATOM     73  H   UNL     1      -9.910  -0.660  -9.079  1.00  0.00     0.167 HD
ATOM     74  C   UNL     1     -12.578  -1.431  -8.388  1.00  0.00     0.074 A 
ATOM     75  C   UNL     1     -13.725  -1.896  -7.634  1.00  0.00     0.031 C 
ATOM     76  C   UNL     1     -12.627  -1.030  -9.682  1.00  0.00     0.037 A 
BRANCH  63  77
ATOM     77  C   UNL     1      -7.236   0.906 -12.016  1.00  0.00     0.064 A 
ATOM     78  C   UNL     1      -6.279   0.171 -12.732  1.00  0.00     0.173 A 
ATOM     79  C   UNL     1      -7.527   2.206 -12.457  1.00  0.00     0.173 A 
ATOM     80  F   UNL     1      -5.955  -1.073 -12.346  1.00  0.00    -0.203 F 
ATOM     81  C   UNL     1      -5.628   0.721 -13.833  1.00  0.00     0.198 A 
ATOM     82  C   UNL     1      -6.895   2.742 -13.576  1.00  0.00     0.198 A 
ATOM     83  F   UNL     1      -8.434   2.953 -11.811  1.00  0.00    -0.203 F 
ATOM     84  F   UNL     1      -4.689   0.013 -14.476  1.00  0.00    -0.200 F 
ATOM     85  C   UNL     1      -5.943   2.001 -14.260  1.00  0.00     0.200 A 
ATOM     86  F   UNL     1      -7.210   3.975 -13.996  1.00  0.00    -0.200 F 
ATOM     87  F   UNL     1      -5.326   2.524 -15.329  1.00  0.00    -0.200 F 
ENDBRANCH  63  77
BRANCH  64  88
ATOM     88  C   UNL     1     -11.929  -2.677  -3.887  1.00  0.00     0.064 A 
ATOM     89  C   UNL     1     -12.548  -3.934  -3.858  1.00  0.00     0.173 A 
ATOM     90  C   UNL     1     -12.016  -1.885  -2.732  1.00  0.00     0.173 A 
ATOM     91  F   UNL     1     -12.503  -4.728  -4.939  1.00  0.00    -0.203 F 
ATOM     92  C   UNL     1     -13.261  -4.363  -2.740  1.00  0.00     0.198 A 
ATOM     93  C   UNL     1     -12.699  -2.329  -1.601  1.00  0.00     0.198 A 
ATOM     94  F   UNL     1     -11.429  -0.679  -2.697  1.00  0.00    -0.203 F 
ATOM     95  F   UNL     1     -13.897  -5.543  -2.766  1.00  0.00    -0.200 F 
ATOM     96  C   UNL     1     -13.333  -3.562  -1.611  1.00  0.00     0.200 A 
ATOM     97  F   UNL     1     -12.749  -1.560  -0.506  1.00  0.00    -0.200 F 
ATOM     98  F   UNL     1     -14.022  -3.973  -0.538  1.00  0.00    -0.200 F 
ENDBRANCH  64  88
BRANCH  76  99
ATOM     99  C   UNL     1     -13.957  -1.117 -10.370  1.00  0.00     0.064 A 
ATOM    100  C   UNL     1     -15.015  -0.256 -10.043  1.00  0.00     0.173 A 
ATOM    101  C   UNL     1     -14.162  -2.054 -11.394  1.00  0.00     0.173 A 
ATOM    102  F   UNL     1     -14.874   0.645  -9.059  1.00  0.00    -0.203 F 
ATOM    103  C   UNL     1     -16.239  -0.350 -10.698  1.00  0.00     0.198 A 
ATOM    104  C   UNL     1     -15.374  -2.120 -12.072  1.00  0.00     0.198 A 
ATOM    105  F   UNL     1     -13.178  -2.896 -11.748  1.00  0.00    -0.203 F 
ATOM    106  F   UNL     1     -17.255   0.444 -10.331  1.00  0.00    -0.200 F 
ATOM    107  C   UNL     1     -16.415  -1.275 -11.717  1.00  0.00     0.200 A 
ATOM    108  F   UNL     1     -15.536  -3.001 -13.068  1.00  0.00    -0.200 F 
ATOM    109  F   UNL     1     -17.592  -1.357 -12.353  1.00  0.00    -0.200 F 
ENDBRANCH  76  99
ENDBRANCH  50  51
ENDBRANCH  42  45
ENDBRANCH  40  41
ENDBRANCH  39  40
ENDBRANCH  38  39
ENDBRANCH  37  38
ENDBRANCH   3  37
TORSDOF 18
