REMARK SMILES CCC[C@H](CNC(=O)N1C[C@H]2CCC[N@H+]2C[C@@H]1C)C(=O)NCCCCNC(=O)c1ccc(-c2c3nc(c(-c4c(F)c(F)c(F)c(F)c4F)c4ccc([nH]4)c(-c4c(F)c(F)c(F)c(F)c4F)c4nc(c(-c5c(F)c(F)c(F)c(F)c5F)c5ccc2[nH]5)C=C4)C=C3)cc1
REMARK SMILES IDX 23 1 22 2 21 3 19 4 20 5 4 7 3 8 2 9 1 10 5 11 6 12 7 13
REMARK SMILES IDX 8 15 9 16 10 17 17 18 11 19 16 20 18 21 12 22 15 23 13 24
REMARK SMILES IDX 14 25 24 27 25 28 26 29 27 30 28 32 29 33 30 34 91 35 31 36
REMARK SMILES IDX 90 37 32 38 33 39 34 40 84 41 35 42 89 43 83 44 85 45 36 46
REMARK SMILES IDX 88 47 82 48 81 49 37 51 69 52 49 53 68 54 50 55 53 56 67 57
REMARK SMILES IDX 86 58 51 59 52 60 66 62 87 63 54 64 38 65 39 66 47 67 40 68
REMARK SMILES IDX 41 69 45 70 48 71 42 72 43 73 46 74 44 75 70 76 71 77 79 78
REMARK SMILES IDX 72 79 73 80 77 81 80 82 74 83 75 84 78 85 76 86 55 87 56 88
REMARK SMILES IDX 64 89 57 90 58 91 62 92 65 93 59 94 60 95 63 96 61 97
REMARK H PARENT 21 6 6 14 15 26 26 31 85 50 53 61
REMARK Flexibility Score: inf
ROOT
ATOM      1  C   UNL     1       1.017  -5.910   1.563  1.00  0.00     0.023 C 
ENDROOT
BRANCH   1   2
ATOM      2  C   UNL     1       0.128  -5.057   2.461  1.00  0.00     0.116 C 
BRANCH   2   3
ATOM      3  N   UNL     1       0.843  -4.144   3.321  1.00  0.00    -0.356 N 
ATOM      4  C   UNL     1       0.852  -2.776   3.287  1.00  0.00     0.224 C 
ATOM      5  O   UNL     1       1.361  -2.182   4.239  1.00  0.00    -0.275 OA
ATOM      6  H   UNL     1       1.396  -4.559   4.021  1.00  0.00     0.163 HD
BRANCH   4   7
ATOM      7  C   UNL     1       0.298  -2.005   2.077  1.00  0.00     0.097 C 
BRANCH   7   8
ATOM      8  C   UNL     1      -1.248  -2.040   2.014  1.00  0.00     0.015 C 
BRANCH   8   9
ATOM      9  C   UNL     1      -1.955  -2.217   0.659  1.00  0.00    -0.003 C 
ATOM     10  C   UNL     1      -2.236  -3.659   0.247  1.00  0.00     0.004 C 
ENDBRANCH   8   9
ENDBRANCH   7   8
BRANCH   7  11
ATOM     11  C   UNL     1       1.108  -2.432   0.853  1.00  0.00     0.131 C 
BRANCH  11  12
ATOM     12  N   UNL     1       1.412  -1.359  -0.071  1.00  0.00    -0.337 N 
ATOM     13  C   UNL     1       2.645  -1.027  -0.539  1.00  0.00     0.318 C 
ATOM     14  H   UNL     1       0.654  -0.819  -0.392  1.00  0.00     0.165 HD
ATOM     15  O   UNL     1       2.843   0.146  -0.856  1.00  0.00    -0.249 OA
BRANCH  13  16
ATOM     16  N   UNL     1       3.626  -1.988  -0.573  1.00  0.00    -0.311 N 
ATOM     17  C   UNL     1       4.997  -1.562  -0.303  1.00  0.00     0.186 C 
ATOM     18  C   UNL     1       3.442  -3.407  -0.969  1.00  0.00     0.139 C 
ATOM     19  C   UNL     1       6.018  -2.108  -1.315  1.00  0.00     0.204 C 
ATOM     20  C   UNL     1       4.779  -4.200  -0.974  1.00  0.00     0.287 C 
ATOM     21  C   UNL     1       2.694  -3.532  -2.299  1.00  0.00     0.037 C 
ATOM     22  C   UNL     1       7.451  -1.946  -0.806  1.00  0.00     0.073 C 
ATOM     23  N   UNL     1       5.881  -3.539  -1.680  1.00  0.00    -0.329 N 
ATOM     24  C   UNL     1       8.194  -3.088  -1.465  1.00  0.00     0.068 C 
ATOM     25  C   UNL     1       7.168  -4.205  -1.438  1.00  0.00     0.262 C 
ATOM     26  H   UNL     1       5.641  -3.606  -2.669  1.00  0.00     0.348 HD
ENDBRANCH  13  16
ENDBRANCH  11  12
ENDBRANCH   7  11
ENDBRANCH   4   7
ENDBRANCH   2   3
ENDBRANCH   1   2
BRANCH   1  27
ATOM     27  C   UNL     1       1.418  -7.261   2.148  1.00  0.00     0.023 C 
BRANCH  27  28
ATOM     28  C   UNL     1       0.267  -8.135   2.634  1.00  0.00     0.116 C 
BRANCH  28  29
ATOM     29  N   UNL     1      -0.739  -8.424   1.624  1.00  0.00    -0.352 N 
ATOM     30  C   UNL     1      -1.503  -9.562   1.486  1.00  0.00     0.251 C 
ATOM     31  H   UNL     1      -0.894  -7.718   0.956  1.00  0.00     0.163 HD
ATOM     32  O   UNL     1      -2.262  -9.687   0.530  1.00  0.00    -0.269 OA
BRANCH  30  33
ATOM     33  C   UNL     1      -1.361 -10.659   2.469  1.00  0.00     0.039 A 
ATOM     34  C   UNL     1      -1.211 -11.966   2.001  1.00  0.00     0.014 A 
ATOM     35  C   UNL     1      -1.325 -10.398   3.842  1.00  0.00     0.014 A 
ATOM     36  C   UNL     1      -0.945 -12.996   2.905  1.00  0.00     0.010 A 
ATOM     37  C   UNL     1      -0.969 -11.408   4.731  1.00  0.00     0.010 A 
ATOM     38  C   UNL     1      -0.778 -12.720   4.273  1.00  0.00    -0.014 A 
BRANCH  38  39
ATOM     39  C   UNL     1      -0.394 -13.795   5.224  1.00  0.00     0.031 A 
ATOM     40  C   UNL     1      -1.317 -14.193   6.343  1.00  0.00     0.074 A 
ATOM     41  C   UNL     1       0.809 -14.390   5.101  1.00  0.00     0.049 A 
ATOM     42  N   UNL     1      -1.165 -15.128   7.247  1.00  0.00    -0.248 NA
ATOM     43  C   UNL     1      -2.560 -13.420   6.487  1.00  0.00     0.031 C 
ATOM     44  C   UNL     1       1.828 -14.040   4.109  1.00  0.00     0.029 A 
ATOM     45  N   UNL     1       1.378 -15.417   5.812  1.00  0.00    -0.354 N 
ATOM     46  C   UNL     1      -2.285 -15.051   8.064  1.00  0.00     0.074 A 
ATOM     47  C   UNL     1      -3.075 -13.935   7.593  1.00  0.00     0.031 C 
ATOM     48  C   UNL     1       2.877 -14.867   4.245  1.00  0.00     0.029 A 
ATOM     49  C   UNL     1       2.618 -15.787   5.349  1.00  0.00     0.049 A 
ATOM     50  H   UNL     1       0.940 -15.848   6.581  1.00  0.00     0.167 HD
ATOM     51  C   UNL     1      -2.642 -15.858   9.092  1.00  0.00     0.037 A 
ATOM     52  C   UNL     1       3.445 -16.767   5.758  1.00  0.00     0.037 A 
ATOM     53  C   UNL     1      -1.865 -16.981   9.546  1.00  0.00     0.049 A 
ATOM     54  C   UNL     1       3.013 -17.668   6.883  1.00  0.00     0.074 A 
ATOM     55  C   UNL     1      -2.165 -17.895  10.541  1.00  0.00     0.029 A 
ATOM     56  N   UNL     1      -0.628 -17.343   9.032  1.00  0.00    -0.354 N 
ATOM     57  N   UNL     1       1.908 -17.643   7.588  1.00  0.00    -0.248 NA
ATOM     58  C   UNL     1       3.937 -18.747   7.256  1.00  0.00     0.031 C 
ATOM     59  C   UNL     1      -1.090 -18.782  10.661  1.00  0.00     0.029 A 
ATOM     60  C   UNL     1      -0.145 -18.457   9.701  1.00  0.00     0.049 A 
ATOM     61  H   UNL     1      -0.162 -16.878   8.301  1.00  0.00     0.167 HD
ATOM     62  C   UNL     1       1.988 -18.718   8.463  1.00  0.00     0.074 A 
ATOM     63  C   UNL     1       3.243 -19.386   8.186  1.00  0.00     0.031 C 
ATOM     64  C   UNL     1       1.103 -19.116   9.410  1.00  0.00     0.037 A 
BRANCH  51  65
ATOM     65  C   UNL     1      -3.939 -15.559   9.789  1.00  0.00     0.064 A 
ATOM     66  C   UNL     1      -5.176 -15.747   9.152  1.00  0.00     0.173 A 
ATOM     67  C   UNL     1      -3.949 -15.109  11.118  1.00  0.00     0.173 A 
ATOM     68  F   UNL     1      -5.223 -16.163   7.877  1.00  0.00    -0.203 F 
ATOM     69  C   UNL     1      -6.371 -15.464   9.807  1.00  0.00     0.198 A 
ATOM     70  C   UNL     1      -5.148 -14.859  11.781  1.00  0.00     0.198 A 
ATOM     71  F   UNL     1      -2.797 -14.917  11.776  1.00  0.00    -0.203 F 
ATOM     72  F   UNL     1      -7.537 -15.599   9.159  1.00  0.00    -0.200 F 
ATOM     73  C   UNL     1      -6.357 -15.028  11.123  1.00  0.00     0.200 A 
ATOM     74  F   UNL     1      -5.133 -14.450  13.057  1.00  0.00    -0.200 F 
ATOM     75  F   UNL     1      -7.509 -14.763  11.755  1.00  0.00    -0.200 F 
ENDBRANCH  51  65
BRANCH  52  76
ATOM     76  C   UNL     1       4.741 -16.985   5.064  1.00  0.00     0.064 A 
ATOM     77  C   UNL     1       4.952 -18.123   4.273  1.00  0.00     0.173 A 
ATOM     78  C   UNL     1       5.795 -16.067   5.180  1.00  0.00     0.173 A 
ATOM     79  F   UNL     1       3.980 -19.039   4.146  1.00  0.00    -0.203 F 
ATOM     80  C   UNL     1       6.175 -18.349   3.645  1.00  0.00     0.198 A 
ATOM     81  C   UNL     1       7.008 -16.279   4.527  1.00  0.00     0.198 A 
ATOM     82  F   UNL     1       5.643 -14.958   5.917  1.00  0.00    -0.203 F 
ATOM     83  F   UNL     1       6.365 -19.470   2.936  1.00  0.00    -0.200 F 
ATOM     84  C   UNL     1       7.201 -17.424   3.768  1.00  0.00     0.200 A 
ATOM     85  F   UNL     1       7.991 -15.375   4.635  1.00  0.00    -0.200 F 
ATOM     86  F   UNL     1       8.376 -17.639   3.162  1.00  0.00    -0.200 F 
ENDBRANCH  52  76
BRANCH  64  87
ATOM     87  C   UNL     1       1.443 -20.356  10.186  1.00  0.00     0.064 A 
ATOM     88  C   UNL     1       2.490 -20.382  11.120  1.00  0.00     0.173 A 
ATOM     89  C   UNL     1       0.700 -21.533  10.001  1.00  0.00     0.173 A 
ATOM     90  F   UNL     1       3.238 -19.287  11.325  1.00  0.00    -0.203 F 
ATOM     91  C   UNL     1       2.806 -21.550  11.809  1.00  0.00     0.198 A 
ATOM     92  C   UNL     1       0.998 -22.689  10.716  1.00  0.00     0.198 A 
ATOM     93  F   UNL     1      -0.317 -21.560   9.127  1.00  0.00    -0.203 F 
ATOM     94  F   UNL     1       3.850 -21.568  12.649  1.00  0.00    -0.200 F 
ATOM     95  C   UNL     1       2.057 -22.700  11.611  1.00  0.00     0.200 A 
ATOM     96  F   UNL     1       0.264 -23.795  10.534  1.00  0.00    -0.200 F 
ATOM     97  F   UNL     1       2.364 -23.823  12.274  1.00  0.00    -0.200 F 
ENDBRANCH  64  87
ENDBRANCH  38  39
ENDBRANCH  30  33
ENDBRANCH  28  29
ENDBRANCH  27  28
ENDBRANCH   1  27
TORSDOF 16
