REMARK SMILES COc1cccc([C@@H]2CN(C(=O)c3cnn(C)c3)C[C@H]2C(=O)NCCCCNC(=O)c2ccc(-c3c4nc(c(-c5c(F)c(F)c(F)c(F)c5F)c5ccc([nH]5)c(-c5c(F)c(F)c(F)c(F)c5F)c5nc(c(-c6c(F)c(F)c(F)c(F)c6F)c6ccc3[nH]6)C=C5)C=C4)cc2)c1OC
REMARK SMILES IDX 25 1 24 2 23 3 21 4 22 5 20 7 8 8 9 9 10 10 19 11 7 12 3 13
REMARK SMILES IDX 4 14 94 15 5 16 6 17 2 18 1 19 95 20 96 21 11 22 12 23 13 24
REMARK SMILES IDX 14 25 18 26 15 27 16 28 17 29 26 30 27 31 28 32 29 33 30 35
REMARK SMILES IDX 31 36 32 37 93 38 33 39 92 40 34 41 35 42 36 43 86 44 37 45
REMARK SMILES IDX 91 46 85 47 87 48 38 49 90 50 84 51 83 52 39 54 71 55 51 56
REMARK SMILES IDX 70 57 52 58 55 59 69 60 88 61 53 62 54 63 68 65 89 66 56 67
REMARK SMILES IDX 40 68 41 69 49 70 42 71 43 72 47 73 50 74 44 75 45 76 48 77
REMARK SMILES IDX 46 78 72 79 73 80 81 81 74 82 75 83 79 84 82 85 76 86 77 87
REMARK SMILES IDX 80 88 78 89 57 90 58 91 66 92 59 93 60 94 64 95 67 96 61 97
REMARK SMILES IDX 62 98 65 99 63 100
REMARK H PARENT 23 6 28 34 87 53 55 64
REMARK Flexibility Score: inf
ROOT
ATOM      1  C   UNL     1       4.984   6.446   4.388  1.00  0.00     0.023 C 
ENDROOT
BRANCH   1   2
ATOM      2  C   UNL     1       5.769   5.136   4.399  1.00  0.00     0.116 C 
BRANCH   2   3
ATOM      3  N   UNL     1       4.988   4.032   4.926  1.00  0.00    -0.356 N 
ATOM      4  C   UNL     1       4.496   2.912   4.332  1.00  0.00     0.225 C 
ATOM      5  O   UNL     1       3.880   2.124   5.056  1.00  0.00    -0.275 OA
ATOM      6  H   UNL     1       4.777   4.107   5.885  1.00  0.00     0.163 HD
BRANCH   4   7
ATOM      7  C   UNL     1       4.665   2.610   2.851  1.00  0.00     0.107 C 
ATOM      8  C   UNL     1       4.007   3.657   1.933  1.00  0.00     0.057 C 
ATOM      9  C   UNL     1       5.003   3.868   0.790  1.00  0.00     0.129 C 
ATOM     10  N   UNL     1       6.293   3.489   1.343  1.00  0.00    -0.337 N 
ATOM     11  C   UNL     1       6.127   2.530   2.423  1.00  0.00     0.134 C 
BRANCH   8  12
ATOM     12  C   UNL     1       2.593   3.341   1.482  1.00  0.00     0.004 A 
ATOM     13  C   UNL     1       0.946   1.995   0.300  1.00  0.00     0.161 A 
ATOM     14  C   UNL     1      -0.058   2.898   0.666  1.00  0.00     0.050 A 
ATOM     15  C   UNL     1       2.276   2.212   0.698  1.00  0.00     0.164 A 
ATOM     16  C   UNL     1       0.246   3.998   1.461  1.00  0.00     0.004 A 
ATOM     17  C   UNL     1       1.560   4.214   1.871  1.00  0.00     0.008 A 
BRANCH  13  18
ATOM     18  O   UNL     1       0.640   0.949  -0.532  1.00  0.00    -0.493 OA
ATOM     19  C   UNL     1      -0.335   0.077   0.041  1.00  0.00     0.278 C 
ENDBRANCH  13  18
BRANCH  15  20
ATOM     20  O   UNL     1       3.341   1.428   0.332  1.00  0.00    -0.493 OA
ATOM     21  C   UNL     1       3.116   0.025   0.289  1.00  0.00     0.278 C 
ENDBRANCH  15  20
ENDBRANCH   8  12
BRANCH  10  22
ATOM     22  C   UNL     1       7.543   3.712   0.794  1.00  0.00     0.257 C 
ATOM     23  O   UNL     1       8.547   3.142   1.233  1.00  0.00    -0.269 OA
BRANCH  22  24
ATOM     24  C   UNL     1       7.646   4.611  -0.337  1.00  0.00     0.077 A 
ATOM     25  C   UNL     1       8.400   4.411  -1.515  1.00  0.00     0.149 A 
ATOM     26  C   UNL     1       7.108   5.874  -0.505  1.00  0.00     0.122 A 
ATOM     27  N   UNL     1       8.270   5.412  -2.391  1.00  0.00    -0.181 NA
ATOM     28  N   UNL     1       7.466   6.281  -1.757  1.00  0.00    -0.275 N 
ATOM     29  C   UNL     1       7.049   7.488  -2.428  1.00  0.00     0.173 C 
ENDBRANCH  22  24
ENDBRANCH  10  22
ENDBRANCH   4   7
ENDBRANCH   2   3
ENDBRANCH   1   2
BRANCH   1  30
ATOM     30  C   UNL     1       4.671   7.023   5.768  1.00  0.00     0.023 C 
BRANCH  30  31
ATOM     31  C   UNL     1       5.871   7.203   6.689  1.00  0.00     0.116 C 
BRANCH  31  32
ATOM     32  N   UNL     1       6.946   7.981   6.093  1.00  0.00    -0.352 N 
ATOM     33  C   UNL     1       7.768   8.911   6.680  1.00  0.00     0.251 C 
ATOM     34  H   UNL     1       7.106   7.818   5.136  1.00  0.00     0.163 HD
ATOM     35  O   UNL     1       8.564   9.548   5.999  1.00  0.00    -0.269 OA
BRANCH  33  36
ATOM     36  C   UNL     1       7.659   9.174   8.130  1.00  0.00     0.039 A 
ATOM     37  C   UNL     1       7.597  10.501   8.564  1.00  0.00     0.014 A 
ATOM     38  C   UNL     1       7.600   8.126   9.052  1.00  0.00     0.014 A 
ATOM     39  C   UNL     1       7.404  10.776   9.918  1.00  0.00     0.010 A 
ATOM     40  C   UNL     1       7.344   8.399  10.392  1.00  0.00     0.010 A 
ATOM     41  C   UNL     1       7.242   9.726  10.836  1.00  0.00    -0.014 A 
BRANCH  41  42
ATOM     42  C   UNL     1       6.960   9.998  12.265  1.00  0.00     0.031 A 
ATOM     43  C   UNL     1       7.973   9.642  13.314  1.00  0.00     0.074 A 
ATOM     44  C   UNL     1       5.765  10.506  12.620  1.00  0.00     0.049 A 
ATOM     45  N   UNL     1       7.887   9.746  14.616  1.00  0.00    -0.248 NA
ATOM     46  C   UNL     1       9.240   9.066  12.838  1.00  0.00     0.031 C 
ATOM     47  C   UNL     1       4.679  10.839  11.696  1.00  0.00     0.029 A 
ATOM     48  N   UNL     1       5.260  10.821  13.856  1.00  0.00    -0.354 N 
ATOM     49  C   UNL     1       9.076   9.232  15.114  1.00  0.00     0.074 A 
ATOM     50  C   UNL     1       9.851   8.778  13.978  1.00  0.00     0.031 C 
ATOM     51  C   UNL     1       3.644  11.332  12.396  1.00  0.00     0.029 A 
ATOM     52  C   UNL     1       3.983  11.326  13.815  1.00  0.00     0.049 A 
ATOM     53  H   UNL     1       5.764  10.697  14.692  1.00  0.00     0.167 HD
ATOM     54  C   UNL     1       9.493   9.163  16.400  1.00  0.00     0.037 A 
ATOM     55  C   UNL     1       3.181  11.741  14.813  1.00  0.00     0.037 A 
ATOM     56  C   UNL     1       8.737   9.648  17.524  1.00  0.00     0.049 A 
ATOM     57  C   UNL     1       3.684  11.693  16.229  1.00  0.00     0.074 A 
ATOM     58  C   UNL     1       9.097   9.678  18.860  1.00  0.00     0.029 A 
ATOM     59  N   UNL     1       7.466  10.197  17.439  1.00  0.00    -0.354 N 
ATOM     60  N   UNL     1       4.835  11.260  16.683  1.00  0.00    -0.248 NA
ATOM     61  C   UNL     1       2.780  12.202  17.270  1.00  0.00     0.031 C 
ATOM     62  C   UNL     1       8.032  10.223  19.588  1.00  0.00     0.029 A 
ATOM     63  C   UNL     1       7.024  10.562  18.700  1.00  0.00     0.049 A 
ATOM     64  H   UNL     1       6.954  10.310  16.606  1.00  0.00     0.167 HD
ATOM     65  C   UNL     1       4.805  11.465  18.054  1.00  0.00     0.074 A 
ATOM     66  C   UNL     1       3.526  12.073  18.358  1.00  0.00     0.031 C 
ATOM     67  C   UNL     1       5.752  11.175  18.980  1.00  0.00     0.037 A 
BRANCH  54  68
ATOM     68  C   UNL     1      10.835   8.547  16.657  1.00  0.00     0.064 A 
ATOM     69  C   UNL     1      12.023   9.214  16.321  1.00  0.00     0.173 A 
ATOM     70  C   UNL     1      10.936   7.287  17.264  1.00  0.00     0.173 A 
ATOM     71  F   UNL     1      11.976  10.415  15.725  1.00  0.00    -0.203 F 
ATOM     72  C   UNL     1      13.263   8.630  16.561  1.00  0.00     0.198 A 
ATOM     73  C   UNL     1      12.180   6.716  17.524  1.00  0.00     0.198 A 
ATOM     74  F   UNL     1       9.830   6.609  17.605  1.00  0.00    -0.203 F 
ATOM     75  F   UNL     1      14.383   9.266  16.191  1.00  0.00    -0.200 F 
ATOM     76  C   UNL     1      13.341   7.385  17.166  1.00  0.00     0.200 A 
ATOM     77  F   UNL     1      12.254   5.517  18.117  1.00  0.00    -0.200 F 
ATOM     78  F   UNL     1      14.536   6.825  17.398  1.00  0.00    -0.200 F 
ENDBRANCH  54  68
BRANCH  55  79
ATOM     79  C   UNL     1       1.834  12.280  14.502  1.00  0.00     0.064 A 
ATOM     80  C   UNL     1       1.575  13.654  14.600  1.00  0.00     0.173 A 
ATOM     81  C   UNL     1       0.787  11.441  14.098  1.00  0.00     0.173 A 
ATOM     82  F   UNL     1       2.543  14.491  15.001  1.00  0.00    -0.203 F 
ATOM     83  C   UNL     1       0.311  14.168  14.320  1.00  0.00     0.198 A 
ATOM     84  C   UNL     1      -0.471  11.959  13.798  1.00  0.00     0.198 A 
ATOM     85  F   UNL     1       0.989  10.121  13.985  1.00  0.00    -0.203 F 
ATOM     86  F   UNL     1       0.079  15.480  14.455  1.00  0.00    -0.200 F 
ATOM     87  C   UNL     1      -0.710  13.321  13.915  1.00  0.00     0.200 A 
ATOM     88  F   UNL     1      -1.453  11.140  13.396  1.00  0.00    -0.200 F 
ATOM     89  F   UNL     1      -1.925  13.816  13.643  1.00  0.00    -0.200 F 
ENDBRANCH  55  79
BRANCH  67  90
ATOM     90  C   UNL     1       5.450  11.541  20.401  1.00  0.00     0.064 A 
ATOM     91  C   UNL     1       4.550  10.794  21.174  1.00  0.00     0.173 A 
ATOM     92  C   UNL     1       6.093  12.632  21.004  1.00  0.00     0.173 A 
ATOM     93  F   UNL     1       3.899   9.753  20.634  1.00  0.00    -0.203 F 
ATOM     94  C   UNL     1       4.288  11.140  22.496  1.00  0.00     0.198 A 
ATOM     95  C   UNL     1       5.846  12.961  22.333  1.00  0.00     0.198 A 
ATOM     96  F   UNL     1       6.965  13.373  20.305  1.00  0.00    -0.203 F 
ATOM     97  F   UNL     1       3.393  10.438  23.206  1.00  0.00    -0.200 F 
ATOM     98  C   UNL     1       4.939  12.219  23.076  1.00  0.00     0.200 A 
ATOM     99  F   UNL     1       6.481  13.999  22.895  1.00  0.00    -0.200 F 
ATOM    100  F   UNL     1       4.687  12.550  24.350  1.00  0.00    -0.200 F 
ENDBRANCH  67  90
ENDBRANCH  41  42
ENDBRANCH  33  36
ENDBRANCH  31  32
ENDBRANCH  30  31
ENDBRANCH   1  30
TORSDOF 16
