REMARK SMILES CO[C@H]1CC[C@@H]([NH2+]CC(=O)NCCCCNC(=O)c2ccc(-c3c4nc(c(-c5c(F)c(F)c(F)c(F)c5F)c5ccc([nH]5)c(-c5c(F)c(F)c(F)c(F)c5F)c5nc(c(-c6c(F)c(F)c(F)c(F)c6F)c6ccc3[nH]6)C=C5)C=C4)cc2)CC1
REMARK SMILES IDX 13 1 12 2 11 3 9 4 10 5 8 7 7 8 6 11 3 12 83 13 4 14 82 15
REMARK SMILES IDX 5 16 2 17 1 18 14 19 15 20 16 21 17 22 18 24 19 25 20 26
REMARK SMILES IDX 81 27 21 28 80 29 22 30 23 31 24 32 74 33 25 34 79 35 73 36
REMARK SMILES IDX 75 37 26 38 78 39 72 40 71 41 27 43 59 44 39 45 58 46 40 47
REMARK SMILES IDX 43 48 57 49 76 50 41 51 42 52 56 54 77 55 44 56 28 57 29 58
REMARK SMILES IDX 37 59 30 60 31 61 35 62 38 63 32 64 33 65 36 66 34 67 60 68
REMARK SMILES IDX 61 69 69 70 62 71 63 72 67 73 70 74 64 75 65 76 68 77 66 78
REMARK SMILES IDX 45 79 46 80 54 81 47 82 48 83 52 84 55 85 49 86 50 87 53 88
REMARK SMILES IDX 51 89
REMARK H PARENT 11 6 7 9 7 10 16 23 75 42 43 53
REMARK Flexibility Score: inf
ROOT
ATOM      1  C   UNL     1       2.675   5.679   0.748  1.00  0.00     0.023 C 
ENDROOT
BRANCH   1   2
ATOM      2  C   UNL     1       1.831   6.937   0.473  1.00  0.00     0.116 C 
BRANCH   2   3
ATOM      3  N   UNL     1       0.918   6.857  -0.660  1.00  0.00    -0.351 N 
ATOM      4  C   UNL     1      -0.452   6.777  -0.716  1.00  0.00     0.275 C 
ATOM      5  O   UNL     1      -0.978   6.838  -1.832  1.00  0.00    -0.269 OA
ATOM      6  H   UNL     1       1.361   6.861  -1.539  1.00  0.00     0.163 HD
BRANCH   4   7
ATOM      7  C   UNL     1      -1.303   6.538   0.548  1.00  0.00     0.362 C 
BRANCH   7   8
ATOM      8  N   UNL     1      -1.640   5.096   0.799  1.00  0.00    -0.336 N 
ATOM      9  H   UNL     1      -2.103   5.016   1.705  1.00  0.00     0.346 HD
ATOM     10  H   UNL     1      -2.254   4.775   0.051  1.00  0.00     0.346 HD
BRANCH   8  11
ATOM     11  C   UNL     1      -0.434   4.258   0.802  1.00  0.00     0.182 C 
ATOM     12  C   UNL     1       0.448   1.478   0.228  1.00  0.00     0.118 C 
ATOM     13  C   UNL     1      -0.073   2.323  -0.918  1.00  0.00     0.038 C 
ATOM     14  C   UNL     1      -0.413   1.743   1.461  1.00  0.00     0.038 C 
ATOM     15  C   UNL     1      -0.049   3.804  -0.621  1.00  0.00     0.067 C 
ATOM     16  C   UNL     1      -0.338   3.195   1.909  1.00  0.00     0.067 C 
BRANCH  12  17
ATOM     17  O   UNL     1       0.325   0.123  -0.205  1.00  0.00    -0.381 OA
ATOM     18  C   UNL     1       1.210  -0.772   0.448  1.00  0.00     0.195 C 
ENDBRANCH  12  17
ENDBRANCH   8  11
ENDBRANCH   7   8
ENDBRANCH   4   7
ENDBRANCH   2   3
ENDBRANCH   1   2
BRANCH   1  19
ATOM     19  C   UNL     1       3.530   5.176  -0.407  1.00  0.00     0.023 C 
BRANCH  19  20
ATOM     20  C   UNL     1       4.710   6.071  -0.704  1.00  0.00     0.116 C 
BRANCH  20  21
ATOM     21  N   UNL     1       5.559   6.255   0.468  1.00  0.00    -0.352 N 
ATOM     22  C   UNL     1       6.912   6.097   0.585  1.00  0.00     0.251 C 
ATOM     23  H   UNL     1       5.093   6.532   1.289  1.00  0.00     0.163 HD
ATOM     24  O   UNL     1       7.445   6.064   1.692  1.00  0.00    -0.269 OA
BRANCH  22  25
ATOM     25  C   UNL     1       7.717   5.961  -0.638  1.00  0.00     0.039 A 
ATOM     26  C   UNL     1       8.754   5.030  -0.678  1.00  0.00     0.014 A 
ATOM     27  C   UNL     1       7.412   6.744  -1.756  1.00  0.00     0.014 A 
ATOM     28  C   UNL     1       9.459   4.854  -1.865  1.00  0.00     0.010 A 
ATOM     29  C   UNL     1       8.028   6.479  -2.964  1.00  0.00     0.010 A 
ATOM     30  C   UNL     1       9.079   5.557  -3.021  1.00  0.00    -0.014 A 
BRANCH  30  31
ATOM     31  C   UNL     1       9.799   5.388  -4.300  1.00  0.00     0.031 A 
ATOM     32  C   UNL     1      10.499   6.569  -4.910  1.00  0.00     0.074 A 
ATOM     33  C   UNL     1       9.759   4.200  -4.930  1.00  0.00     0.049 A 
ATOM     34  N   UNL     1      11.120   6.661  -6.057  1.00  0.00    -0.248 NA
ATOM     35  C   UNL     1      10.462   7.830  -4.148  1.00  0.00     0.031 C 
ATOM     36  C   UNL     1       9.057   3.009  -4.448  1.00  0.00     0.029 A 
ATOM     37  N   UNL     1      10.316   3.802  -6.116  1.00  0.00    -0.354 N 
ATOM     38  C   UNL     1      11.528   7.984  -6.156  1.00  0.00     0.074 A 
ATOM     39  C   UNL     1      11.020   8.678  -4.996  1.00  0.00     0.031 C 
ATOM     40  C   UNL     1       9.258   2.002  -5.313  1.00  0.00     0.029 A 
ATOM     41  C   UNL     1      10.062   2.489  -6.428  1.00  0.00     0.049 A 
ATOM     42  H   UNL     1      10.848   4.400  -6.690  1.00  0.00     0.167 HD
ATOM     43  C   UNL     1      12.292   8.559  -7.114  1.00  0.00     0.037 A 
ATOM     44  C   UNL     1      10.439   1.768  -7.500  1.00  0.00     0.037 A 
ATOM     45  C   UNL     1      12.813   7.845  -8.248  1.00  0.00     0.049 A 
ATOM     46  C   UNL     1      11.280   2.434  -8.555  1.00  0.00     0.074 A 
ATOM     47  C   UNL     1      13.642   8.307  -9.252  1.00  0.00     0.029 A 
ATOM     48  N   UNL     1      12.550   6.510  -8.524  1.00  0.00    -0.354 N 
ATOM     49  N   UNL     1      11.725   3.667  -8.605  1.00  0.00    -0.248 NA
ATOM     50  C   UNL     1      11.680   1.605  -9.699  1.00  0.00     0.031 C 
ATOM     51  C   UNL     1      13.837   7.268 -10.166  1.00  0.00     0.029 A 
ATOM     52  C   UNL     1      13.183   6.138  -9.698  1.00  0.00     0.049 A 
ATOM     53  H   UNL     1      11.997   5.916  -7.968  1.00  0.00     0.167 HD
ATOM     54  C   UNL     1      12.480   3.754  -9.766  1.00  0.00     0.074 A 
ATOM     55  C   UNL     1      12.447   2.442 -10.381  1.00  0.00     0.031 C 
ATOM     56  C   UNL     1      13.141   4.821 -10.281  1.00  0.00     0.037 A 
BRANCH  43  57
ATOM     57  C   UNL     1      12.610  10.019  -6.968  1.00  0.00     0.064 A 
ATOM     58  C   UNL     1      13.433  10.496  -5.935  1.00  0.00     0.173 A 
ATOM     59  C   UNL     1      12.104  10.953  -7.884  1.00  0.00     0.173 A 
ATOM     60  F   UNL     1      13.930   9.649  -5.021  1.00  0.00    -0.203 F 
ATOM     61  C   UNL     1      13.709  11.855  -5.806  1.00  0.00     0.198 A 
ATOM     62  C   UNL     1      12.413  12.307  -7.773  1.00  0.00     0.198 A 
ATOM     63  F   UNL     1      11.313  10.554  -8.891  1.00  0.00    -0.203 F 
ATOM     64  F   UNL     1      14.448  12.291  -4.776  1.00  0.00    -0.200 F 
ATOM     65  C   UNL     1      13.207  12.758  -6.730  1.00  0.00     0.200 A 
ATOM     66  F   UNL     1      11.936  13.177  -8.675  1.00  0.00    -0.200 F 
ATOM     67  F   UNL     1      13.481  14.064  -6.609  1.00  0.00    -0.200 F 
ENDBRANCH  43  57
BRANCH  44  68
ATOM     68  C   UNL     1      10.054   0.337  -7.608  1.00  0.00     0.064 A 
ATOM     69  C   UNL     1      11.021  -0.675  -7.527  1.00  0.00     0.173 A 
ATOM     70  C   UNL     1       8.719  -0.051  -7.796  1.00  0.00     0.173 A 
ATOM     71  F   UNL     1      12.312  -0.355  -7.361  1.00  0.00    -0.203 F 
ATOM     72  C   UNL     1      10.671  -2.018  -7.656  1.00  0.00     0.198 A 
ATOM     73  C   UNL     1       8.367  -1.396  -7.892  1.00  0.00     0.198 A 
ATOM     74  F   UNL     1       7.753   0.876  -7.869  1.00  0.00    -0.203 F 
ATOM     75  F   UNL     1      11.623  -2.961  -7.625  1.00  0.00    -0.200 F 
ATOM     76  C   UNL     1       9.344  -2.377  -7.833  1.00  0.00     0.200 A 
ATOM     77  F   UNL     1       7.081  -1.740  -8.045  1.00  0.00    -0.200 F 
ATOM     78  F   UNL     1       9.008  -3.669  -7.954  1.00  0.00    -0.200 F 
ENDBRANCH  44  68
BRANCH  56  79
ATOM     79  C   UNL     1      13.916   4.601 -11.547  1.00  0.00     0.064 A 
ATOM     80  C   UNL     1      13.276   4.391 -12.777  1.00  0.00     0.173 A 
ATOM     81  C   UNL     1      15.319   4.648 -11.534  1.00  0.00     0.173 A 
ATOM     82  F   UNL     1      11.938   4.324 -12.840  1.00  0.00    -0.203 F 
ATOM     83  C   UNL     1      14.014   4.205 -13.943  1.00  0.00     0.198 A 
ATOM     84  C   UNL     1      16.051   4.499 -12.707  1.00  0.00     0.198 A 
ATOM     85  F   UNL     1      15.978   4.857 -10.384  1.00  0.00    -0.203 F 
ATOM     86  F   UNL     1      13.383   3.951 -15.098  1.00  0.00    -0.200 F 
ATOM     87  C   UNL     1      15.399   4.269 -13.909  1.00  0.00     0.200 A 
ATOM     88  F   UNL     1      17.388   4.580 -12.675  1.00  0.00    -0.200 F 
ATOM     89  F   UNL     1      16.107   4.101 -15.034  1.00  0.00    -0.200 F 
ENDBRANCH  56  79
ENDBRANCH  30  31
ENDBRANCH  22  25
ENDBRANCH  20  21
ENDBRANCH  19  20
ENDBRANCH   1  19
TORSDOF 14
