REMARK SMILES CC(C)c1c(C(=O)NCCCCNC(=O)c2ccc(-c3c4nc(c(-c5c(F)c(F)c(F)c(F)c5F)c5ccc([nH]5)c(-c5c(F)c(F)c(F)c(F)c5F)c5nc(c(-c6c(F)c(F)c(F)c(F)c6F)c6ccc3[nH]6)C=C5)C=C4)cc2)cnn1CCC#N
REMARK SMILES IDX 10 1 9 2 8 3 6 4 7 5 5 7 4 8 81 9 79 10 80 11 2 12 1 13 3 14
REMARK SMILES IDX 82 15 83 16 84 17 85 18 11 19 12 20 13 21 14 22 15 24 16 25
REMARK SMILES IDX 17 26 78 27 18 28 77 29 19 30 20 31 21 32 71 33 22 34 76 35
REMARK SMILES IDX 70 36 72 37 23 38 75 39 69 40 68 41 24 43 56 44 36 45 55 46
REMARK SMILES IDX 37 47 40 48 54 49 73 50 38 51 39 52 53 54 74 55 41 56 25 57
REMARK SMILES IDX 26 58 34 59 27 60 28 61 32 62 35 63 29 64 30 65 33 66 31 67
REMARK SMILES IDX 57 68 58 69 66 70 59 71 60 72 64 73 67 74 61 75 62 76 65 77
REMARK SMILES IDX 63 78 42 79 43 80 51 81 44 82 45 83 49 84 52 85 46 86 47 87
REMARK SMILES IDX 50 88 48 89
REMARK H PARENT 8 6 13 23 72 42 40 53
REMARK Flexibility Score: inf
ROOT
ATOM      1  C   UNL     1      -4.299  -4.522  -0.146  1.00  0.00     0.023 C 
ENDROOT
BRANCH   1   2
ATOM      2  C   UNL     1      -3.752  -4.130   1.229  1.00  0.00     0.116 C 
BRANCH   2   3
ATOM      3  N   UNL     1      -2.305  -4.071   1.234  1.00  0.00    -0.352 N 
ATOM      4  C   UNL     1      -1.384  -3.057   1.188  1.00  0.00     0.254 C 
ATOM      5  O   UNL     1      -0.212  -3.439   1.160  1.00  0.00    -0.269 OA
ATOM      6  H   UNL     1      -1.889  -4.962   1.280  1.00  0.00     0.163 HD
BRANCH   4   7
ATOM      7  C   UNL     1      -1.741  -1.636   1.191  1.00  0.00     0.081 A 
ATOM      8  C   UNL     1      -0.841  -0.548   1.210  1.00  0.00     0.054 A 
ATOM      9  N   UNL     1      -1.626   0.587   1.219  1.00  0.00    -0.267 N 
ATOM     10  C   UNL     1      -3.000  -1.003   1.163  1.00  0.00     0.149 A 
ATOM     11  N   UNL     1      -2.932   0.316   1.253  1.00  0.00    -0.180 NA
BRANCH   8  12
ATOM     12  C   UNL     1       0.675  -0.550   1.204  1.00  0.00     0.032 C 
ATOM     13  C   UNL     1       1.254   0.040  -0.082  1.00  0.00     0.014 C 
ATOM     14  C   UNL     1       1.276   0.064   2.469  1.00  0.00     0.014 C 
ENDBRANCH   8  12
BRANCH   9  15
ATOM     15  C   UNL     1      -1.288   1.999   1.155  1.00  0.00     0.159 C 
BRANCH  15  16
ATOM     16  C   UNL     1      -1.765   2.655  -0.139  1.00  0.00     0.144 C 
BRANCH  16  17
ATOM     17  C   UNL     1      -3.218   2.853  -0.191  1.00  0.00     0.064 C 
ATOM     18  N   UNL     1      -4.366   3.056  -0.271  1.00  0.00    -0.198 NA
ENDBRANCH  16  17
ENDBRANCH  15  16
ENDBRANCH   9  15
ENDBRANCH   4   7
ENDBRANCH   2   3
ENDBRANCH   1   2
BRANCH   1  19
ATOM     19  C   UNL     1      -4.117  -6.004  -0.515  1.00  0.00     0.023 C 
BRANCH  19  20
ATOM     20  C   UNL     1      -4.753  -6.988   0.460  1.00  0.00     0.116 C 
BRANCH  20  21
ATOM     21  N   UNL     1      -6.207  -6.838   0.576  1.00  0.00    -0.352 N 
ATOM     22  C   UNL     1      -7.073  -7.569   1.377  1.00  0.00     0.251 C 
ATOM     23  H   UNL     1      -6.618  -6.136   0.021  1.00  0.00     0.163 HD
ATOM     24  O   UNL     1      -8.258  -7.687   1.096  1.00  0.00    -0.269 OA
BRANCH  22  25
ATOM     25  C   UNL     1      -6.537  -8.161   2.618  1.00  0.00     0.039 A 
ATOM     26  C   UNL     1      -6.901  -9.422   3.099  1.00  0.00     0.014 A 
ATOM     27  C   UNL     1      -5.578  -7.404   3.279  1.00  0.00     0.014 A 
ATOM     28  C   UNL     1      -6.272  -9.898   4.253  1.00  0.00     0.010 A 
ATOM     29  C   UNL     1      -4.769  -8.003   4.197  1.00  0.00     0.010 A 
ATOM     30  C   UNL     1      -5.205  -9.164   4.803  1.00  0.00    -0.014 A 
BRANCH  30  31
ATOM     31  C   UNL     1      -4.352  -9.657   5.878  1.00  0.00     0.031 A 
ATOM     32  C   UNL     1      -3.690 -10.923   5.482  1.00  0.00     0.074 A 
ATOM     33  C   UNL     1      -4.027  -8.920   6.972  1.00  0.00     0.049 A 
ATOM     34  N   UNL     1      -4.001 -12.107   5.889  1.00  0.00    -0.248 NA
ATOM     35  C   UNL     1      -2.768 -10.921   4.330  1.00  0.00     0.031 C 
ATOM     36  C   UNL     1      -4.429  -7.544   7.299  1.00  0.00     0.029 A 
ATOM     37  N   UNL     1      -3.198  -9.228   8.021  1.00  0.00    -0.354 N 
ATOM     38  C   UNL     1      -3.103 -12.961   5.261  1.00  0.00     0.074 A 
ATOM     39  C   UNL     1      -2.576 -12.230   4.144  1.00  0.00     0.031 C 
ATOM     40  C   UNL     1      -3.683  -7.067   8.326  1.00  0.00     0.029 A 
ATOM     41  C   UNL     1      -2.853  -8.138   8.841  1.00  0.00     0.049 A 
ATOM     42  H   UNL     1      -2.870 -10.141   8.186  1.00  0.00     0.167 HD
ATOM     43  C   UNL     1      -2.621 -14.036   5.945  1.00  0.00     0.037 A 
ATOM     44  C   UNL     1      -1.955  -8.142   9.870  1.00  0.00     0.037 A 
ATOM     45  C   UNL     1      -3.450 -14.290   7.104  1.00  0.00     0.049 A 
ATOM     46  C   UNL     1      -1.787  -9.557  10.282  1.00  0.00     0.074 A 
ATOM     47  C   UNL     1      -4.777 -14.607   7.317  1.00  0.00     0.029 A 
ATOM     48  N   UNL     1      -2.986 -13.779   8.288  1.00  0.00    -0.354 N 
ATOM     49  N   UNL     1      -2.741 -10.258  10.826  1.00  0.00    -0.248 NA
ATOM     50  C   UNL     1      -0.752 -10.313   9.598  1.00  0.00     0.031 C 
ATOM     51  C   UNL     1      -5.154 -13.873   8.483  1.00  0.00     0.029 A 
ATOM     52  C   UNL     1      -4.022 -13.239   8.995  1.00  0.00     0.049 A 
ATOM     53  H   UNL     1      -2.047 -13.798   8.585  1.00  0.00     0.167 HD
ATOM     54  C   UNL     1      -2.697 -11.470  10.155  1.00  0.00     0.074 A 
ATOM     55  C   UNL     1      -1.416 -11.462   9.444  1.00  0.00     0.031 C 
ATOM     56  C   UNL     1      -3.837 -12.205   9.986  1.00  0.00     0.037 A 
BRANCH  43  57
ATOM     57  C   UNL     1      -1.178 -14.507   5.894  1.00  0.00     0.064 A 
ATOM     58  C   UNL     1      -0.817 -15.629   6.670  1.00  0.00     0.173 A 
ATOM     59  C   UNL     1      -0.093 -13.745   5.404  1.00  0.00     0.173 A 
ATOM     60  F   UNL     1      -1.760 -16.424   7.199  1.00  0.00    -0.203 F 
ATOM     61  C   UNL     1       0.510 -15.900   7.014  1.00  0.00     0.198 A 
ATOM     62  C   UNL     1       1.233 -14.047   5.710  1.00  0.00     0.198 A 
ATOM     63  F   UNL     1      -0.254 -12.619   4.705  1.00  0.00    -0.203 F 
ATOM     64  F   UNL     1       0.785 -16.894   7.869  1.00  0.00    -0.200 F 
ATOM     65  C   UNL     1       1.534 -15.102   6.542  1.00  0.00     0.200 A 
ATOM     66  F   UNL     1       2.209 -13.246   5.258  1.00  0.00    -0.200 F 
ATOM     67  F   UNL     1       2.800 -15.318   6.921  1.00  0.00    -0.200 F 
ENDBRANCH  43  57
BRANCH  44  68
ATOM     68  C   UNL     1      -0.967  -7.106  10.296  1.00  0.00     0.064 A 
ATOM     69  C   UNL     1      -0.262  -7.209  11.514  1.00  0.00     0.173 A 
ATOM     70  C   UNL     1      -0.458  -6.176   9.371  1.00  0.00     0.173 A 
ATOM     71  F   UNL     1      -0.635  -8.108  12.437  1.00  0.00    -0.203 F 
ATOM     72  C   UNL     1       0.890  -6.451  11.774  1.00  0.00     0.198 A 
ATOM     73  C   UNL     1       0.692  -5.422   9.630  1.00  0.00     0.198 A 
ATOM     74  F   UNL     1      -1.007  -6.057   8.154  1.00  0.00    -0.203 F 
ATOM     75  F   UNL     1       1.568  -6.624  12.918  1.00  0.00    -0.200 F 
ATOM     76  C   UNL     1       1.373  -5.567  10.825  1.00  0.00     0.200 A 
ATOM     77  F   UNL     1       1.176  -4.605   8.684  1.00  0.00    -0.200 F 
ATOM     78  F   UNL     1       2.512  -4.892  11.039  1.00  0.00    -0.200 F 
ENDBRANCH  44  68
BRANCH  56  79
ATOM     79  C   UNL     1      -5.046 -11.817  10.794  1.00  0.00     0.064 A 
ATOM     80  C   UNL     1      -5.753 -10.608  10.660  1.00  0.00     0.173 A 
ATOM     81  C   UNL     1      -5.585 -12.784  11.651  1.00  0.00     0.173 A 
ATOM     82  F   UNL     1      -5.354  -9.666   9.795  1.00  0.00    -0.203 F 
ATOM     83  C   UNL     1      -6.925 -10.372  11.382  1.00  0.00     0.198 A 
ATOM     84  C   UNL     1      -6.772 -12.562  12.341  1.00  0.00     0.198 A 
ATOM     85  F   UNL     1      -4.980 -13.975  11.780  1.00  0.00    -0.203 F 
ATOM     86  F   UNL     1      -7.579  -9.209  11.246  1.00  0.00    -0.200 F 
ATOM     87  C   UNL     1      -7.435 -11.353  12.217  1.00  0.00     0.200 A 
ATOM     88  F   UNL     1      -7.285 -13.534  13.107  1.00  0.00    -0.200 F 
ATOM     89  F   UNL     1      -8.580 -11.144  12.883  1.00  0.00    -0.200 F 
ENDBRANCH  56  79
ENDBRANCH  30  31
ENDBRANCH  22  25
ENDBRANCH  20  21
ENDBRANCH  19  20
ENDBRANCH   1  19
TORSDOF 15
