REMARK SMILES CC(C)(C)OC(=O)N1CCC[C@](Cc2ccccc2)(C(=O)NCCCCNC(=O)c2ccc(-c3c4nc(c(-c5c(F)c(F)c(F)c(F)c5F)c5ccc([nH]5)c(-c5c(F)c(F)c(F)c(F)c5F)c5nc(c(-c6c(F)c(F)c(F)c(F)c6F)c6ccc3[nH]6)C=C5)C=C4)cc2)C1
REMARK SMILES IDX 24 1 23 2 22 3 20 4 21 5 12 7 8 8 9 9 93 10 10 11 11 12 6 13
REMARK SMILES IDX 7 14 5 15 2 16 1 17 3 18 4 19 13 20 14 21 15 22 19 23 16 24
REMARK SMILES IDX 18 25 17 26 25 27 26 28 27 29 28 30 29 32 30 33 31 34 92 35
REMARK SMILES IDX 32 36 91 37 33 38 34 39 35 40 85 41 36 42 90 43 84 44 86 45
REMARK SMILES IDX 37 46 89 47 83 48 82 49 38 51 70 52 50 53 69 54 51 55 54 56
REMARK SMILES IDX 68 57 87 58 52 59 53 60 67 62 88 63 55 64 39 65 40 66 48 67
REMARK SMILES IDX 41 68 42 69 46 70 49 71 43 72 44 73 47 74 45 75 71 76 72 77
REMARK SMILES IDX 80 78 73 79 74 80 78 81 81 82 75 83 76 84 79 85 77 86 56 87
REMARK SMILES IDX 57 88 65 89 58 90 59 91 63 92 66 93 60 94 61 95 64 96 62 97
REMARK H PARENT 22 6 27 31 86 50 54 61
REMARK Flexibility Score: inf
ROOT
ATOM      1  C   UNL     1       6.640   4.098   2.828  1.00  0.00     0.023 C 
ENDROOT
BRANCH   1   2
ATOM      2  C   UNL     1       5.999   4.990   3.889  1.00  0.00     0.116 C 
BRANCH   2   3
ATOM      3  N   UNL     1       4.596   5.237   3.598  1.00  0.00    -0.356 N 
ATOM      4  C   UNL     1       3.402   4.665   3.887  1.00  0.00     0.228 C 
ATOM      5  O   UNL     1       2.483   5.141   3.206  1.00  0.00    -0.274 OA
ATOM      6  H   UNL     1       4.483   6.038   3.037  1.00  0.00     0.163 HD
BRANCH   4   7
ATOM      7  C   UNL     1       3.100   3.588   4.980  1.00  0.00     0.071 C 
ATOM      8  N   UNL     1       0.896   2.846   3.987  1.00  0.00    -0.307 N 
ATOM      9  C   UNL     1       0.121   3.413   5.076  1.00  0.00     0.123 C 
ATOM     10  C   UNL     1       2.274   2.462   4.295  1.00  0.00     0.140 C 
ATOM     11  C   UNL     1       0.822   4.613   5.691  1.00  0.00     0.023 C 
ATOM     12  C   UNL     1       2.260   4.275   6.097  1.00  0.00     0.021 C 
BRANCH   8  13
ATOM     13  C   UNL     1       0.305   2.689   2.744  1.00  0.00     0.410 C 
ATOM     14  O   UNL     1      -0.760   3.208   2.433  1.00  0.00    -0.224 OA
BRANCH  13  15
ATOM     15  O   UNL     1       1.003   1.839   1.943  1.00  0.00    -0.444 OA
BRANCH  15  16
ATOM     16  C   UNL     1       0.560   1.529   0.593  1.00  0.00     0.106 C 
ATOM     17  C   UNL     1       1.312   0.242   0.217  1.00  0.00     0.056 C 
ATOM     18  C   UNL     1       0.994   2.660  -0.342  1.00  0.00     0.056 C 
ATOM     19  C   UNL     1      -0.944   1.244   0.466  1.00  0.00     0.056 C 
ENDBRANCH  15  16
ENDBRANCH  13  15
ENDBRANCH   8  13
BRANCH   7  20
ATOM     20  C   UNL     1       4.396   3.025   5.610  1.00  0.00     0.054 C 
BRANCH  20  21
ATOM     21  C   UNL     1       4.399   2.000   6.725  1.00  0.00    -0.047 A 
ATOM     22  C   UNL     1       4.818   2.385   8.012  1.00  0.00     0.004 A 
ATOM     23  C   UNL     1       4.143   0.645   6.487  1.00  0.00     0.004 A 
ATOM     24  C   UNL     1       4.971   1.443   9.030  1.00  0.00     0.000 A 
ATOM     25  C   UNL     1       4.275  -0.294   7.513  1.00  0.00     0.000 A 
ATOM     26  C   UNL     1       4.695   0.103   8.781  1.00  0.00     0.000 A 
ENDBRANCH  20  21
ENDBRANCH   7  20
ENDBRANCH   4   7
ENDBRANCH   2   3
ENDBRANCH   1   2
BRANCH   1  27
ATOM     27  C   UNL     1       6.996   4.827   1.529  1.00  0.00     0.023 C 
BRANCH  27  28
ATOM     28  C   UNL     1       7.888   6.055   1.694  1.00  0.00     0.116 C 
BRANCH  28  29
ATOM     29  N   UNL     1       9.100   5.800   2.459  1.00  0.00    -0.352 N 
ATOM     30  C   UNL     1      10.335   6.388   2.324  1.00  0.00     0.251 C 
ATOM     31  H   UNL     1       9.026   5.117   3.164  1.00  0.00     0.163 HD
ATOM     32  O   UNL     1      11.287   6.002   2.992  1.00  0.00    -0.269 OA
BRANCH  30  33
ATOM     33  C   UNL     1      10.512   7.462   1.328  1.00  0.00     0.039 A 
ATOM     34  C   UNL     1      11.548   7.350   0.398  1.00  0.00     0.014 A 
ATOM     35  C   UNL     1       9.630   8.544   1.284  1.00  0.00     0.014 A 
ATOM     36  C   UNL     1      11.655   8.291  -0.627  1.00  0.00     0.010 A 
ATOM     37  C   UNL     1       9.698   9.443   0.224  1.00  0.00     0.010 A 
ATOM     38  C   UNL     1      10.707   9.321  -0.744  1.00  0.00    -0.014 A 
BRANCH  38  39
ATOM     39  C   UNL     1      10.747  10.274  -1.881  1.00  0.00     0.031 A 
ATOM     40  C   UNL     1      11.007  11.732  -1.632  1.00  0.00     0.074 A 
ATOM     41  C   UNL     1      10.475   9.834  -3.125  1.00  0.00     0.049 A 
ATOM     42  N   UNL     1      11.004  12.729  -2.480  1.00  0.00    -0.248 NA
ATOM     43  C   UNL     1      11.276  12.129  -0.240  1.00  0.00     0.031 C 
ATOM     44  C   UNL     1      10.150   8.452  -3.482  1.00  0.00     0.029 A 
ATOM     45  N   UNL     1      10.412  10.508  -4.319  1.00  0.00    -0.354 N 
ATOM     46  C   UNL     1      11.250  13.867  -1.725  1.00  0.00     0.074 A 
ATOM     47  C   UNL     1      11.354  13.448  -0.344  1.00  0.00     0.031 C 
ATOM     48  C   UNL     1       9.936   8.377  -4.806  1.00  0.00     0.029 A 
ATOM     49  C   UNL     1      10.076   9.710  -5.385  1.00  0.00     0.049 A 
ATOM     50  H   UNL     1      10.591  11.472  -4.403  1.00  0.00     0.167 HD
ATOM     51  C   UNL     1      11.398  15.144  -2.150  1.00  0.00     0.037 A 
ATOM     52  C   UNL     1       9.893  10.021  -6.683  1.00  0.00     0.037 A 
ATOM     53  C   UNL     1      11.335  15.551  -3.528  1.00  0.00     0.049 A 
ATOM     54  C   UNL     1      10.088  11.446  -7.128  1.00  0.00     0.074 A 
ATOM     55  C   UNL     1      11.551  16.807  -4.067  1.00  0.00     0.029 A 
ATOM     56  N   UNL     1      11.035  14.706  -4.587  1.00  0.00    -0.354 N 
ATOM     57  N   UNL     1      10.404  12.500  -6.416  1.00  0.00    -0.248 NA
ATOM     58  C   UNL     1       9.909  11.723  -8.560  1.00  0.00     0.031 C 
ATOM     59  C   UNL     1      11.341  16.732  -5.448  1.00  0.00     0.029 A 
ATOM     60  C   UNL     1      11.040  15.420  -5.774  1.00  0.00     0.049 A 
ATOM     61  H   UNL     1      10.845  13.744  -4.506  1.00  0.00     0.167 HD
ATOM     62  C   UNL     1      10.491  13.555  -7.313  1.00  0.00     0.074 A 
ATOM     63  C   UNL     1      10.211  13.011  -8.626  1.00  0.00     0.031 C 
ATOM     64  C   UNL     1      10.775  14.858  -7.073  1.00  0.00     0.037 A 
BRANCH  51  65
ATOM     65  C   UNL     1      11.657  16.200  -1.116  1.00  0.00     0.064 A 
ATOM     66  C   UNL     1      12.889  16.289  -0.451  1.00  0.00     0.173 A 
ATOM     67  C   UNL     1      10.686  17.172  -0.835  1.00  0.00     0.173 A 
ATOM     68  F   UNL     1      13.846  15.377  -0.676  1.00  0.00    -0.203 F 
ATOM     69  C   UNL     1      13.132  17.303   0.472  1.00  0.00     0.198 A 
ATOM     70  C   UNL     1      10.942  18.201   0.068  1.00  0.00     0.198 A 
ATOM     71  F   UNL     1       9.493  17.134  -1.448  1.00  0.00    -0.203 F 
ATOM     72  F   UNL     1      14.303  17.348   1.123  1.00  0.00    -0.200 F 
ATOM     73  C   UNL     1      12.163  18.263   0.724  1.00  0.00     0.200 A 
ATOM     74  F   UNL     1      10.009  19.134   0.301  1.00  0.00    -0.200 F 
ATOM     75  F   UNL     1      12.404  19.247   1.601  1.00  0.00    -0.200 F 
ENDBRANCH  51  65
BRANCH  52  76
ATOM     76  C   UNL     1       9.521   8.966  -7.661  1.00  0.00     0.064 A 
ATOM     77  C   UNL     1      10.422   8.555  -8.654  1.00  0.00     0.173 A 
ATOM     78  C   UNL     1       8.254   8.367  -7.643  1.00  0.00     0.173 A 
ATOM     79  F   UNL     1      11.640   9.112  -8.725  1.00  0.00    -0.203 F 
ATOM     80  C   UNL     1      10.058   7.608  -9.609  1.00  0.00     0.198 A 
ATOM     81  C   UNL     1       7.901   7.399  -8.581  1.00  0.00     0.198 A 
ATOM     82  F   UNL     1       7.357   8.720  -6.710  1.00  0.00    -0.203 F 
ATOM     83  F   UNL     1      10.919   7.275 -10.581  1.00  0.00    -0.200 F 
ATOM     84  C   UNL     1       8.800   7.028  -9.570  1.00  0.00     0.200 A 
ATOM     85  F   UNL     1       6.689   6.831  -8.531  1.00  0.00    -0.200 F 
ATOM     86  F   UNL     1       8.449   6.120 -10.491  1.00  0.00    -0.200 F 
ENDBRANCH  52  76
BRANCH  64  87
ATOM     87  C   UNL     1      10.836  15.778  -8.256  1.00  0.00     0.064 A 
ATOM     88  C   UNL     1       9.678  16.178  -8.938  1.00  0.00     0.173 A 
ATOM     89  C   UNL     1      12.066  16.299  -8.686  1.00  0.00     0.173 A 
ATOM     90  F   UNL     1       8.480  15.695  -8.574  1.00  0.00    -0.203 F 
ATOM     91  C   UNL     1       9.752  17.047 -10.023  1.00  0.00     0.198 A 
ATOM     92  C   UNL     1      12.133  17.190  -9.752  1.00  0.00     0.198 A 
ATOM     93  F   UNL     1      13.202  15.953  -8.062  1.00  0.00    -0.203 F 
ATOM     94  F   UNL     1       8.637  17.379 -10.689  1.00  0.00    -0.200 F 
ATOM     95  C   UNL     1      10.977  17.558 -10.424  1.00  0.00     0.200 A 
ATOM     96  F   UNL     1      13.316  17.694 -10.130  1.00  0.00    -0.200 F 
ATOM     97  F   UNL     1      11.045  18.400 -11.464  1.00  0.00    -0.200 F 
ENDBRANCH  64  87
ENDBRANCH  38  39
ENDBRANCH  30  33
ENDBRANCH  28  29
ENDBRANCH  27  28
ENDBRANCH   1  27
TORSDOF 16
