REMARK SMILES O=C(NCCCCNC(=O)c1cc(N2C(=O)[C@H]3[C@@H]4C=C[C@@H]([C@@H]5C[C@H]45)[C@@H]3C2=O)ccc1Cl)c1ccc(-c2c3nc(c(-c4c(F)c(F)c(F)c(F)c4F)c4ccc([nH]4)c(-c4c(F)c(F)c(F)c(F)c4F)c4nc(c(-c5c(F)c(F)c(F)c(F)c5F)c5ccc2[nH]5)C=C4)C=C3)cc1
REMARK SMILES IDX 5 1 4 2 3 3 1 4 2 5 32 7 33 8 94 9 34 10 93 11 35 12 36 13
REMARK SMILES IDX 37 14 87 15 38 16 92 17 86 18 88 19 39 20 91 21 85 22 84 23
REMARK SMILES IDX 40 25 72 26 52 27 71 28 53 29 56 30 70 31 89 32 54 33 55 34
REMARK SMILES IDX 69 36 90 37 57 38 41 39 42 40 50 41 43 42 44 43 48 44 51 45
REMARK SMILES IDX 45 46 46 47 49 48 47 49 73 50 74 51 82 52 75 53 76 54 80 55
REMARK SMILES IDX 83 56 77 57 78 58 81 59 79 60 58 61 59 62 67 63 60 64 61 65
REMARK SMILES IDX 65 66 68 67 62 68 63 69 66 70 64 71 6 72 7 73 8 74 9 75
REMARK SMILES IDX 10 77 11 78 12 79 30 80 13 81 29 82 31 83 28 84 14 85 15 86
REMARK SMILES IDX 26 87 16 88 17 89 25 90 27 91 18 92 21 93 19 94 24 95 20 96
REMARK SMILES IDX 22 97 23 98
REMARK H PARENT 3 6 88 24 56 35 8 76
REMARK Flexibility Score: inf
ROOT
ATOM      1  C   UNL     1       4.856  -1.973  -1.597  1.00  0.00     0.023 C 
ENDROOT
BRANCH   1   2
ATOM      2  C   UNL     1       4.506  -0.575  -1.109  1.00  0.00     0.116 C 
BRANCH   2   3
ATOM      3  N   UNL     1       3.072  -0.344  -1.014  1.00  0.00    -0.352 N 
ATOM      4  O   UNL     1       1.090   0.014   0.015  1.00  0.00    -0.269 OA
ATOM      5  C   UNL     1       2.314  -0.008   0.085  1.00  0.00     0.251 C 
ATOM      6  H   UNL     1       2.572  -0.442  -1.856  1.00  0.00     0.163 HD
BRANCH   5   7
ATOM      7  C   UNL     1       2.988   0.294   1.365  1.00  0.00     0.039 A 
ATOM      8  C   UNL     1       4.111   1.121   1.391  1.00  0.00     0.014 A 
ATOM      9  C   UNL     1       2.510  -0.280   2.546  1.00  0.00     0.014 A 
ATOM     10  C   UNL     1       4.862   1.222   2.554  1.00  0.00     0.010 A 
ATOM     11  C   UNL     1       3.205  -0.082   3.743  1.00  0.00     0.010 A 
ATOM     12  C   UNL     1       4.408   0.640   3.749  1.00  0.00    -0.014 A 
BRANCH  12  13
ATOM     13  C   UNL     1       5.182   0.863   4.998  1.00  0.00     0.031 A 
ATOM     14  C   UNL     1       5.807  -0.278   5.750  1.00  0.00     0.074 A 
ATOM     15  C   UNL     1       5.343   2.129   5.431  1.00  0.00     0.049 A 
ATOM     16  N   UNL     1       6.527  -0.246   6.845  1.00  0.00    -0.248 NA
ATOM     17  C   UNL     1       5.594  -1.630   5.215  1.00  0.00     0.031 C 
ATOM     18  C   UNL     1       4.774   3.316   4.786  1.00  0.00     0.029 A 
ATOM     19  N   UNL     1       6.043   2.635   6.495  1.00  0.00    -0.354 N 
ATOM     20  C   UNL     1       6.838  -1.568   7.137  1.00  0.00     0.074 A 
ATOM     21  C   UNL     1       6.202  -2.382   6.123  1.00  0.00     0.031 C 
ATOM     22  C   UNL     1       5.189   4.411   5.435  1.00  0.00     0.029 A 
ATOM     23  C   UNL     1       5.986   4.004   6.585  1.00  0.00     0.049 A 
ATOM     24  H   UNL     1       6.538   2.071   7.133  1.00  0.00     0.167 HD
ATOM     25  C   UNL     1       7.591  -2.053   8.155  1.00  0.00     0.037 A 
ATOM     26  C   UNL     1       6.497   4.841   7.505  1.00  0.00     0.037 A 
ATOM     27  C   UNL     1       8.226  -1.231   9.157  1.00  0.00     0.049 A 
ATOM     28  C   UNL     1       7.292   4.270   8.644  1.00  0.00     0.074 A 
ATOM     29  C   UNL     1       9.036  -1.624  10.209  1.00  0.00     0.029 A 
ATOM     30  N   UNL     1       8.114   0.150   9.237  1.00  0.00    -0.354 N 
ATOM     31  N   UNL     1       7.609   3.022   8.887  1.00  0.00    -0.248 NA
ATOM     32  C   UNL     1       7.798   5.226   9.636  1.00  0.00     0.031 C 
ATOM     33  C   UNL     1       9.363  -0.490  10.960  1.00  0.00     0.029 A 
ATOM     34  C   UNL     1       8.815   0.620  10.338  1.00  0.00     0.049 A 
ATOM     35  H   UNL     1       7.612   0.714   8.605  1.00  0.00     0.167 HD
ATOM     36  C   UNL     1       8.372   3.043  10.046  1.00  0.00     0.074 A 
ATOM     37  C   UNL     1       8.488   4.432  10.442  1.00  0.00     0.031 C 
ATOM     38  C   UNL     1       8.925   2.006  10.721  1.00  0.00     0.037 A 
BRANCH  25  39
ATOM     39  C   UNL     1       7.756  -3.544   8.258  1.00  0.00     0.064 A 
ATOM     40  C   UNL     1       8.513  -4.273   7.328  1.00  0.00     0.173 A 
ATOM     41  C   UNL     1       7.192  -4.248   9.334  1.00  0.00     0.173 A 
ATOM     42  F   UNL     1       9.070  -3.653   6.276  1.00  0.00    -0.203 F 
ATOM     43  C   UNL     1       8.675  -5.651   7.456  1.00  0.00     0.198 A 
ATOM     44  C   UNL     1       7.383  -5.620   9.476  1.00  0.00     0.198 A 
ATOM     45  F   UNL     1       6.466  -3.602  10.259  1.00  0.00    -0.203 F 
ATOM     46  F   UNL     1       9.364  -6.332   6.529  1.00  0.00    -0.200 F 
ATOM     47  C   UNL     1       8.118  -6.322   8.533  1.00  0.00     0.200 A 
ATOM     48  F   UNL     1       6.858  -6.263  10.528  1.00  0.00    -0.200 F 
ATOM     49  F   UNL     1       8.283  -7.646   8.660  1.00  0.00    -0.200 F 
ENDBRANCH  25  39
BRANCH  26  50
ATOM     50  C   UNL     1       6.258   6.303   7.387  1.00  0.00     0.064 A 
ATOM     51  C   UNL     1       7.311   7.190   7.129  1.00  0.00     0.173 A 
ATOM     52  C   UNL     1       4.969   6.842   7.524  1.00  0.00     0.173 A 
ATOM     53  F   UNL     1       8.563   6.726   7.006  1.00  0.00    -0.203 F 
ATOM     54  C   UNL     1       7.088   8.562   7.035  1.00  0.00     0.198 A 
ATOM     55  C   UNL     1       4.742   8.209   7.394  1.00  0.00     0.198 A 
ATOM     56  F   UNL     1       3.925   6.035   7.763  1.00  0.00    -0.203 F 
ATOM     57  F   UNL     1       8.121   9.393   6.839  1.00  0.00    -0.200 F 
ATOM     58  C   UNL     1       5.804   9.070   7.160  1.00  0.00     0.200 A 
ATOM     59  F   UNL     1       3.496   8.692   7.494  1.00  0.00    -0.200 F 
ATOM     60  F   UNL     1       5.590  10.389   7.063  1.00  0.00    -0.200 F 
ENDBRANCH  26  50
BRANCH  38  61
ATOM     61  C   UNL     1       9.740   2.340  11.938  1.00  0.00     0.064 A 
ATOM     62  C   UNL     1       9.151   2.830  13.113  1.00  0.00     0.173 A 
ATOM     63  C   UNL     1      11.131   2.151  11.931  1.00  0.00     0.173 A 
ATOM     64  F   UNL     1       7.827   3.046  13.166  1.00  0.00    -0.203 F 
ATOM     65  C   UNL     1       9.927   3.150  14.223  1.00  0.00     0.198 A 
ATOM     66  C   UNL     1      11.899   2.437  13.056  1.00  0.00     0.198 A 
ATOM     67  F   UNL     1      11.745   1.680  10.836  1.00  0.00    -0.203 F 
ATOM     68  F   UNL     1       9.350   3.676  15.313  1.00  0.00    -0.200 F 
ATOM     69  C   UNL     1      11.299   2.947  14.197  1.00  0.00     0.200 A 
ATOM     70  F   UNL     1      13.222   2.225  13.033  1.00  0.00    -0.200 F 
ATOM     71  F   UNL     1      12.044   3.252  15.268  1.00  0.00    -0.200 F 
ENDBRANCH  38  61
ENDBRANCH  12  13
ENDBRANCH   5   7
ENDBRANCH   2   3
ENDBRANCH   1   2
BRANCH   1  72
ATOM     72  C   UNL     1       4.393  -2.299  -3.014  1.00  0.00     0.023 C 
BRANCH  72  73
ATOM     73  C   UNL     1       4.787  -1.273  -4.070  1.00  0.00     0.116 C 
BRANCH  73  74
ATOM     74  N   UNL     1       6.224  -1.073  -4.149  1.00  0.00    -0.352 N 
ATOM     75  C   UNL     1       7.027  -1.068  -5.258  1.00  0.00     0.252 C 
ATOM     76  H   UNL     1       6.681  -0.921  -3.291  1.00  0.00     0.163 HD
ATOM     77  O   UNL     1       8.242  -0.936  -5.152  1.00  0.00    -0.269 OA
BRANCH  75  78
ATOM     78  C   UNL     1       6.441  -1.284  -6.589  1.00  0.00     0.060 A 
ATOM     79  C   UNL     1       6.850  -2.437  -7.278  1.00  0.00     0.042 A 
ATOM     80  C   UNL     1       5.544  -0.380  -7.172  1.00  0.00     0.053 A 
ATOM     81  C   UNL     1       6.371  -2.671  -8.565  1.00  0.00     0.053 A 
ATOM     82  C   UNL     1       5.005  -0.663  -8.425  1.00  0.00     0.023 A 
ATOM     83  Cl  UNL     1       5.076   1.106  -6.428  1.00  0.00    -0.083 Cl
ATOM     84  C   UNL     1       5.432  -1.790  -9.125  1.00  0.00     0.028 A 
BRANCH  81  85
ATOM     85  N   UNL     1       6.730  -3.827  -9.284  1.00  0.00    -0.250 N 
ATOM     86  C   UNL     1       6.434  -5.116  -8.805  1.00  0.00     0.238 C 
ATOM     87  C   UNL     1       6.933  -3.808 -10.680  1.00  0.00     0.238 C 
ATOM     88  O   UNL     1       6.009  -5.466  -7.719  1.00  0.00    -0.274 OA
ATOM     89  C   UNL     1       6.726  -6.003  -9.974  1.00  0.00     0.100 C 
ATOM     90  C   UNL     1       6.264  -5.066 -11.094  1.00  0.00     0.100 C 
ATOM     91  O   UNL     1       7.328  -2.914 -11.402  1.00  0.00    -0.274 OA
ATOM     92  C   UNL     1       6.218  -7.425 -10.271  1.00  0.00     0.028 C 
ATOM     93  C   UNL     1       6.059  -5.857 -12.374  1.00  0.00     0.028 C 
ATOM     94  C   UNL     1       7.165  -7.810 -11.434  1.00  0.00    -0.026 C 
ATOM     95  C   UNL     1       4.808  -7.510 -10.886  1.00  0.00     0.001 C 
ATOM     96  C   UNL     1       7.117  -6.963 -12.489  1.00  0.00    -0.026 C 
ATOM     97  C   UNL     1       4.697  -6.608 -12.126  1.00  0.00     0.001 C 
ATOM     98  C   UNL     1       3.752  -6.445 -10.930  1.00  0.00     0.009 C 
ENDBRANCH  81  85
ENDBRANCH  75  78
ENDBRANCH  73  74
ENDBRANCH  72  73
ENDBRANCH   1  72
TORSDOF 12
