REMARK SMILES CC1CC[NH+]([C@H](c2ccc(F)cc2)c2ccc([C@@H](C)C(=O)NCCCCNC(=O)c3ccc(-c4c5nc(c(-c6c(F)c(F)c(F)c(F)c6F)c6ccc([nH]6)c(-c6c(F)c(F)c(F)c(F)c6F)c6nc(c(-c7c(F)c(F)c(F)c(F)c7F)c7ccc4[nH]7)C=C6)C=C5)cc3)cc2-c2ccc(C(F)(F)F)cc2)CC1
REMARK SMILES IDX 24 1 23 2 22 3 20 4 21 5 18 7 19 8 17 9 14 10 15 11 94 12
REMARK SMILES IDX 16 13 93 14 6 15 5 16 1 17 2 18 3 19 106 20 4 21 105 22 7 24
REMARK SMILES IDX 8 25 13 26 9 27 12 28 10 29 11 30 95 31 96 32 104 33 97 34
REMARK SMILES IDX 103 35 98 36 99 37 100 38 101 39 102 40 25 41 26 42 27 43
REMARK SMILES IDX 28 44 29 46 30 47 31 48 92 49 32 50 91 51 33 52 34 53 35 54
REMARK SMILES IDX 85 55 36 56 90 57 84 58 86 59 37 60 89 61 83 62 82 63 38 65
REMARK SMILES IDX 70 66 50 67 69 68 51 69 54 70 68 71 87 72 52 73 53 74 67 76
REMARK SMILES IDX 88 77 55 78 39 79 40 80 48 81 41 82 42 83 46 84 49 85 43 86
REMARK SMILES IDX 44 87 47 88 45 89 71 90 72 91 80 92 73 93 74 94 78 95 81 96
REMARK SMILES IDX 75 97 76 98 79 99 77 100 56 101 57 102 65 103 58 104 59 105
REMARK SMILES IDX 63 106 66 107 60 108 61 109 64 110 62 111
REMARK H PARENT 22 6 5 23 27 45 86 64 54 75
REMARK Flexibility Score: inf
ROOT
ATOM      1  C   UNL     1       1.054   5.180  -3.799  1.00  0.00     0.023 C 
ENDROOT
BRANCH   1   2
ATOM      2  C   UNL     1       2.207   5.932  -4.474  1.00  0.00     0.116 C 
BRANCH   2   3
ATOM      3  N   UNL     1       3.256   6.283  -3.537  1.00  0.00    -0.356 N 
ATOM      4  C   UNL     1       4.425   5.677  -3.188  1.00  0.00     0.227 C 
ATOM      5  O   UNL     1       5.069   6.234  -2.288  1.00  0.00    -0.274 OA
ATOM      6  H   UNL     1       3.090   7.126  -3.057  1.00  0.00     0.163 HD
BRANCH   4   7
ATOM      7  C   UNL     1       4.978   4.389  -3.832  1.00  0.00     0.105 C 
ATOM      8  C   UNL     1       5.250   4.511  -5.330  1.00  0.00     0.023 C 
BRANCH   7   9
ATOM      9  C   UNL     1       4.231   3.138  -3.407  1.00  0.00    -0.035 A 
ATOM     10  C   UNL     1       2.614   1.052  -2.283  1.00  0.00     0.022 A 
ATOM     11  C   UNL     1       2.211   1.816  -3.390  1.00  0.00     0.011 A 
ATOM     12  C   UNL     1       3.961   1.230  -1.858  1.00  0.00    -0.009 A 
ATOM     13  C   UNL     1       3.035   2.764  -3.993  1.00  0.00     0.005 A 
ATOM     14  C   UNL     1       4.705   2.326  -2.369  1.00  0.00     0.013 A 
BRANCH  10  15
ATOM     15  C   UNL     1       1.645   0.025  -1.623  1.00  0.00     0.247 C 
BRANCH  15  16
ATOM     16  N   UNL     1       0.206   0.030  -2.056  1.00  0.00    -0.325 N 
ATOM     17  C   UNL     1      -3.319   1.352  -4.337  1.00  0.00     0.008 C 
ATOM     18  C   UNL     1      -1.936   1.135  -3.729  1.00  0.00    -0.003 C 
ATOM     19  C   UNL     1      -1.395  -0.263  -4.031  1.00  0.00     0.065 C 
ATOM     20  C   UNL     1      -1.977   1.284  -2.215  1.00  0.00     0.065 C 
ATOM     21  C   UNL     1      -0.021  -0.524  -3.394  1.00  0.00     0.263 C 
ATOM     22  C   UNL     1      -0.564   1.203  -1.645  1.00  0.00     0.263 C 
ATOM     23  H   UNL     1      -0.254  -0.675  -1.480  1.00  0.00     0.348 HD
ENDBRANCH  15  16
BRANCH  15  24
ATOM     24  C   UNL     1       1.721   0.003  -0.080  1.00  0.00     0.014 A 
ATOM     25  C   UNL     1       1.627   1.180   0.690  1.00  0.00     0.013 A 
ATOM     26  C   UNL     1       1.890  -1.223   0.592  1.00  0.00     0.013 A 
ATOM     27  C   UNL     1       1.693   1.130   2.084  1.00  0.00     0.040 A 
ATOM     28  C   UNL     1       1.986  -1.266   1.984  1.00  0.00     0.040 A 
ATOM     29  C   UNL     1       1.880  -0.091   2.716  1.00  0.00     0.123 A 
ATOM     30  F   UNL     1       1.959  -0.136   4.053  1.00  0.00    -0.207 F 
ENDBRANCH  15  24
ENDBRANCH  10  15
BRANCH  12  31
ATOM     31  C   UNL     1       4.670   0.286  -0.971  1.00  0.00    -0.018 A 
ATOM     32  C   UNL     1       5.231   0.693   0.248  1.00  0.00     0.009 A 
ATOM     33  C   UNL     1       4.856  -1.048  -1.371  1.00  0.00     0.009 A 
ATOM     34  C   UNL     1       5.928  -0.213   1.056  1.00  0.00     0.014 A 
ATOM     35  C   UNL     1       5.544  -1.958  -0.564  1.00  0.00     0.014 A 
ATOM     36  C   UNL     1       6.081  -1.551   0.663  1.00  0.00     0.056 A 
BRANCH  36  37
ATOM     37  C   UNL     1       6.838  -2.519   1.538  1.00  0.00     0.416 C 
ATOM     38  F   UNL     1       8.180  -2.288   1.530  1.00  0.00    -0.166 F 
ATOM     39  F   UNL     1       6.456  -2.462   2.844  1.00  0.00    -0.166 F 
ATOM     40  F   UNL     1       6.683  -3.821   1.164  1.00  0.00    -0.166 F 
ENDBRANCH  36  37
ENDBRANCH  12  31
ENDBRANCH   7   9
ENDBRANCH   4   7
ENDBRANCH   2   3
ENDBRANCH   1   2
BRANCH   1  41
ATOM     41  C   UNL     1      -0.097   6.041  -3.291  1.00  0.00     0.023 C 
BRANCH  41  42
ATOM     42  C   UNL     1      -0.845   6.819  -4.365  1.00  0.00     0.116 C 
BRANCH  42  43
ATOM     43  N   UNL     1      -1.415   5.991  -5.418  1.00  0.00    -0.352 N 
ATOM     44  C   UNL     1      -2.555   6.215  -6.157  1.00  0.00     0.251 C 
ATOM     45  H   UNL     1      -0.922   5.165  -5.629  1.00  0.00     0.163 HD
ATOM     46  O   UNL     1      -2.945   5.385  -6.966  1.00  0.00    -0.269 OA
BRANCH  44  47
ATOM     47  C   UNL     1      -3.339   7.448  -5.919  1.00  0.00     0.039 A 
ATOM     48  C   UNL     1      -4.716   7.338  -5.719  1.00  0.00     0.014 A 
ATOM     49  C   UNL     1      -2.712   8.694  -5.829  1.00  0.00     0.014 A 
ATOM     50  C   UNL     1      -5.449   8.463  -5.339  1.00  0.00     0.010 A 
ATOM     51  C   UNL     1      -3.427   9.796  -5.372  1.00  0.00     0.010 A 
ATOM     52  C   UNL     1      -4.801   9.690  -5.113  1.00  0.00    -0.014 A 
BRANCH  52  53
ATOM     53  C   UNL     1      -5.543  10.859  -4.578  1.00  0.00     0.031 A 
ATOM     54  C   UNL     1      -5.677  12.113  -5.395  1.00  0.00     0.074 A 
ATOM     55  C   UNL     1      -6.044  10.809  -3.327  1.00  0.00     0.049 A 
ATOM     56  N   UNL     1      -6.249  13.247  -5.078  1.00  0.00    -0.248 NA
ATOM     57  C   UNL     1      -5.067  12.105  -6.735  1.00  0.00     0.031 C 
ATOM     58  C   UNL     1      -5.919   9.673  -2.411  1.00  0.00     0.029 A 
ATOM     59  N   UNL     1      -6.754  11.737  -2.606  1.00  0.00    -0.354 N 
ATOM     60  C   UNL     1      -6.061  14.083  -6.169  1.00  0.00     0.074 A 
ATOM     61  C   UNL     1      -5.278  13.350  -7.138  1.00  0.00     0.031 C 
ATOM     62  C   UNL     1      -6.557   9.959  -1.265  1.00  0.00     0.029 A 
ATOM     63  C   UNL     1      -7.108  11.308  -1.350  1.00  0.00     0.049 A 
ATOM     64  H   UNL     1      -6.988  12.627  -2.957  1.00  0.00     0.167 HD
ATOM     65  C   UNL     1      -6.527  15.340  -6.355  1.00  0.00     0.037 A 
ATOM     66  C   UNL     1      -7.799  11.931  -0.376  1.00  0.00     0.037 A 
ATOM     67  C   UNL     1      -7.342  16.051  -5.408  1.00  0.00     0.049 A 
ATOM     68  C   UNL     1      -8.321  13.320  -0.622  1.00  0.00     0.074 A 
ATOM     69  C   UNL     1      -7.923  17.300  -5.541  1.00  0.00     0.029 A 
ATOM     70  N   UNL     1      -7.698  15.575  -4.155  1.00  0.00    -0.354 N 
ATOM     71  N   UNL     1      -8.198  14.072  -1.688  1.00  0.00    -0.248 NA
ATOM     72  C   UNL     1      -9.085  13.947   0.468  1.00  0.00     0.031 C 
ATOM     73  C   UNL     1      -8.597  17.597  -4.354  1.00  0.00     0.029 A 
ATOM     74  C   UNL     1      -8.475  16.515  -3.499  1.00  0.00     0.049 A 
ATOM     75  H   UNL     1      -7.437  14.699  -3.788  1.00  0.00     0.167 HD
ATOM     76  C   UNL     1      -8.878  15.248  -1.406  1.00  0.00     0.074 A 
ATOM     77  C   UNL     1      -9.434  15.104  -0.077  1.00  0.00     0.031 C 
ATOM     78  C   UNL     1      -9.023  16.353  -2.178  1.00  0.00     0.037 A 
BRANCH  65  79
ATOM     79  C   UNL     1      -6.203  16.029  -7.646  1.00  0.00     0.064 A 
ATOM     80  C   UNL     1      -5.337  17.133  -7.668  1.00  0.00     0.173 A 
ATOM     81  C   UNL     1      -6.833  15.663  -8.844  1.00  0.00     0.173 A 
ATOM     82  F   UNL     1      -4.714  17.525  -6.546  1.00  0.00    -0.203 F 
ATOM     83  C   UNL     1      -5.132  17.858  -8.838  1.00  0.00     0.198 A 
ATOM     84  C   UNL     1      -6.606  16.375 -10.018  1.00  0.00     0.198 A 
ATOM     85  F   UNL     1      -7.660  14.607  -8.877  1.00  0.00    -0.203 F 
ATOM     86  F   UNL     1      -4.331  18.932  -8.827  1.00  0.00    -0.200 F 
ATOM     87  C   UNL     1      -5.767  17.480 -10.011  1.00  0.00     0.200 A 
ATOM     88  F   UNL     1      -7.205  15.997 -11.156  1.00  0.00    -0.200 F 
ATOM     89  F   UNL     1      -5.571  18.181 -11.137  1.00  0.00    -0.200 F 
ENDBRANCH  65  79
BRANCH  66  90
ATOM     90  C   UNL     1      -8.061  11.235   0.911  1.00  0.00     0.064 A 
ATOM     91  C   UNL     1      -7.028  10.972   1.823  1.00  0.00     0.173 A 
ATOM     92  C   UNL     1      -9.355  10.818   1.253  1.00  0.00     0.173 A 
ATOM     93  F   UNL     1      -5.772  11.346   1.541  1.00  0.00    -0.203 F 
ATOM     94  C   UNL     1      -7.279  10.310   3.023  1.00  0.00     0.198 A 
ATOM     95  C   UNL     1      -9.610  10.181   2.466  1.00  0.00     0.198 A 
ATOM     96  F   UNL     1     -10.379  11.065   0.423  1.00  0.00    -0.203 F 
ATOM     97  F   UNL     1      -6.271  10.049   3.866  1.00  0.00    -0.200 F 
ATOM     98  C   UNL     1      -8.571   9.922   3.348  1.00  0.00     0.200 A 
ATOM     99  F   UNL     1     -10.863   9.833   2.787  1.00  0.00    -0.200 F 
ATOM    100  F   UNL     1      -8.815   9.305   4.512  1.00  0.00    -0.200 F 
ENDBRANCH  66  90
BRANCH  78 101
ATOM    101  C   UNL     1      -9.818  17.492  -1.615  1.00  0.00     0.064 A 
ATOM    102  C   UNL     1     -11.077  17.814  -2.145  1.00  0.00     0.173 A 
ATOM    103  C   UNL     1      -9.302  18.310  -0.600  1.00  0.00     0.173 A 
ATOM    104  F   UNL     1     -11.609  17.067  -3.124  1.00  0.00    -0.203 F 
ATOM    105  C   UNL     1     -11.784  18.922  -1.688  1.00  0.00     0.198 A 
ATOM    106  C   UNL     1     -10.025  19.401  -0.125  1.00  0.00     0.198 A 
ATOM    107  F   UNL     1      -8.108  18.036  -0.053  1.00  0.00    -0.203 F 
ATOM    108  F   UNL     1     -12.969  19.230  -2.232  1.00  0.00    -0.200 F 
ATOM    109  C   UNL     1     -11.259  19.712  -0.676  1.00  0.00     0.200 A 
ATOM    110  F   UNL     1      -9.527  20.150   0.869  1.00  0.00    -0.200 F 
ATOM    111  F   UNL     1     -11.946  20.772  -0.229  1.00  0.00    -0.200 F 
ENDBRANCH  78 101
ENDBRANCH  52  53
ENDBRANCH  44  47
ENDBRANCH  42  43
ENDBRANCH  41  42
ENDBRANCH   1  41
TORSDOF 17
