REMARK SMILES CC(=O)Nc1cccc(-c2ccc(F)c(C(=O)NCCCCNC(=O)c3ccc(-c4c5nc(c(-c6c(F)c(F)c(F)c(F)c6F)c6ccc([nH]6)c(-c6c(F)c(F)c(F)c(F)c6F)c6nc(c(-c7c(F)c(F)c(F)c(F)c7F)c7ccc4[nH]7)C=C6)C=C5)cc3)c2)c1
REMARK SMILES IDX 20 1 19 2 18 3 16 4 17 5 15 7 10 8 11 9 89 10 12 11 13 12
REMARK SMILES IDX 14 13 9 14 5 15 6 16 90 17 7 18 8 19 4 20 1 21 2 22 3 23
REMARK SMILES IDX 21 25 22 26 23 27 24 28 25 30 26 31 27 32 88 33 28 34 87 35
REMARK SMILES IDX 29 36 30 37 31 38 81 39 32 40 86 41 80 42 82 43 33 44 85 45
REMARK SMILES IDX 79 46 78 47 34 49 66 50 46 51 65 52 47 53 50 54 64 55 83 56
REMARK SMILES IDX 48 57 49 58 63 60 84 61 51 62 35 63 36 64 44 65 37 66 38 67
REMARK SMILES IDX 42 68 45 69 39 70 40 71 43 72 41 73 67 74 68 75 76 76 69 77
REMARK SMILES IDX 70 78 74 79 77 80 71 81 72 82 75 83 73 84 52 85 53 86 61 87
REMARK SMILES IDX 54 88 55 89 59 90 62 91 56 92 57 93 60 94 58 95
REMARK H PARENT 18 6 4 24 23 29 82 48 50 59
REMARK Flexibility Score: inf
ROOT
ATOM      1  C   UNL     1       7.003  -3.678   2.791  1.00  0.00     0.023 C 
ENDROOT
BRANCH   1   2
ATOM      2  C   UNL     1       6.541  -2.541   1.891  1.00  0.00     0.116 C 
BRANCH   2   3
ATOM      3  N   UNL     1       7.606  -1.729   1.317  1.00  0.00    -0.352 N 
ATOM      4  C   UNL     1       7.777  -1.217   0.043  1.00  0.00     0.254 C 
ATOM      5  O   UNL     1       8.747  -0.492  -0.167  1.00  0.00    -0.269 OA
ATOM      6  H   UNL     1       8.330  -1.506   1.945  1.00  0.00     0.163 HD
BRANCH   4   7
ATOM      7  C   UNL     1       6.843  -1.545  -1.063  1.00  0.00     0.076 A 
ATOM      8  C   UNL     1       4.636  -2.318  -1.776  1.00  0.00    -0.017 A 
ATOM      9  C   UNL     1       5.150  -2.551  -3.058  1.00  0.00     0.012 A 
ATOM     10  C   UNL     1       5.474  -1.695  -0.834  1.00  0.00     0.025 A 
ATOM     11  C   UNL     1       6.483  -2.244  -3.353  1.00  0.00     0.041 A 
ATOM     12  C   UNL     1       7.331  -1.780  -2.347  1.00  0.00     0.135 A 
ATOM     13  F   UNL     1       8.628  -1.620  -2.643  1.00  0.00    -0.206 F 
BRANCH   8  14
ATOM     14  C   UNL     1       3.344  -2.866  -1.319  1.00  0.00    -0.016 A 
ATOM     15  C   UNL     1       1.382  -2.701   0.136  1.00  0.00     0.041 A 
ATOM     16  C   UNL     1       1.149  -4.068  -0.035  1.00  0.00     0.026 A 
ATOM     17  C   UNL     1       2.479  -2.115  -0.502  1.00  0.00     0.034 A 
ATOM     18  C   UNL     1       1.960  -4.822  -0.881  1.00  0.00     0.003 A 
ATOM     19  C   UNL     1       3.046  -4.224  -1.521  1.00  0.00     0.009 A 
BRANCH  15  20
ATOM     20  N   UNL     1       0.545  -2.015   1.030  1.00  0.00    -0.326 N 
ATOM     21  C   UNL     1       0.657   0.305   0.123  1.00  0.00     0.114 C 
ATOM     22  C   UNL     1       0.275  -0.686   1.188  1.00  0.00     0.221 C 
ATOM     23  O   UNL     1      -0.339  -0.320   2.192  1.00  0.00    -0.275 OA
ATOM     24  H   UNL     1       0.064  -2.599   1.659  1.00  0.00     0.169 HD
ENDBRANCH  15  20
ENDBRANCH   8  14
ENDBRANCH   4   7
ENDBRANCH   2   3
ENDBRANCH   1   2
BRANCH   1  25
ATOM     25  C   UNL     1       7.785  -3.291   4.038  1.00  0.00     0.023 C 
BRANCH  25  26
ATOM     26  C   UNL     1       7.164  -2.216   4.920  1.00  0.00     0.116 C 
BRANCH  26  27
ATOM     27  N   UNL     1       5.827  -2.536   5.398  1.00  0.00    -0.352 N 
ATOM     28  C   UNL     1       5.320  -2.534   6.679  1.00  0.00     0.251 C 
ATOM     29  H   UNL     1       5.185  -2.794   4.697  1.00  0.00     0.163 HD
ATOM     30  O   UNL     1       4.172  -2.907   6.885  1.00  0.00    -0.269 OA
BRANCH  28  31
ATOM     31  C   UNL     1       6.176  -2.131   7.817  1.00  0.00     0.039 A 
ATOM     32  C   UNL     1       6.184  -2.928   8.966  1.00  0.00     0.014 A 
ATOM     33  C   UNL     1       6.987  -0.996   7.750  1.00  0.00     0.014 A 
ATOM     34  C   UNL     1       7.077  -2.643  10.003  1.00  0.00     0.010 A 
ATOM     35  C   UNL     1       7.934  -0.763   8.743  1.00  0.00     0.010 A 
ATOM     36  C   UNL     1       7.995  -1.588   9.877  1.00  0.00    -0.014 A 
BRANCH  36  37
ATOM     37  C   UNL     1       9.032  -1.338  10.910  1.00  0.00     0.031 A 
ATOM     38  C   UNL     1       9.041  -0.043  11.674  1.00  0.00     0.074 A 
ATOM     39  C   UNL     1      10.012  -2.242  11.106  1.00  0.00     0.049 A 
ATOM     40  N   UNL     1       9.908   0.395  12.553  1.00  0.00    -0.248 NA
ATOM     41  C   UNL     1       7.946   0.897  11.390  1.00  0.00     0.031 C 
ATOM     42  C   UNL     1      10.148  -3.512  10.391  1.00  0.00     0.029 A 
ATOM     43  N   UNL     1      11.088  -2.226  11.960  1.00  0.00    -0.354 N 
ATOM     44  C   UNL     1       9.473   1.665  12.909  1.00  0.00     0.074 A 
ATOM     45  C   UNL     1       8.299   1.949  12.113  1.00  0.00     0.031 C 
ATOM     46  C   UNL     1      11.228  -4.164  10.852  1.00  0.00     0.029 A 
ATOM     47  C   UNL     1      11.881  -3.344  11.868  1.00  0.00     0.049 A 
ATOM     48  H   UNL     1      11.274  -1.483  12.578  1.00  0.00     0.167 HD
ATOM     49  C   UNL     1       9.990   2.507  13.835  1.00  0.00     0.037 A 
ATOM     50  C   UNL     1      13.009  -3.669  12.528  1.00  0.00     0.037 A 
ATOM     51  C   UNL     1      11.140   2.211  14.648  1.00  0.00     0.049 A 
ATOM     52  C   UNL     1      13.559  -2.719  13.557  1.00  0.00     0.074 A 
ATOM     53  C   UNL     1      11.707   2.974  15.655  1.00  0.00     0.029 A 
ATOM     54  N   UNL     1      11.900   1.055  14.546  1.00  0.00    -0.354 N 
ATOM     55  N   UNL     1      13.101  -1.551  13.934  1.00  0.00    -0.248 NA
ATOM     56  C   UNL     1      14.781  -3.138  14.258  1.00  0.00     0.031 C 
ATOM     57  C   UNL     1      12.831   2.296  16.137  1.00  0.00     0.029 A 
ATOM     58  C   UNL     1      12.940   1.090  15.462  1.00  0.00     0.049 A 
ATOM     59  H   UNL     1      11.727   0.318  13.917  1.00  0.00     0.167 HD
ATOM     60  C   UNL     1      13.957  -1.109  14.933  1.00  0.00     0.074 A 
ATOM     61  C   UNL     1      14.956  -2.141  15.114  1.00  0.00     0.031 C 
ATOM     62  C   UNL     1      13.918   0.048  15.638  1.00  0.00     0.037 A 
BRANCH  49  63
ATOM     63  C   UNL     1       9.306   3.830  14.024  1.00  0.00     0.064 A 
ATOM     64  C   UNL     1       8.033   3.921  14.609  1.00  0.00     0.173 A 
ATOM     65  C   UNL     1       9.936   5.022  13.637  1.00  0.00     0.173 A 
ATOM     66  F   UNL     1       7.383   2.809  14.985  1.00  0.00    -0.203 F 
ATOM     67  C   UNL     1       7.404   5.152  14.770  1.00  0.00     0.198 A 
ATOM     68  C   UNL     1       9.316   6.255  13.827  1.00  0.00     0.198 A 
ATOM     69  F   UNL     1      11.155   4.993  13.078  1.00  0.00    -0.203 F 
ATOM     70  F   UNL     1       6.167   5.208  15.282  1.00  0.00    -0.200 F 
ATOM     71  C   UNL     1       8.048   6.318  14.384  1.00  0.00     0.200 A 
ATOM     72  F   UNL     1       9.945   7.382  13.466  1.00  0.00    -0.200 F 
ATOM     73  F   UNL     1       7.443   7.503  14.543  1.00  0.00    -0.200 F 
ENDBRANCH  49  63
BRANCH  50  74
ATOM     74  C   UNL     1      13.676  -4.971  12.265  1.00  0.00     0.064 A 
ATOM     75  C   UNL     1      13.658  -5.992  13.226  1.00  0.00     0.173 A 
ATOM     76  C   UNL     1      14.346  -5.221  11.059  1.00  0.00     0.173 A 
ATOM     77  F   UNL     1      13.048  -5.791  14.403  1.00  0.00    -0.203 F 
ATOM     78  C   UNL     1      14.303  -7.205  13.000  1.00  0.00     0.198 A 
ATOM     79  C   UNL     1      14.968  -6.446  10.823  1.00  0.00     0.198 A 
ATOM     80  F   UNL     1      14.388  -4.279  10.105  1.00  0.00    -0.203 F 
ATOM     81  F   UNL     1      14.309  -8.146  13.954  1.00  0.00    -0.200 F 
ATOM     82  C   UNL     1      14.953  -7.434  11.796  1.00  0.00     0.200 A 
ATOM     83  F   UNL     1      15.585  -6.668   9.654  1.00  0.00    -0.200 F 
ATOM     84  F   UNL     1      15.572  -8.602  11.578  1.00  0.00    -0.200 F 
ENDBRANCH  50  74
BRANCH  62  85
ATOM     85  C   UNL     1      14.962   0.242  16.698  1.00  0.00     0.064 A 
ATOM     86  C   UNL     1      16.300   0.512  16.374  1.00  0.00     0.173 A 
ATOM     87  C   UNL     1      14.611   0.193  18.056  1.00  0.00     0.173 A 
ATOM     88  F   UNL     1      16.688   0.553  15.090  1.00  0.00    -0.203 F 
ATOM     89  C   UNL     1      17.253   0.701  17.371  1.00  0.00     0.198 A 
ATOM     90  C   UNL     1      15.560   0.411  19.049  1.00  0.00     0.198 A 
ATOM     91  F   UNL     1      13.344  -0.057  18.418  1.00  0.00    -0.203 F 
ATOM     92  F   UNL     1      18.534   0.912  17.040  1.00  0.00    -0.200 F 
ATOM     93  C   UNL     1      16.881   0.658  18.707  1.00  0.00     0.200 A 
ATOM     94  F   UNL     1      15.197   0.380  20.339  1.00  0.00    -0.200 F 
ATOM     95  F   UNL     1      17.799   0.846  19.665  1.00  0.00    -0.200 F 
ENDBRANCH  62  85
ENDBRANCH  36  37
ENDBRANCH  28  31
ENDBRANCH  26  27
ENDBRANCH  25  26
ENDBRANCH   1  25
TORSDOF 13
