REMARK SMILES O=C(NCCCCNC(=O)c1ccc(-c2c3nc(c(-c4c(F)c(F)c(F)c(F)c4F)c4ccc([nH]4)c(-c4c(F)c(F)c(F)c(F)c4F)c4nc(c(-c5c(F)c(F)c(F)c(F)c5F)c5ccc2[nH]5)C=C4)C=C3)cc1)C1=Cc2c(ccc(Cl)c2Oc2ccccc2)O[C@H]1C(F)(F)F
REMARK SMILES IDX 5 1 4 2 3 3 1 4 2 5 74 7 75 8 91 9 76 10 90 11 77 12 82 13
REMARK SMILES IDX 78 14 80 15 79 16 81 17 92 18 93 19 94 20 95 21 83 22 84 23
REMARK SMILES IDX 85 24 89 25 86 26 88 27 87 28 6 29 7 30 8 31 9 32 10 34
REMARK SMILES IDX 11 35 12 36 73 37 13 38 72 39 14 40 15 41 16 42 66 43 17 44
REMARK SMILES IDX 71 45 65 46 67 47 18 48 70 49 64 50 63 51 19 53 51 54 31 55
REMARK SMILES IDX 50 56 32 57 35 58 49 59 68 60 33 61 34 62 48 64 69 65 36 66
REMARK SMILES IDX 20 67 21 68 29 69 22 70 23 71 27 72 30 73 24 74 25 75 28 76
REMARK SMILES IDX 26 77 52 78 53 79 61 80 54 81 55 82 59 83 62 84 56 85 57 86
REMARK SMILES IDX 60 87 58 88 37 89 38 90 46 91 39 92 40 93 44 94 47 95 41 96
REMARK SMILES IDX 42 97 45 98 43 99
REMARK H PARENT 3 6 8 33 67 52 35 63
REMARK Flexibility Score: inf
ROOT
ATOM      1  C   UNL     1       4.233  -2.768  -1.911  1.00  0.00     0.023 C 
ENDROOT
BRANCH   1   2
ATOM      2  C   UNL     1       3.676  -1.484  -1.300  1.00  0.00     0.116 C 
BRANCH   2   3
ATOM      3  N   UNL     1       2.565  -1.708  -0.392  1.00  0.00    -0.352 N 
ATOM      4  O   UNL     1       1.385  -1.643   1.520  1.00  0.00    -0.270 OA
ATOM      5  C   UNL     1       2.370  -1.272   0.887  1.00  0.00     0.251 C 
ATOM      6  H   UNL     1       1.837  -2.261  -0.757  1.00  0.00     0.163 HD
BRANCH   5   7
ATOM      7  C   UNL     1       3.354  -0.390   1.542  1.00  0.00     0.067 C 
ATOM      8  C   UNL     1       3.553   0.860   1.109  1.00  0.00     0.029 C 
ATOM      9  C   UNL     1       4.345  -0.998   2.476  1.00  0.00     0.314 C 
ATOM     10  C   UNL     1       4.898   0.998   0.496  1.00  0.00     0.061 A 
ATOM     11  O   UNL     1       5.718  -0.746   2.037  1.00  0.00    -0.475 OA
ATOM     12  C   UNL     1       5.909   0.139   0.995  1.00  0.00     0.131 A 
ATOM     13  C   UNL     1       5.125   1.774  -0.667  1.00  0.00     0.156 A 
ATOM     14  C   UNL     1       7.135   0.047   0.344  1.00  0.00     0.049 A 
ATOM     15  C   UNL     1       6.356   1.620  -1.332  1.00  0.00     0.084 A 
ATOM     16  C   UNL     1       7.349   0.768  -0.830  1.00  0.00     0.028 A 
ATOM     17  Cl  UNL     1       6.665   2.404  -2.844  1.00  0.00    -0.080 Cl
BRANCH   9  18
ATOM     18  C   UNL     1       4.139  -0.512   3.922  1.00  0.00     0.429 C 
ATOM     19  F   UNL     1       2.843  -0.242   4.202  1.00  0.00    -0.167 F 
ATOM     20  F   UNL     1       4.549  -1.446   4.813  1.00  0.00    -0.167 F 
ATOM     21  F   UNL     1       4.838   0.622   4.176  1.00  0.00    -0.167 F 
ENDBRANCH   9  18
BRANCH  13  22
ATOM     22  O   UNL     1       4.200   2.589  -1.315  1.00  0.00    -0.455 OA
BRANCH  22  23
ATOM     23  C   UNL     1       3.092   3.017  -0.628  1.00  0.00     0.127 A 
ATOM     24  C   UNL     1       1.865   2.408  -0.905  1.00  0.00     0.047 A 
ATOM     25  C   UNL     1       3.199   3.988   0.369  1.00  0.00     0.047 A 
ATOM     26  C   UNL     1       0.767   2.675  -0.087  1.00  0.00     0.004 A 
ATOM     27  C   UNL     1       2.094   4.259   1.178  1.00  0.00     0.004 A 
ATOM     28  C   UNL     1       0.889   3.585   0.965  1.00  0.00     0.000 A 
ENDBRANCH  22  23
ENDBRANCH  13  22
ENDBRANCH   5   7
ENDBRANCH   2   3
ENDBRANCH   1   2
BRANCH   1  29
ATOM     29  C   UNL     1       4.015  -2.899  -3.415  1.00  0.00     0.023 C 
BRANCH  29  30
ATOM     30  C   UNL     1       4.580  -1.775  -4.284  1.00  0.00     0.116 C 
BRANCH  30  31
ATOM     31  N   UNL     1       6.023  -1.607  -4.202  1.00  0.00    -0.352 N 
ATOM     32  C   UNL     1       6.936  -1.423  -5.225  1.00  0.00     0.251 C 
ATOM     33  H   UNL     1       6.401  -1.628  -3.293  1.00  0.00     0.163 HD
ATOM     34  O   UNL     1       8.126  -1.333  -4.987  1.00  0.00    -0.269 OA
BRANCH  32  35
ATOM     35  C   UNL     1       6.450  -1.410  -6.627  1.00  0.00     0.039 A 
ATOM     36  C   UNL     1       7.017  -2.304  -7.539  1.00  0.00     0.014 A 
ATOM     37  C   UNL     1       5.384  -0.595  -7.010  1.00  0.00     0.014 A 
ATOM     38  C   UNL     1       6.431  -2.473  -8.796  1.00  0.00     0.010 A 
ATOM     39  C   UNL     1       4.758  -0.815  -8.236  1.00  0.00     0.010 A 
ATOM     40  C   UNL     1       5.255  -1.779  -9.128  1.00  0.00    -0.014 A 
BRANCH  40  41
ATOM     41  C   UNL     1       4.492  -2.098 -10.364  1.00  0.00     0.031 A 
ATOM     42  C   UNL     1       4.300  -1.059 -11.432  1.00  0.00     0.074 A 
ATOM     43  C   UNL     1       3.880  -3.295 -10.475  1.00  0.00     0.049 A 
ATOM     44  N   UNL     1       3.582  -1.119 -12.525  1.00  0.00    -0.248 NA
ATOM     45  C   UNL     1       4.982   0.228 -11.231  1.00  0.00     0.031 C 
ATOM     46  C   UNL     1       3.933  -4.369  -9.481  1.00  0.00     0.029 A 
ATOM     47  N   UNL     1       3.076  -3.804 -11.466  1.00  0.00    -0.354 N 
ATOM     48  C   UNL     1       3.703   0.126 -13.126  1.00  0.00     0.074 A 
ATOM     49  C   UNL     1       4.537   0.934 -12.262  1.00  0.00     0.031 C 
ATOM     50  C   UNL     1       3.208  -5.412  -9.918  1.00  0.00     0.029 A 
ATOM     51  C   UNL     1       2.608  -5.070 -11.204  1.00  0.00     0.049 A 
ATOM     52  H   UNL     1       2.855  -3.308 -12.288  1.00  0.00     0.167 HD
ATOM     53  C   UNL     1       3.180   0.550 -14.301  1.00  0.00     0.037 A 
ATOM     54  C   UNL     1       1.781  -5.862 -11.914  1.00  0.00     0.037 A 
ATOM     55  C   UNL     1       2.390  -0.266 -15.184  1.00  0.00     0.049 A 
ATOM     56  C   UNL     1       1.236  -5.371 -13.227  1.00  0.00     0.074 A 
ATOM     57  C   UNL     1       1.900   0.047 -16.440  1.00  0.00     0.029 A 
ATOM     58  N   UNL     1       1.973  -1.558 -14.903  1.00  0.00    -0.354 N 
ATOM     59  N   UNL     1       1.435  -4.224 -13.828  1.00  0.00    -0.248 NA
ATOM     60  C   UNL     1       0.353  -6.288 -13.964  1.00  0.00     0.031 C 
ATOM     61  C   UNL     1       1.153  -1.041 -16.903  1.00  0.00     0.029 A 
ATOM     62  C   UNL     1       1.212  -2.047 -15.953  1.00  0.00     0.049 A 
ATOM     63  H   UNL     1       2.186  -2.055 -14.080  1.00  0.00     0.167 HD
ATOM     64  C   UNL     1       0.731  -4.292 -15.022  1.00  0.00     0.074 A 
ATOM     65  C   UNL     1       0.106  -5.597 -15.068  1.00  0.00     0.031 C 
ATOM     66  C   UNL     1       0.612  -3.355 -15.993  1.00  0.00     0.037 A 
BRANCH  53  67
ATOM     67  C   UNL     1       3.448   1.968 -14.711  1.00  0.00     0.064 A 
ATOM     68  C   UNL     1       4.713   2.377 -15.157  1.00  0.00     0.173 A 
ATOM     69  C   UNL     1       2.412   2.914 -14.711  1.00  0.00     0.173 A 
ATOM     70  F   UNL     1       5.737   1.511 -15.167  1.00  0.00    -0.203 F 
ATOM     71  C   UNL     1       4.937   3.688 -15.569  1.00  0.00     0.198 A 
ATOM     72  C   UNL     1       2.633   4.217 -15.147  1.00  0.00     0.198 A 
ATOM     73  F   UNL     1       1.182   2.571 -14.300  1.00  0.00    -0.203 F 
ATOM     74  F   UNL     1       6.162   4.066 -15.956  1.00  0.00    -0.200 F 
ATOM     75  C   UNL     1       3.896   4.604 -15.571  1.00  0.00     0.200 A 
ATOM     76  F   UNL     1       1.624   5.099 -15.160  1.00  0.00    -0.200 F 
ATOM     77  F   UNL     1       4.111   5.863 -15.977  1.00  0.00    -0.200 F 
ENDBRANCH  53  67
BRANCH  54  78
ATOM     78  C   UNL     1       1.427  -7.215 -11.411  1.00  0.00     0.064 A 
ATOM     79  C   UNL     1       1.910  -8.366 -12.049  1.00  0.00     0.173 A 
ATOM     80  C   UNL     1       0.582  -7.387 -10.306  1.00  0.00     0.173 A 
ATOM     81  F   UNL     1       2.702  -8.252 -13.125  1.00  0.00    -0.203 F 
ATOM     82  C   UNL     1       1.540  -9.638 -11.617  1.00  0.00     0.198 A 
ATOM     83  C   UNL     1       0.234  -8.660  -9.858  1.00  0.00     0.198 A 
ATOM     84  F   UNL     1       0.096  -6.318  -9.658  1.00  0.00    -0.203 F 
ATOM     85  F   UNL     1       1.974 -10.720 -12.277  1.00  0.00    -0.200 F 
ATOM     86  C   UNL     1       0.705  -9.784 -10.520  1.00  0.00     0.200 A 
ATOM     87  F   UNL     1      -0.564  -8.798  -8.790  1.00  0.00    -0.200 F 
ATOM     88  F   UNL     1       0.347 -11.007 -10.106  1.00  0.00    -0.200 F 
ENDBRANCH  54  78
BRANCH  66  89
ATOM     89  C   UNL     1      -0.189  -3.719 -17.208  1.00  0.00     0.064 A 
ATOM     90  C   UNL     1      -1.588  -3.787 -17.171  1.00  0.00     0.173 A 
ATOM     91  C   UNL     1       0.452  -3.956 -18.433  1.00  0.00     0.173 A 
ATOM     92  F   UNL     1      -2.244  -3.584 -16.018  1.00  0.00    -0.203 F 
ATOM     93  C   UNL     1      -2.318  -4.098 -18.315  1.00  0.00     0.198 A 
ATOM     94  C   UNL     1      -0.282  -4.241 -19.581  1.00  0.00     0.198 A 
ATOM     95  F   UNL     1       1.789  -3.898 -18.520  1.00  0.00    -0.203 F 
ATOM     96  F   UNL     1      -3.653  -4.196 -18.250  1.00  0.00    -0.200 F 
ATOM     97  C   UNL     1      -1.666  -4.317 -19.520  1.00  0.00     0.200 A 
ATOM     98  F   UNL     1       0.348  -4.442 -20.746  1.00  0.00    -0.200 F 
ATOM     99  F   UNL     1      -2.371  -4.607 -20.622  1.00  0.00    -0.200 F 
ENDBRANCH  66  89
ENDBRANCH  40  41
ENDBRANCH  32  35
ENDBRANCH  30  31
ENDBRANCH  29  30
ENDBRANCH   1  29
TORSDOF 14
