REMARK SMILES Nc1nc(N2CCOC[C@H]2C(=O)NCCCCNC(=O)c2ccc(-c3c4nc(c(-c5c(F)c(F)c(F)c(F)c5F)c5ccc([nH]5)c(-c5c(F)c(F)c(F)c(F)c5F)c5nc(c(-c6c(F)c(F)c(F)c(F)c6F)c6ccc3[nH]6)C=C5)C=C4)cc2)ccc1[N+](=O)[O-]
REMARK SMILES IDX 15 1 14 2 13 3 11 4 12 5 10 7 5 8 6 9 7 10 9 11 8 12 4 13
REMARK SMILES IDX 2 14 3 15 86 16 85 17 84 18 1 19 87 22 88 23 89 24 16 25
REMARK SMILES IDX 17 26 18 27 19 28 20 30 21 31 22 32 83 33 23 34 82 35 24 36
REMARK SMILES IDX 25 37 26 38 76 39 27 40 81 41 75 42 77 43 28 44 80 45 74 46
REMARK SMILES IDX 73 47 29 49 61 50 41 51 60 52 42 53 45 54 59 55 78 56 43 57
REMARK SMILES IDX 44 58 58 60 79 61 46 62 30 63 31 64 39 65 32 66 33 67 37 68
REMARK SMILES IDX 40 69 34 70 35 71 38 72 36 73 62 74 63 75 71 76 64 77 65 78
REMARK SMILES IDX 69 79 72 80 66 81 67 82 70 83 68 84 47 85 48 86 56 87 49 88
REMARK SMILES IDX 50 89 54 90 57 91 51 92 52 93 55 94 53 95
REMARK H PARENT 13 6 1 20 1 21 18 29 77 48 45 59
REMARK Flexibility Score: inf
ROOT
ATOM      1  C   UNL     1      -2.012   3.984   3.416  1.00  0.00     0.023 C 
ENDROOT
BRANCH   1   2
ATOM      2  C   UNL     1      -2.093   4.920   2.211  1.00  0.00     0.116 C 
BRANCH   2   3
ATOM      3  N   UNL     1      -0.896   4.853   1.407  1.00  0.00    -0.354 N 
ATOM      4  C   UNL     1      -0.603   4.192   0.254  1.00  0.00     0.245 C 
ATOM      5  O   UNL     1       0.544   4.391  -0.177  1.00  0.00    -0.273 OA
ATOM      6  H   UNL     1      -0.148   5.388   1.761  1.00  0.00     0.163 HD
BRANCH   4   7
ATOM      7  C   UNL     1      -1.598   3.344  -0.574  1.00  0.00     0.199 C 
ATOM      8  N   UNL     1      -2.067   2.068   0.018  1.00  0.00    -0.340 N 
ATOM      9  C   UNL     1      -3.343   2.047   0.721  1.00  0.00     0.147 C 
ATOM     10  C   UNL     1      -4.402   2.839  -0.045  1.00  0.00     0.181 C 
ATOM     11  C   UNL     1      -2.775   4.169  -1.141  1.00  0.00     0.195 C 
ATOM     12  O   UNL     1      -3.965   4.171  -0.334  1.00  0.00    -0.377 OA
BRANCH   8  13
ATOM     13  C   UNL     1      -1.269   0.945  -0.049  1.00  0.00     0.132 A 
ATOM     14  C   UNL     1       0.874  -0.014   0.012  1.00  0.00     0.204 A 
ATOM     15  N   UNL     1       0.072   1.082   0.015  1.00  0.00    -0.207 NA
ATOM     16  C   UNL     1       0.343  -1.296  -0.072  1.00  0.00     0.311 A 
ATOM     17  C   UNL     1      -1.033  -1.455  -0.206  1.00  0.00     0.093 A 
ATOM     18  C   UNL     1      -1.836  -0.321  -0.198  1.00  0.00     0.054 A 
BRANCH  14  19
ATOM     19  N   UNL     1       2.213   0.265   0.201  1.00  0.00    -0.378 N 
ATOM     20  H   UNL     1       2.519   1.199   0.251  1.00  0.00     0.158 HD
ATOM     21  H   UNL     1       2.862  -0.471   0.285  1.00  0.00     0.158 HD
ENDBRANCH  14  19
BRANCH  16  22
ATOM     22  N   UNL     1       1.181  -2.485  -0.032  1.00  0.00     0.066 N 
ATOM     23  O   UNL     1       0.647  -3.543   0.337  1.00  0.00    -0.258 OA
ATOM     24  O   UNL     1       2.362  -2.391  -0.398  1.00  0.00    -0.258 OA
ENDBRANCH  16  22
ENDBRANCH   8  13
ENDBRANCH   4   7
ENDBRANCH   2   3
ENDBRANCH   1   2
BRANCH   1  25
ATOM     25  C   UNL     1      -1.529   4.649   4.701  1.00  0.00     0.023 C 
BRANCH  25  26
ATOM     26  C   UNL     1      -2.453   5.737   5.237  1.00  0.00     0.116 C 
BRANCH  26  27
ATOM     27  N   UNL     1      -3.812   5.289   5.507  1.00  0.00    -0.352 N 
ATOM     28  C   UNL     1      -4.674   5.730   6.487  1.00  0.00     0.251 C 
ATOM     29  H   UNL     1      -4.158   4.582   4.915  1.00  0.00     0.163 HD
ATOM     30  O   UNL     1      -5.766   5.208   6.644  1.00  0.00    -0.269 OA
BRANCH  28  31
ATOM     31  C   UNL     1      -4.232   6.824   7.376  1.00  0.00     0.039 A 
ATOM     32  C   UNL     1      -4.347   6.662   8.758  1.00  0.00     0.014 A 
ATOM     33  C   UNL     1      -3.650   7.976   6.842  1.00  0.00     0.014 A 
ATOM     34  C   UNL     1      -3.820   7.636   9.608  1.00  0.00     0.010 A 
ATOM     35  C   UNL     1      -3.042   8.893   7.688  1.00  0.00     0.010 A 
ATOM     36  C   UNL     1      -3.138   8.743   9.079  1.00  0.00    -0.014 A 
BRANCH  36  37
ATOM     37  C   UNL     1      -2.570   9.793   9.961  1.00  0.00     0.031 A 
ATOM     38  C   UNL     1      -3.108  11.196   9.880  1.00  0.00     0.074 A 
ATOM     39  C   UNL     1      -1.549   9.502  10.789  1.00  0.00     0.049 A 
ATOM     40  N   UNL     1      -2.720  12.273  10.514  1.00  0.00    -0.248 NA
ATOM     41  C   UNL     1      -4.208  11.427   8.928  1.00  0.00     0.031 C 
ATOM     42  C   UNL     1      -0.904   8.194  10.916  1.00  0.00     0.029 A 
ATOM     43  N   UNL     1      -0.874  10.293  11.684  1.00  0.00    -0.354 N 
ATOM     44  C   UNL     1      -3.513  13.303  10.025  1.00  0.00     0.074 A 
ATOM     45  C   UNL     1      -4.351  12.741   8.990  1.00  0.00     0.031 C 
ATOM     46  C   UNL     1       0.049   8.263  11.861  1.00  0.00     0.029 A 
ATOM     47  C   UNL     1       0.100   9.624  12.385  1.00  0.00     0.049 A 
ATOM     48  H   UNL     1      -1.069  11.249  11.811  1.00  0.00     0.167 HD
ATOM     49  C   UNL     1      -3.570  14.593  10.430  1.00  0.00     0.037 A 
ATOM     50  C   UNL     1       0.928  10.065  13.351  1.00  0.00     0.037 A 
ATOM     51  C   UNL     1      -2.764  15.140  11.487  1.00  0.00     0.049 A 
ATOM     52  C   UNL     1       0.826  11.499  13.801  1.00  0.00     0.074 A 
ATOM     53  C   UNL     1      -2.760  16.425  11.998  1.00  0.00     0.029 A 
ATOM     54  N   UNL     1      -1.822  14.419  12.207  1.00  0.00    -0.354 N 
ATOM     55  N   UNL     1       0.033  12.450  13.371  1.00  0.00    -0.248 NA
ATOM     56  C   UNL     1       1.725  11.914  14.887  1.00  0.00     0.031 C 
ATOM     57  C   UNL     1      -1.798  16.488  13.012  1.00  0.00     0.029 A 
ATOM     58  C   UNL     1      -1.234  15.231  13.161  1.00  0.00     0.049 A 
ATOM     59  H   UNL     1      -1.604  13.470  12.060  1.00  0.00     0.167 HD
ATOM     60  C   UNL     1       0.306  13.560  14.159  1.00  0.00     0.074 A 
ATOM     61  C   UNL     1       1.329  13.159  15.102  1.00  0.00     0.031 C 
ATOM     62  C   UNL     1      -0.239  14.801  14.108  1.00  0.00     0.037 A 
BRANCH  49  63
ATOM     63  C   UNL     1      -4.558  15.488   9.738  1.00  0.00     0.064 A 
ATOM     64  C   UNL     1      -5.942  15.320   9.909  1.00  0.00     0.173 A 
ATOM     65  C   UNL     1      -4.123  16.528   8.904  1.00  0.00     0.173 A 
ATOM     66  F   UNL     1      -6.411  14.328  10.682  1.00  0.00    -0.203 F 
ATOM     67  C   UNL     1      -6.851  16.136   9.243  1.00  0.00     0.198 A 
ATOM     68  C   UNL     1      -5.036  17.364   8.266  1.00  0.00     0.198 A 
ATOM     69  F   UNL     1      -2.812  16.734   8.707  1.00  0.00    -0.203 F 
ATOM     70  F   UNL     1      -8.167  15.916   9.375  1.00  0.00    -0.200 F 
ATOM     71  C   UNL     1      -6.398  17.161   8.428  1.00  0.00     0.200 A 
ATOM     72  F   UNL     1      -4.597  18.361   7.486  1.00  0.00    -0.200 F 
ATOM     73  F   UNL     1      -7.275  17.948   7.790  1.00  0.00    -0.200 F 
ENDBRANCH  49  63
BRANCH  50  74
ATOM     74  C   UNL     1       1.886   9.134  14.003  1.00  0.00     0.064 A 
ATOM     75  C   UNL     1       1.711   8.748  15.341  1.00  0.00     0.173 A 
ATOM     76  C   UNL     1       3.007   8.637  13.324  1.00  0.00     0.173 A 
ATOM     77  F   UNL     1       0.664   9.213  16.039  1.00  0.00    -0.203 F 
ATOM     78  C   UNL     1       2.638   7.931  15.983  1.00  0.00     0.198 A 
ATOM     79  C   UNL     1       3.919   7.796  13.960  1.00  0.00     0.198 A 
ATOM     80  F   UNL     1       3.217   8.970  12.042  1.00  0.00    -0.203 F 
ATOM     81  F   UNL     1       2.476   7.628  17.279  1.00  0.00    -0.200 F 
ATOM     82  C   UNL     1       3.740   7.453  15.292  1.00  0.00     0.200 A 
ATOM     83  F   UNL     1       4.976   7.326  13.284  1.00  0.00    -0.200 F 
ATOM     84  F   UNL     1       4.635   6.672  15.911  1.00  0.00    -0.200 F 
ENDBRANCH  50  74
BRANCH  62  85
ATOM     85  C   UNL     1       0.213  15.789  15.143  1.00  0.00     0.064 A 
ATOM     86  C   UNL     1       1.497  16.352  15.119  1.00  0.00     0.173 A 
ATOM     87  C   UNL     1      -0.663  16.189  16.164  1.00  0.00     0.173 A 
ATOM     88  F   UNL     1       2.375  15.990  14.171  1.00  0.00    -0.203 F 
ATOM     89  C   UNL     1       1.901  17.251  16.102  1.00  0.00     0.198 A 
ATOM     90  C   UNL     1      -0.266  17.113  17.126  1.00  0.00     0.198 A 
ATOM     91  F   UNL     1      -1.905  15.687  16.226  1.00  0.00    -0.203 F 
ATOM     92  F   UNL     1       3.152  17.730  16.093  1.00  0.00    -0.200 F 
ATOM     93  C   UNL     1       1.019  17.634  17.101  1.00  0.00     0.200 A 
ATOM     94  F   UNL     1      -1.124  17.493  18.083  1.00  0.00    -0.200 F 
ATOM     95  F   UNL     1       1.410  18.500  18.046  1.00  0.00    -0.200 F 
ENDBRANCH  62  85
ENDBRANCH  36  37
ENDBRANCH  28  31
ENDBRANCH  26  27
ENDBRANCH  25  26
ENDBRANCH   1  25
TORSDOF 14
