REMARK SMILES CO[C@H](C)[C@@H](NC(=O)OCc1ccccc1)C(=O)NCCCCNC(=O)c1ccc(-c2c3nc(c(-c4c(F)c(F)c(F)c(F)c4F)c4ccc([nH]4)c(-c4c(F)c(F)c(F)c(F)c4F)c4nc(c(-c5c(F)c(F)c(F)c(F)c5F)c5ccc2[nH]5)C=C4)C=C3)cc1
REMARK SMILES IDX 20 1 19 2 17 3 18 4 5 6 3 7 4 8 2 9 1 10 6 11 7 12 8 14 9 15
REMARK SMILES IDX 10 16 11 17 12 18 16 19 13 20 15 21 14 22 21 23 22 24 23 25
REMARK SMILES IDX 24 26 25 27 26 29 27 30 28 31 89 32 29 33 88 34 30 35 31 36
REMARK SMILES IDX 32 37 82 38 33 39 87 40 81 41 83 42 34 43 86 44 80 45 79 46
REMARK SMILES IDX 35 48 67 49 47 50 66 51 48 52 51 53 65 54 84 55 49 56 50 57
REMARK SMILES IDX 64 59 85 60 52 61 36 62 37 63 45 64 38 65 39 66 43 67 46 68
REMARK SMILES IDX 40 69 41 70 44 71 42 72 68 73 69 74 77 75 70 76 71 77 75 78
REMARK SMILES IDX 78 79 72 80 73 81 76 82 74 83 53 84 54 85 62 86 55 87 56 88
REMARK SMILES IDX 60 89 63 90 57 91 58 92 61 93 59 94
REMARK H PARENT 19 5 6 13 24 28 83 47 51 58
REMARK Flexibility Score: inf
ROOT
ATOM      1  C   UNL     1       1.396  -3.752   3.425  1.00  0.00     0.116 C 
ENDROOT
BRANCH   1   2
ATOM      2  N   UNL     1       2.255  -4.162   2.330  1.00  0.00    -0.354 N 
ATOM      3  C   UNL     1       2.855  -3.398   1.368  1.00  0.00     0.245 C 
ATOM      4  O   UNL     1       3.565  -3.985   0.547  1.00  0.00    -0.273 OA
ATOM      5  H   UNL     1       2.431  -5.129   2.271  1.00  0.00     0.163 HD
BRANCH   3   6
ATOM      6  C   UNL     1       2.556  -1.882   1.251  1.00  0.00     0.203 C 
BRANCH   6   7
ATOM      7  C   UNL     1       1.089  -1.750   0.704  1.00  0.00     0.146 C 
ATOM      8  C   UNL     1       0.431  -0.406   1.031  1.00  0.00     0.041 C 
BRANCH   7   9
ATOM      9  O   UNL     1       0.998  -1.853  -0.727  1.00  0.00    -0.379 OA
ATOM     10  C   UNL     1       1.270  -3.147  -1.251  1.00  0.00     0.195 C 
ENDBRANCH   7   9
ENDBRANCH   6   7
BRANCH   6  11
ATOM     11  N   UNL     1       2.752  -1.204   2.549  1.00  0.00    -0.307 N 
ATOM     12  C   UNL     1       3.703  -1.463   3.490  1.00  0.00     0.408 C 
ATOM     13  H   UNL     1       2.120  -0.479   2.759  1.00  0.00     0.168 HD
ATOM     14  O   UNL     1       3.686  -0.874   4.565  1.00  0.00    -0.225 OA
BRANCH  12  15
ATOM     15  O   UNL     1       4.536  -2.469   3.159  1.00  0.00    -0.445 OA
BRANCH  15  16
ATOM     16  C   UNL     1       5.203  -3.133   4.241  1.00  0.00     0.270 C 
BRANCH  16  17
ATOM     17  C   UNL     1       6.633  -2.689   4.383  1.00  0.00    -0.011 A 
ATOM     18  C   UNL     1       7.656  -3.633   4.556  1.00  0.00     0.007 A 
ATOM     19  C   UNL     1       6.961  -1.327   4.411  1.00  0.00     0.007 A 
ATOM     20  C   UNL     1       8.977  -3.219   4.730  1.00  0.00     0.000 A 
ATOM     21  C   UNL     1       8.281  -0.915   4.579  1.00  0.00     0.000 A 
ATOM     22  C   UNL     1       9.289  -1.861   4.737  1.00  0.00     0.000 A 
ENDBRANCH  16  17
ENDBRANCH  15  16
ENDBRANCH  12  15
ENDBRANCH   6  11
ENDBRANCH   3   6
ENDBRANCH   1   2
BRANCH   1  23
ATOM     23  C   UNL     1       0.176  -4.651   3.543  1.00  0.00     0.023 C 
BRANCH  23  24
ATOM     24  C   UNL     1       0.502  -6.103   3.880  1.00  0.00     0.023 C 
BRANCH  24  25
ATOM     25  C   UNL     1       1.377  -6.286   5.113  1.00  0.00     0.116 C 
BRANCH  25  26
ATOM     26  N   UNL     1       0.781  -5.719   6.314  1.00  0.00    -0.352 N 
ATOM     27  C   UNL     1       0.530  -6.328   7.519  1.00  0.00     0.251 C 
ATOM     28  H   UNL     1       0.523  -4.771   6.254  1.00  0.00     0.163 HD
ATOM     29  O   UNL     1      -0.141  -5.768   8.377  1.00  0.00    -0.269 OA
BRANCH  27  30
ATOM     30  C   UNL     1       1.057  -7.686   7.755  1.00  0.00     0.039 A 
ATOM     31  C   UNL     1       0.197  -8.671   8.243  1.00  0.00     0.014 A 
ATOM     32  C   UNL     1       2.384  -7.992   7.443  1.00  0.00     0.014 A 
ATOM     33  C   UNL     1       0.652  -9.986   8.349  1.00  0.00     0.010 A 
ATOM     34  C   UNL     1       2.806  -9.315   7.462  1.00  0.00     0.010 A 
ATOM     35  C   UNL     1       1.946 -10.326   7.918  1.00  0.00    -0.014 A 
BRANCH  35  36
ATOM     36  C   UNL     1       2.417 -11.733   7.935  1.00  0.00     0.031 A 
ATOM     37  C   UNL     1       3.592 -12.125   8.786  1.00  0.00     0.074 A 
ATOM     38  C   UNL     1       1.828 -12.643   7.134  1.00  0.00     0.049 A 
ATOM     39  N   UNL     1       4.188 -13.285   8.892  1.00  0.00    -0.248 NA
ATOM     40  C   UNL     1       4.196 -11.064   9.607  1.00  0.00     0.031 C 
ATOM     41  C   UNL     1       0.714 -12.374   6.224  1.00  0.00     0.029 A 
ATOM     42  N   UNL     1       2.092 -13.978   6.950  1.00  0.00    -0.354 N 
ATOM     43  C   UNL     1       5.240 -13.089   9.776  1.00  0.00     0.074 A 
ATOM     44  C   UNL     1       5.241 -11.687  10.129  1.00  0.00     0.031 C 
ATOM     45  C   UNL     1       0.371 -13.512   5.600  1.00  0.00     0.029 A 
ATOM     46  C   UNL     1       1.269 -14.580   6.029  1.00  0.00     0.049 A 
ATOM     47  H   UNL     1       2.803 -14.458   7.432  1.00  0.00     0.167 HD
ATOM     48  C   UNL     1       6.110 -14.002  10.271  1.00  0.00     0.037 A 
ATOM     49  C   UNL     1       1.247 -15.848   5.575  1.00  0.00     0.037 A 
ATOM     50  C   UNL     1       6.093 -15.400   9.927  1.00  0.00     0.049 A 
ATOM     51  C   UNL     1       2.237 -16.840   6.126  1.00  0.00     0.074 A 
ATOM     52  C   UNL     1       6.892 -16.418  10.418  1.00  0.00     0.029 A 
ATOM     53  N   UNL     1       5.238 -15.975   8.998  1.00  0.00    -0.354 N 
ATOM     54  N   UNL     1       3.178 -16.661   7.021  1.00  0.00    -0.248 NA
ATOM     55  C   UNL     1       2.156 -18.212   5.608  1.00  0.00     0.031 C 
ATOM     56  C   UNL     1       6.565 -17.595   9.738  1.00  0.00     0.029 A 
ATOM     57  C   UNL     1       5.512 -17.329   8.877  1.00  0.00     0.049 A 
ATOM     58  H   UNL     1       4.540 -15.494   8.498  1.00  0.00     0.167 HD
ATOM     59  C   UNL     1       3.778 -17.900   7.197  1.00  0.00     0.074 A 
ATOM     60  C   UNL     1       3.085 -18.826   6.326  1.00  0.00     0.031 C 
ATOM     61  C   UNL     1       4.809 -18.241   8.010  1.00  0.00     0.037 A 
BRANCH  48  62
ATOM     62  C   UNL     1       7.158 -13.514  11.231  1.00  0.00     0.064 A 
ATOM     63  C   UNL     1       6.827 -13.046  12.512  1.00  0.00     0.173 A 
ATOM     64  C   UNL     1       8.515 -13.542  10.876  1.00  0.00     0.173 A 
ATOM     65  F   UNL     1       5.544 -12.988  12.900  1.00  0.00    -0.203 F 
ATOM     66  C   UNL     1       7.810 -12.588  13.386  1.00  0.00     0.198 A 
ATOM     67  C   UNL     1       9.499 -13.118  11.766  1.00  0.00     0.198 A 
ATOM     68  F   UNL     1       8.890 -13.985   9.667  1.00  0.00    -0.203 F 
ATOM     69  F   UNL     1       7.463 -12.088  14.580  1.00  0.00    -0.200 F 
ATOM     70  C   UNL     1       9.145 -12.632  13.015  1.00  0.00     0.200 A 
ATOM     71  F   UNL     1      10.790 -13.177  11.412  1.00  0.00    -0.200 F 
ATOM     72  F   UNL     1      10.091 -12.198  13.860  1.00  0.00    -0.200 F 
ENDBRANCH  48  62
BRANCH  49  73
ATOM     73  C   UNL     1       0.240 -16.255   4.559  1.00  0.00     0.064 A 
ATOM     74  C   UNL     1      -0.792 -17.148   4.883  1.00  0.00     0.173 A 
ATOM     75  C   UNL     1       0.289 -15.764   3.246  1.00  0.00     0.173 A 
ATOM     76  F   UNL     1      -0.871 -17.660   6.120  1.00  0.00    -0.203 F 
ATOM     77  C   UNL     1      -1.722 -17.550   3.927  1.00  0.00     0.198 A 
ATOM     78  C   UNL     1      -0.662 -16.142   2.300  1.00  0.00     0.198 A 
ATOM     79  F   UNL     1       1.251 -14.903   2.886  1.00  0.00    -0.203 F 
ATOM     80  F   UNL     1      -2.668 -18.442   4.250  1.00  0.00    -0.200 F 
ATOM     81  C   UNL     1      -1.661 -17.042   2.638  1.00  0.00     0.200 A 
ATOM     82  F   UNL     1      -0.609 -15.634   1.061  1.00  0.00    -0.200 F 
ATOM     83  F   UNL     1      -2.560 -17.424   1.721  1.00  0.00    -0.200 F 
ENDBRANCH  49  73
BRANCH  61  84
ATOM     84  C   UNL     1       5.226 -19.685   8.032  1.00  0.00     0.064 A 
ATOM     85  C   UNL     1       5.868 -20.288   6.941  1.00  0.00     0.173 A 
ATOM     86  C   UNL     1       5.018 -20.462   9.182  1.00  0.00     0.173 A 
ATOM     87  F   UNL     1       6.079 -19.594   5.813  1.00  0.00    -0.203 F 
ATOM     88  C   UNL     1       6.261 -21.624   6.991  1.00  0.00     0.198 A 
ATOM     89  C   UNL     1       5.445 -21.785   9.242  1.00  0.00     0.198 A 
ATOM     90  F   UNL     1       4.415 -19.933  10.258  1.00  0.00    -0.203 F 
ATOM     91  F   UNL     1       6.826 -22.194   5.918  1.00  0.00    -0.200 F 
ATOM     92  C   UNL     1       6.058 -22.368   8.144  1.00  0.00     0.200 A 
ATOM     93  F   UNL     1       5.263 -22.497  10.363  1.00  0.00    -0.200 F 
ATOM     94  F   UNL     1       6.447 -23.649   8.193  1.00  0.00    -0.200 F 
ENDBRANCH  61  84
ENDBRANCH  35  36
ENDBRANCH  27  30
ENDBRANCH  25  26
ENDBRANCH  24  25
ENDBRANCH  23  24
ENDBRANCH   1  23
TORSDOF 17
