REMARK SMILES O=C(NCCCCNC(=O)c1[nH]ncc1C[N@H+]1CCC[C@@H](C(=O)c2ccc(Oc3ccccc3)cc2)C1)c1ccc(-c2c3nc(c(-c4c(F)c(F)c(F)c(F)c4F)c4ccc([nH]4)c(-c4c(F)c(F)c(F)c(F)c4F)c4nc(c(-c5c(F)c(F)c(F)c(F)c5F)c5ccc2[nH]5)C=C4)C=C3)cc1
REMARK SMILES IDX 8 1 9 2 10 3 7 5 6 6 5 7 4 8 3 9 1 10 2 11 38 13 39 14
REMARK SMILES IDX 100 15 40 16 99 17 41 18 42 19 43 20 93 21 44 22 98 23 92 24
REMARK SMILES IDX 94 25 45 26 97 27 91 28 90 29 46 31 78 32 58 33 77 34 59 35
REMARK SMILES IDX 62 36 76 37 95 38 60 39 61 40 75 42 96 43 63 44 47 45 48 46
REMARK SMILES IDX 56 47 49 48 50 49 54 50 57 51 51 52 52 53 55 54 53 55 79 56
REMARK SMILES IDX 80 57 88 58 81 59 82 60 86 61 89 62 83 63 84 64 87 65 85 66
REMARK SMILES IDX 64 67 65 68 73 69 66 70 67 71 71 72 74 73 68 74 69 75 72 76
REMARK SMILES IDX 70 77 11 78 12 79 15 80 13 81 14 83 16 84 17 85 18 86 37 87
REMARK SMILES IDX 19 89 21 90 20 91 22 92 23 93 24 94 25 95 36 96 26 97 35 98
REMARK SMILES IDX 27 99 28 100 29 101 30 102 34 103 31 104 33 105 32 106
REMARK H PARENT 8 4 3 12 94 30 62 41 12 82 17 88
REMARK Flexibility Score: inf
ROOT
ATOM      1  N   UNL     1       6.379   3.991  -1.203  1.00  0.00    -0.351 N 
ATOM      2  C   UNL     1       7.197   5.093  -1.247  1.00  0.00     0.269 C 
ATOM      3  O   UNL     1       8.415   4.937  -1.259  1.00  0.00    -0.268 OA
ATOM      4  H   UNL     1       6.825   3.132  -1.026  1.00  0.00     0.163 HD
ENDROOT
BRANCH   1   5
ATOM      5  C   UNL     1       4.935   3.932  -1.384  1.00  0.00     0.116 C 
BRANCH   5   6
ATOM      6  C   UNL     1       4.497   2.861  -2.375  1.00  0.00     0.023 C 
BRANCH   6   7
ATOM      7  C   UNL     1       4.918   1.443  -2.011  1.00  0.00     0.023 C 
BRANCH   7   8
ATOM      8  C   UNL     1       4.573   1.020  -0.591  1.00  0.00     0.116 C 
BRANCH   8   9
ATOM      9  N   UNL     1       3.139   0.960  -0.347  1.00  0.00    -0.352 N 
ATOM     10  O   UNL     1       1.143  -0.033   0.030  1.00  0.00    -0.269 OA
ATOM     11  C   UNL     1       2.365  -0.122   0.004  1.00  0.00     0.251 C 
ATOM     12  H   UNL     1       2.655   1.812  -0.448  1.00  0.00     0.163 HD
BRANCH  11  13
ATOM     13  C   UNL     1       3.024  -1.405   0.320  1.00  0.00     0.039 A 
ATOM     14  C   UNL     1       4.134  -1.432   1.166  1.00  0.00     0.014 A 
ATOM     15  C   UNL     1       2.552  -2.583  -0.263  1.00  0.00     0.014 A 
ATOM     16  C   UNL     1       4.876  -2.598   1.286  1.00  0.00     0.010 A 
ATOM     17  C   UNL     1       3.239  -3.782  -0.051  1.00  0.00     0.010 A 
ATOM     18  C   UNL     1       4.426  -3.792   0.698  1.00  0.00    -0.014 A 
BRANCH  18  19
ATOM     19  C   UNL     1       5.179  -5.045   0.955  1.00  0.00     0.031 A 
ATOM     20  C   UNL     1       5.849  -5.804  -0.155  1.00  0.00     0.074 A 
ATOM     21  C   UNL     1       5.283  -5.472   2.229  1.00  0.00     0.049 A 
ATOM     22  N   UNL     1       6.561  -6.902  -0.088  1.00  0.00    -0.248 NA
ATOM     23  C   UNL     1       5.697  -5.272  -1.518  1.00  0.00     0.031 C 
ATOM     24  C   UNL     1       4.662  -4.819   3.385  1.00  0.00     0.029 A 
ATOM     25  N   UNL     1       5.958  -6.534   2.771  1.00  0.00    -0.354 N 
ATOM     26  C   UNL     1       6.927  -7.201  -1.394  1.00  0.00     0.074 A 
ATOM     27  C   UNL     1       6.338  -6.184  -2.239  1.00  0.00     0.031 C 
ATOM     28  C   UNL     1       5.028  -5.462   4.502  1.00  0.00     0.029 A 
ATOM     29  C   UNL     1       5.844  -6.612   4.137  1.00  0.00     0.049 A 
ATOM     30  H   UNL     1       6.474  -7.178   2.234  1.00  0.00     0.167 HD
ATOM     31  C   UNL     1       7.691  -8.228  -1.840  1.00  0.00     0.037 A 
ATOM     32  C   UNL     1       6.323  -7.524   5.003  1.00  0.00     0.037 A 
ATOM     33  C   UNL     1       8.284  -9.229  -0.987  1.00  0.00     0.049 A 
ATOM     34  C   UNL     1       7.141  -8.664   4.473  1.00  0.00     0.074 A 
ATOM     35  C   UNL     1       9.102 -10.289  -1.340  1.00  0.00     0.029 A 
ATOM     36  N   UNL     1       8.118  -9.296   0.389  1.00  0.00    -0.354 N 
ATOM     37  N   UNL     1       7.508  -8.916   3.240  1.00  0.00    -0.248 NA
ATOM     38  C   UNL     1       7.609  -9.650   5.455  1.00  0.00     0.031 C 
ATOM     39  C   UNL     1       9.388 -11.026  -0.186  1.00  0.00     0.029 A 
ATOM     40  C   UNL     1       8.796 -10.395   0.896  1.00  0.00     0.049 A 
ATOM     41  H   UNL     1       7.595  -8.658   0.926  1.00  0.00     0.167 HD
ATOM     42  C   UNL     1       8.260 -10.079   3.298  1.00  0.00     0.074 A 
ATOM     43  C   UNL     1       8.320 -10.468   4.692  1.00  0.00     0.031 C 
ATOM     44  C   UNL     1       8.843 -10.768   2.287  1.00  0.00     0.037 A 
BRANCH  31  45
ATOM     45  C   UNL     1       7.924  -8.341  -3.320  1.00  0.00     0.064 A 
ATOM     46  C   UNL     1       8.757  -7.446  -4.008  1.00  0.00     0.173 A 
ATOM     47  C   UNL     1       7.358  -9.399  -4.049  1.00  0.00     0.173 A 
ATOM     48  F   UNL     1       9.315  -6.411  -3.362  1.00  0.00    -0.203 F 
ATOM     49  C   UNL     1       8.999  -7.595  -5.372  1.00  0.00     0.198 A 
ATOM     50  C   UNL     1       7.625  -9.561  -5.407  1.00  0.00     0.198 A 
ATOM     51  F   UNL     1       6.560 -10.289  -3.440  1.00  0.00    -0.203 F 
ATOM     52  F   UNL     1       9.769  -6.706  -6.015  1.00  0.00    -0.200 F 
ATOM     53  C   UNL     1       8.440  -8.656  -6.068  1.00  0.00     0.200 A 
ATOM     54  F   UNL     1       7.095 -10.596  -6.074  1.00  0.00    -0.200 F 
ATOM     55  F   UNL     1       8.685  -8.805  -7.377  1.00  0.00    -0.200 F 
ENDBRANCH  31  45
BRANCH  32  56
ATOM     56  C   UNL     1       6.024  -7.394   6.452  1.00  0.00     0.064 A 
ATOM     57  C   UNL     1       7.036  -7.111   7.377  1.00  0.00     0.173 A 
ATOM     58  C   UNL     1       4.716  -7.543   6.938  1.00  0.00     0.173 A 
ATOM     59  F   UNL     1       8.304  -6.977   6.962  1.00  0.00    -0.203 F 
ATOM     60  C   UNL     1       6.755  -7.000   8.737  1.00  0.00     0.198 A 
ATOM     61  C   UNL     1       4.431  -7.397   8.293  1.00  0.00     0.198 A 
ATOM     62  F   UNL     1       3.709  -7.806   6.092  1.00  0.00    -0.203 F 
ATOM     63  F   UNL     1       7.749  -6.774   9.607  1.00  0.00    -0.200 F 
ATOM     64  C   UNL     1       5.452  -7.136   9.193  1.00  0.00     0.200 A 
ATOM     65  F   UNL     1       3.168  -7.508   8.725  1.00  0.00    -0.200 F 
ATOM     66  F   UNL     1       5.182  -7.021  10.500  1.00  0.00    -0.200 F 
ENDBRANCH  32  56
BRANCH  44  67
ATOM     67  C   UNL     1       9.617 -11.998   2.662  1.00  0.00     0.064 A 
ATOM     68  C   UNL     1       8.974 -13.165   3.100  1.00  0.00     0.173 A 
ATOM     69  C   UNL     1      11.016 -12.012   2.569  1.00  0.00     0.173 A 
ATOM     70  F   UNL     1       7.639 -13.195   3.225  1.00  0.00    -0.203 F 
ATOM     71  C   UNL     1       9.707 -14.292   3.463  1.00  0.00     0.198 A 
ATOM     72  C   UNL     1      11.744 -13.151   2.901  1.00  0.00     0.198 A 
ATOM     73  F   UNL     1      11.678 -10.923   2.150  1.00  0.00    -0.203 F 
ATOM     74  F   UNL     1       9.076 -15.376   3.934  1.00  0.00    -0.200 F 
ATOM     75  C   UNL     1      11.090 -14.286   3.357  1.00  0.00     0.200 A 
ATOM     76  F   UNL     1      13.079 -13.148   2.787  1.00  0.00    -0.200 F 
ATOM     77  F   UNL     1      11.794 -15.372   3.705  1.00  0.00    -0.200 F 
ENDBRANCH  44  67
ENDBRANCH  18  19
ENDBRANCH  11  13
ENDBRANCH   8   9
ENDBRANCH   7   8
ENDBRANCH   6   7
ENDBRANCH   5   6
ENDBRANCH   1   5
BRANCH   2  78
ATOM     78  C   UNL     1       6.574   6.376  -1.353  1.00  0.00     0.131 A 
ATOM     79  N   UNL     1       6.912   7.268  -2.330  1.00  0.00    -0.272 N 
ATOM     80  C   UNL     1       5.571   6.984  -0.606  1.00  0.00     0.057 A 
ATOM     81  N   UNL     1       6.043   8.282  -2.444  1.00  0.00    -0.183 NA
ATOM     82  H   UNL     1       7.713   7.176  -2.894  1.00  0.00     0.190 HD
ATOM     83  C   UNL     1       5.220   8.099  -1.410  1.00  0.00     0.145 A 
BRANCH  80  84
ATOM     84  C   UNL     1       4.939   6.459   0.652  1.00  0.00     0.303 C 
BRANCH  84  85
ATOM     85  N   UNL     1       4.946   7.373   1.803  1.00  0.00    -0.330 N 
ATOM     86  C   UNL     1       6.279   7.766   2.248  1.00  0.00     0.262 C 
ATOM     87  C   UNL     1       4.049   8.505   1.611  1.00  0.00     0.274 C 
ATOM     88  H   UNL     1       4.571   6.831   2.581  1.00  0.00     0.348 HD
ATOM     89  C   UNL     1       6.179   8.614   3.518  1.00  0.00     0.062 C 
ATOM     90  C   UNL     1       3.903   9.469   2.787  1.00  0.00     0.116 C 
ATOM     91  C   UNL     1       5.301   9.848   3.304  1.00  0.00     0.023 C 
BRANCH  90  92
ATOM     92  C   UNL     1       3.120  10.761   2.450  1.00  0.00     0.171 C 
ATOM     93  O   UNL     1       3.002  11.665   3.279  1.00  0.00    -0.294 OA
BRANCH  92  94
ATOM     94  C   UNL     1       2.545  11.003   1.090  1.00  0.00     0.018 A 
ATOM     95  C   UNL     1       2.806  12.225   0.463  1.00  0.00     0.015 A 
ATOM     96  C   UNL     1       1.775  10.052   0.418  1.00  0.00     0.015 A 
ATOM     97  C   UNL     1       2.359  12.454  -0.846  1.00  0.00     0.048 A 
ATOM     98  C   UNL     1       1.399  10.251  -0.916  1.00  0.00     0.048 A 
ATOM     99  C   UNL     1       1.673  11.460  -1.554  1.00  0.00     0.127 A 
BRANCH  99 100
ATOM    100  O   UNL     1       1.325  11.799  -2.845  1.00  0.00    -0.457 OA
BRANCH 100 101
ATOM    101  C   UNL     1       0.761  10.861  -3.676  1.00  0.00     0.127 A 
ATOM    102  C   UNL     1       1.429  10.573  -4.868  1.00  0.00     0.047 A 
ATOM    103  C   UNL     1      -0.486  10.286  -3.421  1.00  0.00     0.047 A 
ATOM    104  C   UNL     1       0.886   9.655  -5.769  1.00  0.00     0.004 A 
ATOM    105  C   UNL     1      -1.013   9.344  -4.307  1.00  0.00     0.004 A 
ATOM    106  C   UNL     1      -0.326   9.027  -5.479  1.00  0.00     0.000 A 
ENDBRANCH 100 101
ENDBRANCH  99 100
ENDBRANCH  92  94
ENDBRANCH  90  92
ENDBRANCH  84  85
ENDBRANCH  80  84
ENDBRANCH   2  78
TORSDOF 17
