REMARK SMILES Nc1ccc(N2CC3(CCC3)C2)c(C(=O)NCCCCNC(=O)c2ccc(-c3c4nc(c(-c5c(F)c(F)c(F)c(F)c5F)c5ccc([nH]5)c(-c5c(F)c(F)c(F)c(F)c5F)c5nc(c(-c6c(F)c(F)c(F)c(F)c6F)c6ccc3[nH]6)C=C5)C=C4)cc2)c1
REMARK SMILES IDX 19 1 18 2 17 3 16 4 14 5 15 6 13 8 2 9 3 10 87 11 4 12 5 13
REMARK SMILES IDX 1 14 6 17 7 18 12 19 8 20 9 21 11 22 10 23 20 24 21 25 22 26
REMARK SMILES IDX 23 28 24 29 25 30 86 31 26 32 85 33 27 34 28 35 29 36 79 37
REMARK SMILES IDX 30 38 84 39 78 40 80 41 31 42 83 43 77 44 76 45 32 47 64 48
REMARK SMILES IDX 44 49 63 50 45 51 48 52 62 53 81 54 46 55 47 56 61 58 82 59
REMARK SMILES IDX 49 60 33 61 34 62 42 63 35 64 36 65 40 66 43 67 37 68 38 69
REMARK SMILES IDX 41 70 39 71 65 72 66 73 74 74 67 75 68 76 72 77 75 78 69 79
REMARK SMILES IDX 70 80 73 81 71 82 50 83 51 84 59 85 52 86 53 87 57 88 60 89
REMARK SMILES IDX 54 90 55 91 58 92 56 93
REMARK H PARENT 16 7 1 15 1 16 21 27 80 46 48 57
REMARK Flexibility Score: inf
ROOT
ATOM      1  C   UNL     1       0.560   5.743  -1.432  1.00  0.00     0.023 C 
ENDROOT
BRANCH   1   2
ATOM      2  C   UNL     1       1.032   4.347  -1.002  1.00  0.00     0.023 C 
BRANCH   2   3
ATOM      3  C   UNL     1       0.455   3.879   0.336  1.00  0.00     0.116 C 
BRANCH   3   4
ATOM      4  N   UNL     1      -0.957   3.614   0.191  1.00  0.00    -0.352 N 
ATOM      5  C   UNL     1      -1.713   2.517  -0.139  1.00  0.00     0.253 C 
ATOM      6  O   UNL     1      -2.899   2.800  -0.295  1.00  0.00    -0.269 OA
ATOM      7  H   UNL     1      -1.508   4.410   0.371  1.00  0.00     0.163 HD
BRANCH   5   8
ATOM      8  C   UNL     1      -1.188   1.105  -0.237  1.00  0.00     0.065 A 
ATOM      9  C   UNL     1       0.761  -0.393  -0.250  1.00  0.00     0.032 A 
ATOM     10  C   UNL     1      -0.069  -1.468   0.032  1.00  0.00     0.027 A 
ATOM     11  C   UNL     1       0.180   0.861  -0.452  1.00  0.00     0.041 A 
ATOM     12  C   UNL     1      -1.447  -1.280   0.144  1.00  0.00     0.029 A 
ATOM     13  C   UNL     1      -2.035  -0.008  -0.007  1.00  0.00     0.050 A 
BRANCH   9  14
ATOM     14  N   UNL     1       2.122  -0.575  -0.437  1.00  0.00    -0.399 N 
ATOM     15  H   UNL     1       2.525  -1.462  -0.292  1.00  0.00     0.156 HD
ATOM     16  H   UNL     1       2.686   0.183  -0.714  1.00  0.00     0.156 HD
ENDBRANCH   9  14
BRANCH  13  17
ATOM     17  N   UNL     1      -3.429   0.069   0.094  1.00  0.00    -0.370 N 
ATOM     18  C   UNL     1      -4.347  -0.399   1.087  1.00  0.00     0.125 C 
ATOM     19  C   UNL     1      -4.452   0.497  -0.816  1.00  0.00     0.125 C 
ATOM     20  C   UNL     1      -5.359   0.462   0.385  1.00  0.00     0.005 C 
ATOM     21  C   UNL     1      -6.796   0.058   0.229  1.00  0.00     0.011 C 
ATOM     22  C   UNL     1      -5.759   1.771   1.034  1.00  0.00     0.011 C 
ATOM     23  C   UNL     1      -7.140   1.568   0.367  1.00  0.00     0.001 C 
ENDBRANCH  13  17
ENDBRANCH   5   8
ENDBRANCH   3   4
ENDBRANCH   2   3
ENDBRANCH   1   2
BRANCH   1  24
ATOM     24  C   UNL     1       0.891   6.864  -0.454  1.00  0.00     0.116 C 
BRANCH  24  25
ATOM     25  N   UNL     1       2.308   6.943  -0.140  1.00  0.00    -0.352 N 
ATOM     26  C   UNL     1       3.064   8.050   0.156  1.00  0.00     0.251 C 
ATOM     27  H   UNL     1       2.792   6.085  -0.139  1.00  0.00     0.163 HD
ATOM     28  O   UNL     1       4.276   7.958   0.290  1.00  0.00    -0.269 OA
BRANCH  26  29
ATOM     29  C   UNL     1       2.402   9.365   0.272  1.00  0.00     0.039 A 
ATOM     30  C   UNL     1       2.936  10.446  -0.432  1.00  0.00     0.014 A 
ATOM     31  C   UNL     1       1.253   9.522   1.051  1.00  0.00     0.014 A 
ATOM     32  C   UNL     1       2.280  11.677  -0.404  1.00  0.00     0.010 A 
ATOM     33  C   UNL     1       0.566  10.731   1.028  1.00  0.00     0.010 A 
ATOM     34  C   UNL     1       1.073  11.818   0.299  1.00  0.00    -0.014 A 
BRANCH  34  35
ATOM     35  C   UNL     1       0.320  13.095   0.278  1.00  0.00     0.031 A 
ATOM     36  C   UNL     1       0.154  13.892   1.539  1.00  0.00     0.074 A 
ATOM     37  C   UNL     1      -0.273  13.496  -0.862  1.00  0.00     0.049 A 
ATOM     38  N   UNL     1      -0.526  14.992   1.740  1.00  0.00    -0.248 NA
ATOM     39  C   UNL     1       0.817  13.367   2.743  1.00  0.00     0.031 C 
ATOM     40  C   UNL     1      -0.227  12.777  -2.137  1.00  0.00     0.029 A 
ATOM     41  N   UNL     1      -1.044  14.599  -1.130  1.00  0.00    -0.354 N 
ATOM     42  C   UNL     1      -0.387  15.280   3.090  1.00  0.00     0.074 A 
ATOM     43  C   UNL     1       0.400  14.214   3.672  1.00  0.00     0.031 C 
ATOM     44  C   UNL     1      -0.922  13.467  -3.055  1.00  0.00     0.029 A 
ATOM     45  C   UNL     1      -1.489  14.657  -2.427  1.00  0.00     0.049 A 
ATOM     46  H   UNL     1      -1.257  15.284  -0.456  1.00  0.00     0.167 HD
ATOM     47  C   UNL     1      -0.855  16.349   3.777  1.00  0.00     0.037 A 
ATOM     48  C   UNL     1      -2.272  15.565  -3.039  1.00  0.00     0.037 A 
ATOM     49  C   UNL     1      -1.615  17.420   3.188  1.00  0.00     0.049 A 
ATOM     50  C   UNL     1      -2.771  16.749  -2.256  1.00  0.00     0.074 A 
ATOM     51  C   UNL     1      -2.079  18.579   3.783  1.00  0.00     0.029 A 
ATOM     52  N   UNL     1      -2.023  17.459   1.862  1.00  0.00    -0.354 N 
ATOM     53  N   UNL     1      -2.573  17.050  -0.996  1.00  0.00    -0.248 NA
ATOM     54  C   UNL     1      -3.596  17.723  -2.983  1.00  0.00     0.031 C 
ATOM     55  C   UNL     1      -2.803  19.302   2.828  1.00  0.00     0.029 A 
ATOM     56  C   UNL     1      -2.751  18.615   1.625  1.00  0.00     0.049 A 
ATOM     57  H   UNL     1      -1.826  16.768   1.189  1.00  0.00     0.167 HD
ATOM     58  C   UNL     1      -3.223  18.257  -0.784  1.00  0.00     0.074 A 
ATOM     59  C   UNL     1      -3.812  18.641  -2.051  1.00  0.00     0.031 C 
ATOM     60  C   UNL     1      -3.323  18.984   0.356  1.00  0.00     0.037 A 
BRANCH  47  61
ATOM     61  C   UNL     1      -0.554  16.412   5.246  1.00  0.00     0.064 A 
ATOM     62  C   UNL     1       0.745  16.646   5.721  1.00  0.00     0.173 A 
ATOM     63  C   UNL     1      -1.581  16.262   6.191  1.00  0.00     0.173 A 
ATOM     64  F   UNL     1       1.764  16.784   4.859  1.00  0.00    -0.203 F 
ATOM     65  C   UNL     1       1.012  16.694   7.087  1.00  0.00     0.198 A 
ATOM     66  C   UNL     1      -1.315  16.340   7.556  1.00  0.00     0.198 A 
ATOM     67  F   UNL     1      -2.842  16.042   5.791  1.00  0.00    -0.203 F 
ATOM     68  F   UNL     1       2.270  16.865   7.516  1.00  0.00    -0.200 F 
ATOM     69  C   UNL     1      -0.019  16.547   8.003  1.00  0.00     0.200 A 
ATOM     70  F   UNL     1      -2.314  16.210   8.440  1.00  0.00    -0.200 F 
ATOM     71  F   UNL     1       0.239  16.597   9.317  1.00  0.00    -0.200 F 
ENDBRANCH  47  61
BRANCH  48  72
ATOM     72  C   UNL     1      -2.603  15.407  -4.478  1.00  0.00     0.064 A 
ATOM     73  C   UNL     1      -2.046  16.261  -5.440  1.00  0.00     0.173 A 
ATOM     74  C   UNL     1      -3.470  14.399  -4.922  1.00  0.00     0.173 A 
ATOM     75  F   UNL     1      -1.226  17.252  -5.060  1.00  0.00    -0.203 F 
ATOM     76  C   UNL     1      -2.358  16.124  -6.790  1.00  0.00     0.198 A 
ATOM     77  C   UNL     1      -3.761  14.246  -6.276  1.00  0.00     0.198 A 
ATOM     78  F   UNL     1      -4.024  13.552  -4.041  1.00  0.00    -0.203 F 
ATOM     79  F   UNL     1      -1.843  16.979  -7.684  1.00  0.00    -0.200 F 
ATOM     80  C   UNL     1      -3.211  15.113  -7.208  1.00  0.00     0.200 A 
ATOM     81  F   UNL     1      -4.575  13.260  -6.678  1.00  0.00    -0.200 F 
ATOM     82  F   UNL     1      -3.506  14.978  -8.508  1.00  0.00    -0.200 F 
ENDBRANCH  48  72
BRANCH  60  83
ATOM     83  C   UNL     1      -4.067  20.284   0.279  1.00  0.00     0.064 A 
ATOM     84  C   UNL     1      -5.465  20.325   0.166  1.00  0.00     0.173 A 
ATOM     85  C   UNL     1      -3.377  21.502   0.363  1.00  0.00     0.173 A 
ATOM     86  F   UNL     1      -6.168  19.187   0.066  1.00  0.00    -0.203 F 
ATOM     87  C   UNL     1      -6.141  21.541   0.118  1.00  0.00     0.198 A 
ATOM     88  C   UNL     1      -4.059  22.715   0.343  1.00  0.00     0.198 A 
ATOM     89  F   UNL     1      -2.040  21.515   0.478  1.00  0.00    -0.203 F 
ATOM     90  F   UNL     1      -7.473  21.558  -0.033  1.00  0.00    -0.200 F 
ATOM     91  C   UNL     1      -5.440  22.733   0.215  1.00  0.00     0.200 A 
ATOM     92  F   UNL     1      -3.381  23.866   0.449  1.00  0.00    -0.200 F 
ATOM     93  F   UNL     1      -6.094  23.902   0.177  1.00  0.00    -0.200 F 
ENDBRANCH  60  83
ENDBRANCH  34  35
ENDBRANCH  26  29
ENDBRANCH  24  25
ENDBRANCH   1  24
TORSDOF 13
