REMARK SMILES O=C(NCCCCNC(=O)C1(n2ccnc2)CCN(C(=O)C2(c3ccccc3)CC2)CC1)c1ccc(-c2c3nc(c(-c4c(F)c(F)c(F)c(F)c4F)c4ccc([nH]4)c(-c4c(F)c(F)c(F)c(F)c4F)c4nc(c(-c5c(F)c(F)c(F)c(F)c5F)c5ccc2[nH]5)C=C4)C=C3)cc1
REMARK SMILES IDX 5 1 4 2 3 3 1 4 2 5 33 7 34 8 95 9 35 10 94 11 36 12 37 13
REMARK SMILES IDX 38 14 88 15 39 16 93 17 87 18 89 19 40 20 92 21 86 22 85 23
REMARK SMILES IDX 41 25 73 26 53 27 72 28 54 29 57 30 71 31 90 32 55 33 56 34
REMARK SMILES IDX 70 36 91 37 58 38 42 39 43 40 51 41 44 42 45 43 49 44 52 45
REMARK SMILES IDX 46 46 47 47 50 48 48 49 74 50 75 51 83 52 76 53 77 54 81 55
REMARK SMILES IDX 84 56 78 57 79 58 82 59 80 60 59 61 60 62 68 63 61 64 62 65
REMARK SMILES IDX 66 66 69 67 63 68 64 69 67 70 65 71 6 72 7 73 8 74 9 75
REMARK SMILES IDX 10 77 11 78 17 79 32 80 18 81 31 82 19 83 20 84 21 85 12 86
REMARK SMILES IDX 13 87 16 88 14 89 15 90 22 91 29 92 30 93 23 94 24 95 28 96
REMARK SMILES IDX 25 97 27 98 26 99
REMARK H PARENT 3 6 89 24 57 35 8 76
REMARK Flexibility Score: inf
ROOT
ATOM      1  C   UNL     1       5.216  -0.789   1.801  1.00  0.00     0.023 C 
ENDROOT
BRANCH   1   2
ATOM      2  C   UNL     1       4.793  -0.735   0.324  1.00  0.00     0.116 C 
BRANCH   2   3
ATOM      3  N   UNL     1       3.382  -0.929   0.040  1.00  0.00    -0.352 N 
ATOM      4  O   UNL     1       1.288  -0.505  -0.559  1.00  0.00    -0.269 OA
ATOM      5  C   UNL     1       2.295  -0.093   0.021  1.00  0.00     0.251 C 
ATOM      6  H   UNL     1       3.158  -1.860  -0.188  1.00  0.00     0.163 HD
BRANCH   5   7
ATOM      7  C   UNL     1       2.226   1.206   0.736  1.00  0.00     0.039 A 
ATOM      8  C   UNL     1       3.328   1.921   1.197  1.00  0.00     0.014 A 
ATOM      9  C   UNL     1       0.935   1.702   1.003  1.00  0.00     0.014 A 
ATOM     10  C   UNL     1       3.154   3.013   2.034  1.00  0.00     0.010 A 
ATOM     11  C   UNL     1       0.752   2.820   1.807  1.00  0.00     0.010 A 
ATOM     12  C   UNL     1       1.865   3.446   2.357  1.00  0.00    -0.014 A 
BRANCH  12  13
ATOM     13  C   UNL     1       1.750   4.715   3.065  1.00  0.00     0.031 A 
ATOM     14  C   UNL     1       2.279   5.860   2.272  1.00  0.00     0.074 A 
ATOM     15  C   UNL     1       1.127   4.867   4.250  1.00  0.00     0.049 A 
ATOM     16  N   UNL     1       3.263   6.646   2.566  1.00  0.00    -0.248 NA
ATOM     17  C   UNL     1       1.750   6.053   0.909  1.00  0.00     0.031 C 
ATOM     18  C   UNL     1       0.347   3.867   4.978  1.00  0.00     0.029 A 
ATOM     19  N   UNL     1       0.973   5.988   5.013  1.00  0.00    -0.354 N 
ATOM     20  C   UNL     1       3.346   7.557   1.515  1.00  0.00     0.074 A 
ATOM     21  C   UNL     1       2.526   7.037   0.456  1.00  0.00     0.031 C 
ATOM     22  C   UNL     1      -0.381   4.481   5.939  1.00  0.00     0.029 A 
ATOM     23  C   UNL     1      -0.029   5.891   5.973  1.00  0.00     0.049 A 
ATOM     24  H   UNL     1       1.524   6.796   4.895  1.00  0.00     0.167 HD
ATOM     25  C   UNL     1       3.851   8.803   1.720  1.00  0.00     0.037 A 
ATOM     26  C   UNL     1      -0.576   6.909   6.688  1.00  0.00     0.037 A 
ATOM     27  C   UNL     1       4.694   8.828   2.890  1.00  0.00     0.049 A 
ATOM     28  C   UNL     1       0.364   8.052   6.628  1.00  0.00     0.074 A 
ATOM     29  C   UNL     1       5.855   8.191   3.281  1.00  0.00     0.029 A 
ATOM     30  N   UNL     1       4.160   9.365   4.032  1.00  0.00    -0.354 N 
ATOM     31  N   UNL     1       1.526   8.075   7.217  1.00  0.00    -0.248 NA
ATOM     32  C   UNL     1       0.184   9.026   5.563  1.00  0.00     0.031 C 
ATOM     33  C   UNL     1       5.720   7.996   4.689  1.00  0.00     0.029 A 
ATOM     34  C   UNL     1       4.516   8.576   5.089  1.00  0.00     0.049 A 
ATOM     35  H   UNL     1       3.612  10.181   4.082  1.00  0.00     0.167 HD
ATOM     36  C   UNL     1       2.357   8.720   6.316  1.00  0.00     0.074 A 
ATOM     37  C   UNL     1       1.456   9.387   5.380  1.00  0.00     0.031 C 
ATOM     38  C   UNL     1       3.683   8.403   6.255  1.00  0.00     0.037 A 
BRANCH  25  39
ATOM     39  C   UNL     1       3.199  10.064   1.176  1.00  0.00     0.064 A 
ATOM     40  C   UNL     1       3.787  11.310   1.481  1.00  0.00     0.173 A 
ATOM     41  C   UNL     1       1.875  10.130   0.685  1.00  0.00     0.173 A 
ATOM     42  F   UNL     1       5.039  11.377   1.958  1.00  0.00    -0.203 F 
ATOM     43  C   UNL     1       3.063  12.505   1.422  1.00  0.00     0.198 A 
ATOM     44  C   UNL     1       1.175  11.330   0.579  1.00  0.00     0.198 A 
ATOM     45  F   UNL     1       1.157   9.041   0.393  1.00  0.00    -0.203 F 
ATOM     46  F   UNL     1       3.617  13.639   1.873  1.00  0.00    -0.200 F 
ATOM     47  C   UNL     1       1.753  12.511   0.985  1.00  0.00     0.200 A 
ATOM     48  F   UNL     1      -0.101  11.310   0.167  1.00  0.00    -0.200 F 
ATOM     49  F   UNL     1       1.033  13.640   1.001  1.00  0.00    -0.200 F 
ENDBRANCH  25  39
BRANCH  26  50
ATOM     50  C   UNL     1      -1.972   7.080   7.164  1.00  0.00     0.064 A 
ATOM     51  C   UNL     1      -2.301   8.071   8.107  1.00  0.00     0.173 A 
ATOM     52  C   UNL     1      -3.054   6.479   6.493  1.00  0.00     0.173 A 
ATOM     53  F   UNL     1      -1.333   8.730   8.760  1.00  0.00    -0.203 F 
ATOM     54  C   UNL     1      -3.627   8.458   8.338  1.00  0.00     0.198 A 
ATOM     55  C   UNL     1      -4.376   6.859   6.731  1.00  0.00     0.198 A 
ATOM     56  F   UNL     1      -2.847   5.582   5.519  1.00  0.00    -0.203 F 
ATOM     57  F   UNL     1      -3.894   9.457   9.192  1.00  0.00    -0.200 F 
ATOM     58  C   UNL     1      -4.662   7.859   7.641  1.00  0.00     0.200 A 
ATOM     59  F   UNL     1      -5.366   6.298   6.021  1.00  0.00    -0.200 F 
ATOM     60  F   UNL     1      -5.925   8.273   7.812  1.00  0.00    -0.200 F 
ENDBRANCH  26  50
BRANCH  38  61
ATOM     61  C   UNL     1       4.267   7.633   7.404  1.00  0.00     0.064 A 
ATOM     62  C   UNL     1       3.866   6.340   7.784  1.00  0.00     0.173 A 
ATOM     63  C   UNL     1       5.357   8.197   8.080  1.00  0.00     0.173 A 
ATOM     64  F   UNL     1       2.900   5.691   7.121  1.00  0.00    -0.203 F 
ATOM     65  C   UNL     1       4.498   5.670   8.831  1.00  0.00     0.198 A 
ATOM     66  C   UNL     1       6.012   7.509   9.095  1.00  0.00     0.198 A 
ATOM     67  F   UNL     1       5.816   9.407   7.724  1.00  0.00    -0.203 F 
ATOM     68  F   UNL     1       4.085   4.446   9.192  1.00  0.00    -0.200 F 
ATOM     69  C   UNL     1       5.574   6.252   9.480  1.00  0.00     0.200 A 
ATOM     70  F   UNL     1       7.084   8.056   9.685  1.00  0.00    -0.200 F 
ATOM     71  F   UNL     1       6.207   5.593  10.461  1.00  0.00    -0.200 F 
ENDBRANCH  38  61
ENDBRANCH  12  13
ENDBRANCH   5   7
ENDBRANCH   2   3
ENDBRANCH   1   2
BRANCH   1  72
ATOM     72  C   UNL     1       4.834  -2.043   2.584  1.00  0.00     0.023 C 
BRANCH  72  73
ATOM     73  C   UNL     1       5.227  -3.364   1.947  1.00  0.00     0.116 C 
BRANCH  73  74
ATOM     74  N   UNL     1       6.580  -3.842   2.194  1.00  0.00    -0.354 N 
ATOM     75  C   UNL     1       7.139  -5.095   2.125  1.00  0.00     0.246 C 
ATOM     76  H   UNL     1       7.212  -3.135   2.459  1.00  0.00     0.163 HD
ATOM     77  O   UNL     1       8.354  -5.103   1.878  1.00  0.00    -0.272 OA
BRANCH  75  78
ATOM     78  C   UNL     1       6.412  -6.451   2.446  1.00  0.00     0.127 C 
ATOM     79  C   UNL     1       6.948  -7.590   1.508  1.00  0.00     0.061 C 
ATOM     80  C   UNL     1       4.899  -6.503   2.248  1.00  0.00     0.061 C 
ATOM     81  C   UNL     1       6.475  -7.494   0.049  1.00  0.00     0.122 C 
ATOM     82  C   UNL     1       4.529  -6.197   0.823  1.00  0.00     0.122 C 
ATOM     83  N   UNL     1       5.068  -7.124  -0.116  1.00  0.00    -0.342 N 
ATOM     84  C   UNL     1       4.498  -7.225  -1.387  1.00  0.00     0.233 C 
ATOM     85  O   UNL     1       5.153  -7.628  -2.353  1.00  0.00    -0.274 OA
BRANCH  78  86
ATOM     86  N   UNL     1       6.736  -6.784   3.859  1.00  0.00    -0.322 N 
ATOM     87  C   UNL     1       7.888  -7.367   4.326  1.00  0.00     0.108 A 
ATOM     88  C   UNL     1       5.947  -6.560   4.958  1.00  0.00     0.200 A 
ATOM     89  C   UNL     1       7.699  -7.530   5.678  1.00  0.00     0.130 A 
ATOM     90  N   UNL     1       6.489  -7.026   6.059  1.00  0.00    -0.245 NA
ENDBRANCH  78  86
BRANCH  84  91
ATOM     91  C   UNL     1       3.014  -6.911  -1.605  1.00  0.00     0.074 C 
ATOM     92  C   UNL     1       2.230  -5.659  -1.179  1.00  0.00     0.023 C 
ATOM     93  C   UNL     1       2.780  -5.724  -2.554  1.00  0.00     0.023 C 
BRANCH  91  94
ATOM     94  C   UNL     1       2.195  -8.190  -1.798  1.00  0.00    -0.032 A 
ATOM     95  C   UNL     1       1.427  -8.751  -0.763  1.00  0.00     0.005 A 
ATOM     96  C   UNL     1       2.321  -8.929  -2.987  1.00  0.00     0.005 A 
ATOM     97  C   UNL     1       0.871 -10.027  -0.888  1.00  0.00     0.000 A 
ATOM     98  C   UNL     1       1.781 -10.207  -3.111  1.00  0.00     0.000 A 
ATOM     99  C   UNL     1       1.071 -10.763  -2.054  1.00  0.00     0.000 A 
ENDBRANCH  91  94
ENDBRANCH  84  91
ENDBRANCH  75  78
ENDBRANCH  73  74
ENDBRANCH  72  73
ENDBRANCH   1  72
TORSDOF 14
