REMARK SMILES CCC(CC)(NC(=O)CC1([NH3+])CCCC1)C(=O)NCCCCNC(=O)c1ccc(-c2c3nc(c(-c4c(F)c(F)c(F)c(F)c4F)c4ccc([nH]4)c(-c4c(F)c(F)c(F)c(F)c4F)c4nc(c(-c5c(F)c(F)c(F)c(F)c5F)c5ccc2[nH]5)C=C4)C=C3)cc1
REMARK SMILES IDX 19 1 18 2 16 3 17 4 3 6 2 7 1 8 4 9 5 10 6 11 7 12 8 14 9 15
REMARK SMILES IDX 10 16 12 17 15 18 13 19 14 20 11 21 20 25 21 26 22 27 23 28
REMARK SMILES IDX 24 29 25 31 26 32 27 33 88 34 28 35 87 36 29 37 30 38 31 39
REMARK SMILES IDX 81 40 32 41 86 42 80 43 82 44 33 45 85 46 79 47 78 48 34 50
REMARK SMILES IDX 66 51 46 52 65 53 47 54 50 55 64 56 83 57 48 58 49 59 63 61
REMARK SMILES IDX 84 62 51 63 35 64 36 65 44 66 37 67 38 68 42 69 45 70 39 71
REMARK SMILES IDX 40 72 43 73 41 74 67 75 68 76 76 77 69 78 70 79 74 80 77 81
REMARK SMILES IDX 71 82 72 83 75 84 73 85 52 86 53 87 61 88 54 89 55 90 59 91
REMARK SMILES IDX 62 92 56 93 57 94 60 95 58 96
REMARK H PARENT 18 5 6 13 11 22 11 23 11 24 23 30 82 49 50 60
REMARK Flexibility Score: inf
ROOT
ATOM      1  C   UNL     1       2.075   2.876   4.531  1.00  0.00     0.116 C 
ENDROOT
BRANCH   1   2
ATOM      2  N   UNL     1       2.727   2.388   3.321  1.00  0.00    -0.354 N 
ATOM      3  C   UNL     1       2.273   1.600   2.288  1.00  0.00     0.245 C 
ATOM      4  O   UNL     1       3.017   1.545   1.305  1.00  0.00    -0.272 OA
ATOM      5  H   UNL     1       3.664   2.675   3.227  1.00  0.00     0.163 HD
BRANCH   3   6
ATOM      6  C   UNL     1       0.832   0.984   2.313  1.00  0.00     0.118 C 
BRANCH   6   7
ATOM      7  C   UNL     1       0.503  -0.129   1.275  1.00  0.00     0.035 C 
ATOM      8  C   UNL     1       0.839   0.129  -0.186  1.00  0.00     0.007 C 
ENDBRANCH   6   7
BRANCH   6   9
ATOM      9  C   UNL     1      -0.090   2.223   2.022  1.00  0.00     0.035 C 
ATOM     10  C   UNL     1      -1.596   2.001   2.072  1.00  0.00     0.007 C 
ENDBRANCH   6   9
BRANCH   6  11
ATOM     11  N   UNL     1       0.563   0.403   3.657  1.00  0.00    -0.342 N 
ATOM     12  C   UNL     1       1.221  -0.598   4.322  1.00  0.00     0.227 C 
ATOM     13  H   UNL     1      -0.201   0.796   4.138  1.00  0.00     0.164 HD
ATOM     14  O   UNL     1       0.558  -1.251   5.136  1.00  0.00    -0.275 OA
BRANCH  12  15
ATOM     15  C   UNL     1       2.735  -0.806   4.239  1.00  0.00     0.168 C 
BRANCH  15  16
ATOM     16  C   UNL     1       3.294  -1.840   3.263  1.00  0.00     0.103 C 
ATOM     17  C   UNL     1       4.758  -2.194   3.592  1.00  0.00     0.069 C 
ATOM     18  C   UNL     1       2.619  -3.210   3.376  1.00  0.00     0.069 C 
ATOM     19  C   UNL     1       4.997  -3.499   2.839  1.00  0.00     0.007 C 
ATOM     20  C   UNL     1       3.653  -4.228   2.884  1.00  0.00     0.007 C 
BRANCH  16  21
ATOM     21  N   UNL     1       3.252  -1.348   1.888  1.00  0.00    -0.352 N 
ATOM     22  H   UNL     1       3.707  -0.436   1.839  1.00  0.00     0.344 HD
ATOM     23  H   UNL     1       2.281  -1.260   1.588  1.00  0.00     0.344 HD
ATOM     24  H   UNL     1       3.739  -2.004   1.277  1.00  0.00     0.344 HD
ENDBRANCH  16  21
ENDBRANCH  15  16
ENDBRANCH  12  15
ENDBRANCH   6  11
ENDBRANCH   3   6
ENDBRANCH   1   2
BRANCH   1  25
ATOM     25  C   UNL     1       2.575   2.261   5.840  1.00  0.00     0.023 C 
BRANCH  25  26
ATOM     26  C   UNL     1       4.087   2.259   6.043  1.00  0.00     0.023 C 
BRANCH  26  27
ATOM     27  C   UNL     1       4.749   3.611   5.847  1.00  0.00     0.116 C 
BRANCH  27  28
ATOM     28  N   UNL     1       4.162   4.644   6.686  1.00  0.00    -0.352 N 
ATOM     29  C   UNL     1       4.774   5.511   7.551  1.00  0.00     0.251 C 
ATOM     30  H   UNL     1       3.183   4.733   6.622  1.00  0.00     0.163 HD
ATOM     31  O   UNL     1       4.105   6.202   8.314  1.00  0.00    -0.269 OA
BRANCH  29  32
ATOM     32  C   UNL     1       6.247   5.591   7.577  1.00  0.00     0.039 A 
ATOM     33  C   UNL     1       6.900   5.620   8.810  1.00  0.00     0.014 A 
ATOM     34  C   UNL     1       6.977   5.617   6.386  1.00  0.00     0.014 A 
ATOM     35  C   UNL     1       8.294   5.620   8.847  1.00  0.00     0.010 A 
ATOM     36  C   UNL     1       8.361   5.518   6.425  1.00  0.00     0.010 A 
ATOM     37  C   UNL     1       9.034   5.534   7.656  1.00  0.00    -0.014 A 
BRANCH  37  38
ATOM     38  C   UNL     1      10.515   5.479   7.673  1.00  0.00     0.031 A 
ATOM     39  C   UNL     1      11.311   6.577   7.026  1.00  0.00     0.074 A 
ATOM     40  C   UNL     1      11.135   4.414   8.216  1.00  0.00     0.049 A 
ATOM     41  N   UNL     1      12.607   6.685   6.880  1.00  0.00    -0.248 NA
ATOM     42  C   UNL     1      10.549   7.689   6.436  1.00  0.00     0.031 C 
ATOM     43  C   UNL     1      10.464   3.265   8.829  1.00  0.00     0.029 A 
ATOM     44  N   UNL     1      12.470   4.120   8.335  1.00  0.00    -0.354 N 
ATOM     45  C   UNL     1      12.810   7.861   6.170  1.00  0.00     0.074 A 
ATOM     46  C   UNL     1      11.506   8.400   5.860  1.00  0.00     0.031 C 
ATOM     47  C   UNL     1      11.390   2.408   9.287  1.00  0.00     0.029 A 
ATOM     48  C   UNL     1      12.716   2.923   8.961  1.00  0.00     0.049 A 
ATOM     49  H   UNL     1      13.183   4.712   8.003  1.00  0.00     0.167 HD
ATOM     50  C   UNL     1      13.981   8.450   5.832  1.00  0.00     0.037 A 
ATOM     51  C   UNL     1      13.883   2.309   9.234  1.00  0.00     0.037 A 
ATOM     52  C   UNL     1      15.274   7.918   6.170  1.00  0.00     0.049 A 
ATOM     53  C   UNL     1      15.170   2.981   8.835  1.00  0.00     0.074 A 
ATOM     54  C   UNL     1      16.521   8.468   5.934  1.00  0.00     0.029 A 
ATOM     55  N   UNL     1      15.486   6.707   6.813  1.00  0.00    -0.354 N 
ATOM     56  N   UNL     1      15.352   4.131   8.233  1.00  0.00    -0.248 NA
ATOM     57  C   UNL     1      16.414   2.271   9.159  1.00  0.00     0.031 C 
ATOM     58  C   UNL     1      17.489   7.562   6.380  1.00  0.00     0.029 A 
ATOM     59  C   UNL     1      16.845   6.478   6.955  1.00  0.00     0.049 A 
ATOM     60  H   UNL     1      14.775   6.100   7.123  1.00  0.00     0.167 HD
ATOM     61  C   UNL     1      16.727   4.299   8.137  1.00  0.00     0.074 A 
ATOM     62  C   UNL     1      17.331   3.138   8.757  1.00  0.00     0.031 C 
ATOM     63  C   UNL     1      17.427   5.321   7.585  1.00  0.00     0.037 A 
BRANCH  50  64
ATOM     64  C   UNL     1      13.917   9.735   5.057  1.00  0.00     0.064 A 
ATOM     65  C   UNL     1      13.431  10.921   5.629  1.00  0.00     0.173 A 
ATOM     66  C   UNL     1      14.381   9.790   3.734  1.00  0.00     0.173 A 
ATOM     67  F   UNL     1      12.963  10.923   6.886  1.00  0.00    -0.203 F 
ATOM     68  C   UNL     1      13.384  12.105   4.896  1.00  0.00     0.198 A 
ATOM     69  C   UNL     1      14.365  10.983   3.016  1.00  0.00     0.198 A 
ATOM     70  F   UNL     1      14.860   8.687   3.138  1.00  0.00    -0.203 F 
ATOM     71  F   UNL     1      12.865  13.211   5.447  1.00  0.00    -0.200 F 
ATOM     72  C   UNL     1      13.858  12.137   3.594  1.00  0.00     0.200 A 
ATOM     73  F   UNL     1      14.838  11.015   1.762  1.00  0.00    -0.200 F 
ATOM     74  F   UNL     1      13.822  13.279   2.893  1.00  0.00    -0.200 F 
ENDBRANCH  50  64
BRANCH  51  75
ATOM     75  C   UNL     1      13.892   1.001   9.941  1.00  0.00     0.064 A 
ATOM     76  C   UNL     1      14.403   0.890  11.243  1.00  0.00     0.173 A 
ATOM     77  C   UNL     1      13.404  -0.164   9.332  1.00  0.00     0.173 A 
ATOM     78  F   UNL     1      14.897   1.972  11.862  1.00  0.00    -0.203 F 
ATOM     79  C   UNL     1      14.451  -0.340  11.896  1.00  0.00     0.198 A 
ATOM     80  C   UNL     1      13.423  -1.388   9.999  1.00  0.00     0.198 A 
ATOM     81  F   UNL     1      12.898  -0.113   8.091  1.00  0.00    -0.203 F 
ATOM     82  F   UNL     1      14.995  -0.425  13.117  1.00  0.00    -0.200 F 
ATOM     83  C   UNL     1      13.957  -1.477  11.276  1.00  0.00     0.200 A 
ATOM     84  F   UNL     1      12.928  -2.481   9.402  1.00  0.00    -0.200 F 
ATOM     85  F   UNL     1      14.002  -2.659  11.904  1.00  0.00    -0.200 F 
ENDBRANCH  51  75
BRANCH  63  86
ATOM     86  C   UNL     1      18.925   5.252   7.666  1.00  0.00     0.064 A 
ATOM     87  C   UNL     1      19.665   4.324   6.918  1.00  0.00     0.173 A 
ATOM     88  C   UNL     1      19.632   6.157   8.473  1.00  0.00     0.173 A 
ATOM     89  F   UNL     1      19.037   3.428   6.142  1.00  0.00    -0.203 F 
ATOM     90  C   UNL     1      21.054   4.285   6.999  1.00  0.00     0.198 A 
ATOM     91  C   UNL     1      21.023   6.139   8.523  1.00  0.00     0.198 A 
ATOM     92  F   UNL     1      18.973   7.071   9.202  1.00  0.00    -0.203 F 
ATOM     93  F   UNL     1      21.737   3.354   6.318  1.00  0.00    -0.200 F 
ATOM     94  C   UNL     1      21.732   5.197   7.794  1.00  0.00     0.200 A 
ATOM     95  F   UNL     1      21.676   7.033   9.278  1.00  0.00    -0.200 F 
ATOM     96  F   UNL     1      23.070   5.165   7.863  1.00  0.00    -0.200 F 
ENDBRANCH  63  86
ENDBRANCH  37  38
ENDBRANCH  29  32
ENDBRANCH  27  28
ENDBRANCH  26  27
ENDBRANCH  25  26
ENDBRANCH   1  25
TORSDOF 17
