REMARK SMILES O=C(NCCCCNC(=O)[C@@H]1CN(C(=O)CCC(F)(F)F)C[C@H]1c1ccc2c(c1)OCO2)c1ccc(-c2c3nc(c(-c4c(F)c(F)c(F)c(F)c4F)c4ccc([nH]4)c(-c4c(F)c(F)c(F)c(F)c4F)c4nc(c(-c5c(F)c(F)c(F)c(F)c5F)c5ccc2[nH]5)C=C4)C=C3)cc1
REMARK SMILES IDX 6 1 5 2 4 3 3 4 1 5 2 6 33 8 34 9 95 10 35 11 94 12 36 13
REMARK SMILES IDX 37 14 38 15 88 16 39 17 93 18 87 19 89 20 40 21 92 22 86 23
REMARK SMILES IDX 85 24 41 26 73 27 53 28 72 29 54 30 57 31 71 32 90 33 55 34
REMARK SMILES IDX 56 35 70 37 91 38 58 39 42 40 43 41 51 42 44 43 45 44 49 45
REMARK SMILES IDX 52 46 46 47 47 48 50 49 48 50 74 51 75 52 83 53 76 54 77 55
REMARK SMILES IDX 81 56 84 57 78 58 79 59 82 60 80 61 59 62 60 63 68 64 61 65
REMARK SMILES IDX 62 66 66 67 69 68 63 69 64 70 67 71 65 72 7 73 8 74 9 75
REMARK SMILES IDX 10 77 11 78 12 79 23 80 13 81 22 82 24 83 25 84 29 85 26 86
REMARK SMILES IDX 28 87 27 88 30 89 32 90 31 91 14 92 15 93 16 94 17 95 18 96
REMARK SMILES IDX 19 97 20 98 21 99
REMARK H PARENT 3 7 89 25 57 36 8 76
REMARK Flexibility Score: inf
ROOT
ATOM      1  C   UNL     1       4.342   0.297   3.719  1.00  0.00     0.023 C 
ENDROOT
BRANCH   1   2
ATOM      2  C   UNL     1       4.765   0.990   2.425  1.00  0.00     0.023 C 
BRANCH   2   3
ATOM      3  C   UNL     1       4.449   0.216   1.155  1.00  0.00     0.116 C 
BRANCH   3   4
ATOM      4  N   UNL     1       3.028  -0.043   0.987  1.00  0.00    -0.352 N 
ATOM      5  O   UNL     1       1.062  -0.103  -0.123  1.00  0.00    -0.269 OA
ATOM      6  C   UNL     1       2.278   0.022  -0.162  1.00  0.00     0.251 C 
ATOM      7  H   UNL     1       2.540  -0.299   1.803  1.00  0.00     0.163 HD
BRANCH   6   8
ATOM      8  C   UNL     1       2.958   0.279  -1.448  1.00  0.00     0.039 A 
ATOM      9  C   UNL     1       4.110  -0.432  -1.795  1.00  0.00     0.014 A 
ATOM     10  C   UNL     1       2.443   1.257  -2.303  1.00  0.00     0.014 A 
ATOM     11  C   UNL     1       4.818  -0.079  -2.936  1.00  0.00     0.010 A 
ATOM     12  C   UNL     1       3.114   1.557  -3.489  1.00  0.00     0.010 A 
ATOM     13  C   UNL     1       4.319   0.909  -3.800  1.00  0.00    -0.014 A 
BRANCH  13  14
ATOM     14  C   UNL     1       5.037   1.194  -5.064  1.00  0.00     0.031 A 
ATOM     15  C   UNL     1       5.694   2.521  -5.301  1.00  0.00     0.074 A 
ATOM     16  C   UNL     1       5.089   0.229  -6.000  1.00  0.00     0.049 A 
ATOM     17  N   UNL     1       6.349   2.939  -6.355  1.00  0.00    -0.248 NA
ATOM     18  C   UNL     1       5.595   3.515  -4.222  1.00  0.00     0.031 C 
ATOM     19  C   UNL     1       4.466  -1.091  -5.878  1.00  0.00     0.029 A 
ATOM     20  N   UNL     1       5.692   0.202  -7.229  1.00  0.00    -0.354 N 
ATOM     21  C   UNL     1       6.722   4.246  -6.078  1.00  0.00     0.074 A 
ATOM     22  C   UNL     1       6.204   4.563  -4.763  1.00  0.00     0.031 C 
ATOM     23  C   UNL     1       4.740  -1.808  -6.977  1.00  0.00     0.029 A 
ATOM     24  C   UNL     1       5.509  -0.982  -7.900  1.00  0.00     0.049 A 
ATOM     25  H   UNL     1       6.207   0.957  -7.596  1.00  0.00     0.167 HD
ATOM     26  C   UNL     1       7.436   5.098  -6.852  1.00  0.00     0.037 A 
ATOM     27  C   UNL     1       5.896  -1.353  -9.133  1.00  0.00     0.037 A 
ATOM     28  C   UNL     1       7.963   4.765  -8.151  1.00  0.00     0.049 A 
ATOM     29  C   UNL     1       6.682  -0.389  -9.970  1.00  0.00     0.074 A 
ATOM     30  C   UNL     1       8.748   5.537  -8.990  1.00  0.00     0.029 A 
ATOM     31  N   UNL     1       7.749   3.559  -8.804  1.00  0.00    -0.354 N 
ATOM     32  N   UNL     1       7.068   0.830  -9.679  1.00  0.00    -0.248 NA
ATOM     33  C   UNL     1       7.085  -0.848 -11.304  1.00  0.00     0.031 C 
ATOM     34  C   UNL     1       8.972   4.816 -10.168  1.00  0.00     0.029 A 
ATOM     35  C   UNL     1       8.365   3.576 -10.046  1.00  0.00     0.049 A 
ATOM     36  H   UNL     1       7.236   2.802  -8.439  1.00  0.00     0.167 HD
ATOM     37  C   UNL     1       7.764   1.283 -10.789  1.00  0.00     0.074 A 
ATOM     38  C   UNL     1       7.766   0.199 -11.751  1.00  0.00     0.031 C 
ATOM     39  C   UNL     1       8.345   2.490 -10.993  1.00  0.00     0.037 A 
BRANCH  26  40
ATOM     40  C   UNL     1       7.674   6.484  -6.326  1.00  0.00     0.064 A 
ATOM     41  C   UNL     1       8.566   6.732  -5.272  1.00  0.00     0.173 A 
ATOM     42  C   UNL     1       7.029   7.584  -6.912  1.00  0.00     0.173 A 
ATOM     43  F   UNL     1       9.200   5.714  -4.671  1.00  0.00    -0.203 F 
ATOM     44  C   UNL     1       8.785   8.027  -4.809  1.00  0.00     0.198 A 
ATOM     45  C   UNL     1       7.269   8.880  -6.462  1.00  0.00     0.198 A 
ATOM     46  F   UNL     1       6.170   7.403  -7.926  1.00  0.00    -0.203 F 
ATOM     47  F   UNL     1       9.610   8.236  -3.773  1.00  0.00    -0.200 F 
ATOM     48  C   UNL     1       8.141   9.100  -5.407  1.00  0.00     0.200 A 
ATOM     49  F   UNL     1       6.654   9.917  -7.048  1.00  0.00    -0.200 F 
ATOM     50  F   UNL     1       8.357  10.346  -4.962  1.00  0.00    -0.200 F 
ENDBRANCH  26  40
BRANCH  27  51
ATOM     51  C   UNL     1       5.526  -2.700  -9.633  1.00  0.00     0.064 A 
ATOM     52  C   UNL     1       6.487  -3.708  -9.771  1.00  0.00     0.173 A 
ATOM     53  C   UNL     1       4.192  -3.018  -9.932  1.00  0.00     0.173 A 
ATOM     54  F   UNL     1       7.776  -3.446  -9.511  1.00  0.00    -0.203 F 
ATOM     55  C   UNL     1       6.128  -4.987 -10.194  1.00  0.00     0.198 A 
ATOM     56  C   UNL     1       3.831  -4.303 -10.328  1.00  0.00     0.198 A 
ATOM     57  F   UNL     1       3.235  -2.087  -9.805  1.00  0.00    -0.203 F 
ATOM     58  F   UNL     1       7.069  -5.929 -10.342  1.00  0.00    -0.200 F 
ATOM     59  C   UNL     1       4.800  -5.285 -10.463  1.00  0.00     0.200 A 
ATOM     60  F   UNL     1       2.545  -4.591 -10.568  1.00  0.00    -0.200 F 
ATOM     61  F   UNL     1       4.454  -6.520 -10.851  1.00  0.00    -0.200 F 
ENDBRANCH  27  51
BRANCH  39  62
ATOM     62  C   UNL     1       9.036   2.695 -12.308  1.00  0.00     0.064 A 
ATOM     63  C   UNL     1       8.310   2.885 -13.492  1.00  0.00     0.173 A 
ATOM     64  C   UNL     1      10.436   2.732 -12.378  1.00  0.00     0.173 A 
ATOM     65  F   UNL     1       6.969   2.840 -13.477  1.00  0.00    -0.203 F 
ATOM     66  C   UNL     1       8.962   3.083 -14.706  1.00  0.00     0.198 A 
ATOM     67  C   UNL     1      11.085   2.955 -13.589  1.00  0.00     0.198 A 
ATOM     68  F   UNL     1      11.174   2.558 -11.271  1.00  0.00    -0.203 F 
ATOM     69  F   UNL     1       8.250   3.220 -15.833  1.00  0.00    -0.200 F 
ATOM     70  C   UNL     1      10.348   3.125 -14.752  1.00  0.00     0.200 A 
ATOM     71  F   UNL     1      12.423   3.003 -13.631  1.00  0.00    -0.200 F 
ATOM     72  F   UNL     1      10.975   3.320 -15.920  1.00  0.00    -0.200 F 
ENDBRANCH  39  62
ENDBRANCH  13  14
ENDBRANCH   6   8
ENDBRANCH   3   4
ENDBRANCH   2   3
ENDBRANCH   1   2
BRANCH   1  73
ATOM     73  C   UNL     1       5.017  -1.055   3.973  1.00  0.00     0.116 C 
BRANCH  73  74
ATOM     74  N   UNL     1       6.437  -0.894   4.227  1.00  0.00    -0.356 N 
ATOM     75  C   UNL     1       7.150  -0.833   5.381  1.00  0.00     0.225 C 
ATOM     76  H   UNL     1       6.984  -0.814   3.412  1.00  0.00     0.163 HD
ATOM     77  O   UNL     1       8.361  -0.616   5.272  1.00  0.00    -0.275 OA
BRANCH  75  78
ATOM     78  C   UNL     1       6.552  -1.086   6.755  1.00  0.00     0.107 C 
ATOM     79  C   UNL     1       6.223  -2.562   6.896  1.00  0.00     0.133 C 
ATOM     80  C   UNL     1       5.284  -0.306   7.154  1.00  0.00     0.053 C 
ATOM     81  N   UNL     1       5.028  -2.636   7.709  1.00  0.00    -0.341 N 
ATOM     82  C   UNL     1       4.467  -1.323   7.971  1.00  0.00     0.128 C 
BRANCH  80  83
ATOM     83  C   UNL     1       5.594   1.046   7.787  1.00  0.00    -0.038 A 
ATOM     84  C   UNL     1       6.426   1.959   7.084  1.00  0.00     0.008 A 
ATOM     85  C   UNL     1       5.067   1.448   9.025  1.00  0.00     0.054 A 
ATOM     86  C   UNL     1       6.773   3.205   7.617  1.00  0.00     0.051 A 
ATOM     87  C   UNL     1       5.434   2.680   9.531  1.00  0.00     0.166 A 
ATOM     88  C   UNL     1       6.268   3.532   8.851  1.00  0.00     0.165 A 
ATOM     89  O   UNL     1       5.036   3.191  10.728  1.00  0.00    -0.454 OA
ATOM     90  O   UNL     1       6.506   4.683   9.532  1.00  0.00    -0.454 OA
ATOM     91  C   UNL     1       5.762   4.438  10.742  1.00  0.00     0.468 C 
ENDBRANCH  80  83
BRANCH  81  92
ATOM     92  C   UNL     1       4.428  -3.761   8.225  1.00  0.00     0.222 C 
ATOM     93  O   UNL     1       3.326  -3.717   8.774  1.00  0.00    -0.275 OA
BRANCH  92  94
ATOM     94  C   UNL     1       5.168  -5.081   8.132  1.00  0.00     0.109 C 
BRANCH  94  95
ATOM     95  C   UNL     1       4.531  -6.042   7.139  1.00  0.00     0.125 C 
BRANCH  95  96
ATOM     96  C   UNL     1       4.765  -5.634   5.705  1.00  0.00     0.389 C 
ATOM     97  F   UNL     1       6.083  -5.464   5.459  1.00  0.00    -0.171 F 
ATOM     98  F   UNL     1       4.314  -6.583   4.857  1.00  0.00    -0.171 F 
ATOM     99  F   UNL     1       4.138  -4.480   5.395  1.00  0.00    -0.171 F 
ENDBRANCH  95  96
ENDBRANCH  94  95
ENDBRANCH  92  94
ENDBRANCH  81  92
ENDBRANCH  75  78
ENDBRANCH  73  74
ENDBRANCH   1  73
TORSDOF 16
