REMARK SMILES COC(=O)/C=C(/CC(C)C)C(=O)NCCCCNC(=O)c1ccc(-c2c3nc(c(-c4c(F)c(F)c(F)c(F)c4F)c4ccc([nH]4)c(-c4c(F)c(F)c(F)c(F)c4F)c4nc(c(-c5c(F)c(F)c(F)c(F)c5F)c5ccc2[nH]5)C=C4)C=C3)cc1
REMARK SMILES IDX 15 1 14 2 13 3 11 4 12 5 6 7 5 8 3 9 4 10 2 11 1 12 7 13
REMARK SMILES IDX 8 14 9 15 10 16 16 17 17 18 18 19 19 20 20 22 21 23 22 24
REMARK SMILES IDX 83 25 23 26 82 27 24 28 25 29 26 30 76 31 27 32 81 33 75 34
REMARK SMILES IDX 77 35 28 36 80 37 74 38 73 39 29 41 61 42 41 43 60 44 42 45
REMARK SMILES IDX 45 46 59 47 78 48 43 49 44 50 58 52 79 53 46 54 30 55 31 56
REMARK SMILES IDX 39 57 32 58 33 59 37 60 40 61 34 62 35 63 38 64 36 65 62 66
REMARK SMILES IDX 63 67 71 68 64 69 65 70 69 71 72 72 66 73 67 74 70 75 68 76
REMARK SMILES IDX 47 77 48 78 56 79 49 80 50 81 54 82 57 83 51 84 52 85 55 86
REMARK SMILES IDX 53 87
REMARK H PARENT 13 6 18 21 77 40 45 51
REMARK Flexibility Score: inf
ROOT
ATOM      1  C   UNL     1      -1.852  -6.057   2.296  1.00  0.00     0.023 C 
ENDROOT
BRANCH   1   2
ATOM      2  C   UNL     1      -2.452  -5.229   1.159  1.00  0.00     0.116 C 
BRANCH   2   3
ATOM      3  N   UNL     1      -1.758  -3.962   1.039  1.00  0.00    -0.352 N 
ATOM      4  C   UNL     1      -0.623  -3.615   0.376  1.00  0.00     0.247 C 
ATOM      5  O   UNL     1       0.159  -2.894   0.999  1.00  0.00    -0.270 OA
ATOM      6  H   UNL     1      -2.186  -3.219   1.523  1.00  0.00     0.163 HD
BRANCH   4   7
ATOM      7  C   UNL     1      -0.315  -4.044  -1.026  1.00  0.00     0.024 C 
ATOM      8  C   UNL     1       0.416  -3.225  -1.817  1.00  0.00     0.102 C 
BRANCH   8   9
ATOM      9  C   UNL     1       1.010  -1.894  -1.577  1.00  0.00     0.330 C 
ATOM     10  O   UNL     1       2.070  -1.580  -2.103  1.00  0.00    -0.247 OA
BRANCH   9  11
ATOM     11  O   UNL     1       0.209  -1.081  -0.858  1.00  0.00    -0.466 OA
ATOM     12  C   UNL     1       0.832   0.138  -0.445  1.00  0.00     0.282 C 
ENDBRANCH   9  11
ENDBRANCH   8   9
BRANCH   7  13
ATOM     13  C   UNL     1      -0.753  -5.357  -1.627  1.00  0.00     0.044 C 
BRANCH  13  14
ATOM     14  C   UNL     1       0.140  -6.589  -1.339  1.00  0.00    -0.013 C 
ATOM     15  C   UNL     1       0.614  -6.778   0.100  1.00  0.00     0.008 C 
ATOM     16  C   UNL     1      -0.587  -7.863  -1.787  1.00  0.00     0.008 C 
ENDBRANCH  13  14
ENDBRANCH   7  13
ENDBRANCH   4   7
ENDBRANCH   2   3
ENDBRANCH   1   2
BRANCH   1  17
ATOM     17  C   UNL     1      -2.395  -5.744   3.680  1.00  0.00     0.023 C 
BRANCH  17  18
ATOM     18  C   UNL     1      -3.895  -5.923   3.827  1.00  0.00     0.116 C 
BRANCH  18  19
ATOM     19  N   UNL     1      -4.397  -7.206   3.351  1.00  0.00    -0.352 N 
ATOM     20  C   UNL     1      -5.346  -8.024   3.920  1.00  0.00     0.251 C 
ATOM     21  H   UNL     1      -4.003  -7.531   2.509  1.00  0.00     0.163 HD
ATOM     22  O   UNL     1      -5.607  -9.118   3.429  1.00  0.00    -0.269 OA
BRANCH  20  23
ATOM     23  C   UNL     1      -6.009  -7.583   5.161  1.00  0.00     0.039 A 
ATOM     24  C   UNL     1      -6.085  -8.465   6.240  1.00  0.00     0.014 A 
ATOM     25  C   UNL     1      -6.462  -6.269   5.285  1.00  0.00     0.014 A 
ATOM     26  C   UNL     1      -6.539  -7.997   7.472  1.00  0.00     0.010 A 
ATOM     27  C   UNL     1      -6.788  -5.775   6.538  1.00  0.00     0.010 A 
ATOM     28  C   UNL     1      -6.848  -6.636   7.643  1.00  0.00    -0.014 A 
BRANCH  28  29
ATOM     29  C   UNL     1      -7.260  -6.099   8.962  1.00  0.00     0.031 A 
ATOM     30  C   UNL     1      -8.608  -5.449   9.116  1.00  0.00     0.074 A 
ATOM     31  C   UNL     1      -6.401  -6.142  10.000  1.00  0.00     0.049 A 
ATOM     32  N   UNL     1      -9.143  -4.891  10.173  1.00  0.00    -0.248 NA
ATOM     33  C   UNL     1      -9.452  -5.373   7.912  1.00  0.00     0.031 C 
ATOM     34  C   UNL     1      -5.034  -6.664   9.950  1.00  0.00     0.029 A 
ATOM     35  N   UNL     1      -6.553  -5.740  11.303  1.00  0.00    -0.354 N 
ATOM     36  C   UNL     1     -10.366  -4.384   9.751  1.00  0.00     0.074 A 
ATOM     37  C   UNL     1     -10.460  -4.625   8.330  1.00  0.00     0.031 C 
ATOM     38  C   UNL     1      -4.491  -6.597  11.176  1.00  0.00     0.029 A 
ATOM     39  C   UNL     1      -5.459  -6.002  12.091  1.00  0.00     0.049 A 
ATOM     40  H   UNL     1      -7.369  -5.305  11.640  1.00  0.00     0.167 HD
ATOM     41  C   UNL     1     -11.343  -3.809  10.490  1.00  0.00     0.037 A 
ATOM     42  C   UNL     1      -5.270  -5.797  13.408  1.00  0.00     0.037 A 
ATOM     43  C   UNL     1     -11.264  -3.620  11.912  1.00  0.00     0.049 A 
ATOM     44  C   UNL     1      -6.392  -5.205  14.218  1.00  0.00     0.074 A 
ATOM     45  C   UNL     1     -12.221  -3.114  12.772  1.00  0.00     0.029 A 
ATOM     46  N   UNL     1     -10.158  -3.943  12.686  1.00  0.00    -0.354 N 
ATOM     47  N   UNL     1      -7.579  -4.809  13.825  1.00  0.00    -0.248 NA
ATOM     48  C   UNL     1      -6.153  -5.046  15.659  1.00  0.00     0.031 C 
ATOM     49  C   UNL     1     -11.681  -3.098  14.063  1.00  0.00     0.029 A 
ATOM     50  C   UNL     1     -10.405  -3.637  14.013  1.00  0.00     0.049 A 
ATOM     51  H   UNL     1      -9.321  -4.331  12.342  1.00  0.00     0.167 HD
ATOM     52  C   UNL     1      -8.237  -4.381  14.970  1.00  0.00     0.074 A 
ATOM     53  C   UNL     1      -7.324  -4.587  16.075  1.00  0.00     0.031 C 
ATOM     54  C   UNL     1      -9.483  -3.861  15.096  1.00  0.00     0.037 A 
BRANCH  41  55
ATOM     55  C   UNL     1     -12.586  -3.371   9.771  1.00  0.00     0.064 A 
ATOM     56  C   UNL     1     -13.478  -4.301   9.212  1.00  0.00     0.173 A 
ATOM     57  C   UNL     1     -12.898  -2.009   9.648  1.00  0.00     0.173 A 
ATOM     58  F   UNL     1     -13.217  -5.615   9.286  1.00  0.00    -0.203 F 
ATOM     59  C   UNL     1     -14.615  -3.882   8.526  1.00  0.00     0.198 A 
ATOM     60  C   UNL     1     -14.055  -1.596   8.991  1.00  0.00     0.198 A 
ATOM     61  F   UNL     1     -12.082  -1.078  10.165  1.00  0.00    -0.203 F 
ATOM     62  F   UNL     1     -15.417  -4.787   7.949  1.00  0.00    -0.200 F 
ATOM     63  C   UNL     1     -14.906  -2.531   8.423  1.00  0.00     0.200 A 
ATOM     64  F   UNL     1     -14.341  -0.290   8.901  1.00  0.00    -0.200 F 
ATOM     65  F   UNL     1     -16.003  -2.130   7.766  1.00  0.00    -0.200 F 
ENDBRANCH  41  55
BRANCH  42  66
ATOM     66  C   UNL     1      -3.997  -6.211  14.054  1.00  0.00     0.064 A 
ATOM     67  C   UNL     1      -3.963  -7.294  14.945  1.00  0.00     0.173 A 
ATOM     68  C   UNL     1      -2.794  -5.535  13.806  1.00  0.00     0.173 A 
ATOM     69  F   UNL     1      -5.091  -7.962  15.228  1.00  0.00    -0.203 F 
ATOM     70  C   UNL     1      -2.782  -7.668  15.582  1.00  0.00     0.198 A 
ATOM     71  C   UNL     1      -1.607  -5.928  14.422  1.00  0.00     0.198 A 
ATOM     72  F   UNL     1      -2.770  -4.498  12.956  1.00  0.00    -0.203 F 
ATOM     73  F   UNL     1      -2.790  -8.675  16.466  1.00  0.00    -0.200 F 
ATOM     74  C   UNL     1      -1.604  -6.987  15.317  1.00  0.00     0.200 A 
ATOM     75  F   UNL     1      -0.467  -5.277  14.152  1.00  0.00    -0.200 F 
ATOM     76  F   UNL     1      -0.467  -7.347  15.929  1.00  0.00    -0.200 F 
ENDBRANCH  42  66
BRANCH  54  77
ATOM     77  C   UNL     1      -9.938  -3.512  16.482  1.00  0.00     0.064 A 
ATOM     78  C   UNL     1      -9.408  -2.415  17.176  1.00  0.00     0.173 A 
ATOM     79  C   UNL     1     -10.939  -4.269  17.111  1.00  0.00     0.173 A 
ATOM     80  F   UNL     1      -8.440  -1.669  16.622  1.00  0.00    -0.203 F 
ATOM     81  C   UNL     1      -9.840  -2.107  18.463  1.00  0.00     0.198 A 
ATOM     82  C   UNL     1     -11.390  -3.939  18.385  1.00  0.00     0.198 A 
ATOM     83  F   UNL     1     -11.484  -5.322  16.485  1.00  0.00    -0.203 F 
ATOM     84  F   UNL     1      -9.281  -1.087  19.129  1.00  0.00    -0.200 F 
ATOM     85  C   UNL     1     -10.834  -2.865  19.063  1.00  0.00     0.200 A 
ATOM     86  F   UNL     1     -12.362  -4.663  18.958  1.00  0.00    -0.200 F 
ATOM     87  F   UNL     1     -11.251  -2.565  20.301  1.00  0.00    -0.200 F 
ENDBRANCH  54  77
ENDBRANCH  28  29
ENDBRANCH  20  23
ENDBRANCH  18  19
ENDBRANCH  17  18
ENDBRANCH   1  17
TORSDOF 15
