REMARK SMILES C[C@@H](NC(=O)CN1C(=O)/C(=C/c2ccccc2F)SC1=S)C(=O)NCCCCNC(=O)c1ccc(-c2c3nc(c(-c4c(F)c(F)c(F)c(F)c4F)c4ccc([nH]4)c(-c4c(F)c(F)c(F)c(F)c4F)c4nc(c(-c5c(F)c(F)c(F)c(F)c5F)c5ccc2[nH]5)C=C4)C=C3)cc1
REMARK SMILES IDX 25 1 24 2 22 3 23 4 2 6 1 7 3 8 4 9 5 11 6 12 7 13 8 14
REMARK SMILES IDX 20 15 9 16 10 17 19 18 21 19 11 20 12 21 13 22 17 23 14 24
REMARK SMILES IDX 16 25 18 26 15 27 26 28 27 29 28 30 29 31 30 32 31 34 32 35
REMARK SMILES IDX 33 36 94 37 34 38 93 39 35 40 36 41 37 42 87 43 38 44 92 45
REMARK SMILES IDX 86 46 88 47 39 48 91 49 85 50 84 51 40 53 72 54 52 55 71 56
REMARK SMILES IDX 53 57 56 58 70 59 89 60 54 61 55 62 69 64 90 65 57 66 41 67
REMARK SMILES IDX 42 68 50 69 43 70 44 71 48 72 51 73 45 74 46 75 49 76 47 77
REMARK SMILES IDX 73 78 74 79 82 80 75 81 76 82 80 83 83 84 77 85 78 86 81 87
REMARK SMILES IDX 79 88 58 89 59 90 67 91 60 92 61 93 65 94 68 95 62 96 63 97
REMARK SMILES IDX 66 98 64 99
REMARK H PARENT 24 5 3 10 29 33 88 52 56 63
REMARK Flexibility Score: inf
ROOT
ATOM      1  C   UNL     1      -0.125   2.446  -0.896  1.00  0.00     0.116 C 
ENDROOT
BRANCH   1   2
ATOM      2  N   UNL     1      -0.455   1.035  -0.751  1.00  0.00    -0.354 N 
ATOM      3  C   UNL     1      -0.036   0.057   0.098  1.00  0.00     0.242 C 
ATOM      4  O   UNL     1      -0.352  -1.107  -0.160  1.00  0.00    -0.273 OA
ATOM      5  H   UNL     1      -1.122   0.723  -1.404  1.00  0.00     0.163 HD
BRANCH   3   6
ATOM      6  C   UNL     1       0.927   0.337   1.235  1.00  0.00     0.168 C 
ATOM      7  C   UNL     1       2.313   0.160   0.607  1.00  0.00     0.041 C 
BRANCH   6   8
ATOM      8  N   UNL     1       0.722   1.651   1.824  1.00  0.00    -0.343 N 
ATOM      9  C   UNL     1      -0.350   2.133   2.520  1.00  0.00     0.240 C 
ATOM     10  H   UNL     1       1.465   2.286   1.704  1.00  0.00     0.164 HD
ATOM     11  O   UNL     1      -0.228   3.273   2.979  1.00  0.00    -0.273 OA
BRANCH   9  12
ATOM     12  C   UNL     1      -1.662   1.330   2.739  1.00  0.00     0.227 C 
BRANCH  12  13
ATOM     13  N   UNL     1      -2.581   1.197   1.592  1.00  0.00    -0.283 N 
ATOM     14  C   UNL     1      -2.891  -0.067   1.108  1.00  0.00     0.266 C 
ATOM     15  C   UNL     1      -3.357   2.204   1.065  1.00  0.00     0.148 C 
ATOM     16  O   UNL     1      -2.720  -1.118   1.696  1.00  0.00    -0.268 OA
ATOM     17  C   UNL     1      -3.507   0.057  -0.253  1.00  0.00     0.081 C 
ATOM     18  S   UNL     1      -4.223   1.607  -0.370  1.00  0.00    -0.054 SA
ATOM     19  S   UNL     1      -3.518   3.774   1.603  1.00  0.00    -0.052 S 
ATOM     20  C   UNL     1      -3.217  -0.845  -1.209  1.00  0.00     0.032 C 
BRANCH  20  21
ATOM     21  C   UNL     1      -3.321  -0.741  -2.682  1.00  0.00     0.012 A 
ATOM     22  C   UNL     1      -4.508  -0.984  -3.371  1.00  0.00     0.011 A 
ATOM     23  C   UNL     1      -2.171  -0.484  -3.454  1.00  0.00     0.130 A 
ATOM     24  C   UNL     1      -4.532  -0.939  -4.777  1.00  0.00     0.001 A 
ATOM     25  C   UNL     1      -2.196  -0.390  -4.843  1.00  0.00     0.040 A 
ATOM     26  F   UNL     1      -0.988  -0.283  -2.861  1.00  0.00    -0.206 F 
ATOM     27  C   UNL     1      -3.385  -0.626  -5.511  1.00  0.00     0.003 A 
ENDBRANCH  20  21
ENDBRANCH  12  13
ENDBRANCH   9  12
ENDBRANCH   6   8
ENDBRANCH   3   6
ENDBRANCH   1   2
BRANCH   1  28
ATOM     28  C   UNL     1      -0.333   2.916  -2.343  1.00  0.00     0.023 C 
BRANCH  28  29
ATOM     29  C   UNL     1      -1.780   2.908  -2.858  1.00  0.00     0.023 C 
BRANCH  29  30
ATOM     30  C   UNL     1      -2.698   4.024  -2.377  1.00  0.00     0.116 C 
BRANCH  30  31
ATOM     31  N   UNL     1      -2.340   5.331  -2.871  1.00  0.00    -0.352 N 
ATOM     32  C   UNL     1      -3.175   6.370  -3.198  1.00  0.00     0.251 C 
ATOM     33  H   UNL     1      -1.376   5.499  -2.987  1.00  0.00     0.163 HD
ATOM     34  O   UNL     1      -2.710   7.418  -3.637  1.00  0.00    -0.269 OA
BRANCH  32  35
ATOM     35  C   UNL     1      -4.645   6.222  -3.077  1.00  0.00     0.039 A 
ATOM     36  C   UNL     1      -5.425   6.507  -4.201  1.00  0.00     0.014 A 
ATOM     37  C   UNL     1      -5.263   5.858  -1.876  1.00  0.00     0.014 A 
ATOM     38  C   UNL     1      -6.817   6.413  -4.130  1.00  0.00     0.010 A 
ATOM     39  C   UNL     1      -6.656   5.722  -1.819  1.00  0.00     0.010 A 
ATOM     40  C   UNL     1      -7.450   6.010  -2.941  1.00  0.00    -0.014 A 
BRANCH  40  41
ATOM     41  C   UNL     1      -8.938   5.911  -2.887  1.00  0.00     0.031 A 
ATOM     42  C   UNL     1      -9.743   6.865  -2.045  1.00  0.00     0.074 A 
ATOM     43  C   UNL     1      -9.575   4.973  -3.615  1.00  0.00     0.049 A 
ATOM     44  N   UNL     1     -11.045   6.957  -1.914  1.00  0.00    -0.248 NA
ATOM     45  C   UNL     1      -8.991   7.837  -1.238  1.00  0.00     0.031 C 
ATOM     46  C   UNL     1      -8.917   3.975  -4.457  1.00  0.00     0.029 A 
ATOM     47  N   UNL     1     -10.916   4.711  -3.775  1.00  0.00    -0.354 N 
ATOM     48  C   UNL     1     -11.265   7.995  -1.017  1.00  0.00     0.074 A 
ATOM     49  C   UNL     1      -9.964   8.466  -0.593  1.00  0.00     0.031 C 
ATOM     50  C   UNL     1      -9.852   3.232  -5.069  1.00  0.00     0.029 A 
ATOM     51  C   UNL     1     -11.177   3.674  -4.638  1.00  0.00     0.049 A 
ATOM     52  H   UNL     1     -11.622   5.219  -3.314  1.00  0.00     0.167 HD
ATOM     53  C   UNL     1     -12.443   8.524  -0.605  1.00  0.00     0.037 A 
ATOM     54  C   UNL     1     -12.347   3.136  -5.039  1.00  0.00     0.037 A 
ATOM     55  C   UNL     1     -13.739   8.063  -1.034  1.00  0.00     0.049 A 
ATOM     56  C   UNL     1     -13.643   3.716  -4.538  1.00  0.00     0.074 A 
ATOM     57  C   UNL     1     -14.984   8.566  -0.698  1.00  0.00     0.029 A 
ATOM     58  N   UNL     1     -13.959   6.990  -1.884  1.00  0.00    -0.354 N 
ATOM     59  N   UNL     1     -13.835   4.733  -3.735  1.00  0.00    -0.248 NA
ATOM     60  C   UNL     1     -14.884   3.078  -5.002  1.00  0.00     0.031 C 
ATOM     61  C   UNL     1     -15.958   7.761  -1.295  1.00  0.00     0.029 A 
ATOM     62  C   UNL     1     -15.321   6.797  -2.059  1.00  0.00     0.049 A 
ATOM     63  H   UNL     1     -13.253   6.446  -2.302  1.00  0.00     0.167 HD
ATOM     64  C   UNL     1     -15.212   4.873  -3.615  1.00  0.00     0.074 A 
ATOM     65  C   UNL     1     -15.810   3.845  -4.441  1.00  0.00     0.031 C 
ATOM     66  C   UNL     1     -15.913   5.775  -2.885  1.00  0.00     0.037 A 
BRANCH  53  67
ATOM     67  C   UNL     1     -12.396   9.677   0.358  1.00  0.00     0.064 A 
ATOM     68  C   UNL     1     -12.884   9.536   1.667  1.00  0.00     0.173 A 
ATOM     69  C   UNL     1     -11.946  10.946  -0.038  1.00  0.00     0.173 A 
ATOM     70  F   UNL     1     -13.339   8.348   2.095  1.00  0.00    -0.203 F 
ATOM     71  C   UNL     1     -12.934  10.623   2.536  1.00  0.00     0.198 A 
ATOM     72  C   UNL     1     -11.967  12.023   0.844  1.00  0.00     0.198 A 
ATOM     73  F   UNL     1     -11.467  11.136  -1.277  1.00  0.00    -0.203 F 
ATOM     74  F   UNL     1     -13.440  10.471   3.768  1.00  0.00    -0.200 F 
ATOM     75  C   UNL     1     -12.470  11.863   2.127  1.00  0.00     0.200 A 
ATOM     76  F   UNL     1     -11.498  13.216   0.454  1.00  0.00    -0.200 F 
ATOM     77  F   UNL     1     -12.509  12.906   2.968  1.00  0.00    -0.200 F 
ENDBRANCH  53  67
BRANCH  54  78
ATOM     78  C   UNL     1     -12.337   1.996  -5.994  1.00  0.00     0.064 A 
ATOM     79  C   UNL     1     -11.846   0.736  -5.619  1.00  0.00     0.173 A 
ATOM     80  C   UNL     1     -12.786   2.153  -7.313  1.00  0.00     0.173 A 
ATOM     81  F   UNL     1     -11.402   0.532  -4.370  1.00  0.00    -0.203 F 
ATOM     82  C   UNL     1     -11.777  -0.313  -6.534  1.00  0.00     0.198 A 
ATOM     83  C   UNL     1     -12.745   1.094  -8.219  1.00  0.00     0.198 A 
ATOM     84  F   UNL     1     -13.286   3.330  -7.714  1.00  0.00    -0.203 F 
ATOM     85  F   UNL     1     -11.260  -1.492  -6.161  1.00  0.00    -0.200 F 
ATOM     86  C   UNL     1     -12.230  -0.134  -7.832  1.00  0.00     0.200 A 
ATOM     87  F   UNL     1     -13.207   1.263  -9.465  1.00  0.00    -0.200 F 
ATOM     88  F   UNL     1     -12.170  -1.145  -8.710  1.00  0.00    -0.200 F 
ENDBRANCH  54  78
BRANCH  66  89
ATOM     89  C   UNL     1     -17.414   5.720  -2.947  1.00  0.00     0.064 A 
ATOM     90  C   UNL     1     -18.138   6.762  -3.548  1.00  0.00     0.173 A 
ATOM     91  C   UNL     1     -18.138   4.689  -2.332  1.00  0.00     0.173 A 
ATOM     92  F   UNL     1     -17.495   7.777  -4.144  1.00  0.00    -0.203 F 
ATOM     93  C   UNL     1     -19.530   6.785  -3.510  1.00  0.00     0.198 A 
ATOM     94  C   UNL     1     -19.531   4.699  -2.323  1.00  0.00     0.198 A 
ATOM     95  F   UNL     1     -17.495   3.663  -1.754  1.00  0.00    -0.203 F 
ATOM     96  F   UNL     1     -20.198   7.813  -4.051  1.00  0.00    -0.200 F 
ATOM     97  C   UNL     1     -20.225   5.752  -2.901  1.00  0.00     0.200 A 
ATOM     98  F   UNL     1     -20.203   3.687  -1.755  1.00  0.00    -0.200 F 
ATOM     99  F   UNL     1     -21.565   5.771  -2.869  1.00  0.00    -0.200 F 
ENDBRANCH  66  89
ENDBRANCH  40  41
ENDBRANCH  32  35
ENDBRANCH  30  31
ENDBRANCH  29  30
ENDBRANCH  28  29
ENDBRANCH   1  28
TORSDOF 15
