REMARK SMILES NC(=O)CC[C@@H](C(=O)NCCCCNC(=O)c1ccc(-c2c3nc(c(-c4c(F)c(F)c(F)c(F)c4F)c4ccc([nH]4)c(-c4c(F)c(F)c(F)c(F)c4F)c4nc(c(-c5c(F)c(F)c(F)c(F)c5F)c5ccc2[nH]5)C=C4)C=C3)cc1)N1C(=O)/C(=C/c2ccc(C=O)cc2)SC1=S
REMARK SMILES IDX 11 1 10 2 9 3 7 4 8 5 6 7 5 8 4 9 2 10 1 11 3 14 80 15 81 16
REMARK SMILES IDX 94 17 82 18 83 19 93 20 95 21 84 22 85 23 86 24 92 25 87 26
REMARK SMILES IDX 91 27 88 28 89 29 90 30 12 31 13 32 14 33 15 34 16 36 17 37
REMARK SMILES IDX 18 38 79 39 19 40 78 41 20 42 21 43 22 44 72 45 23 46 77 47
REMARK SMILES IDX 71 48 73 49 24 50 76 51 70 52 69 53 25 55 57 56 37 57 56 58
REMARK SMILES IDX 38 59 41 60 55 61 74 62 39 63 40 64 54 66 75 67 42 68 26 69
REMARK SMILES IDX 27 70 35 71 28 72 29 73 33 74 36 75 30 76 31 77 34 78 32 79
REMARK SMILES IDX 58 80 59 81 67 82 60 83 61 84 65 85 68 86 62 87 63 88 66 89
REMARK SMILES IDX 64 90 43 91 44 92 52 93 45 94 46 95 50 96 53 97 47 98 48 99
REMARK SMILES IDX 51 100 49 101
REMARK H PARENT 9 6 1 12 1 13 14 35 73 54 41 65
REMARK Flexibility Score: inf
ROOT
ATOM      1  C   UNL     1       1.482  -0.064  -3.493  1.00  0.00     0.023 C 
ENDROOT
BRANCH   1   2
ATOM      2  C   UNL     1       2.388  -0.282  -2.279  1.00  0.00     0.116 C 
BRANCH   2   3
ATOM      3  N   UNL     1       3.453   0.701  -2.272  1.00  0.00    -0.354 N 
ATOM      4  C   UNL     1       3.642   1.811  -1.502  1.00  0.00     0.243 C 
ATOM      5  O   UNL     1       4.618   2.512  -1.783  1.00  0.00    -0.273 OA
ATOM      6  H   UNL     1       4.161   0.540  -2.937  1.00  0.00     0.163 HD
BRANCH   4   7
ATOM      7  C   UNL     1       2.720   2.122  -0.292  1.00  0.00     0.181 C 
BRANCH   7   8
ATOM      8  C   UNL     1       1.392   2.851  -0.599  1.00  0.00     0.045 C 
BRANCH   8   9
ATOM      9  C   UNL     1       0.175   2.091  -1.101  1.00  0.00     0.102 C 
BRANCH   9  10
ATOM     10  C   UNL     1      -0.660   1.259  -0.153  1.00  0.00     0.217 C 
ATOM     11  N   UNL     1      -0.048   0.471   0.764  1.00  0.00    -0.370 N 
ATOM     12  H   UNL     1      -0.587  -0.072   1.383  1.00  0.00     0.159 HD
ATOM     13  H   UNL     1       0.935   0.442   0.810  1.00  0.00     0.159 HD
ATOM     14  O   UNL     1      -1.882   1.197  -0.264  1.00  0.00    -0.275 OA
ENDBRANCH   9  10
ENDBRANCH   8   9
ENDBRANCH   7   8
BRANCH   7  15
ATOM     15  N   UNL     1       3.567   2.927   0.642  1.00  0.00    -0.280 N 
ATOM     16  C   UNL     1       3.687   4.297   0.457  1.00  0.00     0.266 C 
ATOM     17  C   UNL     1       4.389   2.388   1.613  1.00  0.00     0.149 C 
ATOM     18  O   UNL     1       3.143   4.975  -0.405  1.00  0.00    -0.268 OA
ATOM     19  C   UNL     1       4.573   4.893   1.483  1.00  0.00     0.081 C 
ATOM     20  S   UNL     1       5.286   3.667   2.436  1.00  0.00    -0.054 SA
ATOM     21  S   UNL     1       4.554   0.781   2.038  1.00  0.00    -0.052 S 
ATOM     22  C   UNL     1       4.681   6.224   1.579  1.00  0.00     0.029 C 
BRANCH  22  23
ATOM     23  C   UNL     1       5.505   6.987   2.512  1.00  0.00    -0.024 A 
ATOM     24  C   UNL     1       4.889   7.815   3.458  1.00  0.00     0.009 A 
ATOM     25  C   UNL     1       6.900   6.981   2.398  1.00  0.00     0.009 A 
ATOM     26  C   UNL     1       5.662   8.636   4.282  1.00  0.00     0.012 A 
ATOM     27  C   UNL     1       7.676   7.804   3.217  1.00  0.00     0.012 A 
ATOM     28  C   UNL     1       7.053   8.633   4.152  1.00  0.00     0.014 A 
BRANCH  28  29
ATOM     29  C   UNL     1       7.878   9.526   4.989  1.00  0.00     0.260 C 
ATOM     30  O   UNL     1       7.386  10.281   5.818  1.00  0.00    -0.298 OA
ENDBRANCH  28  29
ENDBRANCH  22  23
ENDBRANCH   7  15
ENDBRANCH   4   7
ENDBRANCH   2   3
ENDBRANCH   1   2
BRANCH   1  31
ATOM     31  C   UNL     1       1.861  -0.884  -4.718  1.00  0.00     0.023 C 
BRANCH  31  32
ATOM     32  C   UNL     1       1.576  -2.373  -4.574  1.00  0.00     0.116 C 
BRANCH  32  33
ATOM     33  N   UNL     1       0.165  -2.683  -4.370  1.00  0.00    -0.352 N 
ATOM     34  C   UNL     1      -0.582  -3.688  -4.939  1.00  0.00     0.251 C 
ATOM     35  H   UNL     1      -0.316  -2.096  -3.742  1.00  0.00     0.163 HD
ATOM     36  O   UNL     1      -1.785  -3.781  -4.727  1.00  0.00    -0.269 OA
BRANCH  34  37
ATOM     37  C   UNL     1       0.087  -4.624  -5.860  1.00  0.00     0.039 A 
ATOM     38  C   UNL     1      -0.414  -4.767  -7.155  1.00  0.00     0.014 A 
ATOM     39  C   UNL     1       1.272  -5.254  -5.474  1.00  0.00     0.014 A 
ATOM     40  C   UNL     1       0.337  -5.459  -8.103  1.00  0.00     0.010 A 
ATOM     41  C   UNL     1       2.056  -5.872  -6.439  1.00  0.00     0.010 A 
ATOM     42  C   UNL     1       1.604  -5.962  -7.766  1.00  0.00    -0.014 A 
BRANCH  42  43
ATOM     43  C   UNL     1       2.500  -6.553  -8.788  1.00  0.00     0.031 A 
ATOM     44  C   UNL     1       2.919  -7.989  -8.675  1.00  0.00     0.074 A 
ATOM     45  C   UNL     1       3.019  -5.766  -9.751  1.00  0.00     0.049 A 
ATOM     46  N   UNL     1       3.794  -8.654  -9.383  1.00  0.00    -0.248 NA
ATOM     47  C   UNL     1       2.297  -8.771  -7.595  1.00  0.00     0.031 C 
ATOM     48  C   UNL     1       2.739  -4.340  -9.923  1.00  0.00     0.029 A 
ATOM     49  N   UNL     1       3.910  -6.052 -10.754  1.00  0.00    -0.354 N 
ATOM     50  C   UNL     1       3.842  -9.922  -8.823  1.00  0.00     0.074 A 
ATOM     51  C   UNL     1       2.950  -9.919  -7.685  1.00  0.00     0.031 C 
ATOM     52  C   UNL     1       3.432  -3.878 -10.976  1.00  0.00     0.029 A 
ATOM     53  C   UNL     1       4.232  -4.965 -11.530  1.00  0.00     0.049 A 
ATOM     54  H   UNL     1       4.283  -6.951 -10.904  1.00  0.00     0.167 HD
ATOM     55  C   UNL     1       4.550 -10.999  -9.238  1.00  0.00     0.037 A 
ATOM     56  C   UNL     1       5.087  -4.857 -12.565  1.00  0.00     0.037 A 
ATOM     57  C   UNL     1       5.410 -11.007 -10.390  1.00  0.00     0.049 A 
ATOM     58  C   UNL     1       5.846  -6.072 -13.019  1.00  0.00     0.074 A 
ATOM     59  C   UNL     1       6.114 -12.065 -10.936  1.00  0.00     0.029 A 
ATOM     60  N   UNL     1       5.680  -9.896 -11.178  1.00  0.00    -0.354 N 
ATOM     61  N   UNL     1       5.835  -7.285 -12.522  1.00  0.00    -0.248 NA
ATOM     62  C   UNL     1       6.733  -5.905 -14.179  1.00  0.00     0.031 C 
ATOM     63  C   UNL     1       6.835 -11.588 -12.037  1.00  0.00     0.029 A 
ATOM     64  C   UNL     1       6.554 -10.241 -12.196  1.00  0.00     0.049 A 
ATOM     65  H   UNL     1       5.306  -8.997 -11.034  1.00  0.00     0.167 HD
ATOM     66  C   UNL     1       6.700  -8.029 -13.312  1.00  0.00     0.074 A 
ATOM     67  C   UNL     1       7.205  -7.135 -14.334  1.00  0.00     0.031 C 
ATOM     68  C   UNL     1       7.046  -9.334 -13.200  1.00  0.00     0.037 A 
BRANCH  55  69
ATOM     69  C   UNL     1       4.409 -12.260  -8.440  1.00  0.00     0.064 A 
ATOM     70  C   UNL     1       3.223 -13.010  -8.460  1.00  0.00     0.173 A 
ATOM     71  C   UNL     1       5.471 -12.732  -7.655  1.00  0.00     0.173 A 
ATOM     72  F   UNL     1       2.173 -12.592  -9.183  1.00  0.00    -0.203 F 
ATOM     73  C   UNL     1       3.095 -14.168  -7.699  1.00  0.00     0.198 A 
ATOM     74  C   UNL     1       5.349 -13.906  -6.917  1.00  0.00     0.198 A 
ATOM     75  F   UNL     1       6.627 -12.053  -7.602  1.00  0.00    -0.203 F 
ATOM     76  F   UNL     1       1.934 -14.838  -7.693  1.00  0.00    -0.200 F 
ATOM     77  C   UNL     1       4.159 -14.618  -6.933  1.00  0.00     0.200 A 
ATOM     78  F   UNL     1       6.381 -14.344  -6.182  1.00  0.00    -0.200 F 
ATOM     79  F   UNL     1       4.034 -15.733  -6.200  1.00  0.00    -0.200 F 
ENDBRANCH  55  69
BRANCH  56  80
ATOM     80  C   UNL     1       5.253  -3.551 -13.251  1.00  0.00     0.064 A 
ATOM     81  C   UNL     1       4.724  -3.341 -14.531  1.00  0.00     0.173 A 
ATOM     82  C   UNL     1       5.927  -2.486 -12.638  1.00  0.00     0.173 A 
ATOM     83  F   UNL     1       4.087  -4.338 -15.164  1.00  0.00    -0.203 F 
ATOM     84  C   UNL     1       4.875  -2.117 -15.180  1.00  0.00     0.198 A 
ATOM     85  C   UNL     1       6.058  -1.255 -13.278  1.00  0.00     0.198 A 
ATOM     86  F   UNL     1       6.446  -2.636 -11.411  1.00  0.00    -0.203 F 
ATOM     87  F   UNL     1       4.388  -1.953 -16.418  1.00  0.00    -0.200 F 
ATOM     88  C   UNL     1       5.537  -1.073 -14.551  1.00  0.00     0.200 A 
ATOM     89  F   UNL     1       6.687  -0.245 -12.662  1.00  0.00    -0.200 F 
ATOM     90  F   UNL     1       5.676   0.106 -15.172  1.00  0.00    -0.200 F 
ENDBRANCH  56  80
BRANCH  68  91
ATOM     91  C   UNL     1       8.010  -9.875 -14.212  1.00  0.00     0.064 A 
ATOM     92  C   UNL     1       9.377  -9.569 -14.153  1.00  0.00     0.173 A 
ATOM     93  C   UNL     1       7.570 -10.746 -15.220  1.00  0.00     0.173 A 
ATOM     94  F   UNL     1       9.841  -8.728 -13.217  1.00  0.00    -0.203 F 
ATOM     95  C   UNL     1      10.268 -10.106 -15.078  1.00  0.00     0.198 A 
ATOM     96  C   UNL     1       8.468 -11.298 -16.128  1.00  0.00     0.198 A 
ATOM     97  F   UNL     1       6.272 -11.070 -15.314  1.00  0.00    -0.203 F 
ATOM     98  F   UNL     1      11.566  -9.775 -15.025  1.00  0.00    -0.200 F 
ATOM     99  C   UNL     1       9.815 -10.975 -16.059  1.00  0.00     0.200 A 
ATOM    100  F   UNL     1       8.030 -12.145 -17.070  1.00  0.00    -0.200 F 
ATOM    101  F   UNL     1      10.676 -11.498 -16.943  1.00  0.00    -0.200 F 
ENDBRANCH  68  91
ENDBRANCH  42  43
ENDBRANCH  34  37
ENDBRANCH  32  33
ENDBRANCH  31  32
ENDBRANCH   1  31
TORSDOF 17
