REMARK SMILES CC1=C(C)C[C@@H](C(=O)NCCCCNC(=O)c2ccc(-c3c4nc(c(-c5c(F)c(F)c(F)c(F)c5F)c5ccc([nH]5)c(-c5c(F)c(F)c(F)c(F)c5F)c5nc(c(-c6c(F)c(F)c(F)c(F)c6F)c6ccc3[nH]6)C=C5)C=C4)cc2)[C@@H](C(=O)NCC[NH+]2CCOCC2)C1
REMARK SMILES IDX 10 1 9 2 7 3 8 4 6 6 1 7 2 8 3 9 92 10 4 11 5 12 80 13 81 14
REMARK SMILES IDX 82 15 83 16 84 18 85 19 86 20 87 21 91 22 88 24 90 25 89 26
REMARK SMILES IDX 11 27 12 28 13 29 14 30 15 31 16 33 17 34 18 35 79 36 19 37
REMARK SMILES IDX 78 38 20 39 21 40 22 41 72 42 23 43 77 44 71 45 73 46 24 47
REMARK SMILES IDX 76 48 70 49 69 50 25 52 57 53 37 54 56 55 38 56 41 57 55 58
REMARK SMILES IDX 74 59 39 60 40 61 54 63 75 64 42 65 26 66 27 67 35 68 28 69
REMARK SMILES IDX 29 70 33 71 36 72 30 73 31 74 34 75 32 76 58 77 59 78 67 79
REMARK SMILES IDX 60 80 61 81 65 82 68 83 62 84 63 85 66 86 64 87 43 88 44 89
REMARK SMILES IDX 52 90 45 91 46 92 50 93 53 94 47 95 48 96 51 97 49 98
REMARK H PARENT 9 5 83 17 86 23 14 32 73 51 41 62
REMARK Flexibility Score: inf
ROOT
ATOM      1  C   UNL     1       1.232   2.141   3.080  1.00  0.00     0.116 C 
ENDROOT
BRANCH   1   2
ATOM      2  N   UNL     1       0.562   3.397   3.314  1.00  0.00    -0.356 N 
ATOM      3  C   UNL     1      -0.235   4.165   2.527  1.00  0.00     0.224 C 
ATOM      4  O   UNL     1      -0.764   5.146   3.068  1.00  0.00    -0.275 OA
ATOM      5  H   UNL     1       0.710   3.767   4.214  1.00  0.00     0.163 HD
BRANCH   3   6
ATOM      6  C   UNL     1      -0.549   3.871   1.048  1.00  0.00     0.095 C 
ATOM      7  C   UNL     1       0.973  -0.003  -0.419  1.00  0.00     0.039 C 
ATOM      8  C   UNL     1       0.286   1.306  -0.105  1.00  0.00    -0.074 C 
ATOM      9  C   UNL     1      -0.911   1.380   0.517  1.00  0.00    -0.074 C 
ATOM     10  C   UNL     1       1.107   2.537  -0.454  1.00  0.00     0.045 C 
ATOM     11  C   UNL     1      -1.741   0.197   0.953  1.00  0.00     0.039 C 
ATOM     12  C   UNL     1      -1.520   2.700   0.912  1.00  0.00     0.045 C 
ATOM     13  C   UNL     1       0.577   3.915  -0.009  1.00  0.00     0.095 C 
BRANCH  13  14
ATOM     14  C   UNL     1       1.718   4.820   0.434  1.00  0.00     0.224 C 
ATOM     15  O   UNL     1       1.957   5.099   1.609  1.00  0.00    -0.275 OA
ATOM     16  N   UNL     1       2.600   5.365  -0.407  1.00  0.00    -0.350 N 
ATOM     17  H   UNL     1       3.374   5.721   0.086  1.00  0.00     0.163 HD
BRANCH  16  18
ATOM     18  C   UNL     1       2.753   5.587  -1.821  1.00  0.00     0.177 C 
BRANCH  18  19
ATOM     19  C   UNL     1       3.231   7.049  -2.039  1.00  0.00     0.283 C 
BRANCH  19  20
ATOM     20  N   UNL     1       4.211   7.609  -1.104  1.00  0.00    -0.330 N 
ATOM     21  C   UNL     1       5.418   6.897  -0.699  1.00  0.00     0.291 C 
ATOM     22  C   UNL     1       3.796   8.649  -0.164  1.00  0.00     0.291 C 
ATOM     23  H   UNL     1       4.579   8.075  -1.933  1.00  0.00     0.348 HD
ATOM     24  C   UNL     1       5.499   6.569   0.814  1.00  0.00     0.221 C 
ATOM     25  C   UNL     1       3.808   8.171   1.294  1.00  0.00     0.221 C 
ATOM     26  O   UNL     1       5.100   7.661   1.650  1.00  0.00    -0.370 OA
ENDBRANCH  19  20
ENDBRANCH  18  19
ENDBRANCH  16  18
ENDBRANCH  13  14
ENDBRANCH   3   6
ENDBRANCH   1   2
BRANCH   1  27
ATOM     27  C   UNL     1       2.716   2.254   2.733  1.00  0.00     0.023 C 
BRANCH  27  28
ATOM     28  C   UNL     1       3.618   2.687   3.885  1.00  0.00     0.023 C 
BRANCH  28  29
ATOM     29  C   UNL     1       3.488   1.823   5.128  1.00  0.00     0.116 C 
BRANCH  29  30
ATOM     30  N   UNL     1       3.657   0.401   4.857  1.00  0.00    -0.352 N 
ATOM     31  C   UNL     1       4.181  -0.567   5.673  1.00  0.00     0.251 C 
ATOM     32  H   UNL     1       3.354   0.096   3.971  1.00  0.00     0.163 HD
ATOM     33  O   UNL     1       4.365  -1.706   5.255  1.00  0.00    -0.269 OA
BRANCH  31  34
ATOM     34  C   UNL     1       4.554  -0.210   7.053  1.00  0.00     0.039 A 
ATOM     35  C   UNL     1       5.797  -0.615   7.541  1.00  0.00     0.014 A 
ATOM     36  C   UNL     1       3.692   0.553   7.845  1.00  0.00     0.014 A 
ATOM     37  C   UNL     1       6.194  -0.213   8.814  1.00  0.00     0.010 A 
ATOM     38  C   UNL     1       4.129   1.034   9.070  1.00  0.00     0.010 A 
ATOM     39  C   UNL     1       5.373   0.635   9.577  1.00  0.00    -0.014 A 
BRANCH  39  40
ATOM     40  C   UNL     1       5.785   1.080  10.928  1.00  0.00     0.031 A 
ATOM     41  C   UNL     1       4.978   0.668  12.127  1.00  0.00     0.074 A 
ATOM     42  C   UNL     1       6.851   1.891  11.064  1.00  0.00     0.049 A 
ATOM     43  N   UNL     1       5.160   0.963  13.388  1.00  0.00    -0.248 NA
ATOM     44  C   UNL     1       3.787  -0.159  11.872  1.00  0.00     0.031 C 
ATOM     45  C   UNL     1       7.663   2.413   9.964  1.00  0.00     0.029 A 
ATOM     46  N   UNL     1       7.431   2.420  12.188  1.00  0.00    -0.354 N 
ATOM     47  C   UNL     1       4.101   0.377  14.068  1.00  0.00     0.074 A 
ATOM     48  C   UNL     1       3.244  -0.233  13.077  1.00  0.00     0.031 C 
ATOM     49  C   UNL     1       8.657   3.161  10.469  1.00  0.00     0.029 A 
ATOM     50  C   UNL     1       8.533   3.195  11.923  1.00  0.00     0.049 A 
ATOM     51  H   UNL     1       7.090   2.260  13.097  1.00  0.00     0.167 HD
ATOM     52  C   UNL     1       3.882   0.324  15.403  1.00  0.00     0.037 A 
ATOM     53  C   UNL     1       9.353   3.852  12.764  1.00  0.00     0.037 A 
ATOM     54  C   UNL     1       4.759   0.905  16.382  1.00  0.00     0.049 A 
ATOM     55  C   UNL     1       9.106   3.752  14.245  1.00  0.00     0.074 A 
ATOM     56  C   UNL     1       4.673   0.850  17.761  1.00  0.00     0.029 A 
ATOM     57  N   UNL     1       5.888   1.655  16.080  1.00  0.00    -0.354 N 
ATOM     58  N   UNL     1       8.153   3.118  14.885  1.00  0.00    -0.248 NA
ATOM     59  C   UNL     1      10.059   4.446  15.121  1.00  0.00     0.031 C 
ATOM     60  C   UNL     1       5.723   1.607  18.294  1.00  0.00     0.029 A 
ATOM     61  C   UNL     1       6.496   2.086  17.248  1.00  0.00     0.049 A 
ATOM     62  H   UNL     1       6.209   1.851  15.170  1.00  0.00     0.167 HD
ATOM     63  C   UNL     1       8.405   3.312  16.236  1.00  0.00     0.074 A 
ATOM     64  C   UNL     1       9.613   4.107  16.323  1.00  0.00     0.031 C 
ATOM     65  C   UNL     1       7.701   2.873  17.310  1.00  0.00     0.037 A 
BRANCH  52  66
ATOM     66  C   UNL     1       2.648  -0.392  15.874  1.00  0.00     0.064 A 
ATOM     67  C   UNL     1       2.503  -1.782  15.739  1.00  0.00     0.173 A 
ATOM     68  C   UNL     1       1.603   0.317  16.485  1.00  0.00     0.173 A 
ATOM     69  F   UNL     1       3.466  -2.508  15.150  1.00  0.00    -0.203 F 
ATOM     70  C   UNL     1       1.345  -2.429  16.163  1.00  0.00     0.198 A 
ATOM     71  C   UNL     1       0.461  -0.337  16.939  1.00  0.00     0.198 A 
ATOM     72  F   UNL     1       1.689   1.647  16.643  1.00  0.00    -0.203 F 
ATOM     73  F   UNL     1       1.206  -3.747  15.969  1.00  0.00    -0.200 F 
ATOM     74  C   UNL     1       0.329  -1.707  16.770  1.00  0.00     0.200 A 
ATOM     75  F   UNL     1      -0.515   0.360  17.537  1.00  0.00    -0.200 F 
ATOM     76  F   UNL     1      -0.783  -2.331  17.182  1.00  0.00    -0.200 F 
ENDBRANCH  52  66
BRANCH  53  77
ATOM     77  C   UNL     1      10.504   4.622  12.227  1.00  0.00     0.064 A 
ATOM     78  C   UNL     1      11.821   4.186  12.428  1.00  0.00     0.173 A 
ATOM     79  C   UNL     1      10.314   5.804  11.496  1.00  0.00     0.173 A 
ATOM     80  F   UNL     1      12.055   3.069  13.134  1.00  0.00    -0.203 F 
ATOM     81  C   UNL     1      12.904   4.913  11.940  1.00  0.00     0.198 A 
ATOM     82  C   UNL     1      11.397   6.516  10.984  1.00  0.00     0.198 A 
ATOM     83  F   UNL     1       9.074   6.261  11.268  1.00  0.00    -0.203 F 
ATOM     84  F   UNL     1      14.154   4.497  12.187  1.00  0.00    -0.200 F 
ATOM     85  C   UNL     1      12.691   6.075  11.213  1.00  0.00     0.200 A 
ATOM     86  F   UNL     1      11.186   7.629  10.268  1.00  0.00    -0.200 F 
ATOM     87  F   UNL     1      13.733   6.772  10.740  1.00  0.00    -0.200 F 
ENDBRANCH  53  77
BRANCH  65  88
ATOM     88  C   UNL     1       8.241   3.215  18.668  1.00  0.00     0.064 A 
ATOM     89  C   UNL     1       8.209   4.525  19.167  1.00  0.00     0.173 A 
ATOM     90  C   UNL     1       8.769   2.210  19.493  1.00  0.00     0.173 A 
ATOM     91  F   UNL     1       7.726   5.524  18.412  1.00  0.00    -0.203 F 
ATOM     92  C   UNL     1       8.716   4.822  20.429  1.00  0.00     0.198 A 
ATOM     93  C   UNL     1       9.243   2.505  20.767  1.00  0.00     0.198 A 
ATOM     94  F   UNL     1       8.814   0.938  19.067  1.00  0.00    -0.203 F 
ATOM     95  F   UNL     1       8.727   6.090  20.862  1.00  0.00    -0.200 F 
ATOM     96  C   UNL     1       9.226   3.812  21.230  1.00  0.00     0.200 A 
ATOM     97  F   UNL     1       9.721   1.524  21.547  1.00  0.00    -0.200 F 
ATOM     98  F   UNL     1       9.710   4.099  22.447  1.00  0.00    -0.200 F 
ENDBRANCH  65  88
ENDBRANCH  39  40
ENDBRANCH  31  34
ENDBRANCH  29  30
ENDBRANCH  28  29
ENDBRANCH  27  28
ENDBRANCH   1  27
TORSDOF 15
