REMARK SMILES Cc1nc[nH]c1C(=O)N1CCC2(CC1)C[C@@H](C(=O)NCCCCNC(=O)c1ccc(-c3c4nc(c(-c5c(F)c(F)c(F)c(F)c5F)c5ccc([nH]5)c(-c5c(F)c(F)c(F)c(F)c5F)c5nc(c(-c6c(F)c(F)c(F)c(F)c6F)c6ccc3[nH]6)C=C5)C=C4)cc1)N(C(=O)C1CC1)C2
REMARK SMILES IDX 21 1 20 2 19 3 17 4 18 5 16 7 7 8 8 9 9 10 10 11 14 12 11 13
REMARK SMILES IDX 13 14 12 15 15 16 96 17 90 18 6 19 1 20 2 21 3 22 4 23 5 24
REMARK SMILES IDX 91 26 92 27 93 28 94 29 95 30 22 31 23 32 24 33 25 34 26 36
REMARK SMILES IDX 27 37 28 38 89 39 29 40 88 41 30 42 31 43 32 44 82 45 33 46
REMARK SMILES IDX 87 47 81 48 83 49 34 50 86 51 80 52 79 53 35 55 67 56 47 57
REMARK SMILES IDX 66 58 48 59 51 60 65 61 84 62 49 63 50 64 64 66 85 67 52 68
REMARK SMILES IDX 36 69 37 70 45 71 38 72 39 73 43 74 46 75 40 76 41 77 44 78
REMARK SMILES IDX 42 79 68 80 69 81 77 82 70 83 71 84 75 85 78 86 72 87 73 88
REMARK SMILES IDX 76 89 74 90 53 91 54 92 62 93 55 94 56 95 60 96 63 97 57 98
REMARK SMILES IDX 58 99 61 100 59 101
REMARK H PARENT 19 6 5 25 24 35 83 54 51 65
REMARK Flexibility Score: inf
ROOT
ATOM      1  C   UNL     1       6.504  -3.903   2.819  1.00  0.00     0.023 C 
ENDROOT
BRANCH   1   2
ATOM      2  C   UNL     1       6.556  -2.691   1.904  1.00  0.00     0.116 C 
BRANCH   2   3
ATOM      3  N   UNL     1       7.769  -2.466   1.171  1.00  0.00    -0.354 N 
ATOM      4  C   UNL     1       7.889  -2.292  -0.186  1.00  0.00     0.242 C 
ATOM      5  O   UNL     1       8.776  -1.515  -0.557  1.00  0.00    -0.273 OA
ATOM      6  H   UNL     1       8.601  -2.433   1.696  1.00  0.00     0.163 HD
BRANCH   4   7
ATOM      7  C   UNL     1       6.884  -2.893  -1.222  1.00  0.00     0.175 C 
ATOM      8  C   UNL     1       0.165  -2.341  -0.446  1.00  0.00     0.272 C 
ATOM      9  O   UNL     1      -0.630  -3.235  -0.738  1.00  0.00    -0.267 OA
ATOM     10  N   UNL     1       1.530  -2.551  -0.547  1.00  0.00    -0.337 N 
ATOM     11  C   UNL     1       2.025  -3.433  -1.591  1.00  0.00     0.120 C 
ATOM     12  C   UNL     1       2.434  -2.321   0.564  1.00  0.00     0.120 C 
ATOM     13  C   UNL     1       3.332  -2.863  -2.165  1.00  0.00     0.030 C 
ATOM     14  C   UNL     1       3.776  -1.821   0.051  1.00  0.00     0.030 C 
ATOM     15  C   UNL     1       4.411  -2.707  -1.059  1.00  0.00    -0.006 C 
ATOM     16  C   UNL     1       5.693  -2.003  -1.578  1.00  0.00     0.044 C 
ATOM     17  C   UNL     1       4.881  -4.125  -0.651  1.00  0.00     0.127 C 
ATOM     18  N   UNL     1       6.315  -4.189  -0.873  1.00  0.00    -0.330 N 
BRANCH   8  19
ATOM     19  C   UNL     1      -0.310  -1.023  -0.086  1.00  0.00     0.127 A 
ATOM     20  C   UNL     1       1.580   0.757  -0.406  1.00  0.00     0.069 C 
ATOM     21  C   UNL     1       0.229   0.259  -0.073  1.00  0.00     0.068 A 
ATOM     22  N   UNL     1      -0.735   1.192   0.243  1.00  0.00    -0.241 NA
ATOM     23  C   UNL     1      -1.852   0.521   0.366  1.00  0.00     0.197 A 
ATOM     24  N   UNL     1      -1.644  -0.812   0.202  1.00  0.00    -0.340 N 
ATOM     25  H   UNL     1      -2.332  -1.513   0.277  1.00  0.00     0.168 HD
ENDBRANCH   8  19
BRANCH  18  26
ATOM     26  C   UNL     1       7.136  -5.300  -1.018  1.00  0.00     0.226 C 
ATOM     27  O   UNL     1       8.267  -5.190  -1.472  1.00  0.00    -0.275 OA
BRANCH  26  28
ATOM     28  C   UNL     1       6.729  -6.673  -0.608  1.00  0.00     0.079 C 
ATOM     29  C   UNL     1       5.488  -7.147   0.085  1.00  0.00     0.014 C 
ATOM     30  C   UNL     1       5.682  -7.440  -1.377  1.00  0.00     0.014 C 
ENDBRANCH  26  28
ENDBRANCH  18  26
ENDBRANCH   4   7
ENDBRANCH   2   3
ENDBRANCH   1   2
BRANCH   1  31
ATOM     31  C   UNL     1       6.744  -3.589   4.290  1.00  0.00     0.023 C 
BRANCH  31  32
ATOM     32  C   UNL     1       5.809  -2.555   4.915  1.00  0.00     0.116 C 
BRANCH  32  33
ATOM     33  N   UNL     1       4.404  -2.938   4.947  1.00  0.00    -0.352 N 
ATOM     34  C   UNL     1       3.497  -2.740   5.967  1.00  0.00     0.251 C 
ATOM     35  H   UNL     1       4.061  -3.393   4.144  1.00  0.00     0.163 HD
ATOM     36  O   UNL     1       2.353  -3.172   5.881  1.00  0.00    -0.269 OA
BRANCH  34  37
ATOM     37  C   UNL     1       3.941  -2.039   7.193  1.00  0.00     0.039 A 
ATOM     38  C   UNL     1       3.736  -2.646   8.434  1.00  0.00     0.014 A 
ATOM     39  C   UNL     1       4.635  -0.830   7.105  1.00  0.00     0.014 A 
ATOM     40  C   UNL     1       4.297  -2.076   9.579  1.00  0.00     0.010 A 
ATOM     41  C   UNL     1       5.274  -0.320   8.230  1.00  0.00     0.010 A 
ATOM     42  C   UNL     1       5.106  -0.931   9.482  1.00  0.00    -0.014 A 
BRANCH  42  43
ATOM     43  C   UNL     1       5.761  -0.348  10.683  1.00  0.00     0.031 A 
ATOM     44  C   UNL     1       5.415   1.050  11.125  1.00  0.00     0.074 A 
ATOM     45  C   UNL     1       6.697  -1.051  11.351  1.00  0.00     0.049 A 
ATOM     46  N   UNL     1       5.889   1.744  12.129  1.00  0.00    -0.248 NA
ATOM     47  C   UNL     1       4.429   1.776  10.310  1.00  0.00     0.031 C 
ATOM     48  C   UNL     1       7.169  -2.389  10.991  1.00  0.00     0.029 A 
ATOM     49  N   UNL     1       7.423  -0.736  12.473  1.00  0.00    -0.354 N 
ATOM     50  C   UNL     1       5.267   2.984  12.057  1.00  0.00     0.074 A 
ATOM     51  C   UNL     1       4.441   2.975  10.870  1.00  0.00     0.031 C 
ATOM     52  C   UNL     1       8.075  -2.795  11.895  1.00  0.00     0.029 A 
ATOM     53  C   UNL     1       8.276  -1.735  12.879  1.00  0.00     0.049 A 
ATOM     54  H   UNL     1       7.340   0.124  12.944  1.00  0.00     0.167 HD
ATOM     55  C   UNL     1       5.347   4.025  12.920  1.00  0.00     0.037 A 
ATOM     56  C   UNL     1       9.119  -1.790  13.928  1.00  0.00     0.037 A 
ATOM     57  C   UNL     1       6.152   4.025  14.112  1.00  0.00     0.049 A 
ATOM     58  C   UNL     1       9.188  -0.620  14.874  1.00  0.00     0.074 A 
ATOM     59  C   UNL     1       6.266   5.009  15.078  1.00  0.00     0.029 A 
ATOM     60  N   UNL     1       6.985   2.985  14.501  1.00  0.00    -0.354 N 
ATOM     61  N   UNL     1       8.536   0.517  14.839  1.00  0.00    -0.248 NA
ATOM     62  C   UNL     1      10.100  -0.750  16.019  1.00  0.00     0.031 C 
ATOM     63  C   UNL     1       7.207   4.587  16.024  1.00  0.00     0.029 A 
ATOM     64  C   UNL     1       7.630   3.312  15.684  1.00  0.00     0.049 A 
ATOM     65  H   UNL     1       7.102   2.140  14.009  1.00  0.00     0.167 HD
ATOM     66  C   UNL     1       8.928   1.219  15.971  1.00  0.00     0.074 A 
ATOM     67  C   UNL     1       9.862   0.372  16.682  1.00  0.00     0.031 C 
ATOM     68  C   UNL     1       8.548   2.453  16.387  1.00  0.00     0.037 A 
BRANCH  55  69
ATOM     69  C   UNL     1       4.533   5.249  12.604  1.00  0.00     0.064 A 
ATOM     70  C   UNL     1       3.130   5.233  12.654  1.00  0.00     0.173 A 
ATOM     71  C   UNL     1       5.162   6.457  12.270  1.00  0.00     0.173 A 
ATOM     72  F   UNL     1       2.477   4.101  12.956  1.00  0.00    -0.203 F 
ATOM     73  C   UNL     1       2.388   6.370  12.345  1.00  0.00     0.198 A 
ATOM     74  C   UNL     1       4.417   7.602  11.997  1.00  0.00     0.198 A 
ATOM     75  F   UNL     1       6.500   6.531  12.211  1.00  0.00    -0.203 F 
ATOM     76  F   UNL     1       1.049   6.313  12.340  1.00  0.00    -0.200 F 
ATOM     77  C   UNL     1       3.032   7.555  12.025  1.00  0.00     0.200 A 
ATOM     78  F   UNL     1       5.041   8.751  11.701  1.00  0.00    -0.200 F 
ATOM     79  F   UNL     1       2.316   8.651  11.734  1.00  0.00    -0.200 F 
ENDBRANCH  55  69
BRANCH  56  80
ATOM     80  C   UNL     1       9.938  -3.009  14.169  1.00  0.00     0.064 A 
ATOM     81  C   UNL     1       9.699  -3.830  15.281  1.00  0.00     0.173 A 
ATOM     82  C   UNL     1      10.987  -3.366  13.311  1.00  0.00     0.173 A 
ATOM     83  F   UNL     1       8.719  -3.521  16.143  1.00  0.00    -0.203 F 
ATOM     84  C   UNL     1      10.497  -4.943  15.541  1.00  0.00     0.198 A 
ATOM     85  C   UNL     1      11.764  -4.498  13.554  1.00  0.00     0.198 A 
ATOM     86  F   UNL     1      11.255  -2.620  12.229  1.00  0.00    -0.203 F 
ATOM     87  F   UNL     1      10.282  -5.675  16.643  1.00  0.00    -0.200 F 
ATOM     88  C   UNL     1      11.525  -5.279  14.675  1.00  0.00     0.200 A 
ATOM     89  F   UNL     1      12.747  -4.828  12.706  1.00  0.00    -0.200 F 
ATOM     90  F   UNL     1      12.292  -6.348  14.925  1.00  0.00    -0.200 F 
ENDBRANCH  56  80
BRANCH  68  91
ATOM     91  C   UNL     1       9.098   2.937  17.699  1.00  0.00     0.064 A 
ATOM     92  C   UNL     1      10.453   3.262  17.864  1.00  0.00     0.173 A 
ATOM     93  C   UNL     1       8.248   3.093  18.806  1.00  0.00     0.173 A 
ATOM     94  F   UNL     1      11.310   3.120  16.842  1.00  0.00    -0.203 F 
ATOM     95  C   UNL     1      10.943   3.683  19.097  1.00  0.00     0.198 A 
ATOM     96  C   UNL     1       8.735   3.550  20.027  1.00  0.00     0.198 A 
ATOM     97  F   UNL     1       6.941   2.807  18.702  1.00  0.00    -0.203 F 
ATOM     98  F   UNL     1      12.253   3.924  19.247  1.00  0.00    -0.200 F 
ATOM     99  C   UNL     1      10.084   3.833  20.175  1.00  0.00     0.200 A 
ATOM    100  F   UNL     1       7.899   3.711  21.062  1.00  0.00    -0.200 F 
ATOM    101  F   UNL     1      10.558   4.239  21.361  1.00  0.00    -0.200 F 
ENDBRANCH  68  91
ENDBRANCH  42  43
ENDBRANCH  34  37
ENDBRANCH  32  33
ENDBRANCH  31  32
ENDBRANCH   1  31
TORSDOF 14
