REMARK SMILES COc1ccc(-c2nc(SCC(=O)NCCCCNC(=O)c3ccc(-c4c5nc(c(-c6c(F)c(F)c(F)c(F)c6F)c6ccc([nH]6)c(-c6c(F)c(F)c(F)c(F)c6F)c6nc(c(-c7c(F)c(F)c(F)c(F)c7F)c7ccc4[nH]7)C=C6)C=C5)cc3)[nH]c2C)cc1
REMARK SMILES IDX 15 1 14 2 12 3 13 4 11 6 10 7 9 8 7 9 8 10 86 11 85 12 87 13
REMARK SMILES IDX 6 15 3 16 4 17 89 18 5 19 88 20 2 21 1 22 16 23 17 24 18 25
REMARK SMILES IDX 19 26 20 27 21 29 22 30 23 31 84 32 24 33 83 34 25 35 26 36
REMARK SMILES IDX 27 37 77 38 28 39 82 40 76 41 78 42 29 43 81 44 75 45 74 46
REMARK SMILES IDX 30 48 62 49 42 50 61 51 43 52 46 53 60 54 79 55 44 56 45 57
REMARK SMILES IDX 59 59 80 60 47 61 31 62 32 63 40 64 33 65 34 66 38 67 41 68
REMARK SMILES IDX 35 69 36 70 39 71 37 72 63 73 64 74 72 75 65 76 66 77 70 78
REMARK SMILES IDX 73 79 67 80 68 81 71 82 69 83 48 84 49 85 57 86 50 87 51 88
REMARK SMILES IDX 55 89 58 90 52 91 53 92 56 93 54 94
REMARK H PARENT 14 5 85 14 19 28 78 47 46 58
REMARK Flexibility Score: inf
ROOT
ATOM      1  C   UNL     1      -0.802  10.130  -4.877  1.00  0.00     0.116 C 
ENDROOT
BRANCH   1   2
ATOM      2  N   UNL     1      -1.273   9.088  -3.989  1.00  0.00    -0.355 N 
ATOM      3  C   UNL     1      -0.719   8.591  -2.844  1.00  0.00     0.230 C 
ATOM      4  O   UNL     1      -1.373   7.737  -2.238  1.00  0.00    -0.274 OA
ATOM      5  H   UNL     1      -2.126   8.672  -4.252  1.00  0.00     0.163 HD
BRANCH   3   6
ATOM      6  C   UNL     1       0.554   9.181  -2.261  1.00  0.00     0.178 C 
BRANCH   6   7
ATOM      7  S   UNL     1       2.009   9.079  -3.338  1.00  0.00    -0.078 SA
BRANCH   7   8
ATOM      8  C   UNL     1       2.214   7.384  -3.501  1.00  0.00     0.166 A 
ATOM      9  C   UNL     1       2.137   5.266  -3.321  1.00  0.00     0.092 A 
ATOM     10  N   UNL     1       1.550   6.436  -2.898  1.00  0.00    -0.222 NA
ATOM     11  C   UNL     1       3.150   5.519  -4.231  1.00  0.00     0.040 A 
ATOM     12  N   UNL     1       3.178   6.891  -4.327  1.00  0.00    -0.337 N 
ATOM     13  C   UNL     1       4.071   4.662  -5.010  1.00  0.00     0.067 C 
ATOM     14  H   UNL     1       3.785   7.421  -4.891  1.00  0.00     0.168 HD
BRANCH   9  15
ATOM     15  C   UNL     1       1.716   3.973  -2.829  1.00  0.00     0.002 A 
ATOM     16  C   UNL     1       0.863   1.519  -1.780  1.00  0.00     0.118 A 
ATOM     17  C   UNL     1      -0.048   2.365  -2.412  1.00  0.00     0.047 A 
ATOM     18  C   UNL     1       2.207   1.883  -1.696  1.00  0.00     0.047 A 
ATOM     19  C   UNL     1       0.371   3.598  -2.918  1.00  0.00     0.014 A 
ATOM     20  C   UNL     1       2.631   3.109  -2.216  1.00  0.00     0.014 A 
BRANCH  16  21
ATOM     21  O   UNL     1       0.365   0.332  -1.313  1.00  0.00    -0.497 OA
ATOM     22  C   UNL     1       0.854  -0.028  -0.024  1.00  0.00     0.278 C 
ENDBRANCH  16  21
ENDBRANCH   9  15
ENDBRANCH   7   8
ENDBRANCH   6   7
ENDBRANCH   3   6
ENDBRANCH   1   2
BRANCH   1  23
ATOM     23  C   UNL     1      -0.274   9.553  -6.191  1.00  0.00     0.023 C 
BRANCH  23  24
ATOM     24  C   UNL     1      -1.329   8.840  -7.043  1.00  0.00     0.023 C 
BRANCH  24  25
ATOM     25  C   UNL     1      -2.536   9.688  -7.426  1.00  0.00     0.116 C 
BRANCH  25  26
ATOM     26  N   UNL     1      -2.179  10.858  -8.213  1.00  0.00    -0.352 N 
ATOM     27  C   UNL     1      -2.760  11.339  -9.361  1.00  0.00     0.251 C 
ATOM     28  H   UNL     1      -1.415  11.379  -7.876  1.00  0.00     0.163 HD
ATOM     29  O   UNL     1      -2.243  12.268  -9.974  1.00  0.00    -0.269 OA
BRANCH  27  30
ATOM     30  C   UNL     1      -3.996  10.713  -9.878  1.00  0.00     0.039 A 
ATOM     31  C   UNL     1      -4.081  10.409 -11.239  1.00  0.00     0.014 A 
ATOM     32  C   UNL     1      -5.059  10.412  -9.023  1.00  0.00     0.014 A 
ATOM     33  C   UNL     1      -5.205   9.740 -11.730  1.00  0.00     0.010 A 
ATOM     34  C   UNL     1      -6.143   9.680  -9.498  1.00  0.00     0.010 A 
ATOM     35  C   UNL     1      -6.227   9.336 -10.856  1.00  0.00    -0.014 A 
BRANCH  35  36
ATOM     36  C   UNL     1      -7.396   8.555 -11.339  1.00  0.00     0.031 A 
ATOM     37  C   UNL     1      -8.779   9.137 -11.249  1.00  0.00     0.074 A 
ATOM     38  C   UNL     1      -7.221   7.298 -11.791  1.00  0.00     0.049 A 
ATOM     39  N   UNL     1      -9.932   8.583 -11.530  1.00  0.00    -0.248 NA
ATOM     40  C   UNL     1      -8.882  10.516 -10.748  1.00  0.00     0.031 C 
ATOM     41  C   UNL     1      -5.935   6.607 -11.893  1.00  0.00     0.029 A 
ATOM     42  N   UNL     1      -8.131   6.373 -12.239  1.00  0.00    -0.354 N 
ATOM     43  C   UNL     1     -10.893   9.539 -11.229  1.00  0.00     0.074 A 
ATOM     44  C   UNL     1     -10.194  10.685 -10.688  1.00  0.00     0.031 C 
ATOM     45  C   UNL     1      -6.135   5.377 -12.392  1.00  0.00     0.029 A 
ATOM     46  C   UNL     1      -7.565   5.176 -12.605  1.00  0.00     0.049 A 
ATOM     47  H   UNL     1      -9.098   6.551 -12.293  1.00  0.00     0.167 HD
ATOM     48  C   UNL     1     -12.234   9.477 -11.409  1.00  0.00     0.037 A 
ATOM     49  C   UNL     1      -8.138   4.041 -13.051  1.00  0.00     0.037 A 
ATOM     50  C   UNL     1     -12.924   8.341 -11.963  1.00  0.00     0.049 A 
ATOM     51  C   UNL     1      -9.633   3.988 -13.216  1.00  0.00     0.074 A 
ATOM     52  C   UNL     1     -14.274   8.198 -12.231  1.00  0.00     0.029 A 
ATOM     53  N   UNL     1     -12.315   7.150 -12.332  1.00  0.00    -0.354 N 
ATOM     54  N   UNL     1     -10.526   4.920 -12.988  1.00  0.00    -0.248 NA
ATOM     55  C   UNL     1     -10.200   2.723 -13.707  1.00  0.00     0.031 C 
ATOM     56  C   UNL     1     -14.489   6.903 -12.714  1.00  0.00     0.029 A 
ATOM     57  C   UNL     1     -13.266   6.259 -12.803  1.00  0.00     0.049 A 
ATOM     58  H   UNL     1     -11.350   6.965 -12.267  1.00  0.00     0.167 HD
ATOM     59  C   UNL     1     -11.752   4.370 -13.339  1.00  0.00     0.074 A 
ATOM     60  C   UNL     1     -11.486   3.025 -13.807  1.00  0.00     0.031 C 
ATOM     61  C   UNL     1     -12.985   4.929 -13.282  1.00  0.00     0.037 A 
BRANCH  48  62
ATOM     62  C   UNL     1     -13.044  10.674 -11.001  1.00  0.00     0.064 A 
ATOM     63  C   UNL     1     -12.962  11.890 -11.697  1.00  0.00     0.173 A 
ATOM     64  C   UNL     1     -13.935  10.598  -9.920  1.00  0.00     0.173 A 
ATOM     65  F   UNL     1     -12.118  12.021 -12.731  1.00  0.00    -0.203 F 
ATOM     66  C   UNL     1     -13.714  12.994 -11.304  1.00  0.00     0.198 A 
ATOM     67  C   UNL     1     -14.712  11.694  -9.551  1.00  0.00     0.198 A 
ATOM     68  F   UNL     1     -14.060   9.458  -9.224  1.00  0.00    -0.203 F 
ATOM     69  F   UNL     1     -13.575  14.161 -11.949  1.00  0.00    -0.200 F 
ATOM     70  C   UNL     1     -14.593  12.893 -10.237  1.00  0.00     0.200 A 
ATOM     71  F   UNL     1     -15.572  11.590  -8.529  1.00  0.00    -0.200 F 
ATOM     72  F   UNL     1     -15.321  13.955  -9.864  1.00  0.00    -0.200 F 
ENDBRANCH  48  62
BRANCH  49  73
ATOM     73  C   UNL     1      -7.293   2.867 -13.398  1.00  0.00     0.064 A 
ATOM     74  C   UNL     1      -7.160   2.448 -14.729  1.00  0.00     0.173 A 
ATOM     75  C   UNL     1      -6.614   2.135 -12.413  1.00  0.00     0.173 A 
ATOM     76  F   UNL     1      -7.808   3.102 -15.705  1.00  0.00    -0.203 F 
ATOM     77  C   UNL     1      -6.399   1.329 -15.060  1.00  0.00     0.198 A 
ATOM     78  C   UNL     1      -5.828   1.034 -12.748  1.00  0.00     0.198 A 
ATOM     79  F   UNL     1      -6.704   2.497 -11.125  1.00  0.00    -0.203 F 
ATOM     80  F   UNL     1      -6.330   0.921 -16.334  1.00  0.00    -0.200 F 
ATOM     81  C   UNL     1      -5.729   0.626 -14.070  1.00  0.00     0.200 A 
ATOM     82  F   UNL     1      -5.171   0.367 -11.791  1.00  0.00    -0.200 F 
ATOM     83  F   UNL     1      -4.995  -0.449 -14.388  1.00  0.00    -0.200 F 
ENDBRANCH  49  73
BRANCH  61  84
ATOM     84  C   UNL     1     -14.140   4.111 -13.784  1.00  0.00     0.064 A 
ATOM     85  C   UNL     1     -14.620   2.997 -13.079  1.00  0.00     0.173 A 
ATOM     86  C   UNL     1     -14.804   4.476 -14.966  1.00  0.00     0.173 A 
ATOM     87  F   UNL     1     -14.012   2.598 -11.952  1.00  0.00    -0.203 F 
ATOM     88  C   UNL     1     -15.707   2.265 -13.552  1.00  0.00     0.198 A 
ATOM     89  C   UNL     1     -15.909   3.761 -15.418  1.00  0.00     0.198 A 
ATOM     90  F   UNL     1     -14.389   5.537 -15.674  1.00  0.00    -0.203 F 
ATOM     91  F   UNL     1     -16.119   1.177 -12.888  1.00  0.00    -0.200 F 
ATOM     92  C   UNL     1     -16.355   2.653 -14.715  1.00  0.00     0.200 A 
ATOM     93  F   UNL     1     -16.544   4.147 -16.534  1.00  0.00    -0.200 F 
ATOM     94  F   UNL     1     -17.407   1.953 -15.163  1.00  0.00    -0.200 F 
ENDBRANCH  61  84
ENDBRANCH  35  36
ENDBRANCH  27  30
ENDBRANCH  25  26
ENDBRANCH  24  25
ENDBRANCH  23  24
ENDBRANCH   1  23
TORSDOF 15
