REMARK SMILES CC(C)[C@@H](C)[N@@H+]1[C@@H](C(=O)NCCCCNC(=O)c2ccc(-c3c4nc(c(-c5c(F)c(F)c(F)c(F)c5F)c5ccc([nH]5)c(-c5c(F)c(F)c(F)c(F)c5F)c5nc(c(-c6c(F)c(F)c(F)c(F)c6F)c6ccc3[nH]6)C=C5)C=C4)cc2)C[C@H]2CCCC[C@H]21
REMARK SMILES IDX 12 1 11 2 10 3 8 4 9 5 7 7 6 8 87 9 81 11 82 12 86 13 83 14
REMARK SMILES IDX 85 15 84 16 4 17 5 18 2 19 1 20 3 21 13 22 14 23 15 24 16 25
REMARK SMILES IDX 17 27 18 28 19 29 80 30 20 31 79 32 21 33 22 34 23 35 73 36
REMARK SMILES IDX 24 37 78 38 72 39 74 40 25 41 77 42 71 43 70 44 26 46 58 47
REMARK SMILES IDX 38 48 57 49 39 50 42 51 56 52 75 53 40 54 41 55 55 57 76 58
REMARK SMILES IDX 43 59 27 60 28 61 36 62 29 63 30 64 34 65 37 66 31 67 32 68
REMARK SMILES IDX 35 69 33 70 59 71 60 72 68 73 61 74 62 75 66 76 69 77 63 78
REMARK SMILES IDX 64 79 67 80 65 81 44 82 45 83 53 84 46 85 47 86 51 87 54 88
REMARK SMILES IDX 48 89 49 90 52 91 50 92
REMARK H PARENT 10 6 6 10 15 26 74 45 42 56
REMARK Flexibility Score: inf
ROOT
ATOM      1  C   UNL     1      -6.754   0.912   1.088  1.00  0.00     0.023 C 
ENDROOT
BRANCH   1   2
ATOM      2  C   UNL     1      -5.857   2.004   1.660  1.00  0.00     0.116 C 
BRANCH   2   3
ATOM      3  N   UNL     1      -5.119   1.557   2.824  1.00  0.00    -0.351 N 
ATOM      4  C   UNL     1      -3.766   1.583   3.051  1.00  0.00     0.278 C 
ATOM      5  O   UNL     1      -3.368   1.148   4.132  1.00  0.00    -0.268 OA
ATOM      6  H   UNL     1      -5.664   1.183   3.554  1.00  0.00     0.163 HD
BRANCH   4   7
ATOM      7  C   UNL     1      -2.853   2.154   1.945  1.00  0.00     0.275 C 
ATOM      8  N   UNL     1      -1.391   1.889   2.227  1.00  0.00    -0.320 N 
ATOM      9  C   UNL     1      -0.798   3.217   2.448  1.00  0.00     0.188 C 
ATOM     10  H   UNL     1      -1.194   1.344   3.066  1.00  0.00     0.349 HD
ATOM     11  C   UNL     1      -3.031   3.672   1.825  1.00  0.00     0.085 C 
ATOM     12  C   UNL     1      -1.621   4.169   1.589  1.00  0.00     0.054 C 
ATOM     13  C   UNL     1      -0.843   3.578   3.947  1.00  0.00     0.065 C 
ATOM     14  C   UNL     1      -1.409   5.647   1.901  1.00  0.00     0.010 C 
ATOM     15  C   UNL     1      -0.493   5.047   4.175  1.00  0.00     0.006 C 
ATOM     16  C   UNL     1      -1.425   5.967   3.393  1.00  0.00     0.001 C 
BRANCH   8  17
ATOM     17  C   UNL     1      -0.807   0.991   1.188  1.00  0.00     0.184 C 
ATOM     18  C   UNL     1      -1.500  -0.392   1.363  1.00  0.00     0.075 C 
BRANCH  17  19
ATOM     19  C   UNL     1       0.757   0.743   1.156  1.00  0.00     0.041 C 
ATOM     20  C   UNL     1       1.133  -0.364   0.144  1.00  0.00     0.013 C 
ATOM     21  C   UNL     1       1.612   1.964   0.783  1.00  0.00     0.013 C 
ENDBRANCH  17  19
ENDBRANCH   8  17
ENDBRANCH   4   7
ENDBRANCH   2   3
ENDBRANCH   1   2
BRANCH   1  22
ATOM     22  C   UNL     1      -7.872   0.444   2.019  1.00  0.00     0.023 C 
BRANCH  22  23
ATOM     23  C   UNL     1      -8.781   1.548   2.546  1.00  0.00     0.116 C 
BRANCH  23  24
ATOM     24  N   UNL     1      -9.488   2.261   1.491  1.00  0.00    -0.352 N 
ATOM     25  C   UNL     1     -10.831   2.538   1.391  1.00  0.00     0.251 C 
ATOM     26  H   UNL     1      -8.929   2.588   0.749  1.00  0.00     0.163 HD
ATOM     27  O   UNL     1     -11.293   3.048   0.377  1.00  0.00    -0.269 OA
BRANCH  25  28
ATOM     28  C   UNL     1     -11.721   2.179   2.513  1.00  0.00     0.039 A 
ATOM     29  C   UNL     1     -12.854   1.403   2.260  1.00  0.00     0.014 A 
ATOM     30  C   UNL     1     -11.397   2.562   3.817  1.00  0.00     0.014 A 
ATOM     31  C   UNL     1     -13.619   0.932   3.330  1.00  0.00     0.010 A 
ATOM     32  C   UNL     1     -12.119   2.037   4.883  1.00  0.00     0.010 A 
ATOM     33  C   UNL     1     -13.230   1.208   4.650  1.00  0.00    -0.014 A 
BRANCH  33  34
ATOM     34  C   UNL     1     -13.957   0.652   5.818  1.00  0.00     0.031 A 
ATOM     35  C   UNL     1     -14.639   1.586   6.777  1.00  0.00     0.074 A 
ATOM     36  C   UNL     1     -13.918  -0.670   6.072  1.00  0.00     0.049 A 
ATOM     37  N   UNL     1     -15.160   1.336   7.950  1.00  0.00    -0.248 NA
ATOM     38  C   UNL     1     -14.717   2.998   6.370  1.00  0.00     0.031 C 
ATOM     39  C   UNL     1     -13.273  -1.678   5.228  1.00  0.00     0.029 A 
ATOM     40  N   UNL     1     -14.412  -1.392   7.130  1.00  0.00    -0.354 N 
ATOM     41  C   UNL     1     -15.606   2.560   8.431  1.00  0.00     0.074 A 
ATOM     42  C   UNL     1     -15.256   3.558   7.443  1.00  0.00     0.031 C 
ATOM     43  C   UNL     1     -13.418  -2.886   5.798  1.00  0.00     0.029 A 
ATOM     44  C   UNL     1     -14.121  -2.733   7.068  1.00  0.00     0.049 A 
ATOM     45  H   UNL     1     -14.927  -0.986   7.865  1.00  0.00     0.167 HD
ATOM     46  C   UNL     1     -16.265   2.824   9.584  1.00  0.00     0.037 A 
ATOM     47  C   UNL     1     -14.373  -3.721   7.948  1.00  0.00     0.037 A 
ATOM     48  C   UNL     1     -16.634   1.825  10.551  1.00  0.00     0.049 A 
ATOM     49  C   UNL     1     -15.082  -3.396   9.236  1.00  0.00     0.074 A 
ATOM     50  C   UNL     1     -17.325   1.988  11.739  1.00  0.00     0.029 A 
ATOM     51  N   UNL     1     -16.347   0.473  10.435  1.00  0.00    -0.354 N 
ATOM     52  N   UNL     1     -15.523  -2.240   9.668  1.00  0.00    -0.248 NA
ATOM     53  C   UNL     1     -15.325  -4.513  10.160  1.00  0.00     0.031 C 
ATOM     54  C   UNL     1     -17.431   0.737  12.356  1.00  0.00     0.029 A 
ATOM     55  C   UNL     1     -16.843  -0.209  11.533  1.00  0.00     0.049 A 
ATOM     56  H   UNL     1     -15.863   0.060   9.684  1.00  0.00     0.167 HD
ATOM     57  C   UNL     1     -16.128  -2.496  10.891  1.00  0.00     0.074 A 
ATOM     58  C   UNL     1     -16.000  -3.917  11.133  1.00  0.00     0.031 C 
ATOM     59  C   UNL     1     -16.736  -1.630  11.738  1.00  0.00     0.037 A 
BRANCH  46  60
ATOM     60  C   UNL     1     -16.635   4.250   9.857  1.00  0.00     0.064 A 
ATOM     61  C   UNL     1     -17.644   4.896   9.126  1.00  0.00     0.173 A 
ATOM     62  C   UNL     1     -16.002   4.970  10.881  1.00  0.00     0.173 A 
ATOM     63  F   UNL     1     -18.269   4.255   8.127  1.00  0.00    -0.203 F 
ATOM     64  C   UNL     1     -17.986   6.219   9.393  1.00  0.00     0.198 A 
ATOM     65  C   UNL     1     -16.367   6.283  11.164  1.00  0.00     0.198 A 
ATOM     66  F   UNL     1     -15.034   4.397  11.612  1.00  0.00    -0.203 F 
ATOM     67  F   UNL     1     -18.920   6.830   8.651  1.00  0.00    -0.200 F 
ATOM     68  C   UNL     1     -17.353   6.909  10.416  1.00  0.00     0.200 A 
ATOM     69  F   UNL     1     -15.763   6.946  12.160  1.00  0.00    -0.200 F 
ATOM     70  F   UNL     1     -17.689   8.180  10.676  1.00  0.00    -0.200 F 
ENDBRANCH  46  60
BRANCH  47  71
ATOM     71  C   UNL     1     -13.963  -5.117   7.644  1.00  0.00     0.064 A 
ATOM     72  C   UNL     1     -14.924  -6.103   7.378  1.00  0.00     0.173 A 
ATOM     73  C   UNL     1     -12.614  -5.501   7.636  1.00  0.00     0.173 A 
ATOM     74  F   UNL     1     -16.227  -5.788   7.397  1.00  0.00    -0.203 F 
ATOM     75  C   UNL     1     -14.553  -7.424   7.138  1.00  0.00     0.198 A 
ATOM     76  C   UNL     1     -12.243  -6.818   7.369  1.00  0.00     0.198 A 
ATOM     77  F   UNL     1     -11.656  -4.596   7.882  1.00  0.00    -0.203 F 
ATOM     78  F   UNL     1     -15.495  -8.355   6.936  1.00  0.00    -0.200 F 
ATOM     79  C   UNL     1     -13.213  -7.780   7.130  1.00  0.00     0.200 A 
ATOM     80  F   UNL     1     -10.947  -7.156   7.351  1.00  0.00    -0.200 F 
ATOM     81  F   UNL     1     -12.857  -9.052   6.902  1.00  0.00    -0.200 F 
ENDBRANCH  47  71
BRANCH  59  82
ATOM     82  C   UNL     1     -17.369  -2.198  12.972  1.00  0.00     0.064 A 
ATOM     83  C   UNL     1     -16.602  -2.615  14.069  1.00  0.00     0.173 A 
ATOM     84  C   UNL     1     -18.767  -2.261  13.082  1.00  0.00     0.173 A 
ATOM     85  F   UNL     1     -15.262  -2.588  14.004  1.00  0.00    -0.203 F 
ATOM     86  C   UNL     1     -17.212  -3.087  15.227  1.00  0.00     0.198 A 
ATOM     87  C   UNL     1     -19.373  -2.710  14.250  1.00  0.00     0.198 A 
ATOM     88  F   UNL     1     -19.543  -1.868  12.060  1.00  0.00    -0.203 F 
ATOM     89  F   UNL     1     -16.461  -3.510  16.253  1.00  0.00    -0.200 F 
ATOM     90  C   UNL     1     -18.596  -3.125  15.321  1.00  0.00     0.200 A 
ATOM     91  F   UNL     1     -20.710  -2.735  14.343  1.00  0.00    -0.200 F 
ATOM     92  F   UNL     1     -19.181  -3.566  16.443  1.00  0.00    -0.200 F 
ENDBRANCH  59  82
ENDBRANCH  33  34
ENDBRANCH  25  28
ENDBRANCH  23  24
ENDBRANCH  22  23
ENDBRANCH   1  22
TORSDOF 13
