REMARK SMILES CCOc1cccc(OCC)c1-c1ccc([C@@H](C)C(=O)NCCCCNC(=O)c2ccc(-c3c4nc(c(-c5c(F)c(F)c(F)c(F)c5F)c5ccc([nH]5)c(-c5c(F)c(F)c(F)c(F)c5F)c5nc(c(-c6c(F)c(F)c(F)c(F)c6F)c6ccc3[nH]6)C=C5)C=C4)cc2)cc1F
REMARK SMILES IDX 22 1 21 2 19 3 20 4 17 6 18 7 16 8 13 9 14 10 93 11 15 12
REMARK SMILES IDX 92 13 94 14 12 15 4 16 5 17 6 18 8 19 7 20 3 21 2 22 1 23
REMARK SMILES IDX 9 24 10 25 11 26 23 27 24 28 25 29 26 30 27 31 28 33 29 34
REMARK SMILES IDX 30 35 91 36 31 37 90 38 32 39 33 40 34 41 84 42 35 43 89 44
REMARK SMILES IDX 83 45 85 46 36 47 88 48 82 49 81 50 37 52 69 53 49 54 68 55
REMARK SMILES IDX 50 56 53 57 67 58 86 59 51 60 52 61 66 63 87 64 54 65 38 66
REMARK SMILES IDX 39 67 47 68 40 69 41 70 45 71 48 72 42 73 43 74 46 75 44 76
REMARK SMILES IDX 70 77 71 78 79 79 72 80 73 81 77 82 80 83 74 84 75 85 78 86
REMARK SMILES IDX 76 87 55 88 56 89 64 90 57 91 58 92 62 93 65 94 59 95 60 96
REMARK SMILES IDX 63 97 61 98
REMARK H PARENT 21 5 26 32 85 51 53 62
REMARK Flexibility Score: inf
ROOT
ATOM      1  C   UNL     1       2.570  -4.130   2.470  1.00  0.00     0.116 C 
ENDROOT
BRANCH   1   2
ATOM      2  N   UNL     1       1.168  -4.149   2.083  1.00  0.00    -0.356 N 
ATOM      3  C   UNL     1       0.501  -4.074   0.896  1.00  0.00     0.227 C 
ATOM      4  O   UNL     1      -0.734  -4.049   0.994  1.00  0.00    -0.274 OA
ATOM      5  H   UNL     1       0.562  -4.236   2.854  1.00  0.00     0.163 HD
BRANCH   3   6
ATOM      6  C   UNL     1       1.145  -4.021  -0.511  1.00  0.00     0.105 C 
ATOM      7  C   UNL     1       2.117  -5.160  -0.805  1.00  0.00     0.023 C 
BRANCH   6   8
ATOM      8  C   UNL     1       1.687  -2.653  -0.891  1.00  0.00    -0.033 A 
ATOM      9  C   UNL     1       2.629  -0.002  -1.339  1.00  0.00     0.025 A 
ATOM     10  C   UNL     1       3.098  -0.780  -0.287  1.00  0.00     0.012 A 
ATOM     11  C   UNL     1       1.656  -0.579  -2.167  1.00  0.00     0.131 A 
ATOM     12  C   UNL     1       2.742  -2.112  -0.175  1.00  0.00     0.005 A 
ATOM     13  C   UNL     1       1.153  -1.870  -1.921  1.00  0.00     0.044 A 
ATOM     14  F   UNL     1       1.150   0.111  -3.200  1.00  0.00    -0.206 F 
BRANCH   9  15
ATOM     15  C   UNL     1       3.114   1.383  -1.438  1.00  0.00     0.069 A 
ATOM     16  C   UNL     1       2.186   2.421  -1.145  1.00  0.00     0.130 A 
ATOM     17  C   UNL     1       2.557   3.767  -1.087  1.00  0.00     0.047 A 
ATOM     18  C   UNL     1       3.881   4.117  -1.293  1.00  0.00     0.008 A 
ATOM     19  C   UNL     1       4.460   1.760  -1.666  1.00  0.00     0.130 A 
ATOM     20  C   UNL     1       4.812   3.124  -1.589  1.00  0.00     0.047 A 
BRANCH  16  21
ATOM     21  O   UNL     1       0.857   2.108  -0.980  1.00  0.00    -0.493 OA
BRANCH  21  22
ATOM     22  C   UNL     1       0.412   2.222   0.375  1.00  0.00     0.226 C 
ATOM     23  C   UNL     1      -0.166   0.885   0.809  1.00  0.00     0.049 C 
ENDBRANCH  21  22
ENDBRANCH  16  21
BRANCH  19  24
ATOM     24  O   UNL     1       5.569   1.031  -2.006  1.00  0.00    -0.493 OA
BRANCH  24  25
ATOM     25  C   UNL     1       5.718  -0.369  -1.834  1.00  0.00     0.226 C 
ATOM     26  C   UNL     1       6.282  -0.687  -0.454  1.00  0.00     0.049 C 
ENDBRANCH  24  25
ENDBRANCH  19  24
ENDBRANCH   9  15
ENDBRANCH   6   8
ENDBRANCH   3   6
ENDBRANCH   1   2
BRANCH   1  27
ATOM     27  C   UNL     1       3.026  -2.727   2.907  1.00  0.00     0.023 C 
BRANCH  27  28
ATOM     28  C   UNL     1       2.992  -2.433   4.398  1.00  0.00     0.023 C 
BRANCH  28  29
ATOM     29  C   UNL     1       3.966  -3.249   5.231  1.00  0.00     0.116 C 
BRANCH  29  30
ATOM     30  N   UNL     1       5.368  -3.073   4.874  1.00  0.00    -0.352 N 
ATOM     31  C   UNL     1       6.465  -3.103   5.707  1.00  0.00     0.251 C 
ATOM     32  H   UNL     1       5.554  -2.913   3.920  1.00  0.00     0.163 HD
ATOM     33  O   UNL     1       7.591  -2.888   5.271  1.00  0.00    -0.269 OA
BRANCH  31  34
ATOM     34  C   UNL     1       6.257  -3.342   7.150  1.00  0.00     0.039 A 
ATOM     35  C   UNL     1       6.823  -2.458   8.072  1.00  0.00     0.014 A 
ATOM     36  C   UNL     1       5.422  -4.375   7.581  1.00  0.00     0.014 A 
ATOM     37  C   UNL     1       6.471  -2.554   9.419  1.00  0.00     0.010 A 
ATOM     38  C   UNL     1       4.997  -4.406   8.902  1.00  0.00     0.010 A 
ATOM     39  C   UNL     1       5.516  -3.496   9.835  1.00  0.00    -0.014 A 
BRANCH  39  40
ATOM     40  C   UNL     1       5.044  -3.557  11.240  1.00  0.00     0.031 A 
ATOM     41  C   UNL     1       5.268  -4.805  12.048  1.00  0.00     0.074 A 
ATOM     42  C   UNL     1       4.338  -2.533  11.756  1.00  0.00     0.049 A 
ATOM     43  N   UNL     1       4.849  -5.099  13.252  1.00  0.00    -0.248 NA
ATOM     44  C   UNL     1       6.032  -5.883  11.399  1.00  0.00     0.031 C 
ATOM     45  C   UNL     1       3.993  -1.298  11.049  1.00  0.00     0.029 A 
ATOM     46  N   UNL     1       3.769  -2.374  12.995  1.00  0.00    -0.354 N 
ATOM     47  C   UNL     1       5.274  -6.399  13.490  1.00  0.00     0.074 A 
ATOM     48  C   UNL     1       5.931  -6.859  12.287  1.00  0.00     0.031 C 
ATOM     49  C   UNL     1       3.296  -0.498  11.873  1.00  0.00     0.029 A 
ATOM     50  C   UNL     1       3.116  -1.175  13.153  1.00  0.00     0.049 A 
ATOM     51  H   UNL     1       3.823  -3.055  13.704  1.00  0.00     0.167 HD
ATOM     52  C   UNL     1       5.152  -7.134  14.620  1.00  0.00     0.037 A 
ATOM     53  C   UNL     1       2.447  -0.682  14.213  1.00  0.00     0.037 A 
ATOM     54  C   UNL     1       4.541  -6.655  15.831  1.00  0.00     0.049 A 
ATOM     55  C   UNL     1       2.361  -1.502  15.471  1.00  0.00     0.074 A 
ATOM     56  C   UNL     1       4.437  -7.291  17.055  1.00  0.00     0.029 A 
ATOM     57  N   UNL     1       3.934  -5.415  15.968  1.00  0.00    -0.354 N 
ATOM     58  N   UNL     1       2.832  -2.702  15.710  1.00  0.00    -0.248 NA
ATOM     59  C   UNL     1       1.657  -0.896  16.610  1.00  0.00     0.031 C 
ATOM     60  C   UNL     1       3.737  -6.448  17.925  1.00  0.00     0.029 A 
ATOM     61  C   UNL     1       3.442  -5.272  17.255  1.00  0.00     0.049 A 
ATOM     62  H   UNL     1       3.864  -4.738  15.257  1.00  0.00     0.167 HD
ATOM     63  C   UNL     1       2.508  -2.984  17.030  1.00  0.00     0.074 A 
ATOM     64  C   UNL     1       1.811  -1.823  17.545  1.00  0.00     0.031 C 
ATOM     65  C   UNL     1       2.762  -4.103  17.750  1.00  0.00     0.037 A 
BRANCH  52  66
ATOM     66  C   UNL     1       5.708  -8.527  14.602  1.00  0.00     0.064 A 
ATOM     67  C   UNL     1       7.090  -8.767  14.563  1.00  0.00     0.173 A 
ATOM     68  C   UNL     1       4.851  -9.637  14.647  1.00  0.00     0.173 A 
ATOM     69  F   UNL     1       7.952  -7.740  14.503  1.00  0.00    -0.203 F 
ATOM     70  C   UNL     1       7.592 -10.065  14.537  1.00  0.00     0.198 A 
ATOM     71  C   UNL     1       5.357 -10.934  14.651  1.00  0.00     0.198 A 
ATOM     72  F   UNL     1       3.521  -9.463  14.688  1.00  0.00    -0.203 F 
ATOM     73  F   UNL     1       8.913 -10.268  14.444  1.00  0.00    -0.200 F 
ATOM     74  C   UNL     1       6.726 -11.147  14.588  1.00  0.00     0.200 A 
ATOM     75  F   UNL     1       4.520 -11.979  14.711  1.00  0.00    -0.200 F 
ATOM     76  F   UNL     1       7.211 -12.396  14.566  1.00  0.00    -0.200 F 
ENDBRANCH  52  66
BRANCH  53  77
ATOM     77  C   UNL     1       1.841   0.673  14.144  1.00  0.00     0.064 A 
ATOM     78  C   UNL     1       2.387   1.740  14.871  1.00  0.00     0.173 A 
ATOM     79  C   UNL     1       0.708   0.929  13.358  1.00  0.00     0.173 A 
ATOM     80  F   UNL     1       3.458   1.538  15.652  1.00  0.00    -0.203 F 
ATOM     81  C   UNL     1       1.812   3.008  14.830  1.00  0.00     0.198 A 
ATOM     82  C   UNL     1       0.149   2.205  13.298  1.00  0.00     0.198 A 
ATOM     83  F   UNL     1       0.152  -0.056  12.639  1.00  0.00    -0.203 F 
ATOM     84  F   UNL     1       2.329   4.000  15.568  1.00  0.00    -0.200 F 
ATOM     85  C   UNL     1       0.696   3.241  14.040  1.00  0.00     0.200 A 
ATOM     86  F   UNL     1      -0.921   2.429  12.524  1.00  0.00    -0.200 F 
ATOM     87  F   UNL     1       0.145   4.462  13.998  1.00  0.00    -0.200 F 
ENDBRANCH  53  77
BRANCH  65  88
ATOM     88  C   UNL     1       2.316  -4.114  19.182  1.00  0.00     0.064 A 
ATOM     89  C   UNL     1       0.963  -4.240  19.529  1.00  0.00     0.173 A 
ATOM     90  C   UNL     1       3.259  -4.043  20.219  1.00  0.00     0.173 A 
ATOM     91  F   UNL     1       0.024  -4.296  18.572  1.00  0.00    -0.203 F 
ATOM     92  C   UNL     1       0.568  -4.273  20.863  1.00  0.00     0.198 A 
ATOM     93  C   UNL     1       2.863  -4.104  21.551  1.00  0.00     0.198 A 
ATOM     94  F   UNL     1       4.566  -3.929  19.937  1.00  0.00    -0.203 F 
ATOM     95  F   UNL     1      -0.733  -4.351  21.173  1.00  0.00    -0.200 F 
ATOM     96  C   UNL     1       1.518  -4.212  21.872  1.00  0.00     0.200 A 
ATOM     97  F   UNL     1       3.783  -4.058  22.525  1.00  0.00    -0.200 F 
ATOM     98  F   UNL     1       1.136  -4.252  23.156  1.00  0.00    -0.200 F 
ENDBRANCH  65  88
ENDBRANCH  39  40
ENDBRANCH  31  34
ENDBRANCH  29  30
ENDBRANCH  28  29
ENDBRANCH  27  28
ENDBRANCH   1  27
TORSDOF 17
