REMARK SMILES O=C(NCCCCNC(=O)[C@@H](CO)N1C(=O)c2c(Cl)c(Cl)c(Cl)c(Cl)c2C1=O)c1ccc(-c2c3nc(c(-c4c(F)c(F)c(F)c(F)c4F)c4ccc([nH]4)c(-c4c(F)c(F)c(F)c(F)c4F)c4nc(c(-c5c(F)c(F)c(F)c(F)c5F)c5ccc2[nH]5)C=C4)C=C3)cc1
REMARK SMILES IDX 5 1 4 2 3 3 1 4 2 5 29 7 30 8 91 9 31 10 90 11 32 12 33 13
REMARK SMILES IDX 34 14 84 15 35 16 89 17 83 18 85 19 36 20 88 21 82 22 81 23
REMARK SMILES IDX 37 25 69 26 49 27 68 28 50 29 53 30 67 31 86 32 51 33 52 34
REMARK SMILES IDX 66 36 87 37 54 38 38 39 39 40 47 41 40 42 41 43 45 44 48 45
REMARK SMILES IDX 42 46 43 47 46 48 44 49 70 50 71 51 79 52 72 53 73 54 77 55
REMARK SMILES IDX 80 56 74 57 75 58 78 59 76 60 55 61 56 62 64 63 57 64 58 65
REMARK SMILES IDX 62 66 65 67 59 68 60 69 63 70 61 71 6 72 7 73 8 74 9 75
REMARK SMILES IDX 10 77 11 78 12 79 13 80 14 82 15 83 27 84 16 85 17 86 26 87
REMARK SMILES IDX 28 88 18 89 24 90 19 91 20 92 22 93 25 94 21 95 23 96
REMARK H PARENT 3 6 85 24 53 35 8 76 13 81
REMARK Flexibility Score: inf
ROOT
ATOM      1  C   UNL     1       4.721   2.328  -1.271  1.00  0.00     0.023 C 
ENDROOT
BRANCH   1   2
ATOM      2  C   UNL     1       4.443   1.244  -0.240  1.00  0.00     0.116 C 
BRANCH   2   3
ATOM      3  N   UNL     1       3.022   1.089   0.043  1.00  0.00    -0.352 N 
ATOM      4  O   UNL     1       1.044  -0.007   0.115  1.00  0.00    -0.269 OA
ATOM      5  C   UNL     1       2.263  -0.056   0.004  1.00  0.00     0.251 C 
ATOM      6  H   UNL     1       2.544   1.912   0.294  1.00  0.00     0.163 HD
BRANCH   5   7
ATOM      7  C   UNL     1       2.944  -1.349  -0.199  1.00  0.00     0.039 A 
ATOM      8  C   UNL     1       4.075  -1.662   0.557  1.00  0.00     0.014 A 
ATOM      9  C   UNL     1       2.478  -2.226  -1.181  1.00  0.00     0.014 A 
ATOM     10  C   UNL     1       4.826  -2.781   0.232  1.00  0.00     0.010 A 
ATOM     11  C   UNL     1       3.182  -3.403  -1.440  1.00  0.00     0.010 A 
ATOM     12  C   UNL     1       4.376  -3.676  -0.753  1.00  0.00    -0.014 A 
BRANCH  12  13
ATOM     13  C   UNL     1       5.128  -4.934  -0.974  1.00  0.00     0.031 A 
ATOM     14  C   UNL     1       5.804  -5.225  -2.283  1.00  0.00     0.074 A 
ATOM     15  C   UNL     1       5.213  -5.807   0.049  1.00  0.00     0.049 A 
ATOM     16  N   UNL     1       6.498  -6.279  -2.633  1.00  0.00    -0.248 NA
ATOM     17  C   UNL     1       5.685  -4.209  -3.340  1.00  0.00     0.031 C 
ATOM     18  C   UNL     1       4.582  -5.627   1.360  1.00  0.00     0.029 A 
ATOM     19  N   UNL     1       5.869  -7.004   0.160  1.00  0.00    -0.354 N 
ATOM     20  C   UNL     1       6.877  -6.067  -3.951  1.00  0.00     0.074 A 
ATOM     21  C   UNL     1       6.324  -4.789  -4.348  1.00  0.00     0.031 C 
ATOM     22  C   UNL     1       4.921  -6.649   2.156  1.00  0.00     0.029 A 
ATOM     23  C   UNL     1       5.728  -7.592   1.393  1.00  0.00     0.049 A 
ATOM     24  H   UNL     1       6.391  -7.404  -0.573  1.00  0.00     0.167 HD
ATOM     25  C   UNL     1       7.623  -6.869  -4.749  1.00  0.00     0.037 A 
ATOM     26  C   UNL     1       6.175  -8.774   1.852  1.00  0.00     0.037 A 
ATOM     27  C   UNL     1       8.185  -8.129  -4.333  1.00  0.00     0.049 A 
ATOM     28  C   UNL     1       6.981  -9.645   0.935  1.00  0.00     0.074 A 
ATOM     29  C   UNL     1       8.989  -8.996  -5.054  1.00  0.00     0.029 A 
ATOM     30  N   UNL     1       8.000  -8.705  -3.084  1.00  0.00    -0.354 N 
ATOM     31  N   UNL     1       7.359  -9.418  -0.299  1.00  0.00    -0.248 NA
ATOM     32  C   UNL     1       7.418 -10.940   1.472  1.00  0.00     0.031 C 
ATOM     33  C   UNL     1       9.250 -10.117  -4.259  1.00  0.00     0.029 A 
ATOM     34  C   UNL     1       8.653  -9.926  -3.023  1.00  0.00     0.049 A 
ATOM     35  H   UNL     1       7.482  -8.305  -2.349  1.00  0.00     0.167 HD
ATOM     36  C   UNL     1       8.091 -10.531  -0.683  1.00  0.00     0.074 A 
ATOM     37  C   UNL     1       8.125 -11.422   0.460  1.00  0.00     0.031 C 
ATOM     38  C   UNL     1       8.677 -10.796  -1.876  1.00  0.00     0.037 A 
BRANCH  25  39
ATOM     39  C   UNL     1       7.869  -6.428  -6.163  1.00  0.00     0.064 A 
ATOM     40  C   UNL     1       8.750  -5.380  -6.468  1.00  0.00     0.173 A 
ATOM     41  C   UNL     1       7.277  -7.118  -7.233  1.00  0.00     0.173 A 
ATOM     42  F   UNL     1       9.335  -4.681  -5.484  1.00  0.00    -0.203 F 
ATOM     43  C   UNL     1       9.020  -5.032  -7.790  1.00  0.00     0.198 A 
ATOM     44  C   UNL     1       7.569  -6.784  -8.553  1.00  0.00     0.198 A 
ATOM     45  F   UNL     1       6.433  -8.133  -6.998  1.00  0.00    -0.203 F 
ATOM     46  F   UNL     1       9.843  -4.008  -8.058  1.00  0.00    -0.200 F 
ATOM     47  C   UNL     1       8.437  -5.740  -8.831  1.00  0.00     0.200 A 
ATOM     48  F   UNL     1       7.015  -7.479  -9.557  1.00  0.00    -0.200 F 
ATOM     49  F   UNL     1       8.711  -5.415 -10.102  1.00  0.00    -0.200 F 
ENDBRANCH  25  39
BRANCH  26  50
ATOM     50  C   UNL     1       5.847  -9.201   3.236  1.00  0.00     0.064 A 
ATOM     51  C   UNL     1       6.845  -9.318   4.212  1.00  0.00     0.173 A 
ATOM     52  C   UNL     1       4.527  -9.495   3.612  1.00  0.00     0.173 A 
ATOM     53  F   UNL     1       8.123  -9.064   3.897  1.00  0.00    -0.203 F 
ATOM     54  C   UNL     1       6.538  -9.732   5.507  1.00  0.00     0.198 A 
ATOM     55  C   UNL     1       4.217  -9.876   4.914  1.00  0.00     0.198 A 
ATOM     56  F   UNL     1       3.534  -9.391   2.716  1.00  0.00    -0.203 F 
ATOM     57  F   UNL     1       7.517  -9.882   6.409  1.00  0.00    -0.200 F 
ATOM     58  C   UNL     1       5.224 -10.004   5.858  1.00  0.00     0.200 A 
ATOM     59  F   UNL     1       2.944 -10.118   5.253  1.00  0.00    -0.200 F 
ATOM     60  F   UNL     1       4.929 -10.397   7.105  1.00  0.00    -0.200 F 
ENDBRANCH  26  50
BRANCH  38  61
ATOM     61  C   UNL     1       9.427 -12.090  -1.989  1.00  0.00     0.064 A 
ATOM     62  C   UNL     1       8.760 -13.322  -2.046  1.00  0.00     0.173 A 
ATOM     63  C   UNL     1      10.828 -12.094  -2.059  1.00  0.00     0.173 A 
ATOM     64  F   UNL     1       7.422 -13.371  -1.963  1.00  0.00    -0.203 F 
ATOM     65  C   UNL     1       9.471 -14.515  -2.139  1.00  0.00     0.198 A 
ATOM     66  C   UNL     1      11.534 -13.287  -2.184  1.00  0.00     0.198 A 
ATOM     67  F   UNL     1      11.511 -10.941  -2.013  1.00  0.00    -0.203 F 
ATOM     68  F   UNL     1       8.817 -15.685  -2.137  1.00  0.00    -0.200 F 
ATOM     69  C   UNL     1      10.856 -14.496  -2.215  1.00  0.00     0.200 A 
ATOM     70  F   UNL     1      12.871 -13.266  -2.268  1.00  0.00    -0.200 F 
ATOM     71  F   UNL     1      11.539 -15.645  -2.307  1.00  0.00    -0.200 F 
ENDBRANCH  38  61
ENDBRANCH  12  13
ENDBRANCH   5   7
ENDBRANCH   2   3
ENDBRANCH   1   2
BRANCH   1  72
ATOM     72  C   UNL     1       4.254   3.725  -0.864  1.00  0.00     0.023 C 
BRANCH  72  73
ATOM     73  C   UNL     1       4.847   4.219   0.452  1.00  0.00     0.116 C 
BRANCH  73  74
ATOM     74  N   UNL     1       6.272   4.458   0.326  1.00  0.00    -0.354 N 
ATOM     75  C   UNL     1       7.034   5.505   0.744  1.00  0.00     0.245 C 
ATOM     76  H   UNL     1       6.769   3.747  -0.139  1.00  0.00     0.163 HD
ATOM     77  O   UNL     1       8.232   5.472   0.435  1.00  0.00    -0.273 OA
BRANCH  75  78
ATOM     78  C   UNL     1       6.448   6.777   1.381  1.00  0.00     0.208 C 
BRANCH  78  79
ATOM     79  C   UNL     1       5.923   7.657   0.219  1.00  0.00     0.191 C 
BRANCH  79  80
ATOM     80  O   UNL     1       4.711   7.162  -0.356  1.00  0.00    -0.394 OA
ATOM     81  H   UNL     1       4.868   6.282  -0.733  1.00  0.00     0.210 HD
ENDBRANCH  79  80
ENDBRANCH  78  79
BRANCH  78  82
ATOM     82  N   UNL     1       5.492   6.602   2.485  1.00  0.00    -0.259 N 
ATOM     83  C   UNL     1       5.471   5.524   3.320  1.00  0.00     0.264 C 
ATOM     84  C   UNL     1       4.914   7.675   3.115  1.00  0.00     0.264 C 
ATOM     85  O   UNL     1       6.160   4.522   3.292  1.00  0.00    -0.268 OA
ATOM     86  C   UNL     1       4.517   5.815   4.389  1.00  0.00     0.075 A 
ATOM     87  C   UNL     1       4.219   7.163   4.302  1.00  0.00     0.075 A 
ATOM     88  O   UNL     1       5.034   8.852   2.852  1.00  0.00    -0.268 OA
ATOM     89  C   UNL     1       3.985   5.004   5.378  1.00  0.00     0.074 A 
ATOM     90  C   UNL     1       3.433   7.795   5.251  1.00  0.00     0.074 A 
ATOM     91  Cl  UNL     1       4.295   3.305   5.377  1.00  0.00    -0.082 Cl
ATOM     92  C   UNL     1       3.160   5.610   6.343  1.00  0.00     0.080 A 
ATOM     93  C   UNL     1       2.902   7.007   6.292  1.00  0.00     0.080 A 
ATOM     94  Cl  UNL     1       3.135   9.492   5.154  1.00  0.00    -0.082 Cl
ATOM     95  Cl  UNL     1       2.456   4.638   7.605  1.00  0.00    -0.081 Cl
ATOM     96  Cl  UNL     1       1.926   7.754   7.526  1.00  0.00    -0.081 Cl
ENDBRANCH  78  82
ENDBRANCH  75  78
ENDBRANCH  73  74
ENDBRANCH  72  73
ENDBRANCH   1  72
TORSDOF 14
