REMARK SMILES C[C@@H](C(=O)NCCCCNC(=O)c1ccc(-c2c3nc(c(-c4c(F)c(F)c(F)c(F)c4F)c4ccc([nH]4)c(-c4c(F)c(F)c(F)c(F)c4F)c4nc(c(-c5c(F)c(F)c(F)c(F)c5F)c5ccc2[nH]5)C=C4)C=C3)cc1)c1ccc(C[C@H]2CCC[C@@H]2O)cc1Br
REMARK SMILES IDX 6 1 5 2 3 3 4 4 2 6 1 7 76 8 77 9 88 10 78 11 87 12 89 13
REMARK SMILES IDX 79 14 80 15 81 16 82 17 85 18 83 19 84 20 86 21 7 23 8 24
REMARK SMILES IDX 9 25 10 26 11 27 12 29 13 30 14 31 75 32 15 33 74 34 16 35
REMARK SMILES IDX 17 36 18 37 68 38 19 39 73 40 67 41 69 42 20 43 72 44 66 45
REMARK SMILES IDX 65 46 21 48 53 49 33 50 52 51 34 52 37 53 51 54 70 55 35 56
REMARK SMILES IDX 36 57 50 59 71 60 38 61 22 62 23 63 31 64 24 65 25 66 29 67
REMARK SMILES IDX 32 68 26 69 27 70 30 71 28 72 54 73 55 74 63 75 56 76 57 77
REMARK SMILES IDX 61 78 64 79 58 80 59 81 62 82 60 83 39 84 40 85 48 86 41 87
REMARK SMILES IDX 42 88 46 89 49 90 43 91 44 92 47 93 45 94
REMARK H PARENT 5 5 86 22 10 28 69 47 37 58
REMARK Flexibility Score: inf
ROOT
ATOM      1  C   UNL     1       3.344   1.836  -0.369  1.00  0.00     0.116 C 
ENDROOT
BRANCH   1   2
ATOM      2  N   UNL     1       2.267   2.100  -1.303  1.00  0.00    -0.356 N 
ATOM      3  C   UNL     1       1.011   1.562  -1.366  1.00  0.00     0.227 C 
ATOM      4  O   UNL     1       0.386   1.748  -2.412  1.00  0.00    -0.274 OA
ATOM      5  H   UNL     1       2.471   2.767  -1.998  1.00  0.00     0.163 HD
BRANCH   3   6
ATOM      6  C   UNL     1       0.413   0.832  -0.142  1.00  0.00     0.106 C 
ATOM      7  C   UNL     1       1.074  -0.528   0.049  1.00  0.00     0.023 C 
BRANCH   6   8
ATOM      8  C   UNL     1      -1.125   0.900  -0.139  1.00  0.00    -0.022 A 
ATOM      9  C   UNL     1      -1.659   2.213  -0.142  1.00  0.00     0.006 A 
ATOM     10  C   UNL     1      -2.057  -0.154  -0.109  1.00  0.00     0.022 A 
ATOM     11  C   UNL     1      -3.031   2.467  -0.089  1.00  0.00     0.004 A 
ATOM     12  C   UNL     1      -3.434   0.114   0.010  1.00  0.00     0.019 A 
ATOM     13  Br  UNL     1      -1.671  -2.011  -0.252  1.00  0.00    -0.051 Br
ATOM     14  C   UNL     1      -3.933   1.420   0.046  1.00  0.00    -0.047 A 
BRANCH  14  15
ATOM     15  C   UNL     1      -5.410   1.664   0.232  1.00  0.00     0.041 C 
BRANCH  15  16
ATOM     16  C   UNL     1      -5.842   2.155   1.624  1.00  0.00     0.022 C 
ATOM     17  C   UNL     1      -5.330   1.348   2.829  1.00  0.00     0.007 C 
ATOM     18  C   UNL     1      -5.471   3.602   1.955  1.00  0.00     0.117 C 
ATOM     19  C   UNL     1      -5.102   2.366   3.953  1.00  0.00     0.003 C 
ATOM     20  C   UNL     1      -5.707   3.670   3.455  1.00  0.00     0.032 C 
BRANCH  18  21
ATOM     21  O   UNL     1      -6.291   4.512   1.249  1.00  0.00    -0.393 OA
ATOM     22  H   UNL     1      -7.223   4.333   1.453  1.00  0.00     0.210 HD
ENDBRANCH  18  21
ENDBRANCH  15  16
ENDBRANCH  14  15
ENDBRANCH   6   8
ENDBRANCH   3   6
ENDBRANCH   1   2
BRANCH   1  23
ATOM     23  C   UNL     1       4.251   0.721  -0.901  1.00  0.00     0.023 C 
BRANCH  23  24
ATOM     24  C   UNL     1       5.056   1.099  -2.145  1.00  0.00     0.023 C 
BRANCH  24  25
ATOM     25  C   UNL     1       6.069   2.213  -1.932  1.00  0.00     0.116 C 
BRANCH  25  26
ATOM     26  N   UNL     1       7.092   1.871  -0.954  1.00  0.00    -0.352 N 
ATOM     27  C   UNL     1       8.432   2.171  -0.989  1.00  0.00     0.251 C 
ATOM     28  H   UNL     1       6.785   1.362  -0.169  1.00  0.00     0.163 HD
ATOM     29  O   UNL     1       9.203   1.723  -0.146  1.00  0.00    -0.269 OA
BRANCH  27  30
ATOM     30  C   UNL     1       8.938   3.015  -2.087  1.00  0.00     0.039 A 
ATOM     31  C   UNL     1       9.993   2.546  -2.873  1.00  0.00     0.014 A 
ATOM     32  C   UNL     1       8.315   4.231  -2.378  1.00  0.00     0.014 A 
ATOM     33  C   UNL     1      10.376   3.263  -4.008  1.00  0.00     0.010 A 
ATOM     34  C   UNL     1       8.654   4.909  -3.541  1.00  0.00     0.010 A 
ATOM     35  C   UNL     1       9.680   4.426  -4.370  1.00  0.00    -0.014 A 
BRANCH  35  36
ATOM     36  C   UNL     1       9.989   5.170  -5.615  1.00  0.00     0.031 A 
ATOM     37  C   UNL     1      10.501   6.577  -5.527  1.00  0.00     0.074 A 
ATOM     38  C   UNL     1       9.683   4.630  -6.809  1.00  0.00     0.049 A 
ATOM     39  N   UNL     1      10.646   7.467  -6.473  1.00  0.00    -0.248 NA
ATOM     40  C   UNL     1      10.856   7.058  -4.183  1.00  0.00     0.031 C 
ATOM     41  C   UNL     1       9.129   3.292  -7.017  1.00  0.00     0.029 A 
ATOM     42  N   UNL     1       9.759   5.160  -8.073  1.00  0.00    -0.354 N 
ATOM     43  C   UNL     1      11.068   8.625  -5.835  1.00  0.00     0.074 A 
ATOM     44  C   UNL     1      11.126   8.333  -4.419  1.00  0.00     0.031 C 
ATOM     45  C   UNL     1       8.907   3.107  -8.328  1.00  0.00     0.029 A 
ATOM     46  C   UNL     1       9.267   4.326  -9.047  1.00  0.00     0.049 A 
ATOM     47  H   UNL     1      10.130   6.052  -8.263  1.00  0.00     0.167 HD
ATOM     48  C   UNL     1      11.387   9.820  -6.386  1.00  0.00     0.037 A 
ATOM     49  C   UNL     1       9.103   4.532 -10.367  1.00  0.00     0.037 A 
ATOM     50  C   UNL     1      11.373  10.087  -7.798  1.00  0.00     0.049 A 
ATOM     51  C   UNL     1       9.509   5.850 -10.964  1.00  0.00     0.074 A 
ATOM     52  C   UNL     1      11.770  11.232  -8.465  1.00  0.00     0.029 A 
ATOM     53  N   UNL     1      10.938   9.191  -8.764  1.00  0.00    -0.354 N 
ATOM     54  N   UNL     1       9.971   6.919 -10.362  1.00  0.00    -0.248 NA
ATOM     55  C   UNL     1       9.375   5.991 -12.420  1.00  0.00     0.031 C 
ATOM     56  C   UNL     1      11.543  11.042  -9.832  1.00  0.00     0.029 A 
ATOM     57  C   UNL     1      11.041   9.764 -10.021  1.00  0.00     0.049 A 
ATOM     58  H   UNL     1      10.605   8.282  -8.583  1.00  0.00     0.167 HD
ATOM     59  C   UNL     1      10.203   7.851 -11.364  1.00  0.00     0.074 A 
ATOM     60  C   UNL     1       9.837   7.219 -12.615  1.00  0.00     0.031 C 
ATOM     61  C   UNL     1      10.679   9.115 -11.255  1.00  0.00     0.037 A 
BRANCH  48  62
ATOM     62  C   UNL     1      11.771  10.927  -5.450  1.00  0.00     0.064 A 
ATOM     63  C   UNL     1      12.984  10.911  -4.745  1.00  0.00     0.173 A 
ATOM     64  C   UNL     1      10.914  12.020  -5.258  1.00  0.00     0.173 A 
ATOM     65  F   UNL     1      13.832   9.880  -4.884  1.00  0.00    -0.203 F 
ATOM     66  C   UNL     1      13.308  11.931  -3.854  1.00  0.00     0.198 A 
ATOM     67  C   UNL     1      11.254  13.053  -4.387  1.00  0.00     0.198 A 
ATOM     68  F   UNL     1       9.743  12.085  -5.910  1.00  0.00    -0.203 F 
ATOM     69  F   UNL     1      14.444  11.864  -3.148  1.00  0.00    -0.200 F 
ATOM     70  C   UNL     1      12.445  13.002  -3.679  1.00  0.00     0.200 A 
ATOM     71  F   UNL     1      10.422  14.092  -4.225  1.00  0.00    -0.200 F 
ATOM     72  F   UNL     1      12.756  13.981  -2.818  1.00  0.00    -0.200 F 
ENDBRANCH  48  62
BRANCH  49  73
ATOM     73  C   UNL     1       8.537   3.448 -11.209  1.00  0.00     0.064 A 
ATOM     74  C   UNL     1       9.356   2.706 -12.069  1.00  0.00     0.173 A 
ATOM     75  C   UNL     1       7.178   3.108 -11.141  1.00  0.00     0.173 A 
ATOM     76  F   UNL     1      10.658   3.008 -12.179  1.00  0.00    -0.203 F 
ATOM     77  C   UNL     1       8.836   1.666 -12.836  1.00  0.00     0.198 A 
ATOM     78  C   UNL     1       6.663   2.054 -11.893  1.00  0.00     0.198 A 
ATOM     79  F   UNL     1       6.356   3.786 -10.326  1.00  0.00    -0.203 F 
ATOM     80  F   UNL     1       9.636   0.986 -13.670  1.00  0.00    -0.200 F 
ATOM     81  C   UNL     1       7.492   1.336 -12.742  1.00  0.00     0.200 A 
ATOM     82  F   UNL     1       5.367   1.730 -11.790  1.00  0.00    -0.200 F 
ATOM     83  F   UNL     1       6.995   0.327 -13.471  1.00  0.00    -0.200 F 
ENDBRANCH  49  73
BRANCH  61  84
ATOM     84  C   UNL     1      10.861   9.894 -12.523  1.00  0.00     0.064 A 
ATOM     85  C   UNL     1       9.770  10.456 -13.200  1.00  0.00     0.173 A 
ATOM     86  C   UNL     1      12.148  10.138 -13.024  1.00  0.00     0.173 A 
ATOM     87  F   UNL     1       8.520  10.237 -12.765  1.00  0.00    -0.203 F 
ATOM     88  C   UNL     1       9.962  11.227 -14.343  1.00  0.00     0.198 A 
ATOM     89  C   UNL     1      12.337  10.928 -14.154  1.00  0.00     0.198 A 
ATOM     90  F   UNL     1      13.223   9.625 -12.406  1.00  0.00    -0.203 F 
ATOM     91  F   UNL     1       8.904  11.733 -14.992  1.00  0.00    -0.200 F 
ATOM     92  C   UNL     1      11.244  11.470 -14.814  1.00  0.00     0.200 A 
ATOM     93  F   UNL     1      13.577  11.169 -14.601  1.00  0.00    -0.200 F 
ATOM     94  F   UNL     1      11.427  12.224 -15.906  1.00  0.00    -0.200 F 
ENDBRANCH  61  84
ENDBRANCH  35  36
ENDBRANCH  27  30
ENDBRANCH  25  26
ENDBRANCH  24  25
ENDBRANCH  23  24
ENDBRANCH   1  23
TORSDOF 15
