REMARK SMILES CN(C(=O)N1CCC(C(=O)NCCCCNC(=O)c2ccc(-c3c4nc(c(-c5c(F)c(F)c(F)c(F)c5F)c5ccc([nH]5)c(-c5c(F)c(F)c(F)c(F)c5F)c5nc(c(-c6c(F)c(F)c(F)c(F)c6F)c6ccc3[nH]6)C=C5)C=C4)cc2)CC1)[C@H]1CCSC1
REMARK SMILES IDX 13 1 12 2 11 3 9 4 10 5 8 7 3 8 4 9 5 10 6 11 83 12 7 13
REMARK SMILES IDX 82 14 2 15 1 16 84 17 85 18 88 19 86 20 87 21 14 22 15 23
REMARK SMILES IDX 16 24 17 25 18 27 19 28 20 29 81 30 21 31 80 32 22 33 23 34
REMARK SMILES IDX 24 35 74 36 25 37 79 38 73 39 75 40 26 41 78 42 72 43 71 44
REMARK SMILES IDX 27 46 59 47 39 48 58 49 40 50 43 51 57 52 76 53 41 54 42 55
REMARK SMILES IDX 56 57 77 58 44 59 28 60 29 61 37 62 30 63 31 64 35 65 38 66
REMARK SMILES IDX 32 67 33 68 36 69 34 70 60 71 61 72 69 73 62 74 63 75 67 76
REMARK SMILES IDX 70 77 64 78 65 79 68 80 66 81 45 82 46 83 54 84 47 85 48 86
REMARK SMILES IDX 52 87 55 88 49 89 50 90 53 91 51 92
REMARK H PARENT 11 6 16 26 75 45 43 56
REMARK Flexibility Score: inf
ROOT
ATOM      1  C   UNL     1       6.295   2.505  -4.321  1.00  0.00     0.023 C 
ENDROOT
BRANCH   1   2
ATOM      2  C   UNL     1       5.119   3.281  -3.736  1.00  0.00     0.116 C 
BRANCH   2   3
ATOM      3  N   UNL     1       4.827   4.479  -4.506  1.00  0.00    -0.356 N 
ATOM      4  C   UNL     1       3.730   4.821  -5.236  1.00  0.00     0.223 C 
ATOM      5  O   UNL     1       3.742   5.909  -5.817  1.00  0.00    -0.275 OA
ATOM      6  H   UNL     1       5.542   5.157  -4.497  1.00  0.00     0.163 HD
BRANCH   4   7
ATOM      7  C   UNL     1       2.510   3.916  -5.318  1.00  0.00     0.082 C 
ATOM      8  C   UNL     1       1.535   0.235  -3.891  1.00  0.00     0.320 C 
ATOM      9  O   UNL     1       2.500  -0.430  -4.269  1.00  0.00    -0.248 OA
ATOM     10  N   UNL     1       1.263   1.440  -4.516  1.00  0.00    -0.325 N 
ATOM     11  C   UNL     1       1.682   1.602  -5.903  1.00  0.00     0.122 C 
ATOM     12  C   UNL     1       0.801   2.666  -3.871  1.00  0.00     0.122 C 
ATOM     13  C   UNL     1       2.825   2.594  -6.027  1.00  0.00     0.035 C 
ATOM     14  C   UNL     1       1.839   3.781  -3.944  1.00  0.00     0.035 C 
BRANCH   8  15
ATOM     15  N   UNL     1       0.681  -0.205  -2.889  1.00  0.00    -0.324 N 
ATOM     16  C   UNL     1      -0.660   0.341  -2.688  1.00  0.00     0.149 C 
BRANCH  15  17
ATOM     17  C   UNL     1       0.959  -1.436  -2.104  1.00  0.00     0.097 C 
ATOM     18  C   UNL     1       0.185  -2.662  -2.612  1.00  0.00     0.037 C 
ATOM     19  C   UNL     1       2.405  -1.941  -1.966  1.00  0.00     0.094 C 
ATOM     20  C   UNL     1       0.506  -3.811  -1.665  1.00  0.00     0.072 C 
ATOM     21  S   UNL     1       2.233  -3.575  -1.170  1.00  0.00    -0.160 SA
ENDBRANCH  15  17
ENDBRANCH   8  15
ENDBRANCH   4   7
ENDBRANCH   2   3
ENDBRANCH   1   2
BRANCH   1  22
ATOM     22  C   UNL     1       7.643   3.214  -4.206  1.00  0.00     0.023 C 
BRANCH  22  23
ATOM     23  C   UNL     1       8.027   3.648  -2.797  1.00  0.00     0.116 C 
BRANCH  23  24
ATOM     24  N   UNL     1       8.052   2.548  -1.843  1.00  0.00    -0.352 N 
ATOM     25  C   UNL     1       8.995   2.256  -0.890  1.00  0.00     0.251 C 
ATOM     26  H   UNL     1       7.288   1.929  -1.888  1.00  0.00     0.163 HD
ATOM     27  O   UNL     1       8.924   1.221  -0.235  1.00  0.00    -0.269 OA
BRANCH  25  28
ATOM     28  C   UNL     1      10.127   3.183  -0.682  1.00  0.00     0.039 A 
ATOM     29  C   UNL     1      11.424   2.666  -0.654  1.00  0.00     0.014 A 
ATOM     30  C   UNL     1       9.909   4.557  -0.553  1.00  0.00     0.014 A 
ATOM     31  C   UNL     1      12.510   3.537  -0.569  1.00  0.00     0.010 A 
ATOM     32  C   UNL     1      10.994   5.427  -0.545  1.00  0.00     0.010 A 
ATOM     33  C   UNL     1      12.306   4.927  -0.555  1.00  0.00    -0.014 A 
BRANCH  33  34
ATOM     34  C   UNL     1      13.449   5.873  -0.548  1.00  0.00     0.031 A 
ATOM     35  C   UNL     1      13.661   6.785   0.628  1.00  0.00     0.074 A 
ATOM     36  C   UNL     1      14.258   5.953  -1.622  1.00  0.00     0.049 A 
ATOM     37  N   UNL     1      14.543   7.739   0.789  1.00  0.00    -0.248 NA
ATOM     38  C   UNL     1      12.741   6.621   1.766  1.00  0.00     0.031 C 
ATOM     39  C   UNL     1      14.130   5.151  -2.841  1.00  0.00     0.029 A 
ATOM     40  N   UNL     1      15.344   6.757  -1.867  1.00  0.00    -0.354 N 
ATOM     41  C   UNL     1      14.284   8.285   2.038  1.00  0.00     0.074 A 
ATOM     42  C   UNL     1      13.124   7.603   2.568  1.00  0.00     0.031 C 
ATOM     43  C   UNL     1      15.108   5.492  -3.696  1.00  0.00     0.029 A 
ATOM     44  C   UNL     1      15.908   6.560  -3.105  1.00  0.00     0.049 A 
ATOM     45  H   UNL     1      15.686   7.413  -1.218  1.00  0.00     0.167 HD
ATOM     46  C   UNL     1      14.971   9.247   2.699  1.00  0.00     0.037 A 
ATOM     47  C   UNL     1      16.946   7.180  -3.697  1.00  0.00     0.037 A 
ATOM     48  C   UNL     1      16.134   9.915   2.178  1.00  0.00     0.049 A 
ATOM     49  C   UNL     1      17.676   8.264  -2.948  1.00  0.00     0.074 A 
ATOM     50  C   UNL     1      16.912  10.890   2.777  1.00  0.00     0.029 A 
ATOM     51  N   UNL     1      16.691   9.669   0.931  1.00  0.00    -0.354 N 
ATOM     52  N   UNL     1      17.452   8.736  -1.746  1.00  0.00    -0.248 NA
ATOM     53  C   UNL     1      18.810   8.896  -3.637  1.00  0.00     0.031 C 
ATOM     54  C   UNL     1      17.919  11.259   1.880  1.00  0.00     0.029 A 
ATOM     55  C   UNL     1      17.797  10.481   0.740  1.00  0.00     0.049 A 
ATOM     56  H   UNL     1      16.350   9.015   0.278  1.00  0.00     0.167 HD
ATOM     57  C   UNL     1      18.434   9.692  -1.522  1.00  0.00     0.074 A 
ATOM     58  C   UNL     1      19.266   9.721  -2.706  1.00  0.00     0.031 C 
ATOM     59  C   UNL     1      18.628  10.478  -0.436  1.00  0.00     0.037 A 
BRANCH  46  60
ATOM     60  C   UNL     1      14.495   9.620   4.072  1.00  0.00     0.064 A 
ATOM     61  C   UNL     1      14.643   8.741   5.157  1.00  0.00     0.173 A 
ATOM     62  C   UNL     1      13.932  10.880   4.320  1.00  0.00     0.173 A 
ATOM     63  F   UNL     1      15.163   7.519   4.970  1.00  0.00    -0.203 F 
ATOM     64  C   UNL     1      14.223   9.102   6.434  1.00  0.00     0.198 A 
ATOM     65  C   UNL     1      13.540  11.249   5.605  1.00  0.00     0.198 A 
ATOM     66  F   UNL     1      13.772  11.759   3.320  1.00  0.00    -0.203 F 
ATOM     67  F   UNL     1      14.335   8.230   7.446  1.00  0.00    -0.200 F 
ATOM     68  C   UNL     1      13.681  10.358   6.659  1.00  0.00     0.200 A 
ATOM     69  F   UNL     1      13.028  12.468   5.823  1.00  0.00    -0.200 F 
ATOM     70  F   UNL     1      13.288  10.709   7.891  1.00  0.00    -0.200 F 
ENDBRANCH  46  60
BRANCH  47  71
ATOM     71  C   UNL     1      17.371   6.793  -5.069  1.00  0.00     0.064 A 
ATOM     72  C   UNL     1      18.609   6.173  -5.292  1.00  0.00     0.173 A 
ATOM     73  C   UNL     1      16.570   7.069  -6.187  1.00  0.00     0.173 A 
ATOM     74  F   UNL     1      19.419   5.907  -4.257  1.00  0.00    -0.203 F 
ATOM     75  C   UNL     1      19.045   5.878  -6.582  1.00  0.00     0.198 A 
ATOM     76  C   UNL     1      16.994   6.744  -7.474  1.00  0.00     0.198 A 
ATOM     77  F   UNL     1      15.375   7.656  -6.030  1.00  0.00    -0.203 F 
ATOM     78  F   UNL     1      20.260   5.344  -6.769  1.00  0.00    -0.200 F 
ATOM     79  C   UNL     1      18.236   6.161  -7.671  1.00  0.00     0.200 A 
ATOM     80  F   UNL     1      16.204   7.007  -8.524  1.00  0.00    -0.200 F 
ATOM     81  F   UNL     1      18.660   5.884  -8.912  1.00  0.00    -0.200 F 
ENDBRANCH  47  71
BRANCH  59  82
ATOM     82  C   UNL     1      19.812  11.399  -0.456  1.00  0.00     0.064 A 
ATOM     83  C   UNL     1      19.847  12.539  -1.271  1.00  0.00     0.173 A 
ATOM     84  C   UNL     1      20.912  11.155   0.382  1.00  0.00     0.173 A 
ATOM     85  F   UNL     1      18.826  12.807  -2.100  1.00  0.00    -0.203 F 
ATOM     86  C   UNL     1      20.951  13.387  -1.268  1.00  0.00     0.198 A 
ATOM     87  C   UNL     1      22.001  12.022   0.404  1.00  0.00     0.198 A 
ATOM     88  F   UNL     1      20.925  10.082   1.186  1.00  0.00    -0.203 F 
ATOM     89  F   UNL     1      20.984  14.444  -2.092  1.00  0.00    -0.200 F 
ATOM     90  C   UNL     1      22.023  13.132  -0.426  1.00  0.00     0.200 A 
ATOM     91  F   UNL     1      23.029  11.781   1.229  1.00  0.00    -0.200 F 
ATOM     92  F   UNL     1      23.082  13.953  -0.420  1.00  0.00    -0.200 F 
ENDBRANCH  59  82
ENDBRANCH  33  34
ENDBRANCH  25  28
ENDBRANCH  23  24
ENDBRANCH  22  23
ENDBRANCH   1  22
TORSDOF 13
