REMARK SMILES Cc1ccccc1[C@@H]1[NH2+][C@@H](C(=O)NCCCCNC(=O)c2ccc(-c3c4nc(c(-c5c(F)c(F)c(F)c(F)c5F)c5ccc([nH]5)c(-c5c(F)c(F)c(F)c(F)c5F)c5nc(c(-c6c(F)c(F)c(F)c(F)c6F)c6ccc3[nH]6)C=C5)C=C4)cc2)CC2=c3ccccc3=N[C@H]21
REMARK SMILES IDX 16 1 15 2 14 3 13 4 11 5 12 6 10 8 8 9 9 10 93 11 85 14
REMARK SMILES IDX 92 15 84 16 86 17 91 18 87 19 90 20 88 21 89 22 7 23 1 24
REMARK SMILES IDX 2 25 3 26 4 27 6 28 5 29 17 30 18 31 19 32 20 34 21 35 22 36
REMARK SMILES IDX 83 37 23 38 82 39 24 40 25 41 26 42 76 43 27 44 81 45 75 46
REMARK SMILES IDX 77 47 28 48 80 49 74 50 73 51 29 53 61 54 41 55 60 56 42 57
REMARK SMILES IDX 45 58 59 59 78 60 43 61 44 62 58 64 79 65 46 66 30 67 31 68
REMARK SMILES IDX 39 69 32 70 33 71 37 72 40 73 34 74 35 75 38 76 36 77 62 78
REMARK SMILES IDX 63 79 71 80 64 81 65 82 69 83 72 84 66 85 67 86 70 87 68 88
REMARK SMILES IDX 47 89 48 90 56 91 49 92 50 93 54 94 57 95 51 96 52 97 55 98
REMARK SMILES IDX 53 99
REMARK H PARENT 13 7 9 12 9 13 18 33 77 52 45 63
REMARK Flexibility Score: inf
ROOT
ATOM      1  C   UNL     1      -3.211   8.324  -1.043  1.00  0.00     0.023 C 
ENDROOT
BRANCH   1   2
ATOM      2  C   UNL     1      -2.921   7.220  -0.030  1.00  0.00     0.023 C 
BRANCH   2   3
ATOM      3  C   UNL     1      -3.806   5.969  -0.149  1.00  0.00     0.116 C 
BRANCH   3   4
ATOM      4  N   UNL     1      -3.403   4.950  -1.111  1.00  0.00    -0.351 N 
ATOM      5  C   UNL     1      -2.420   3.994  -1.059  1.00  0.00     0.278 C 
ATOM      6  O   UNL     1      -2.646   2.943  -1.673  1.00  0.00    -0.268 OA
ATOM      7  H   UNL     1      -3.928   4.948  -1.944  1.00  0.00     0.163 HD
BRANCH   5   8
ATOM      8  C   UNL     1      -1.022   4.268  -0.436  1.00  0.00     0.277 C 
ATOM      9  C   UNL     1       0.635   2.439   0.335  1.00  0.00     0.243 C 
ATOM     10  N   UNL     1      -0.090   3.142  -0.758  1.00  0.00    -0.327 N 
ATOM     11  C   UNL     1       0.591   3.033   1.778  1.00  0.00     0.196 C 
ATOM     12  H   UNL     1      -0.640   2.436  -1.248  1.00  0.00     0.347 HD
ATOM     13  H   UNL     1       0.658   3.599  -1.279  1.00  0.00     0.347 HD
ATOM     14  C   UNL     1      -0.723   3.700   1.966  1.00  0.00    -0.024 C 
ATOM     15  N   UNL     1       0.627   1.986   2.848  1.00  0.00    -0.270 NA
ATOM     16  C   UNL     1      -1.028   4.770   1.007  1.00  0.00     0.109 C 
ATOM     17  C   UNL     1      -1.440   3.152   2.933  1.00  0.00     0.002 A 
ATOM     18  C   UNL     1      -0.511   2.139   3.457  1.00  0.00     0.066 A 
ATOM     19  C   UNL     1      -2.762   3.316   3.435  1.00  0.00     0.010 A 
ATOM     20  C   UNL     1      -0.979   1.397   4.646  1.00  0.00     0.028 A 
ATOM     21  C   UNL     1      -3.144   2.557   4.474  1.00  0.00     0.001 A 
ATOM     22  C   UNL     1      -2.223   1.623   5.106  1.00  0.00     0.002 A 
BRANCH   9  23
ATOM     23  C   UNL     1       2.099   2.191  -0.063  1.00  0.00     0.015 A 
ATOM     24  C   UNL     1       2.699   4.687  -0.334  1.00  0.00     0.045 C 
ATOM     25  C   UNL     1       3.038   3.221  -0.320  1.00  0.00    -0.042 A 
ATOM     26  C   UNL     1       4.394   2.888  -0.507  1.00  0.00     0.004 A 
ATOM     27  C   UNL     1       4.822   1.563  -0.495  1.00  0.00     0.000 A 
ATOM     28  C   UNL     1       2.554   0.855  -0.087  1.00  0.00     0.010 A 
ATOM     29  C   UNL     1       3.898   0.544  -0.304  1.00  0.00     0.001 A 
ENDBRANCH   9  23
ENDBRANCH   5   8
ENDBRANCH   3   4
ENDBRANCH   2   3
ENDBRANCH   1   2
BRANCH   1  30
ATOM     30  C   UNL     1      -4.556   9.016  -0.849  1.00  0.00     0.116 C 
BRANCH  30  31
ATOM     31  N   UNL     1      -4.533  10.255  -0.075  1.00  0.00    -0.352 N 
ATOM     32  C   UNL     1      -5.613  11.051   0.284  1.00  0.00     0.251 C 
ATOM     33  H   UNL     1      -3.647  10.562   0.227  1.00  0.00     0.163 HD
ATOM     34  O   UNL     1      -5.455  12.085   0.925  1.00  0.00    -0.269 OA
BRANCH  32  35
ATOM     35  C   UNL     1      -6.980  10.555  -0.007  1.00  0.00     0.039 A 
ATOM     36  C   UNL     1      -7.855  10.378   1.068  1.00  0.00     0.014 A 
ATOM     37  C   UNL     1      -7.266   9.997  -1.249  1.00  0.00     0.014 A 
ATOM     38  C   UNL     1      -8.852   9.409   0.976  1.00  0.00     0.010 A 
ATOM     39  C   UNL     1      -8.180   8.962  -1.309  1.00  0.00     0.010 A 
ATOM     40  C   UNL     1      -8.920   8.618  -0.173  1.00  0.00    -0.014 A 
BRANCH  40  41
ATOM     41  C   UNL     1      -9.668   7.366  -0.225  1.00  0.00     0.031 A 
ATOM     42  C   UNL     1     -10.967   7.305  -0.922  1.00  0.00     0.074 A 
ATOM     43  C   UNL     1      -9.183   6.244   0.355  1.00  0.00     0.049 A 
ATOM     44  N   UNL     1     -11.942   6.540  -0.557  1.00  0.00    -0.248 NA
ATOM     45  C   UNL     1     -11.280   8.132  -2.078  1.00  0.00     0.031 C 
ATOM     46  C   UNL     1      -9.710   4.888   0.216  1.00  0.00     0.029 A 
ATOM     47  N   UNL     1      -8.195   6.132   1.347  1.00  0.00    -0.354 N 
ATOM     48  C   UNL     1     -12.890   6.571  -1.552  1.00  0.00     0.074 A 
ATOM     49  C   UNL     1     -12.460   7.623  -2.447  1.00  0.00     0.031 C 
ATOM     50  C   UNL     1      -9.287   4.146   1.251  1.00  0.00     0.029 A 
ATOM     51  C   UNL     1      -8.563   5.024   2.150  1.00  0.00     0.049 A 
ATOM     52  H   UNL     1      -7.406   6.708   1.462  1.00  0.00     0.167 HD
ATOM     53  C   UNL     1     -13.865   5.615  -1.586  1.00  0.00     0.037 A 
ATOM     54  C   UNL     1      -8.780   5.141   3.492  1.00  0.00     0.037 A 
ATOM     55  C   UNL     1     -13.731   4.674  -0.477  1.00  0.00     0.049 A 
ATOM     56  C   UNL     1     -10.178   4.768   3.920  1.00  0.00     0.074 A 
ATOM     57  C   UNL     1     -13.151   3.418  -0.391  1.00  0.00     0.029 A 
ATOM     58  N   UNL     1     -13.945   5.097   0.831  1.00  0.00    -0.354 N 
ATOM     59  N   UNL     1     -11.167   4.606   3.088  1.00  0.00    -0.248 NA
ATOM     60  C   UNL     1     -10.590   4.626   5.314  1.00  0.00     0.031 C 
ATOM     61  C   UNL     1     -12.988   3.099   0.977  1.00  0.00     0.029 A 
ATOM     62  C   UNL     1     -13.471   4.157   1.727  1.00  0.00     0.049 A 
ATOM     63  H   UNL     1     -14.374   5.947   1.083  1.00  0.00     0.167 HD
ATOM     64  C   UNL     1     -12.329   4.433   3.792  1.00  0.00     0.074 A 
ATOM     65  C   UNL     1     -11.909   4.404   5.180  1.00  0.00     0.031 C 
ATOM     66  C   UNL     1     -13.541   4.371   3.165  1.00  0.00     0.037 A 
BRANCH  53  67
ATOM     67  C   UNL     1     -14.733   5.360  -2.799  1.00  0.00     0.064 A 
ATOM     68  C   UNL     1     -15.162   4.056  -3.131  1.00  0.00     0.173 A 
ATOM     69  C   UNL     1     -15.132   6.358  -3.707  1.00  0.00     0.173 A 
ATOM     70  F   UNL     1     -14.971   3.021  -2.303  1.00  0.00    -0.203 F 
ATOM     71  C   UNL     1     -15.805   3.760  -4.336  1.00  0.00     0.198 A 
ATOM     72  C   UNL     1     -15.723   6.057  -4.939  1.00  0.00     0.198 A 
ATOM     73  F   UNL     1     -15.004   7.657  -3.406  1.00  0.00    -0.203 F 
ATOM     74  F   UNL     1     -16.175   2.499  -4.600  1.00  0.00    -0.200 F 
ATOM     75  C   UNL     1     -16.045   4.754  -5.261  1.00  0.00     0.200 A 
ATOM     76  F   UNL     1     -15.973   7.041  -5.814  1.00  0.00    -0.200 F 
ATOM     77  F   UNL     1     -16.608   4.463  -6.441  1.00  0.00    -0.200 F 
ENDBRANCH  53  67
BRANCH  54  78
ATOM     78  C   UNL     1      -7.959   6.219   4.102  1.00  0.00     0.064 A 
ATOM     79  C   UNL     1      -6.559   6.084   4.020  1.00  0.00     0.173 A 
ATOM     80  C   UNL     1      -8.485   7.501   4.290  1.00  0.00     0.173 A 
ATOM     81  F   UNL     1      -6.010   4.869   3.858  1.00  0.00    -0.203 F 
ATOM     82  C   UNL     1      -5.739   7.202   3.921  1.00  0.00     0.198 A 
ATOM     83  C   UNL     1      -7.652   8.618   4.230  1.00  0.00     0.198 A 
ATOM     84  F   UNL     1      -9.809   7.686   4.385  1.00  0.00    -0.203 F 
ATOM     85  F   UNL     1      -4.436   7.047   3.644  1.00  0.00    -0.200 F 
ATOM     86  C   UNL     1      -6.293   8.469   3.988  1.00  0.00     0.200 A 
ATOM     87  F   UNL     1      -8.185   9.847   4.292  1.00  0.00    -0.200 F 
ATOM     88  F   UNL     1      -5.526   9.544   3.761  1.00  0.00    -0.200 F 
ENDBRANCH  54  78
BRANCH  66  89
ATOM     89  C   UNL     1     -14.884   4.399   3.851  1.00  0.00     0.064 A 
ATOM     90  C   UNL     1     -15.127   5.045   5.075  1.00  0.00     0.173 A 
ATOM     91  C   UNL     1     -16.024   3.853   3.215  1.00  0.00     0.173 A 
ATOM     92  F   UNL     1     -14.162   5.727   5.707  1.00  0.00    -0.203 F 
ATOM     93  C   UNL     1     -16.393   5.057   5.667  1.00  0.00     0.198 A 
ATOM     94  C   UNL     1     -17.297   3.920   3.779  1.00  0.00     0.198 A 
ATOM     95  F   UNL     1     -15.938   3.257   2.017  1.00  0.00    -0.203 F 
ATOM     96  F   UNL     1     -16.559   5.635   6.865  1.00  0.00    -0.200 F 
ATOM     97  C   UNL     1     -17.478   4.500   5.017  1.00  0.00     0.200 A 
ATOM     98  F   UNL     1     -18.350   3.430   3.108  1.00  0.00    -0.200 F 
ATOM     99  F   UNL     1     -18.696   4.543   5.572  1.00  0.00    -0.200 F 
ENDBRANCH  66  89
ENDBRANCH  40  41
ENDBRANCH  32  35
ENDBRANCH  30  31
ENDBRANCH   1  30
TORSDOF 12
