REMARK SMILES C[C@H]1[C@@H](C(=O)NCCCCNC(=O)c2ccc(-c3c4nc(c(-c5c(F)c(F)c(F)c(F)c5F)c5ccc([nH]5)c(-c5c(F)c(F)c(F)c(F)c5F)c5nc(c(-c6c(F)c(F)c(F)c(F)c6F)c6ccc3[nH]6)C=C5)C=C4)cc2)CCN1C(=O)c1n[nH]c(N)n1
REMARK SMILES IDX 8 1 7 2 6 3 4 4 5 5 3 7 1 8 2 9 79 10 77 11 78 12 80 13
REMARK SMILES IDX 81 14 82 15 83 16 87 17 84 18 85 19 86 21 9 24 10 25 11 26
REMARK SMILES IDX 12 27 13 29 14 30 15 31 76 32 16 33 75 34 17 35 18 36 19 37
REMARK SMILES IDX 69 38 20 39 74 40 68 41 70 42 21 43 73 44 67 45 66 46 22 48
REMARK SMILES IDX 54 49 34 50 53 51 35 52 38 53 52 54 71 55 36 56 37 57 51 59
REMARK SMILES IDX 72 60 39 61 23 62 24 63 32 64 25 65 26 66 30 67 33 68 27 69
REMARK SMILES IDX 28 70 31 71 29 72 55 73 56 74 64 75 57 76 58 77 62 78 65 79
REMARK SMILES IDX 59 80 60 81 63 82 61 83 40 84 41 85 49 86 42 87 43 88 47 89
REMARK SMILES IDX 50 90 44 91 45 92 48 93 46 94
REMARK H PARENT 6 6 84 20 86 22 86 23 11 28 70 47 38 58
REMARK Flexibility Score: inf
ROOT
ATOM      1  C   UNL     1       3.405   0.570  -2.032  1.00  0.00     0.023 C 
ENDROOT
BRANCH   1   2
ATOM      2  C   UNL     1       2.664   1.710  -1.314  1.00  0.00     0.116 C 
BRANCH   2   3
ATOM      3  N   UNL     1       1.293   1.764  -1.786  1.00  0.00    -0.356 N 
ATOM      4  C   UNL     1       0.143   1.214  -1.302  1.00  0.00     0.225 C 
ATOM      5  O   UNL     1      -0.803   1.184  -2.094  1.00  0.00    -0.275 OA
ATOM      6  H   UNL     1       1.171   2.296  -2.605  1.00  0.00     0.163 HD
BRANCH   4   7
ATOM      7  C   UNL     1      -0.018   0.778   0.166  1.00  0.00     0.102 C 
ATOM      8  C   UNL     1       1.731  -1.114  -0.151  1.00  0.00     0.032 C 
ATOM      9  C   UNL     1       0.613  -0.543   0.687  1.00  0.00     0.095 C 
ATOM     10  N   UNL     1      -0.482  -1.507   0.794  1.00  0.00    -0.332 N 
ATOM     11  C   UNL     1      -1.520   0.540   0.469  1.00  0.00     0.037 C 
ATOM     12  C   UNL     1      -1.698  -0.957   0.245  1.00  0.00     0.121 C 
BRANCH  10  13
ATOM     13  C   UNL     1      -0.419  -2.797   1.340  1.00  0.00     0.293 C 
ATOM     14  O   UNL     1      -1.370  -3.575   1.259  1.00  0.00    -0.265 OA
BRANCH  13  15
ATOM     15  C   UNL     1       0.866  -3.196   1.977  1.00  0.00     0.241 A 
ATOM     16  N   UNL     1       1.459  -2.491   2.968  1.00  0.00    -0.147 NA
ATOM     17  N   UNL     1       1.684  -4.184   1.442  1.00  0.00    -0.187 NA
ATOM     18  N   UNL     1       2.667  -3.075   3.033  1.00  0.00    -0.245 N 
ATOM     19  C   UNL     1       2.817  -4.034   2.075  1.00  0.00     0.216 A 
ATOM     20  H   UNL     1       3.360  -2.840   3.692  1.00  0.00     0.193 HD
BRANCH  19  21
ATOM     21  N   UNL     1       3.986  -4.633   1.828  1.00  0.00    -0.368 N 
ATOM     22  H   UNL     1       4.771  -4.429   2.386  1.00  0.00     0.159 HD
ATOM     23  H   UNL     1       4.062  -5.279   1.089  1.00  0.00     0.159 HD
ENDBRANCH  19  21
ENDBRANCH  13  15
ENDBRANCH  10  13
ENDBRANCH   4   7
ENDBRANCH   2   3
ENDBRANCH   1   2
BRANCH   1  24
ATOM     24  C   UNL     1       4.244   0.959  -3.230  1.00  0.00     0.023 C 
BRANCH  24  25
ATOM     25  C   UNL     1       5.517   1.696  -2.869  1.00  0.00     0.116 C 
BRANCH  25  26
ATOM     26  N   UNL     1       6.410   0.956  -1.979  1.00  0.00    -0.352 N 
ATOM     27  C   UNL     1       7.775   0.800  -2.065  1.00  0.00     0.251 C 
ATOM     28  H   UNL     1       5.977   0.509  -1.216  1.00  0.00     0.163 HD
ATOM     29  O   UNL     1       8.382   0.096  -1.266  1.00  0.00    -0.269 OA
BRANCH  27  30
ATOM     30  C   UNL     1       8.484   1.456  -3.179  1.00  0.00     0.039 A 
ATOM     31  C   UNL     1       9.315   0.693  -4.001  1.00  0.00     0.014 A 
ATOM     32  C   UNL     1       8.201   2.788  -3.486  1.00  0.00     0.014 A 
ATOM     33  C   UNL     1       9.774   1.240  -5.199  1.00  0.00     0.010 A 
ATOM     34  C   UNL     1       8.552   3.281  -4.732  1.00  0.00     0.010 A 
ATOM     35  C   UNL     1       9.345   2.515  -5.600  1.00  0.00    -0.014 A 
BRANCH  35  36
ATOM     36  C   UNL     1       9.721   3.092  -6.913  1.00  0.00     0.031 A 
ATOM     37  C   UNL     1      10.477   4.391  -6.956  1.00  0.00     0.074 A 
ATOM     38  C   UNL     1       9.300   2.510  -8.053  1.00  0.00     0.049 A 
ATOM     39  N   UNL     1      10.787   5.136  -7.985  1.00  0.00    -0.248 NA
ATOM     40  C   UNL     1      10.893   4.954  -5.661  1.00  0.00     0.031 C 
ATOM     41  C   UNL     1       8.492   1.292  -8.141  1.00  0.00     0.029 A 
ATOM     42  N   UNL     1       9.485   2.878  -9.363  1.00  0.00    -0.354 N 
ATOM     43  C   UNL     1      11.392   6.268  -7.456  1.00  0.00     0.074 A 
ATOM     44  C   UNL     1      11.349   6.144  -6.017  1.00  0.00     0.031 C 
ATOM     45  C   UNL     1       8.282   0.994  -9.434  1.00  0.00     0.029 A 
ATOM     46  C   UNL     1       8.909   2.017 -10.265  1.00  0.00     0.049 A 
ATOM     47  H   UNL     1       9.984   3.683  -9.630  1.00  0.00     0.167 HD
ATOM     48  C   UNL     1      11.966   7.303  -8.112  1.00  0.00     0.037 A 
ATOM     49  C   UNL     1       8.896   2.052 -11.611  1.00  0.00     0.037 A 
ATOM     50  C   UNL     1      12.072   7.386  -9.542  1.00  0.00     0.049 A 
ATOM     51  C   UNL     1       9.601   3.177 -12.318  1.00  0.00     0.074 A 
ATOM     52  C   UNL     1      12.710   8.344 -10.307  1.00  0.00     0.029 A 
ATOM     53  N   UNL     1      11.534   6.458 -10.422  1.00  0.00    -0.354 N 
ATOM     54  N   UNL     1      10.232   4.207 -11.809  1.00  0.00    -0.248 NA
ATOM     55  C   UNL     1       9.599   3.140 -13.787  1.00  0.00     0.031 C 
ATOM     56  C   UNL     1      12.540   8.008 -11.655  1.00  0.00     0.029 A 
ATOM     57  C   UNL     1      11.824   6.824 -11.726  1.00  0.00     0.049 A 
ATOM     58  H   UNL     1      11.023   5.659 -10.159  1.00  0.00     0.167 HD
ATOM     59  C   UNL     1      10.722   4.926 -12.890  1.00  0.00     0.074 A 
ATOM     60  C   UNL     1      10.327   4.207 -14.084  1.00  0.00     0.031 C 
ATOM     61  C   UNL     1      11.432   6.081 -12.895  1.00  0.00     0.037 A 
BRANCH  48  62
ATOM     62  C   UNL     1      12.541   8.411  -7.281  1.00  0.00     0.064 A 
ATOM     63  C   UNL     1      13.695   8.223  -6.504  1.00  0.00     0.173 A 
ATOM     64  C   UNL     1      11.937   9.676  -7.264  1.00  0.00     0.173 A 
ATOM     65  F   UNL     1      14.298   7.025  -6.471  1.00  0.00    -0.203 F 
ATOM     66  C   UNL     1      14.201   9.249  -5.712  1.00  0.00     0.198 A 
ATOM     67  C   UNL     1      12.464  10.710  -6.495  1.00  0.00     0.198 A 
ATOM     68  F   UNL     1      10.833   9.909  -7.989  1.00  0.00    -0.203 F 
ATOM     69  F   UNL     1      15.267   9.027  -4.932  1.00  0.00    -0.200 F 
ATOM     70  C   UNL     1      13.589  10.493  -5.713  1.00  0.00     0.200 A 
ATOM     71  F   UNL     1      11.877  11.915  -6.501  1.00  0.00    -0.200 F 
ATOM     72  F   UNL     1      14.078  11.481  -4.950  1.00  0.00    -0.200 F 
ENDBRANCH  48  62
BRANCH  49  73
ATOM     73  C   UNL     1       8.237   0.964 -12.377  1.00  0.00     0.064 A 
ATOM     74  C   UNL     1       9.002   0.021 -13.080  1.00  0.00     0.173 A 
ATOM     75  C   UNL     1       6.842   0.841 -12.428  1.00  0.00     0.173 A 
ATOM     76  F   UNL     1      10.340   0.110 -13.075  1.00  0.00    -0.203 F 
ATOM     77  C   UNL     1       8.396  -0.991 -13.820  1.00  0.00     0.198 A 
ATOM     78  C   UNL     1       6.237  -0.186 -13.151  1.00  0.00     0.198 A 
ATOM     79  F   UNL     1       6.067   1.713 -11.769  1.00  0.00    -0.203 F 
ATOM     80  F   UNL     1       9.151  -1.853 -14.515  1.00  0.00    -0.200 F 
ATOM     81  C   UNL     1       7.014  -1.097 -13.852  1.00  0.00     0.200 A 
ATOM     82  F   UNL     1       4.901  -0.293 -13.171  1.00  0.00    -0.200 F 
ATOM     83  F   UNL     1       6.431  -2.071 -14.563  1.00  0.00    -0.200 F 
ENDBRANCH  49  73
BRANCH  61  84
ATOM     84  C   UNL     1      11.856   6.618 -14.228  1.00  0.00     0.064 A 
ATOM     85  C   UNL     1      10.944   7.244 -15.088  1.00  0.00     0.173 A 
ATOM     86  C   UNL     1      13.200   6.551 -14.623  1.00  0.00     0.173 A 
ATOM     87  F   UNL     1       9.646   7.317 -14.757  1.00  0.00    -0.203 F 
ATOM     88  C   UNL     1      11.359   7.769 -16.308  1.00  0.00     0.198 A 
ATOM     89  C   UNL     1      13.617   7.099 -15.832  1.00  0.00     0.198 A 
ATOM     90  F   UNL     1      14.111   5.967 -13.829  1.00  0.00    -0.203 F 
ATOM     91  F   UNL     1      10.465   8.331 -17.132  1.00  0.00    -0.200 F 
ATOM     92  C   UNL     1      12.695   7.703 -16.675  1.00  0.00     0.200 A 
ATOM     93  F   UNL     1      14.909   7.045 -16.181  1.00  0.00    -0.200 F 
ATOM     94  F   UNL     1      13.095   8.217 -17.846  1.00  0.00    -0.200 F 
ENDBRANCH  61  84
ENDBRANCH  35  36
ENDBRANCH  27  30
ENDBRANCH  25  26
ENDBRANCH  24  25
ENDBRANCH   1  24
TORSDOF 14
