REMARK SMILES Cc1nsc(N(C)C(=O)[C@@H](C)CCC[C@H](C)[NH3+])c1C(=O)NCCCCNC(=O)c1ccc(-c2c3nc(c(-c4c(F)c(F)c(F)c(F)c4F)c4ccc([nH]4)c(-c4c(F)c(F)c(F)c(F)c4F)c4nc(c(-c5c(F)c(F)c(F)c(F)c5F)c5ccc2[nH]5)C=C4)C=C3)cc1
REMARK SMILES IDX 1 1 2 2 3 3 4 4 5 5 18 6 19 7 20 8 21 9 22 11 23 12 24 13
REMARK SMILES IDX 25 14 26 15 27 16 28 18 29 19 30 20 91 21 31 22 90 23 32 24
REMARK SMILES IDX 33 25 34 26 84 27 35 28 89 29 83 30 85 31 36 32 88 33 82 34
REMARK SMILES IDX 81 35 37 37 69 38 49 39 68 40 50 41 53 42 67 43 86 44 51 45
REMARK SMILES IDX 52 46 66 48 87 49 54 50 38 51 39 52 47 53 40 54 41 55 45 56
REMARK SMILES IDX 48 57 42 58 43 59 46 60 44 61 70 62 71 63 79 64 72 65 73 66
REMARK SMILES IDX 77 67 80 68 74 69 75 70 78 71 76 72 55 73 56 74 64 75 57 76
REMARK SMILES IDX 58 77 62 78 65 79 59 80 60 81 63 82 61 83 6 84 7 85 8 86
REMARK SMILES IDX 9 87 10 88 11 89 12 90 13 91 14 92 15 93 16 94 17 95
REMARK H PARENT 21 10 26 17 85 36 53 47 17 96 17 97 17 98
REMARK Flexibility Score: inf
ROOT
ATOM      1  C   UNL     1     -14.120  -3.385  -9.777  1.00  0.00     0.069 C 
ATOM      2  C   UNL     1     -13.078  -2.343  -9.959  1.00  0.00     0.066 A 
ATOM      3  N   UNL     1     -13.532  -1.312 -10.672  1.00  0.00    -0.195 NA
ATOM      4  S   UNL     1     -12.342  -0.231 -10.893  1.00  0.00    -0.017 S 
ATOM      5  C   UNL     1     -11.094  -1.161 -10.176  1.00  0.00     0.131 A 
ATOM      6  C   UNL     1     -11.696  -2.232  -9.472  1.00  0.00     0.097 A 
ENDROOT
BRANCH   6   7
ATOM      7  C   UNL     1     -10.930  -2.965  -8.446  1.00  0.00     0.256 C 
ATOM      8  O   UNL     1      -9.993  -2.416  -7.852  1.00  0.00    -0.269 OA
ATOM      9  N   UNL     1     -11.132  -4.260  -8.036  1.00  0.00    -0.352 N 
ATOM     10  H   UNL     1     -10.303  -4.780  -7.928  1.00  0.00     0.163 HD
BRANCH   9  11
ATOM     11  C   UNL     1     -12.332  -4.999  -7.733  1.00  0.00     0.116 C 
BRANCH  11  12
ATOM     12  C   UNL     1     -12.528  -6.219  -8.633  1.00  0.00     0.023 C 
BRANCH  12  13
ATOM     13  C   UNL     1     -11.723  -7.468  -8.253  1.00  0.00     0.023 C 
BRANCH  13  14
ATOM     14  C   UNL     1     -12.041  -8.047  -6.878  1.00  0.00     0.116 C 
BRANCH  14  15
ATOM     15  N   UNL     1     -13.450  -8.401  -6.719  1.00  0.00    -0.352 N 
ATOM     16  C   UNL     1     -14.097  -8.782  -5.565  1.00  0.00     0.251 C 
ATOM     17  H   UNL     1     -14.002  -8.362  -7.533  1.00  0.00     0.163 HD
ATOM     18  O   UNL     1     -15.148  -9.424  -5.608  1.00  0.00    -0.269 OA
BRANCH  16  19
ATOM     19  C   UNL     1     -13.526  -8.399  -4.267  1.00  0.00     0.039 A 
ATOM     20  C   UNL     1     -13.446  -9.314  -3.214  1.00  0.00     0.014 A 
ATOM     21  C   UNL     1     -13.047  -7.097  -4.124  1.00  0.00     0.014 A 
ATOM     22  C   UNL     1     -12.799  -8.935  -2.042  1.00  0.00     0.010 A 
ATOM     23  C   UNL     1     -12.317  -6.756  -3.011  1.00  0.00     0.010 A 
ATOM     24  C   UNL     1     -12.216  -7.661  -1.957  1.00  0.00    -0.014 A 
BRANCH  24  25
ATOM     25  C   UNL     1     -11.344  -7.317  -0.839  1.00  0.00     0.031 A 
ATOM     26  C   UNL     1     -10.177  -8.229  -0.670  1.00  0.00     0.074 A 
ATOM     27  C   UNL     1     -11.452  -6.151  -0.167  1.00  0.00     0.049 A 
ATOM     28  N   UNL     1      -9.903  -8.963   0.357  1.00  0.00    -0.248 NA
ATOM     29  C   UNL     1      -9.278  -8.459  -1.814  1.00  0.00     0.031 C 
ATOM     30  C   UNL     1     -12.389  -5.050  -0.412  1.00  0.00     0.029 A 
ATOM     31  N   UNL     1     -10.663  -5.650   0.823  1.00  0.00    -0.354 N 
ATOM     32  C   UNL     1      -8.703  -9.609   0.071  1.00  0.00     0.074 A 
ATOM     33  C   UNL     1      -8.456  -9.393  -1.330  1.00  0.00     0.031 C 
ATOM     34  C   UNL     1     -11.965  -3.941   0.234  1.00  0.00     0.029 A 
ATOM     35  C   UNL     1     -10.815  -4.285   1.049  1.00  0.00     0.049 A 
ATOM     36  H   UNL     1     -10.036  -6.208   1.338  1.00  0.00     0.167 HD
ATOM     37  C   UNL     1      -7.906 -10.068   1.077  1.00  0.00     0.037 A 
ATOM     38  C   UNL     1     -10.029  -3.493   1.826  1.00  0.00     0.037 A 
ATOM     39  C   UNL     1      -8.644 -10.145   2.314  1.00  0.00     0.049 A 
ATOM     40  C   UNL     1      -9.306  -4.388   2.765  1.00  0.00     0.074 A 
ATOM     41  C   UNL     1      -9.772 -10.830   2.725  1.00  0.00     0.029 A 
ATOM     42  N   UNL     1      -8.466  -9.136   3.230  1.00  0.00    -0.354 N 
ATOM     43  N   UNL     1      -9.896  -5.042   3.727  1.00  0.00    -0.248 NA
ATOM     44  C   UNL     1      -8.025  -4.929   2.334  1.00  0.00     0.031 C 
ATOM     45  C   UNL     1     -10.482  -9.907   3.548  1.00  0.00     0.029 A 
ATOM     46  C   UNL     1      -9.707  -8.753   3.666  1.00  0.00     0.049 A 
ATOM     47  H   UNL     1      -7.605  -8.758   3.519  1.00  0.00     0.167 HD
ATOM     48  C   UNL     1      -9.316  -6.300   3.694  1.00  0.00     0.074 A 
ATOM     49  C   UNL     1      -8.111  -6.146   2.879  1.00  0.00     0.031 C 
ATOM     50  C   UNL     1     -10.024  -7.405   4.068  1.00  0.00     0.037 A 
BRANCH  37  51
ATOM     51  C   UNL     1      -6.394 -10.070   1.058  1.00  0.00     0.064 A 
ATOM     52  C   UNL     1      -5.703 -10.613   2.163  1.00  0.00     0.173 A 
ATOM     53  C   UNL     1      -5.611  -9.288   0.183  1.00  0.00     0.173 A 
ATOM     54  F   UNL     1      -6.342 -11.378   3.062  1.00  0.00    -0.203 F 
ATOM     55  C   UNL     1      -4.369 -10.296   2.432  1.00  0.00     0.198 A 
ATOM     56  C   UNL     1      -4.266  -9.016   0.427  1.00  0.00     0.198 A 
ATOM     57  F   UNL     1      -6.131  -8.661  -0.878  1.00  0.00    -0.203 F 
ATOM     58  F   UNL     1      -3.803 -10.714   3.572  1.00  0.00    -0.200 F 
ATOM     59  C   UNL     1      -3.655  -9.486   1.570  1.00  0.00     0.200 A 
ATOM     60  F   UNL     1      -3.593  -8.218  -0.415  1.00  0.00    -0.200 F 
ATOM     61  F   UNL     1      -2.401  -9.118   1.862  1.00  0.00    -0.200 F 
ENDBRANCH  37  51
BRANCH  38  62
ATOM     62  C   UNL     1      -9.661  -2.065   1.647  1.00  0.00     0.064 A 
ATOM     63  C   UNL     1      -9.010  -1.349   2.668  1.00  0.00     0.173 A 
ATOM     64  C   UNL     1      -9.680  -1.453   0.378  1.00  0.00     0.173 A 
ATOM     65  F   UNL     1      -8.910  -1.869   3.900  1.00  0.00    -0.203 F 
ATOM     66  C   UNL     1      -8.385  -0.119   2.425  1.00  0.00     0.198 A 
ATOM     67  C   UNL     1      -9.062  -0.223   0.138  1.00  0.00     0.198 A 
ATOM     68  F   UNL     1     -10.214  -2.076  -0.681  1.00  0.00    -0.203 F 
ATOM     69  F   UNL     1      -7.715   0.497   3.409  1.00  0.00    -0.200 F 
ATOM     70  C   UNL     1      -8.400   0.435   1.157  1.00  0.00     0.200 A 
ATOM     71  F   UNL     1      -9.056   0.286  -1.102  1.00  0.00    -0.200 F 
ATOM     72  F   UNL     1      -7.744   1.577   0.906  1.00  0.00    -0.200 F 
ENDBRANCH  38  62
BRANCH  50  73
ATOM     73  C   UNL     1     -11.346  -7.197   4.753  1.00  0.00     0.064 A 
ATOM     74  C   UNL     1     -12.454  -6.565   4.160  1.00  0.00     0.173 A 
ATOM     75  C   UNL     1     -11.541  -7.793   6.005  1.00  0.00     0.173 A 
ATOM     76  F   UNL     1     -12.384  -6.062   2.923  1.00  0.00    -0.203 F 
ATOM     77  C   UNL     1     -13.682  -6.493   4.814  1.00  0.00     0.198 A 
ATOM     78  C   UNL     1     -12.779  -7.755   6.638  1.00  0.00     0.198 A 
ATOM     79  F   UNL     1     -10.537  -8.462   6.593  1.00  0.00    -0.203 F 
ATOM     80  F   UNL     1     -14.719  -5.872   4.232  1.00  0.00    -0.200 F 
ATOM     81  C   UNL     1     -13.845  -7.095   6.050  1.00  0.00     0.200 A 
ATOM     82  F   UNL     1     -12.945  -8.384   7.810  1.00  0.00    -0.200 F 
ATOM     83  F   UNL     1     -15.037  -7.062   6.663  1.00  0.00    -0.200 F 
ENDBRANCH  50  73
ENDBRANCH  24  25
ENDBRANCH  16  19
ENDBRANCH  14  15
ENDBRANCH  13  14
ENDBRANCH  12  13
ENDBRANCH  11  12
ENDBRANCH   9  11
ENDBRANCH   6   7
BRANCH   5  84
ATOM     84  N   UNL     1      -9.758  -0.701 -10.379  1.00  0.00    -0.305 N 
ATOM     85  C   UNL     1      -9.474   0.620 -10.947  1.00  0.00     0.154 C 
BRANCH  84  86
ATOM     86  C   UNL     1      -8.726  -1.633 -10.211  1.00  0.00     0.230 C 
ATOM     87  O   UNL     1      -8.906  -2.846 -10.392  1.00  0.00    -0.274 OA
BRANCH  86  88
ATOM     88  C   UNL     1      -7.280  -1.171  -9.891  1.00  0.00     0.076 C 
ATOM     89  C   UNL     1      -6.442  -1.161 -11.176  1.00  0.00     0.018 C 
BRANCH  88  90
ATOM     90  C   UNL     1      -7.045   0.120  -9.087  1.00  0.00     0.013 C 
BRANCH  90  91
ATOM     91  C   UNL     1      -7.637   0.131  -7.675  1.00  0.00     0.007 C 
BRANCH  91  92
ATOM     92  C   UNL     1      -6.726  -0.436  -6.575  1.00  0.00     0.064 C 
BRANCH  92  93
ATOM     93  C   UNL     1      -5.325   0.202  -6.453  1.00  0.00     0.177 C 
ATOM     94  C   UNL     1      -4.666  -0.175  -5.125  1.00  0.00     0.075 C 
BRANCH  93  95
ATOM     95  N   UNL     1      -5.342   1.663  -6.544  1.00  0.00    -0.355 N 
ATOM     96  H   UNL     1      -5.870   2.046  -5.759  1.00  0.00     0.344 HD
ATOM     97  H   UNL     1      -5.783   1.944  -7.419  1.00  0.00     0.344 HD
ATOM     98  H   UNL     1      -4.386   2.016  -6.516  1.00  0.00     0.344 HD
ENDBRANCH  93  95
ENDBRANCH  92  93
ENDBRANCH  91  92
ENDBRANCH  90  91
ENDBRANCH  88  90
ENDBRANCH  86  88
ENDBRANCH  84  86
ENDBRANCH   5  84
TORSDOF 19
