REMARK SMILES CC(=O)Oc1ccccc1SCCCCCC(=O)NCCCCNC(=O)c1ccc(-c2c3nc(c(-c4c(F)c(F)c(F)c(F)c4F)c4ccc([nH]4)c(-c4c(F)c(F)c(F)c(F)c4F)c4nc(c(-c5c(F)c(F)c(F)c(F)c5F)c5ccc2[nH]5)C=C4)C=C3)cc1
REMARK SMILES IDX 17 1 18 2 19 3 16 5 15 6 14 7 13 8 12 9 11 10 10 11 5 12
REMARK SMILES IDX 6 13 7 14 9 15 8 16 4 17 2 18 1 19 3 20 20 21 21 22 22 23
REMARK SMILES IDX 23 24 24 25 25 26 26 28 27 29 28 30 89 31 29 32 88 33 30 34
REMARK SMILES IDX 31 35 32 36 82 37 33 38 87 39 81 40 83 41 34 42 86 43 80 44
REMARK SMILES IDX 79 45 35 47 67 48 47 49 66 50 48 51 51 52 65 53 84 54 49 55
REMARK SMILES IDX 50 56 64 58 85 59 52 60 36 61 37 62 45 63 38 64 39 65 43 66
REMARK SMILES IDX 46 67 40 68 41 69 44 70 42 71 68 72 69 73 77 74 70 75 71 76
REMARK SMILES IDX 75 77 78 78 72 79 73 80 76 81 74 82 53 83 54 84 62 85 55 86
REMARK SMILES IDX 56 87 60 88 63 89 57 90 58 91 61 92 59 93
REMARK H PARENT 19 4 24 27 83 46 51 57
REMARK Flexibility Score: inf
ROOT
ATOM      1  C   UNL     1       4.350  -0.602   1.501  1.00  0.00     0.219 C 
ATOM      2  O   UNL     1       5.403  -1.129   1.142  1.00  0.00    -0.275 OA
ATOM      3  N   UNL     1       4.365   0.231   2.577  1.00  0.00    -0.356 N 
ATOM      4  H   UNL     1       5.252   0.445   2.947  1.00  0.00     0.163 HD
ENDROOT
BRANCH   1   5
ATOM      5  C   UNL     1       3.051  -0.843   0.756  1.00  0.00     0.100 C 
BRANCH   5   6
ATOM      6  C   UNL     1       2.185  -1.959   1.344  1.00  0.00     0.010 C 
BRANCH   6   7
ATOM      7  C   UNL     1       0.977  -1.609   2.238  1.00  0.00     0.001 C 
BRANCH   7   8
ATOM      8  C   UNL     1       0.085  -0.429   1.859  1.00  0.00     0.011 C 
BRANCH   8   9
ATOM      9  C   UNL     1      -1.432  -0.545   1.624  1.00  0.00     0.075 C 
BRANCH   9  10
ATOM     10  S   UNL     1      -2.587  -1.864   2.124  1.00  0.00    -0.122 SA
BRANCH  10  11
ATOM     11  C   UNL     1      -1.761  -3.431   1.987  1.00  0.00     0.050 A 
ATOM     12  C   UNL     1      -0.875  -3.899   1.008  1.00  0.00     0.144 A 
ATOM     13  C   UNL     1      -0.099  -5.051   1.240  1.00  0.00     0.048 A 
ATOM     14  C   UNL     1      -0.239  -5.775   2.423  1.00  0.00     0.004 A 
ATOM     15  C   UNL     1      -1.948  -4.235   3.132  1.00  0.00     0.019 A 
ATOM     16  C   UNL     1      -1.186  -5.383   3.359  1.00  0.00     0.001 A 
BRANCH  12  17
ATOM     17  O   UNL     1      -0.403  -3.141  -0.100  1.00  0.00    -0.426 OA
BRANCH  17  18
ATOM     18  C   UNL     1      -1.121  -2.366  -1.006  1.00  0.00     0.308 C 
ATOM     19  C   UNL     1      -0.130  -1.540  -1.786  1.00  0.00     0.139 C 
ATOM     20  O   UNL     1      -2.329  -2.347  -1.155  1.00  0.00    -0.252 OA
ENDBRANCH  17  18
ENDBRANCH  12  17
ENDBRANCH  10  11
ENDBRANCH   9  10
ENDBRANCH   8   9
ENDBRANCH   7   8
ENDBRANCH   6   7
ENDBRANCH   5   6
ENDBRANCH   1   5
BRANCH   3  21
ATOM     21  C   UNL     1       3.237   0.839   3.240  1.00  0.00     0.116 C 
BRANCH  21  22
ATOM     22  C   UNL     1       2.787  -0.023   4.416  1.00  0.00     0.023 C 
BRANCH  22  23
ATOM     23  C   UNL     1       3.399   0.315   5.754  1.00  0.00     0.023 C 
BRANCH  23  24
ATOM     24  C   UNL     1       3.062   1.713   6.218  1.00  0.00     0.116 C 
BRANCH  24  25
ATOM     25  N   UNL     1       1.635   1.996   6.349  1.00  0.00    -0.352 N 
ATOM     26  C   UNL     1       1.055   2.862   7.253  1.00  0.00     0.251 C 
ATOM     27  H   UNL     1       1.029   1.524   5.733  1.00  0.00     0.163 HD
ATOM     28  O   UNL     1      -0.156   3.007   7.333  1.00  0.00    -0.269 OA
BRANCH  26  29
ATOM     29  C   UNL     1       1.973   3.563   8.168  1.00  0.00     0.039 A 
ATOM     30  C   UNL     1       1.892   3.299   9.534  1.00  0.00     0.014 A 
ATOM     31  C   UNL     1       3.062   4.246   7.622  1.00  0.00     0.014 A 
ATOM     32  C   UNL     1       2.964   3.653  10.351  1.00  0.00     0.010 A 
ATOM     33  C   UNL     1       4.179   4.457   8.411  1.00  0.00     0.010 A 
ATOM     34  C   UNL     1       4.137   4.184   9.788  1.00  0.00    -0.014 A 
BRANCH  34  35
ATOM     35  C   UNL     1       5.319   4.515  10.621  1.00  0.00     0.031 A 
ATOM     36  C   UNL     1       5.828   5.932  10.630  1.00  0.00     0.074 A 
ATOM     37  C   UNL     1       5.965   3.553  11.308  1.00  0.00     0.049 A 
ATOM     38  N   UNL     1       6.888   6.429  11.212  1.00  0.00    -0.248 NA
ATOM     39  C   UNL     1       5.070   6.913   9.834  1.00  0.00     0.031 C 
ATOM     40  C   UNL     1       5.614   2.131  11.320  1.00  0.00     0.029 A 
ATOM     41  N   UNL     1       7.061   3.628  12.131  1.00  0.00    -0.354 N 
ATOM     42  C   UNL     1       6.926   7.765  10.836  1.00  0.00     0.074 A 
ATOM     43  C   UNL     1       5.849   7.979   9.900  1.00  0.00     0.031 C 
ATOM     44  C   UNL     1       6.456   1.476  12.137  1.00  0.00     0.029 A 
ATOM     45  C   UNL     1       7.426   2.422  12.680  1.00  0.00     0.049 A 
ATOM     46  H   UNL     1       7.543   4.468  12.311  1.00  0.00     0.167 HD
ATOM     47  C   UNL     1       7.752   8.743  11.272  1.00  0.00     0.037 A 
ATOM     48  C   UNL     1       8.430   2.120  13.526  1.00  0.00     0.037 A 
ATOM     49  C   UNL     1       8.795   8.536  12.238  1.00  0.00     0.049 A 
ATOM     50  C   UNL     1       9.327   3.230  14.011  1.00  0.00     0.074 A 
ATOM     51  C   UNL     1       9.661   9.463  12.786  1.00  0.00     0.029 A 
ATOM     52  N   UNL     1       9.102   7.309  12.807  1.00  0.00    -0.354 N 
ATOM     53  N   UNL     1       9.310   4.505  13.704  1.00  0.00    -0.248 NA
ATOM     54  C   UNL     1      10.375   2.861  14.973  1.00  0.00     0.031 C 
ATOM     55  C   UNL     1      10.520   8.789  13.660  1.00  0.00     0.029 A 
ATOM     56  C   UNL     1      10.153   7.453  13.696  1.00  0.00     0.049 A 
ATOM     57  H   UNL     1       8.642   6.462  12.609  1.00  0.00     0.167 HD
ATOM     58  C   UNL     1      10.318   5.094  14.454  1.00  0.00     0.074 A 
ATOM     59  C   UNL     1      10.916   4.040  15.247  1.00  0.00     0.031 C 
ATOM     60  C   UNL     1      10.718   6.389  14.486  1.00  0.00     0.037 A 
BRANCH  47  61
ATOM     61  C   UNL     1       7.533  10.124  10.725  1.00  0.00     0.064 A 
ATOM     62  C   UNL     1       6.378  10.861  11.036  1.00  0.00     0.173 A 
ATOM     63  C   UNL     1       8.485  10.722   9.888  1.00  0.00     0.173 A 
ATOM     64  F   UNL     1       5.425  10.327  11.815  1.00  0.00    -0.203 F 
ATOM     65  C   UNL     1       6.169  12.128  10.499  1.00  0.00     0.198 A 
ATOM     66  C   UNL     1       8.290  12.005   9.383  1.00  0.00     0.198 A 
ATOM     67  F   UNL     1       9.606  10.062   9.558  1.00  0.00    -0.203 F 
ATOM     68  F   UNL     1       5.029  12.783  10.758  1.00  0.00    -0.200 F 
ATOM     69  C   UNL     1       7.129  12.702   9.680  1.00  0.00     0.200 A 
ATOM     70  F   UNL     1       9.223  12.563   8.600  1.00  0.00    -0.200 F 
ATOM     71  F   UNL     1       6.929  13.924   9.169  1.00  0.00    -0.200 F 
ENDBRANCH  47  61
BRANCH  48  72
ATOM     72  C   UNL     1       8.625   0.722  13.995  1.00  0.00     0.064 A 
ATOM     73  C   UNL     1       8.399   0.368  15.333  1.00  0.00     0.173 A 
ATOM     74  C   UNL     1       9.062  -0.286  13.123  1.00  0.00     0.173 A 
ATOM     75  F   UNL     1       7.998   1.299  16.212  1.00  0.00    -0.203 F 
ATOM     76  C   UNL     1       8.633  -0.928  15.788  1.00  0.00     0.198 A 
ATOM     77  C   UNL     1       9.266  -1.590  13.571  1.00  0.00     0.198 A 
ATOM     78  F   UNL     1       9.286  -0.006  11.830  1.00  0.00    -0.203 F 
ATOM     79  F   UNL     1       8.464  -1.222  17.084  1.00  0.00    -0.200 F 
ATOM     80  C   UNL     1       9.062  -1.908  14.905  1.00  0.00     0.200 A 
ATOM     81  F   UNL     1       9.665  -2.538  12.711  1.00  0.00    -0.200 F 
ATOM     82  F   UNL     1       9.289  -3.154  15.342  1.00  0.00    -0.200 F 
ENDBRANCH  48  72
BRANCH  60  83
ATOM     83  C   UNL     1      11.821   6.747  15.438  1.00  0.00     0.064 A 
ATOM     84  C   UNL     1      13.146   6.346  15.215  1.00  0.00     0.173 A 
ATOM     85  C   UNL     1      11.553   7.541  16.563  1.00  0.00     0.173 A 
ATOM     86  F   UNL     1      13.451   5.575  14.160  1.00  0.00    -0.203 F 
ATOM     87  C   UNL     1      14.158   6.703  16.102  1.00  0.00     0.198 A 
ATOM     88  C   UNL     1      12.573   7.924  17.428  1.00  0.00     0.198 A 
ATOM     89  F   UNL     1      10.303   7.960  16.814  1.00  0.00    -0.203 F 
ATOM     90  F   UNL     1      15.409   6.266  15.898  1.00  0.00    -0.200 F 
ATOM     91  C   UNL     1      13.872   7.497  17.202  1.00  0.00     0.200 A 
ATOM     92  F   UNL     1      12.297   8.707  18.481  1.00  0.00    -0.200 F 
ATOM     93  F   UNL     1      14.850   7.847  18.049  1.00  0.00    -0.200 F 
ENDBRANCH  60  83
ENDBRANCH  34  35
ENDBRANCH  26  29
ENDBRANCH  24  25
ENDBRANCH  23  24
ENDBRANCH  22  23
ENDBRANCH  21  22
ENDBRANCH   3  21
TORSDOF 19
