REMARK SMILES O=C(NCCCCNC(=O)c1cc(Br)ccc1OCc1ccccc1F)c1ccc(-c2c3nc(c(-c4c(F)c(F)c(F)c(F)c4F)c4ccc([nH]4)c(-c4c(F)c(F)c(F)c(F)c4F)c4nc(c(-c5c(F)c(F)c(F)c(F)c5F)c5ccc2[nH]5)C=C4)C=C3)cc1
REMARK SMILES IDX 6 1 5 2 4 3 3 4 1 5 2 6 27 8 28 9 89 10 29 11 88 12 30 13
REMARK SMILES IDX 31 14 32 15 82 16 33 17 87 18 81 19 83 20 34 21 86 22 80 23
REMARK SMILES IDX 79 24 35 26 67 27 47 28 66 29 48 30 51 31 65 32 84 33 49 34
REMARK SMILES IDX 50 35 64 37 85 38 52 39 36 40 37 41 45 42 38 43 39 44 43 45
REMARK SMILES IDX 46 46 40 47 41 48 44 49 42 50 68 51 69 52 77 53 70 54 71 55
REMARK SMILES IDX 75 56 78 57 72 58 73 59 76 60 74 61 53 62 54 63 62 64 55 65
REMARK SMILES IDX 56 66 60 67 63 68 57 69 58 70 61 71 59 72 7 73 8 74 9 75
REMARK SMILES IDX 10 77 11 78 12 79 17 80 13 81 16 82 14 83 15 84 18 85 19 86
REMARK SMILES IDX 20 87 21 88 25 89 22 90 24 91 26 92 23 93
REMARK H PARENT 3 7 83 25 51 36 8 76
REMARK Flexibility Score: inf
ROOT
ATOM      1  C   UNL     1       3.748  -2.664  -2.879  1.00  0.00     0.023 C 
ENDROOT
BRANCH   1   2
ATOM      2  C   UNL     1       4.403  -2.346  -1.533  1.00  0.00     0.023 C 
BRANCH   2   3
ATOM      3  C   UNL     1       4.249  -0.913  -1.045  1.00  0.00     0.116 C 
BRANCH   3   4
ATOM      4  N   UNL     1       2.864  -0.480  -0.968  1.00  0.00    -0.352 N 
ATOM      5  O   UNL     1       1.006   0.374  -0.013  1.00  0.00    -0.269 OA
ATOM      6  C   UNL     1       2.216   0.165   0.053  1.00  0.00     0.251 C 
ATOM      7  H   UNL     1       2.314  -0.677  -1.760  1.00  0.00     0.163 HD
BRANCH   6   8
ATOM      8  C   UNL     1       2.970   0.578   1.252  1.00  0.00     0.039 A 
ATOM      9  C   UNL     1       4.183   1.261   1.133  1.00  0.00     0.014 A 
ATOM     10  C   UNL     1       2.456   0.262   2.513  1.00  0.00     0.014 A 
ATOM     11  C   UNL     1       4.943   1.513   2.269  1.00  0.00     0.010 A 
ATOM     12  C   UNL     1       3.187   0.582   3.658  1.00  0.00     0.010 A 
ATOM     13  C   UNL     1       4.448   1.183   3.542  1.00  0.00    -0.014 A 
BRANCH  13  14
ATOM     14  C   UNL     1       5.248   1.529   4.741  1.00  0.00     0.031 A 
ATOM     15  C   UNL     1       5.860   0.462   5.600  1.00  0.00     0.074 A 
ATOM     16  C   UNL     1       5.452   2.830   5.021  1.00  0.00     0.049 A 
ATOM     17  N   UNL     1       6.612   0.593   6.663  1.00  0.00    -0.248 NA
ATOM     18  C   UNL     1       5.593  -0.934   5.222  1.00  0.00     0.031 C 
ATOM     19  C   UNL     1       4.902   3.947   4.252  1.00  0.00     0.029 A 
ATOM     20  N   UNL     1       6.198   3.432   5.999  1.00  0.00    -0.354 N 
ATOM     21  C   UNL     1       6.896  -0.697   7.090  1.00  0.00     0.074 A 
ATOM     22  C   UNL     1       6.218  -1.600   6.184  1.00  0.00     0.031 C 
ATOM     23  C   UNL     1       5.380   5.097   4.747  1.00  0.00     0.029 A 
ATOM     24  C   UNL     1       6.224   4.801   5.900  1.00  0.00     0.049 A 
ATOM     25  H   UNL     1       6.670   2.933   6.704  1.00  0.00     0.167 HD
ATOM     26  C   UNL     1       7.659  -1.086   8.139  1.00  0.00     0.037 A 
ATOM     27  C   UNL     1       6.857   5.717   6.654  1.00  0.00     0.037 A 
ATOM     28  C   UNL     1       8.342  -0.181   9.027  1.00  0.00     0.049 A 
ATOM     29  C   UNL     1       7.686   5.259   7.816  1.00  0.00     0.074 A 
ATOM     30  C   UNL     1       9.143  -0.478  10.116  1.00  0.00     0.029 A 
ATOM     31  N   UNL     1       8.307   1.203   8.923  1.00  0.00    -0.354 N 
ATOM     32  N   UNL     1       7.938   4.037   8.216  1.00  0.00    -0.248 NA
ATOM     33  C   UNL     1       8.308   6.304   8.638  1.00  0.00     0.031 C 
ATOM     34  C   UNL     1       9.567   0.725  10.690  1.00  0.00     0.029 A 
ATOM     35  C   UNL     1       9.062   1.773   9.936  1.00  0.00     0.049 A 
ATOM     36  H   UNL     1       7.817   1.705   8.232  1.00  0.00     0.167 HD
ATOM     37  C   UNL     1       8.747   4.161   9.334  1.00  0.00     0.074 A 
ATOM     38  C   UNL     1       8.963   5.580   9.537  1.00  0.00     0.031 C 
ATOM     39  C   UNL     1       9.257   3.187  10.126  1.00  0.00     0.037 A 
BRANCH  26  40
ATOM     40  C   UNL     1       7.793  -2.558   8.395  1.00  0.00     0.064 A 
ATOM     41  C   UNL     1       7.162  -3.149   9.499  1.00  0.00     0.173 A 
ATOM     42  C   UNL     1       8.592  -3.374   7.580  1.00  0.00     0.173 A 
ATOM     43  F   UNL     1       6.391  -2.412  10.312  1.00  0.00    -0.203 F 
ATOM     44  C   UNL     1       7.333  -4.502   9.784  1.00  0.00     0.198 A 
ATOM     45  C   UNL     1       8.743  -4.731   7.855  1.00  0.00     0.198 A 
ATOM     46  F   UNL     1       9.207  -2.858   6.505  1.00  0.00    -0.203 F 
ATOM     47  F   UNL     1       6.739  -5.040  10.857  1.00  0.00    -0.200 F 
ATOM     48  C   UNL     1       8.120  -5.292   8.960  1.00  0.00     0.200 A 
ATOM     49  F   UNL     1       9.487  -5.498   7.046  1.00  0.00    -0.200 F 
ATOM     50  F   UNL     1       8.275  -6.596   9.228  1.00  0.00    -0.200 F 
ENDBRANCH  26  40
BRANCH  27  51
ATOM     51  C   UNL     1       6.739   7.152   6.298  1.00  0.00     0.064 A 
ATOM     52  C   UNL     1       5.534   7.848   6.467  1.00  0.00     0.173 A 
ATOM     53  C   UNL     1       7.813   7.833   5.711  1.00  0.00     0.173 A 
ATOM     54  F   UNL     1       4.476   7.234   7.017  1.00  0.00    -0.203 F 
ATOM     55  C   UNL     1       5.398   9.164   6.034  1.00  0.00     0.198 A 
ATOM     56  C   UNL     1       7.684   9.157   5.299  1.00  0.00     0.198 A 
ATOM     57  F   UNL     1       8.989   7.210   5.543  1.00  0.00    -0.203 F 
ATOM     58  F   UNL     1       4.223   9.793   6.165  1.00  0.00    -0.200 F 
ATOM     59  C   UNL     1       6.473   9.818   5.451  1.00  0.00     0.200 A 
ATOM     60  F   UNL     1       8.729   9.791   4.750  1.00  0.00    -0.200 F 
ATOM     61  F   UNL     1       6.343  11.084   5.032  1.00  0.00    -0.200 F 
ENDBRANCH  27  51
BRANCH  39  62
ATOM     62  C   UNL     1      10.100   3.622  11.285  1.00  0.00     0.064 A 
ATOM     63  C   UNL     1      11.491   3.448  11.260  1.00  0.00     0.173 A 
ATOM     64  C   UNL     1       9.521   4.161  12.443  1.00  0.00     0.173 A 
ATOM     65  F   UNL     1      12.088   2.932  10.175  1.00  0.00    -0.203 F 
ATOM     66  C   UNL     1      12.273   3.793  12.358  1.00  0.00     0.198 A 
ATOM     67  C   UNL     1      10.309   4.524  13.531  1.00  0.00     0.198 A 
ATOM     68  F   UNL     1       8.195   4.358  12.506  1.00  0.00    -0.203 F 
ATOM     69  F   UNL     1      13.599   3.600  12.322  1.00  0.00    -0.200 F 
ATOM     70  C   UNL     1      11.682   4.333  13.491  1.00  0.00     0.200 A 
ATOM     71  F   UNL     1       9.739   5.066  14.617  1.00  0.00    -0.200 F 
ATOM     72  F   UNL     1      12.438   4.676  14.543  1.00  0.00    -0.200 F 
ENDBRANCH  39  62
ENDBRANCH  13  14
ENDBRANCH   6   8
ENDBRANCH   3   4
ENDBRANCH   2   3
ENDBRANCH   1   2
BRANCH   1  73
ATOM     73  C   UNL     1       4.036  -1.668  -4.004  1.00  0.00     0.116 C 
BRANCH  73  74
ATOM     74  N   UNL     1       5.460  -1.446  -4.187  1.00  0.00    -0.352 N 
ATOM     75  C   UNL     1       6.284  -2.381  -4.767  1.00  0.00     0.255 C 
ATOM     76  H   UNL     1       5.849  -0.594  -3.884  1.00  0.00     0.163 HD
ATOM     77  O   UNL     1       7.104  -2.917  -4.028  1.00  0.00    -0.269 OA
BRANCH  75  78
ATOM     78  C   UNL     1       6.191  -2.634  -6.238  1.00  0.00     0.082 A 
ATOM     79  C   UNL     1       5.255  -1.901  -6.996  1.00  0.00     0.033 A 
ATOM     80  C   UNL     1       6.981  -3.589  -6.899  1.00  0.00     0.132 A 
ATOM     81  C   UNL     1       4.992  -2.226  -8.325  1.00  0.00     0.019 A 
ATOM     82  C   UNL     1       6.688  -3.917  -8.235  1.00  0.00     0.048 A 
ATOM     83  Br  UNL     1       3.649  -1.289  -9.269  1.00  0.00    -0.051 Br
ATOM     84  C   UNL     1       5.686  -3.254  -8.943  1.00  0.00     0.019 A 
BRANCH  80  85
ATOM     85  O   UNL     1       7.968  -4.365  -6.367  1.00  0.00    -0.488 OA
BRANCH  85  86
ATOM     86  C   UNL     1       9.141  -3.770  -5.787  1.00  0.00     0.268 C 
BRANCH  86  87
ATOM     87  C   UNL     1       9.671  -2.444  -6.288  1.00  0.00     0.025 A 
ATOM     88  C   UNL     1       9.368  -1.240  -5.631  1.00  0.00     0.010 A 
ATOM     89  C   UNL     1      10.567  -2.396  -7.358  1.00  0.00     0.129 A 
ATOM     90  C   UNL     1       9.926  -0.029  -6.049  1.00  0.00     0.001 A 
ATOM     91  C   UNL     1      11.149  -1.196  -7.764  1.00  0.00     0.039 A 
ATOM     92  F   UNL     1      10.925  -3.526  -7.983  1.00  0.00    -0.207 F 
ATOM     93  C   UNL     1      10.824  -0.007  -7.112  1.00  0.00     0.003 A 
ENDBRANCH  86  87
ENDBRANCH  85  86
ENDBRANCH  80  85
ENDBRANCH  75  78
ENDBRANCH  73  74
ENDBRANCH   1  73
TORSDOF 14
