REMARK SMILES O=C(CSc1nnc(C2CC2)n1-c1cccc2ccccc12)NCCCCNC(=O)c1ccc(-c2c3nc(c(-c4c(F)c(F)c(F)c(F)c4F)c4ccc([nH]4)c(-c4c(F)c(F)c(F)c(F)c4F)c4nc(c(-c5c(F)c(F)c(F)c(F)c5F)c5ccc2[nH]5)C=C4)C=C3)cc1
REMARK SMILES IDX 25 1 24 2 23 3 1 4 2 5 3 7 4 8 5 9 6 10 12 11 7 12 8 13
REMARK SMILES IDX 13 14 14 15 22 16 15 17 17 18 21 19 16 20 18 21 20 22 19 23
REMARK SMILES IDX 9 24 10 25 11 26 26 27 27 28 28 29 29 30 30 32 31 33 32 34
REMARK SMILES IDX 93 35 33 36 92 37 34 38 35 39 36 40 86 41 37 42 91 43 85 44
REMARK SMILES IDX 87 45 38 46 90 47 84 48 83 49 39 51 71 52 51 53 70 54 52 55
REMARK SMILES IDX 55 56 69 57 88 58 53 59 54 60 68 62 89 63 56 64 40 65 41 66
REMARK SMILES IDX 49 67 42 68 43 69 47 70 50 71 44 72 45 73 48 74 46 75 72 76
REMARK SMILES IDX 73 77 81 78 74 79 75 80 79 81 82 82 76 83 77 84 80 85 78 86
REMARK SMILES IDX 57 87 58 88 66 89 59 90 60 91 64 92 67 93 61 94 62 95 65 96
REMARK SMILES IDX 63 97
REMARK H PARENT 23 6 28 31 87 50 55 61
REMARK Flexibility Score: inf
ROOT
ATOM      1  C   UNL     1       2.567  -0.667   3.409  1.00  0.00     0.023 C 
ENDROOT
BRANCH   1   2
ATOM      2  C   UNL     1       2.261   0.453   2.396  1.00  0.00     0.116 C 
BRANCH   2   3
ATOM      3  N   UNL     1       2.795   0.246   1.050  1.00  0.00    -0.355 N 
ATOM      4  O   UNL     1       0.733   0.088   0.064  1.00  0.00    -0.274 OA
ATOM      5  C   UNL     1       1.958   0.121  -0.052  1.00  0.00     0.230 C 
ATOM      6  H   UNL     1       3.770   0.194   0.922  1.00  0.00     0.163 HD
BRANCH   5   7
ATOM      7  C   UNL     1       2.612  -0.139  -1.403  1.00  0.00     0.178 C 
BRANCH   7   8
ATOM      8  S   UNL     1       3.751   1.118  -1.980  1.00  0.00    -0.076 SA
BRANCH   8   9
ATOM      9  C   UNL     1       2.768   2.475  -2.495  1.00  0.00     0.196 A 
ATOM     10  N   UNL     1       1.470   2.518  -2.644  1.00  0.00    -0.123 NA
ATOM     11  N   UNL     1       3.300   3.761  -2.611  1.00  0.00    -0.273 N 
ATOM     12  N   UNL     1       1.109   3.848  -2.740  1.00  0.00    -0.134 NA
ATOM     13  C   UNL     1       2.188   4.605  -2.612  1.00  0.00     0.141 A 
BRANCH  11  14
ATOM     14  C   UNL     1       4.575   4.039  -2.104  1.00  0.00     0.057 A 
ATOM     15  C   UNL     1       5.706   3.838  -2.915  1.00  0.00     0.027 A 
ATOM     16  C   UNL     1       4.651   4.214  -0.718  1.00  0.00     0.006 A 
ATOM     17  C   UNL     1       6.976   3.881  -2.345  1.00  0.00     0.003 A 
ATOM     18  C   UNL     1       5.939   4.302  -0.197  1.00  0.00    -0.016 A 
ATOM     19  C   UNL     1       3.508   4.316   0.143  1.00  0.00     0.011 A 
ATOM     20  C   UNL     1       7.096   4.119  -0.982  1.00  0.00     0.009 A 
ATOM     21  C   UNL     1       6.030   4.649   1.123  1.00  0.00     0.009 A 
ATOM     22  C   UNL     1       3.613   4.689   1.449  1.00  0.00     0.001 A 
ATOM     23  C   UNL     1       4.878   4.888   1.905  1.00  0.00     0.001 A 
ENDBRANCH  11  14
BRANCH  13  24
ATOM     24  C   UNL     1       2.010   6.127  -2.353  1.00  0.00     0.058 C 
ATOM     25  C   UNL     1       2.942   6.984  -1.508  1.00  0.00     0.012 C 
ATOM     26  C   UNL     1       2.922   7.153  -2.983  1.00  0.00     0.012 C 
ENDBRANCH  13  24
ENDBRANCH   8   9
ENDBRANCH   7   8
ENDBRANCH   5   7
ENDBRANCH   2   3
ENDBRANCH   1   2
BRANCH   1  27
ATOM     27  C   UNL     1       4.030  -0.875   3.839  1.00  0.00     0.023 C 
BRANCH  27  28
ATOM     28  C   UNL     1       4.731   0.340   4.449  1.00  0.00     0.116 C 
BRANCH  28  29
ATOM     29  N   UNL     1       4.305   0.719   5.807  1.00  0.00    -0.352 N 
ATOM     30  C   UNL     1       4.820   1.693   6.680  1.00  0.00     0.251 C 
ATOM     31  H   UNL     1       3.540   0.210   6.159  1.00  0.00     0.163 HD
ATOM     32  O   UNL     1       4.583   1.633   7.873  1.00  0.00    -0.269 OA
BRANCH  30  33
ATOM     33  C   UNL     1       5.633   2.828   6.157  1.00  0.00     0.039 A 
ATOM     34  C   UNL     1       6.616   3.547   6.859  1.00  0.00     0.014 A 
ATOM     35  C   UNL     1       5.404   3.192   4.864  1.00  0.00     0.014 A 
ATOM     36  C   UNL     1       7.328   4.609   6.222  1.00  0.00     0.010 A 
ATOM     37  C   UNL     1       6.350   3.937   4.222  1.00  0.00     0.010 A 
ATOM     38  C   UNL     1       7.143   4.857   4.862  1.00  0.00    -0.014 A 
BRANCH  38  39
ATOM     39  C   UNL     1       7.956   5.722   3.966  1.00  0.00     0.031 A 
ATOM     40  C   UNL     1       9.323   5.180   3.843  1.00  0.00     0.074 A 
ATOM     41  C   UNL     1       7.565   6.699   3.084  1.00  0.00     0.049 A 
ATOM     42  N   UNL     1      10.348   5.705   4.417  1.00  0.00    -0.248 NA
ATOM     43  C   UNL     1       9.589   3.875   3.219  1.00  0.00     0.031 C 
ATOM     44  C   UNL     1       6.234   7.289   2.865  1.00  0.00     0.029 A 
ATOM     45  N   UNL     1       8.275   7.278   2.042  1.00  0.00    -0.354 N 
ATOM     46  C   UNL     1      11.432   4.952   4.014  1.00  0.00     0.074 A 
ATOM     47  C   UNL     1      10.889   3.724   3.496  1.00  0.00     0.031 C 
ATOM     48  C   UNL     1       6.159   7.870   1.635  1.00  0.00     0.029 A 
ATOM     49  C   UNL     1       7.492   7.926   1.060  1.00  0.00     0.049 A 
ATOM     50  H   UNL     1       9.257   7.241   1.990  1.00  0.00     0.167 HD
ATOM     51  C   UNL     1      12.637   5.564   3.868  1.00  0.00     0.037 A 
ATOM     52  C   UNL     1       7.905   8.597  -0.060  1.00  0.00     0.037 A 
ATOM     53  C   UNL     1      12.583   6.910   4.416  1.00  0.00     0.049 A 
ATOM     54  C   UNL     1       9.247   9.103   0.272  1.00  0.00     0.074 A 
ATOM     55  C   UNL     1      12.308   7.465   5.651  1.00  0.00     0.029 A 
ATOM     56  N   UNL     1      12.410   7.916   3.499  1.00  0.00    -0.354 N 
ATOM     57  N   UNL     1       9.462  10.004   1.186  1.00  0.00    -0.248 NA
ATOM     58  C   UNL     1      10.406   8.336  -0.149  1.00  0.00     0.031 C 
ATOM     59  C   UNL     1      11.618   8.690   5.380  1.00  0.00     0.029 A 
ATOM     60  C   UNL     1      11.569   8.874   4.000  1.00  0.00     0.049 A 
ATOM     61  H   UNL     1      12.830   7.945   2.609  1.00  0.00     0.167 HD
ATOM     62  C   UNL     1      10.615   9.566   1.807  1.00  0.00     0.074 A 
ATOM     63  C   UNL     1      11.242   8.668   0.838  1.00  0.00     0.031 C 
ATOM     64  C   UNL     1      10.758   9.724   3.156  1.00  0.00     0.037 A 
BRANCH  51  65
ATOM     65  C   UNL     1      13.686   5.176   2.851  1.00  0.00     0.064 A 
ATOM     66  C   UNL     1      14.918   5.863   2.877  1.00  0.00     0.173 A 
ATOM     67  C   UNL     1      13.444   4.413   1.689  1.00  0.00     0.173 A 
ATOM     68  F   UNL     1      15.249   6.628   3.929  1.00  0.00    -0.203 F 
ATOM     69  C   UNL     1      15.786   5.868   1.784  1.00  0.00     0.198 A 
ATOM     70  C   UNL     1      14.340   4.376   0.621  1.00  0.00     0.198 A 
ATOM     71  F   UNL     1      12.292   3.769   1.475  1.00  0.00    -0.203 F 
ATOM     72  F   UNL     1      16.871   6.653   1.802  1.00  0.00    -0.200 F 
ATOM     73  C   UNL     1      15.492   5.131   0.653  1.00  0.00     0.200 A 
ATOM     74  F   UNL     1      14.026   3.673  -0.476  1.00  0.00    -0.200 F 
ATOM     75  F   UNL     1      16.287   5.189  -0.423  1.00  0.00    -0.200 F 
ENDBRANCH  51  65
BRANCH  52  76
ATOM     76  C   UNL     1       7.373   8.769  -1.453  1.00  0.00     0.064 A 
ATOM     77  C   UNL     1       7.845   9.759  -2.339  1.00  0.00     0.173 A 
ATOM     78  C   UNL     1       6.668   7.725  -2.062  1.00  0.00     0.173 A 
ATOM     79  F   UNL     1       8.559  10.793  -1.873  1.00  0.00    -0.203 F 
ATOM     80  C   UNL     1       7.665   9.672  -3.733  1.00  0.00     0.198 A 
ATOM     81  C   UNL     1       6.525   7.610  -3.452  1.00  0.00     0.198 A 
ATOM     82  F   UNL     1       6.170   6.756  -1.301  1.00  0.00    -0.203 F 
ATOM     83  F   UNL     1       8.177  10.613  -4.540  1.00  0.00    -0.200 F 
ATOM     84  C   UNL     1       7.027   8.581  -4.290  1.00  0.00     0.200 A 
ATOM     85  F   UNL     1       5.954   6.523  -3.989  1.00  0.00    -0.200 F 
ATOM     86  F   UNL     1       6.926   8.445  -5.620  1.00  0.00    -0.200 F 
ENDBRANCH  52  76
BRANCH  64  87
ATOM     87  C   UNL     1       9.851  10.731   3.822  1.00  0.00     0.064 A 
ATOM     88  C   UNL     1       8.454  10.611   3.918  1.00  0.00     0.173 A 
ATOM     89  C   UNL     1      10.425  11.846   4.440  1.00  0.00     0.173 A 
ATOM     90  F   UNL     1       7.826   9.540   3.443  1.00  0.00    -0.203 F 
ATOM     91  C   UNL     1       7.665  11.577   4.538  1.00  0.00     0.198 A 
ATOM     92  C   UNL     1       9.642  12.798   5.092  1.00  0.00     0.198 A 
ATOM     93  F   UNL     1      11.757  12.001   4.432  1.00  0.00    -0.203 F 
ATOM     94  F   UNL     1       6.332  11.431   4.581  1.00  0.00    -0.200 F 
ATOM     95  C   UNL     1       8.262  12.673   5.127  1.00  0.00     0.200 A 
ATOM     96  F   UNL     1      10.230  13.837   5.700  1.00  0.00    -0.200 F 
ATOM     97  F   UNL     1       7.512  13.596   5.745  1.00  0.00    -0.200 F 
ENDBRANCH  64  87
ENDBRANCH  38  39
ENDBRANCH  30  33
ENDBRANCH  28  29
ENDBRANCH  27  28
ENDBRANCH   1  27
TORSDOF 15
