REMARK SMILES CCCCCCNC(=O)Oc1cccc(-c2ccc([C@@H](C)C(=O)NCCCCNC(=O)c3ccc(-c4c5nc(c(-c6c(F)c(F)c(F)c(F)c6F)c6ccc([nH]6)c(-c6c(F)c(F)c(F)c(F)c6F)c6nc(c(-c7c(F)c(F)c(F)c(F)c7F)c7ccc4[nH]7)C=C6)C=C5)cc3)cc2)c1
REMARK SMILES IDX 20 1 21 2 19 3 16 4 17 5 96 6 18 7 95 8 15 9 11 10 12 11
REMARK SMILES IDX 97 12 13 13 14 14 10 15 8 16 7 17 9 19 6 20 5 21 4 22 3 23
REMARK SMILES IDX 2 24 1 25 22 26 23 27 24 28 25 30 26 31 27 32 28 33 29 34
REMARK SMILES IDX 30 35 31 37 32 38 33 39 94 40 34 41 93 42 35 43 36 44 37 45
REMARK SMILES IDX 87 46 38 47 92 48 86 49 88 50 39 51 91 52 85 53 84 54 40 56
REMARK SMILES IDX 72 57 52 58 71 59 53 60 56 61 70 62 89 63 54 64 55 65 69 67
REMARK SMILES IDX 90 68 57 69 41 70 42 71 50 72 43 73 44 74 48 75 51 76 45 77
REMARK SMILES IDX 46 78 49 79 47 80 73 81 74 82 82 83 75 84 76 85 80 86 83 87
REMARK SMILES IDX 77 88 78 89 81 90 79 91 58 92 59 93 67 94 60 95 61 96 65 97
REMARK SMILES IDX 68 98 62 99 63 100 66 101 64 102
REMARK H PARENT 7 18 24 29 29 36 88 55 56 66
REMARK Flexibility Score: inf
ROOT
ATOM      1  C   UNL     1      -4.441  -6.277  11.981  1.00  0.00     0.105 C 
ATOM      2  C   UNL     1      -5.617  -6.632  12.891  1.00  0.00     0.023 C 
ENDROOT
BRANCH   1   3
ATOM      3  C   UNL     1      -4.745  -6.200  10.494  1.00  0.00    -0.036 A 
ATOM      4  C   UNL     1      -5.068  -6.115   7.652  1.00  0.00    -0.018 A 
ATOM      5  C   UNL     1      -5.688  -7.099   8.437  1.00  0.00     0.009 A 
ATOM      6  C   UNL     1      -4.327  -5.139   8.337  1.00  0.00     0.009 A 
ATOM      7  C   UNL     1      -5.562  -7.118   9.832  1.00  0.00     0.005 A 
ATOM      8  C   UNL     1      -4.148  -5.192   9.725  1.00  0.00     0.005 A 
BRANCH   4   9
ATOM      9  C   UNL     1      -5.177  -6.126   6.172  1.00  0.00    -0.015 A 
ATOM     10  C   UNL     1      -4.252  -5.661   3.966  1.00  0.00     0.133 A 
ATOM     11  C   UNL     1      -5.386  -6.168   3.341  1.00  0.00     0.047 A 
ATOM     12  C   UNL     1      -4.140  -5.636   5.358  1.00  0.00     0.056 A 
ATOM     13  C   UNL     1      -6.420  -6.666   4.124  1.00  0.00     0.004 A 
ATOM     14  C   UNL     1      -6.319  -6.634   5.519  1.00  0.00     0.009 A 
BRANCH  10  15
ATOM     15  O   UNL     1      -3.297  -5.043   3.142  1.00  0.00    -0.410 OA
BRANCH  15  16
ATOM     16  C   UNL     1      -1.960  -5.378   3.292  1.00  0.00     0.412 C 
ATOM     17  N   UNL     1      -1.131  -4.595   2.536  1.00  0.00    -0.321 N 
ATOM     18  H   UNL     1      -0.170  -4.804   2.573  1.00  0.00     0.167 HD
ATOM     19  O   UNL     1      -1.515  -6.269   4.004  1.00  0.00    -0.224 OA
BRANCH  17  20
ATOM     20  C   UNL     1      -1.525  -3.489   1.686  1.00  0.00     0.119 C 
BRANCH  20  21
ATOM     21  C   UNL     1      -0.927  -2.164   2.158  1.00  0.00     0.021 C 
BRANCH  21  22
ATOM     22  C   UNL     1       0.603  -2.088   2.087  1.00  0.00     0.002 C 
BRANCH  22  23
ATOM     23  C   UNL     1       1.212  -2.335   0.702  1.00  0.00    -0.000 C 
BRANCH  23  24
ATOM     24  C   UNL     1       0.724  -1.399  -0.407  1.00  0.00    -0.003 C 
ATOM     25  C   UNL     1       1.080   0.059  -0.162  1.00  0.00     0.004 C 
ENDBRANCH  23  24
ENDBRANCH  22  23
ENDBRANCH  21  22
ENDBRANCH  20  21
ENDBRANCH  17  20
ENDBRANCH  15  16
ENDBRANCH  10  15
ENDBRANCH   4   9
ENDBRANCH   1   3
BRANCH   1  26
ATOM     26  C   UNL     1      -3.151  -7.051  12.303  1.00  0.00     0.227 C 
ATOM     27  O   UNL     1      -2.145  -6.441  12.686  1.00  0.00    -0.274 OA
ATOM     28  N   UNL     1      -3.036  -8.405  12.212  1.00  0.00    -0.356 N 
ATOM     29  H   UNL     1      -2.171  -8.760  12.519  1.00  0.00     0.163 HD
BRANCH  28  30
ATOM     30  C   UNL     1      -3.961  -9.413  11.742  1.00  0.00     0.116 C 
BRANCH  30  31
ATOM     31  C   UNL     1      -3.716  -9.786  10.280  1.00  0.00     0.023 C 
BRANCH  31  32
ATOM     32  C   UNL     1      -2.677 -10.882  10.059  1.00  0.00     0.023 C 
BRANCH  32  33
ATOM     33  C   UNL     1      -3.007 -12.229  10.690  1.00  0.00     0.116 C 
BRANCH  33  34
ATOM     34  N   UNL     1      -4.282 -12.791  10.266  1.00  0.00    -0.352 N 
ATOM     35  C   UNL     1      -4.622 -14.118  10.126  1.00  0.00     0.251 C 
ATOM     36  H   UNL     1      -4.990 -12.141  10.053  1.00  0.00     0.163 HD
ATOM     37  O   UNL     1      -5.719 -14.443   9.689  1.00  0.00    -0.269 OA
BRANCH  35  38
ATOM     38  C   UNL     1      -3.620 -15.150  10.463  1.00  0.00     0.039 A 
ATOM     39  C   UNL     1      -3.328 -16.140   9.522  1.00  0.00     0.014 A 
ATOM     40  C   UNL     1      -2.921 -15.091  11.671  1.00  0.00     0.014 A 
ATOM     41  C   UNL     1      -2.272 -17.022   9.759  1.00  0.00     0.010 A 
ATOM     42  C   UNL     1      -1.819 -15.915  11.867  1.00  0.00     0.010 A 
ATOM     43  C   UNL     1      -1.482 -16.886  10.912  1.00  0.00    -0.014 A 
BRANCH  43  44
ATOM     44  C   UNL     1      -0.288 -17.738  11.133  1.00  0.00     0.031 A 
ATOM     45  C   UNL     1      -0.234 -18.669  12.310  1.00  0.00     0.074 A 
ATOM     46  C   UNL     1       0.781 -17.608  10.324  1.00  0.00     0.049 A 
ATOM     47  N   UNL     1       0.744 -19.440  12.713  1.00  0.00    -0.248 NA
ATOM     48  C   UNL     1      -1.425 -18.710  13.172  1.00  0.00     0.031 C 
ATOM     49  C   UNL     1       0.879 -16.685   9.192  1.00  0.00     0.029 A 
ATOM     50  N   UNL     1       1.998 -18.244  10.340  1.00  0.00    -0.354 N 
ATOM     51  C   UNL     1       0.294 -20.037  13.883  1.00  0.00     0.074 A 
ATOM     52  C   UNL     1      -1.019 -19.496  14.157  1.00  0.00     0.031 C 
ATOM     53  C   UNL     1       2.080 -16.829   8.610  1.00  0.00     0.029 A 
ATOM     54  C   UNL     1       2.848 -17.829   9.344  1.00  0.00     0.049 A 
ATOM     55  H   UNL     1       2.238 -18.931  11.002  1.00  0.00     0.167 HD
ATOM     56  C   UNL     1       0.911 -20.970  14.646  1.00  0.00     0.037 A 
ATOM     57  C   UNL     1       4.107 -18.212   9.058  1.00  0.00     0.037 A 
ATOM     58  C   UNL     1       2.204 -21.528  14.350  1.00  0.00     0.049 A 
ATOM     59  C   UNL     1       4.761 -19.272   9.901  1.00  0.00     0.074 A 
ATOM     60  C   UNL     1       2.878 -22.543  15.006  1.00  0.00     0.029 A 
ATOM     61  N   UNL     1       3.022 -21.112  13.308  1.00  0.00    -0.354 N 
ATOM     62  N   UNL     1       4.291 -19.899  10.951  1.00  0.00    -0.248 NA
ATOM     63  C   UNL     1       6.116 -19.685   9.511  1.00  0.00     0.031 C 
ATOM     64  C   UNL     1       4.123 -22.709  14.390  1.00  0.00     0.029 A 
ATOM     65  C   UNL     1       4.206 -21.832  13.320  1.00  0.00     0.049 A 
ATOM     66  H   UNL     1       2.795 -20.409  12.658  1.00  0.00     0.167 HD
ATOM     67  C   UNL     1       5.280 -20.793  11.338  1.00  0.00     0.074 A 
ATOM     68  C   UNL     1       6.371 -20.639  10.397  1.00  0.00     0.031 C 
ATOM     69  C   UNL     1       5.284 -21.663  12.378  1.00  0.00     0.037 A 
BRANCH  56  70
ATOM     70  C   UNL     1       0.188 -21.443  15.874  1.00  0.00     0.064 A 
ATOM     71  C   UNL     1      -0.984 -22.212  15.791  1.00  0.00     0.173 A 
ATOM     72  C   UNL     1       0.677 -21.130  17.152  1.00  0.00     0.173 A 
ATOM     73  F   UNL     1      -1.500 -22.529  14.594  1.00  0.00    -0.203 F 
ATOM     74  C   UNL     1      -1.662 -22.612  16.940  1.00  0.00     0.198 A 
ATOM     75  C   UNL     1       0.014 -21.560  18.298  1.00  0.00     0.198 A 
ATOM     76  F   UNL     1       1.796 -20.403  17.289  1.00  0.00    -0.203 F 
ATOM     77  F   UNL     1      -2.813 -23.289  16.834  1.00  0.00    -0.200 F 
ATOM     78  C   UNL     1      -1.160 -22.290  18.192  1.00  0.00     0.200 A 
ATOM     79  F   UNL     1       0.506 -21.260  19.508  1.00  0.00    -0.200 F 
ATOM     80  F   UNL     1      -1.815 -22.675  19.296  1.00  0.00    -0.200 F 
ENDBRANCH  56  70
BRANCH  57  81
ATOM     81  C   UNL     1       4.811 -17.610   7.897  1.00  0.00     0.064 A 
ATOM     82  C   UNL     1       5.037 -18.353   6.730  1.00  0.00     0.173 A 
ATOM     83  C   UNL     1       5.247 -16.277   7.918  1.00  0.00     0.173 A 
ATOM     84  F   UNL     1       4.655 -19.637   6.670  1.00  0.00    -0.203 F 
ATOM     85  C   UNL     1       5.682 -17.789   5.632  1.00  0.00     0.198 A 
ATOM     86  C   UNL     1       5.871 -15.707   6.810  1.00  0.00     0.198 A 
ATOM     87  F   UNL     1       5.050 -15.524   9.010  1.00  0.00    -0.203 F 
ATOM     88  F   UNL     1       5.915 -18.531   4.541  1.00  0.00    -0.200 F 
ATOM     89  C   UNL     1       6.092 -16.464   5.670  1.00  0.00     0.200 A 
ATOM     90  F   UNL     1       6.253 -14.423   6.846  1.00  0.00    -0.200 F 
ATOM     91  F   UNL     1       6.703 -15.919   4.609  1.00  0.00    -0.200 F 
ENDBRANCH  57  81
BRANCH  69  92
ATOM     92  C   UNL     1       6.497 -22.530  12.543  1.00  0.00     0.064 A 
ATOM     93  C   UNL     1       7.717 -22.009  12.997  1.00  0.00     0.173 A 
ATOM     94  C   UNL     1       6.426 -23.908  12.285  1.00  0.00     0.173 A 
ATOM     95  F   UNL     1       7.840 -20.695  13.243  1.00  0.00    -0.203 F 
ATOM     96  C   UNL     1       8.828 -22.831  13.166  1.00  0.00     0.198 A 
ATOM     97  C   UNL     1       7.530 -24.732  12.483  1.00  0.00     0.198 A 
ATOM     98  F   UNL     1       5.280 -24.457  11.854  1.00  0.00    -0.203 F 
ATOM     99  F   UNL     1       9.996 -22.304  13.559  1.00  0.00    -0.200 F 
ATOM    100  C   UNL     1       8.731 -24.192  12.916  1.00  0.00     0.200 A 
ATOM    101  F   UNL     1       7.431 -26.048  12.254  1.00  0.00    -0.200 F 
ATOM    102  F   UNL     1       9.800 -24.983  13.087  1.00  0.00    -0.200 F 
ENDBRANCH  69  92
ENDBRANCH  43  44
ENDBRANCH  35  38
ENDBRANCH  33  34
ENDBRANCH  32  33
ENDBRANCH  31  32
ENDBRANCH  30  31
ENDBRANCH  28  30
ENDBRANCH   1  26
TORSDOF 20
