REMARK SMILES CO[C@@H]1C[C@H](C(=O)NCCCCNC(=O)c2ccc(-c3c4nc(c(-c5c(F)c(F)c(F)c(F)c5F)c5ccc([nH]5)c(-c5c(F)c(F)c(F)c(F)c5F)c5nc(c(-c6c(F)c(F)c(F)c(F)c6F)c6ccc3[nH]6)C=C5)C=C4)cc2)N(C(=O)c2ccc([N+](=O)[O-])s2)C1
REMARK SMILES IDX 10 1 9 2 8 3 6 4 7 5 5 7 3 8 4 9 90 10 79 11 2 12 1 13 80 14
REMARK SMILES IDX 81 15 82 16 83 17 89 18 84 19 85 20 86 21 87 22 88 23 11 24
REMARK SMILES IDX 12 25 13 26 14 27 15 29 16 30 17 31 78 32 18 33 77 34 19 35
REMARK SMILES IDX 20 36 21 37 71 38 22 39 76 40 70 41 72 42 23 43 75 44 69 45
REMARK SMILES IDX 68 46 24 48 56 49 36 50 55 51 37 52 40 53 54 54 73 55 38 56
REMARK SMILES IDX 39 57 53 59 74 60 41 61 25 62 26 63 34 64 27 65 28 66 32 67
REMARK SMILES IDX 35 68 29 69 30 70 33 71 31 72 57 73 58 74 66 75 59 76 60 77
REMARK SMILES IDX 64 78 67 79 61 80 62 81 65 82 63 83 42 84 43 85 51 86 44 87
REMARK SMILES IDX 45 88 49 89 52 90 46 91 47 92 50 93 48 94
REMARK H PARENT 8 6 13 28 72 47 40 58
REMARK Flexibility Score: inf
ROOT
ATOM      1  C   UNL     1       0.060   1.429  -1.465  1.00  0.00     0.023 C 
ENDROOT
BRANCH   1   2
ATOM      2  C   UNL     1       1.346   2.249  -1.320  1.00  0.00     0.116 C 
BRANCH   2   3
ATOM      3  N   UNL     1       1.079   3.667  -1.221  1.00  0.00    -0.354 N 
ATOM      4  C   UNL     1       1.092   4.512  -0.158  1.00  0.00     0.242 C 
ATOM      5  O   UNL     1       0.853   5.702  -0.400  1.00  0.00    -0.273 OA
ATOM      6  H   UNL     1       0.847   4.096  -2.077  1.00  0.00     0.163 HD
BRANCH   4   7
ATOM      7  C   UNL     1       1.378   4.083   1.304  1.00  0.00     0.177 C 
ATOM      8  C   UNL     1       1.266   1.797   2.219  1.00  0.00     0.139 C 
ATOM      9  C   UNL     1       0.425   3.033   1.873  1.00  0.00     0.069 C 
ATOM     10  C   UNL     1       2.725   2.216   2.026  1.00  0.00     0.152 C 
ATOM     11  N   UNL     1       2.724   3.586   1.556  1.00  0.00    -0.323 N 
BRANCH   8  12
ATOM     12  O   UNL     1       0.848   0.732   1.368  1.00  0.00    -0.380 OA
ATOM     13  C   UNL     1       1.466  -0.519   1.633  1.00  0.00     0.195 C 
ENDBRANCH   8  12
BRANCH  11  14
ATOM     14  C   UNL     1       3.924   4.286   1.514  1.00  0.00     0.264 C 
ATOM     15  O   UNL     1       4.987   3.673   1.632  1.00  0.00    -0.268 OA
BRANCH  14  16
ATOM     16  C   UNL     1       3.892   5.732   1.373  1.00  0.00     0.099 A 
ATOM     17  C   UNL     1       3.235   6.680   2.139  1.00  0.00     0.033 A 
ATOM     18  S   UNL     1       4.897   6.472   0.195  1.00  0.00    -0.058 S 
ATOM     19  C   UNL     1       3.534   8.015   1.729  1.00  0.00     0.099 A 
ATOM     20  C   UNL     1       4.436   8.030   0.688  1.00  0.00     0.324 A 
BRANCH  20  21
ATOM     21  N   UNL     1       4.991   9.198   0.054  1.00  0.00     0.074 N 
ATOM     22  O   UNL     1       4.612  10.293   0.496  1.00  0.00    -0.258 OA
ATOM     23  O   UNL     1       5.803   9.041  -0.866  1.00  0.00    -0.258 OA
ENDBRANCH  20  21
ENDBRANCH  14  16
ENDBRANCH  11  14
ENDBRANCH   4   7
ENDBRANCH   2   3
ENDBRANCH   1   2
BRANCH   1  24
ATOM     24  C   UNL     1      -0.277   1.002  -2.890  1.00  0.00     0.023 C 
BRANCH  24  25
ATOM     25  C   UNL     1       0.789   0.167  -3.591  1.00  0.00     0.116 C 
BRANCH  25  26
ATOM     26  N   UNL     1       1.206  -1.031  -2.870  1.00  0.00    -0.352 N 
ATOM     27  C   UNL     1       1.592  -2.245  -3.396  1.00  0.00     0.251 C 
ATOM     28  H   UNL     1       1.212  -0.963  -1.888  1.00  0.00     0.163 HD
ATOM     29  O   UNL     1       1.885  -3.186  -2.665  1.00  0.00    -0.269 OA
BRANCH  27  30
ATOM     30  C   UNL     1       1.584  -2.413  -4.864  1.00  0.00     0.039 A 
ATOM     31  C   UNL     1       0.836  -3.452  -5.422  1.00  0.00     0.014 A 
ATOM     32  C   UNL     1       2.203  -1.465  -5.682  1.00  0.00     0.014 A 
ATOM     33  C   UNL     1       0.615  -3.473  -6.800  1.00  0.00     0.010 A 
ATOM     34  C   UNL     1       1.903  -1.436  -7.038  1.00  0.00     0.010 A 
ATOM     35  C   UNL     1       1.093  -2.429  -7.610  1.00  0.00    -0.014 A 
BRANCH  35  36
ATOM     36  C   UNL     1       0.739  -2.335  -9.050  1.00  0.00     0.031 A 
ATOM     37  C   UNL     1       1.821  -2.353 -10.092  1.00  0.00     0.074 A 
ATOM     38  C   UNL     1      -0.544  -2.131  -9.415  1.00  0.00     0.049 A 
ATOM     39  N   UNL     1       1.732  -2.168 -11.385  1.00  0.00    -0.248 NA
ATOM     40  C   UNL     1       3.195  -2.572  -9.612  1.00  0.00     0.031 C 
ATOM     41  C   UNL     1      -1.681  -2.027  -8.498  1.00  0.00     0.029 A 
ATOM     42  N   UNL     1      -1.105  -1.959 -10.656  1.00  0.00    -0.354 N 
ATOM     43  C   UNL     1       3.034  -2.221 -11.864  1.00  0.00     0.074 A 
ATOM     44  C   UNL     1       3.900  -2.399 -10.719  1.00  0.00     0.031 C 
ATOM     45  C   UNL     1      -2.804  -1.836  -9.208  1.00  0.00     0.029 A 
ATOM     46  C   UNL     1      -2.465  -1.763 -10.626  1.00  0.00     0.049 A 
ATOM     47  H   UNL     1      -0.583  -1.974 -11.490  1.00  0.00     0.167 HD
ATOM     48  C   UNL     1       3.467  -2.156 -13.145  1.00  0.00     0.037 A 
ATOM     49  C   UNL     1      -3.339  -1.543 -11.627  1.00  0.00     0.037 A 
ATOM     50  C   UNL     1       2.601  -2.022 -14.286  1.00  0.00     0.049 A 
ATOM     51  C   UNL     1      -2.834  -1.493 -13.044  1.00  0.00     0.074 A 
ATOM     52  C   UNL     1       2.936  -2.021 -15.628  1.00  0.00     0.029 A 
ATOM     53  N   UNL     1       1.224  -1.865 -14.216  1.00  0.00    -0.354 N 
ATOM     54  N   UNL     1      -1.608  -1.620 -13.491  1.00  0.00    -0.248 NA
ATOM     55  C   UNL     1      -3.836  -1.275 -14.098  1.00  0.00     0.031 C 
ATOM     56  C   UNL     1       1.767  -1.825 -16.370  1.00  0.00     0.029 A 
ATOM     57  C   UNL     1       0.698  -1.750 -15.492  1.00  0.00     0.049 A 
ATOM     58  H   UNL     1       0.700  -1.840 -13.383  1.00  0.00     0.167 HD
ATOM     59  C   UNL     1      -1.694  -1.526 -14.873  1.00  0.00     0.074 A 
ATOM     60  C   UNL     1      -3.094  -1.345 -15.194  1.00  0.00     0.031 C 
ATOM     61  C   UNL     1      -0.701  -1.584 -15.794  1.00  0.00     0.037 A 
BRANCH  48  62
ATOM     62  C   UNL     1       4.947  -2.245 -13.380  1.00  0.00     0.064 A 
ATOM     63  C   UNL     1       5.655  -3.437 -13.165  1.00  0.00     0.173 A 
ATOM     64  C   UNL     1       5.662  -1.133 -13.850  1.00  0.00     0.173 A 
ATOM     65  F   UNL     1       5.020  -4.525 -12.703  1.00  0.00    -0.203 F 
ATOM     66  C   UNL     1       7.028  -3.504 -13.380  1.00  0.00     0.198 A 
ATOM     67  C   UNL     1       7.030  -1.213 -14.095  1.00  0.00     0.198 A 
ATOM     68  F   UNL     1       5.032   0.030 -14.077  1.00  0.00    -0.203 F 
ATOM     69  F   UNL     1       7.691  -4.638 -13.115  1.00  0.00    -0.200 F 
ATOM     70  C   UNL     1       7.714  -2.395 -13.851  1.00  0.00     0.200 A 
ATOM     71  F   UNL     1       7.689  -0.143 -14.562  1.00  0.00    -0.200 F 
ATOM     72  F   UNL     1       9.035  -2.462 -14.063  1.00  0.00    -0.200 F 
ENDBRANCH  48  62
BRANCH  49  73
ATOM     73  C   UNL     1      -4.787  -1.383 -11.332  1.00  0.00     0.064 A 
ATOM     74  C   UNL     1      -5.708  -2.373 -11.703  1.00  0.00     0.173 A 
ATOM     75  C   UNL     1      -5.282  -0.241 -10.685  1.00  0.00     0.173 A 
ATOM     76  F   UNL     1      -5.285  -3.473 -12.343  1.00  0.00    -0.203 F 
ATOM     77  C   UNL     1      -7.071  -2.218 -11.458  1.00  0.00     0.198 A 
ATOM     78  C   UNL     1      -6.642  -0.100 -10.416  1.00  0.00     0.198 A 
ATOM     79  F   UNL     1      -4.443   0.733 -10.305  1.00  0.00    -0.203 F 
ATOM     80  F   UNL     1      -7.933  -3.159 -11.865  1.00  0.00    -0.200 F 
ATOM     81  C   UNL     1      -7.536  -1.084 -10.810  1.00  0.00     0.200 A 
ATOM     82  F   UNL     1      -7.087   0.991  -9.778  1.00  0.00    -0.200 F 
ATOM     83  F   UNL     1      -8.847  -0.937 -10.572  1.00  0.00    -0.200 F 
ENDBRANCH  49  73
BRANCH  61  84
ATOM     84  C   UNL     1      -1.094  -1.488 -17.239  1.00  0.00     0.064 A 
ATOM     85  C   UNL     1      -1.514  -0.278 -17.809  1.00  0.00     0.173 A 
ATOM     86  C   UNL     1      -1.003  -2.613 -18.073  1.00  0.00     0.173 A 
ATOM     87  F   UNL     1      -1.631   0.821 -17.048  1.00  0.00    -0.203 F 
ATOM     88  C   UNL     1      -1.848  -0.201 -19.158  1.00  0.00     0.198 A 
ATOM     89  C   UNL     1      -1.311  -2.526 -19.428  1.00  0.00     0.198 A 
ATOM     90  F   UNL     1      -0.602  -3.792 -17.577  1.00  0.00    -0.203 F 
ATOM     91  F   UNL     1      -2.287   0.956 -19.673  1.00  0.00    -0.200 F 
ATOM     92  C   UNL     1      -1.738  -1.322 -19.968  1.00  0.00     0.200 A 
ATOM     93  F   UNL     1      -1.192  -3.606 -20.211  1.00  0.00    -0.200 F 
ATOM     94  F   UNL     1      -2.051  -1.244 -21.268  1.00  0.00    -0.200 F 
ENDBRANCH  61  84
ENDBRANCH  35  36
ENDBRANCH  27  30
ENDBRANCH  25  26
ENDBRANCH  24  25
ENDBRANCH   1  24
TORSDOF 15
