REMARK SMILES CC(=O)Oc1ccc([C@H]2Nc3c(C(=O)NCCCCNC(=O)c4ccc(-c5c6nc(c(-c7c(F)c(F)c(F)c(F)c7F)c7ccc([nH]7)c(-c7c(F)c(F)c(F)c(F)c7F)c7nc(c(-c8c(F)c(F)c(F)c(F)c8F)c8ccc5[nH]8)C=C7)C=C6)cc4)ccc([N+](=O)[O-])c3[C@H]3C=CC[C@@H]32)cc1
REMARK SMILES IDX 17 1 16 2 15 3 13 4 14 5 12 7 9 8 10 9 97 10 11 11 93 13
REMARK SMILES IDX 96 14 92 15 94 16 95 17 86 18 88 19 87 20 8 21 5 22 6 23
REMARK SMILES IDX 99 24 7 25 98 26 4 27 2 28 1 29 3 30 89 31 90 32 91 33 18 34
REMARK SMILES IDX 19 35 20 36 21 37 22 39 23 40 24 41 85 42 25 43 84 44 26 45
REMARK SMILES IDX 27 46 28 47 78 48 29 49 83 50 77 51 79 52 30 53 82 54 76 55
REMARK SMILES IDX 75 56 31 58 63 59 43 60 62 61 44 62 47 63 61 64 80 65 45 66
REMARK SMILES IDX 46 67 60 69 81 70 48 71 32 72 33 73 41 74 34 75 35 76 39 77
REMARK SMILES IDX 42 78 36 79 37 80 40 81 38 82 64 83 65 84 73 85 66 86 67 87
REMARK SMILES IDX 71 88 74 89 68 90 69 91 72 92 70 93 49 94 50 95 58 96 51 97
REMARK SMILES IDX 52 98 56 99 59 100 53 101 54 102 57 103 55 104
REMARK H PARENT 15 6 10 12 20 38 79 57 47 68
REMARK Flexibility Score: inf
ROOT
ATOM      1  C   UNL     1       1.422  -7.454  13.483  1.00  0.00     0.023 C 
ENDROOT
BRANCH   1   2
ATOM      2  C   UNL     1       0.349  -6.387  13.269  1.00  0.00     0.116 C 
BRANCH   2   3
ATOM      3  N   UNL     1       0.803  -5.193  12.545  1.00  0.00    -0.352 N 
ATOM      4  C   UNL     1       0.267  -4.555  11.425  1.00  0.00     0.253 C 
ATOM      5  O   UNL     1       0.855  -3.609  10.919  1.00  0.00    -0.269 OA
ATOM      6  H   UNL     1       1.617  -4.775  12.909  1.00  0.00     0.163 HD
BRANCH   4   7
ATOM      7  C   UNL     1      -1.023  -5.042  10.853  1.00  0.00     0.063 A 
ATOM      8  C   UNL     1      -0.939  -4.718   7.013  1.00  0.00     0.114 C 
ATOM      9  N   UNL     1      -0.508  -4.615   8.437  1.00  0.00    -0.377 N 
ATOM     10  C   UNL     1      -2.451  -4.992   7.039  1.00  0.00     0.031 C 
ATOM     11  C   UNL     1      -1.241  -5.265   9.470  1.00  0.00     0.058 A 
ATOM     12  H   UNL     1       0.293  -4.091   8.666  1.00  0.00     0.161 HD
ATOM     13  C   UNL     1      -2.518  -6.405   7.652  1.00  0.00     0.056 C 
ATOM     14  C   UNL     1      -3.361  -5.001   5.814  1.00  0.00     0.034 C 
ATOM     15  C   UNL     1      -2.331  -6.141   9.123  1.00  0.00     0.061 A 
ATOM     16  C   UNL     1      -3.752  -6.966   7.041  1.00  0.00    -0.022 C 
ATOM     17  C   UNL     1      -4.199  -6.216   6.031  1.00  0.00    -0.030 C 
ATOM     18  C   UNL     1      -2.030  -5.357  11.788  1.00  0.00     0.023 A 
ATOM     19  C   UNL     1      -3.176  -6.632  10.132  1.00  0.00     0.275 A 
ATOM     20  C   UNL     1      -3.088  -6.182  11.444  1.00  0.00     0.087 A 
BRANCH   8  21
ATOM     21  C   UNL     1      -0.428  -3.668   6.022  1.00  0.00    -0.025 A 
ATOM     22  C   UNL     1       0.364  -2.342   3.641  1.00  0.00     0.130 A 
ATOM     23  C   UNL     1       1.250  -3.196   4.293  1.00  0.00     0.047 A 
ATOM     24  C   UNL     1      -0.889  -2.096   4.191  1.00  0.00     0.047 A 
ATOM     25  C   UNL     1       0.862  -3.840   5.478  1.00  0.00     0.010 A 
ATOM     26  C   UNL     1      -1.265  -2.727   5.393  1.00  0.00     0.010 A 
BRANCH  22  27
ATOM     27  O   UNL     1       0.785  -1.861   2.378  1.00  0.00    -0.427 OA
BRANCH  27  28
ATOM     28  C   UNL     1       0.374  -0.634   1.854  1.00  0.00     0.308 C 
ATOM     29  C   UNL     1       0.984  -0.445   0.494  1.00  0.00     0.139 C 
ATOM     30  O   UNL     1      -0.362   0.183   2.395  1.00  0.00    -0.252 OA
ENDBRANCH  27  28
ENDBRANCH  22  27
ENDBRANCH   8  21
BRANCH  19  31
ATOM     31  N   UNL     1      -4.168  -7.652   9.874  1.00  0.00     0.063 N 
ATOM     32  O   UNL     1      -5.356  -7.318   9.949  1.00  0.00    -0.258 OA
ATOM     33  O   UNL     1      -3.743  -8.795   9.652  1.00  0.00    -0.258 OA
ENDBRANCH  19  31
ENDBRANCH   4   7
ENDBRANCH   2   3
ENDBRANCH   1   2
BRANCH   1  34
ATOM     34  C   UNL     1       2.502  -7.121  14.509  1.00  0.00     0.023 C 
BRANCH  34  35
ATOM     35  C   UNL     1       2.030  -6.966  15.954  1.00  0.00     0.116 C 
BRANCH  35  36
ATOM     36  N   UNL     1       1.514  -8.196  16.539  1.00  0.00    -0.352 N 
ATOM     37  C   UNL     1       1.882  -8.867  17.684  1.00  0.00     0.251 C 
ATOM     38  H   UNL     1       0.783  -8.617  16.032  1.00  0.00     0.163 HD
ATOM     39  O   UNL     1       1.373  -9.956  17.933  1.00  0.00    -0.269 OA
BRANCH  37  40
ATOM     40  C   UNL     1       2.901  -8.314  18.609  1.00  0.00     0.039 A 
ATOM     41  C   UNL     1       3.824  -9.189  19.192  1.00  0.00     0.014 A 
ATOM     42  C   UNL     1       2.939  -6.958  18.940  1.00  0.00     0.014 A 
ATOM     43  C   UNL     1       4.816  -8.697  20.048  1.00  0.00     0.010 A 
ATOM     44  C   UNL     1       3.980  -6.455  19.720  1.00  0.00     0.010 A 
ATOM     45  C   UNL     1       4.924  -7.320  20.295  1.00  0.00    -0.014 A 
BRANCH  45  46
ATOM     46  C   UNL     1       5.997  -6.774  21.171  1.00  0.00     0.031 A 
ATOM     47  C   UNL     1       5.644  -6.057  22.448  1.00  0.00     0.074 A 
ATOM     48  C   UNL     1       7.289  -6.883  20.803  1.00  0.00     0.049 A 
ATOM     49  N   UNL     1       6.431  -5.481  23.323  1.00  0.00    -0.248 NA
ATOM     50  C   UNL     1       4.213  -5.948  22.770  1.00  0.00     0.031 C 
ATOM     51  C   UNL     1       7.767  -7.514  19.573  1.00  0.00     0.029 A 
ATOM     52  N   UNL     1       8.438  -6.460  21.427  1.00  0.00    -0.354 N 
ATOM     53  C   UNL     1       5.591  -4.937  24.288  1.00  0.00     0.074 A 
ATOM     54  C   UNL     1       4.234  -5.191  23.856  1.00  0.00     0.031 C 
ATOM     55  C   UNL     1       9.109  -7.467  19.547  1.00  0.00     0.029 A 
ATOM     56  C   UNL     1       9.585  -6.767  20.737  1.00  0.00     0.049 A 
ATOM     57  H   UNL     1       8.438  -5.982  22.288  1.00  0.00     0.167 HD
ATOM     58  C   UNL     1       5.919  -4.309  25.443  1.00  0.00     0.037 A 
ATOM     59  C   UNL     1      10.876  -6.512  21.029  1.00  0.00     0.037 A 
ATOM     60  C   UNL     1       7.270  -4.069  25.880  1.00  0.00     0.049 A 
ATOM     61  C   UNL     1      11.214  -5.793  22.308  1.00  0.00     0.074 A 
ATOM     62  C   UNL     1       7.706  -3.481  27.055  1.00  0.00     0.029 A 
ATOM     63  N   UNL     1       8.405  -4.401  25.155  1.00  0.00    -0.354 N 
ATOM     64  N   UNL     1      10.414  -5.344  23.245  1.00  0.00    -0.248 NA
ATOM     65  C   UNL     1      12.640  -5.556  22.576  1.00  0.00     0.031 C 
ATOM     66  C   UNL     1       9.102  -3.406  27.015  1.00  0.00     0.029 A 
ATOM     67  C   UNL     1       9.541  -4.009  25.848  1.00  0.00     0.049 A 
ATOM     68  H   UNL     1       8.405  -4.849  24.279  1.00  0.00     0.167 HD
ATOM     69  C   UNL     1      11.237  -4.810  24.228  1.00  0.00     0.074 A 
ATOM     70  C   UNL     1      12.600  -5.001  23.778  1.00  0.00     0.031 C 
ATOM     71  C   UNL     1      10.894  -4.217  25.398  1.00  0.00     0.037 A 
BRANCH  58  72
ATOM     72  C   UNL     1       4.791  -3.836  26.318  1.00  0.00     0.064 A 
ATOM     73  C   UNL     1       3.937  -4.737  26.974  1.00  0.00     0.173 A 
ATOM     74  C   UNL     1       4.572  -2.465  26.521  1.00  0.00     0.173 A 
ATOM     75  F   UNL     1       4.094  -6.059  26.808  1.00  0.00    -0.203 F 
ATOM     76  C   UNL     1       2.885  -4.284  27.766  1.00  0.00     0.198 A 
ATOM     77  C   UNL     1       3.541  -2.016  27.344  1.00  0.00     0.198 A 
ATOM     78  F   UNL     1       5.361  -1.557  25.926  1.00  0.00    -0.203 F 
ATOM     79  F   UNL     1       2.046  -5.164  28.329  1.00  0.00    -0.200 F 
ATOM     80  C   UNL     1       2.692  -2.925  27.956  1.00  0.00     0.200 A 
ATOM     81  F   UNL     1       3.366  -0.701  27.539  1.00  0.00    -0.200 F 
ATOM     82  F   UNL     1       1.681  -2.490  28.721  1.00  0.00    -0.200 F 
ENDBRANCH  58  72
BRANCH  59  83
ATOM     83  C   UNL     1      11.952  -6.970  20.109  1.00  0.00     0.064 A 
ATOM     84  C   UNL     1      12.844  -7.982  20.493  1.00  0.00     0.173 A 
ATOM     85  C   UNL     1      12.122  -6.400  18.839  1.00  0.00     0.173 A 
ATOM     86  F   UNL     1      12.737  -8.544  21.706  1.00  0.00    -0.203 F 
ATOM     87  C   UNL     1      13.878  -8.389  19.652  1.00  0.00     0.198 A 
ATOM     88  C   UNL     1      13.137  -6.830  17.986  1.00  0.00     0.198 A 
ATOM     89  F   UNL     1      11.294  -5.431  18.421  1.00  0.00    -0.203 F 
ATOM     90  F   UNL     1      14.747  -9.321  20.066  1.00  0.00    -0.200 F 
ATOM     91  C   UNL     1      14.020  -7.817  18.397  1.00  0.00     0.200 A 
ATOM     92  F   UNL     1      13.261  -6.285  16.769  1.00  0.00    -0.200 F 
ATOM     93  F   UNL     1      15.013  -8.210  17.588  1.00  0.00    -0.200 F 
ENDBRANCH  59  83
BRANCH  71  94
ATOM     94  C   UNL     1      12.010  -3.784  26.308  1.00  0.00     0.064 A 
ATOM     95  C   UNL     1      12.857  -2.712  25.989  1.00  0.00     0.173 A 
ATOM     96  C   UNL     1      12.214  -4.435  27.535  1.00  0.00     0.173 A 
ATOM     97  F   UNL     1      12.714  -2.062  24.824  1.00  0.00    -0.203 F 
ATOM     98  C   UNL     1      13.886  -2.332  26.847  1.00  0.00     0.198 A 
ATOM     99  C   UNL     1      13.220  -4.029  28.407  1.00  0.00     0.198 A 
ATOM    100  F   UNL     1      11.428  -5.461  27.895  1.00  0.00    -0.203 F 
ATOM    101  F   UNL     1      14.719  -1.343  26.493  1.00  0.00    -0.200 F 
ATOM    102  C   UNL     1      14.062  -2.985  28.057  1.00  0.00     0.200 A 
ATOM    103  F   UNL     1      13.376  -4.651  29.583  1.00  0.00    -0.200 F 
ATOM    104  F   UNL     1      15.049  -2.614  28.884  1.00  0.00    -0.200 F 
ENDBRANCH  71  94
ENDBRANCH  45  46
ENDBRANCH  37  40
ENDBRANCH  35  36
ENDBRANCH  34  35
ENDBRANCH   1  34
TORSDOF 15
