REMARK SMILES C[C@H]1CCC[C@]1(C(=O)NCCCCNC(=O)c1ccc(-c2c3nc(c(-c4c(F)c(F)c(F)c(F)c4F)c4ccc([nH]4)c(-c4c(F)c(F)c(F)c(F)c4F)c4nc(c(-c5c(F)c(F)c(F)c(F)c5F)c5ccc2[nH]5)C=C4)C=C3)cc1)c1ccc2c(c1)OCO2
REMARK SMILES IDX 12 1 11 2 10 3 9 4 7 5 8 6 6 8 1 9 2 10 3 11 4 12 5 13 80 14
REMARK SMILES IDX 81 15 85 16 82 17 84 18 83 19 86 20 88 21 87 22 13 23 14 24
REMARK SMILES IDX 15 25 16 27 17 28 18 29 79 30 19 31 78 32 20 33 21 34 22 35
REMARK SMILES IDX 72 36 23 37 77 38 71 39 73 40 24 41 76 42 70 43 69 44 25 46
REMARK SMILES IDX 57 47 37 48 56 49 38 50 41 51 55 52 74 53 39 54 40 55 54 57
REMARK SMILES IDX 75 58 42 59 26 60 27 61 35 62 28 63 29 64 33 65 36 66 30 67
REMARK SMILES IDX 31 68 34 69 32 70 58 71 59 72 67 73 60 74 61 75 65 76 68 77
REMARK SMILES IDX 62 78 63 79 66 80 64 81 43 82 44 83 52 84 45 85 46 86 50 87
REMARK SMILES IDX 53 88 47 89 48 90 51 91 49 92
REMARK H PARENT 9 7 14 26 73 45 41 56
REMARK Flexibility Score: inf
ROOT
ATOM      1  C   UNL     1      -1.261  -2.300   4.614  1.00  0.00     0.023 C 
ENDROOT
BRANCH   1   2
ATOM      2  C   UNL     1      -0.869  -2.056   3.162  1.00  0.00     0.023 C 
BRANCH   2   3
ATOM      3  C   UNL     1      -1.687  -0.987   2.443  1.00  0.00     0.116 C 
BRANCH   3   4
ATOM      4  N   UNL     1      -1.220   0.363   2.696  1.00  0.00    -0.355 N 
ATOM      5  C   UNL     1      -0.733   1.362   1.900  1.00  0.00     0.230 C 
ATOM      6  O   UNL     1      -0.738   2.465   2.459  1.00  0.00    -0.274 OA
ATOM      7  H   UNL     1      -1.262   0.614   3.647  1.00  0.00     0.163 HD
BRANCH   5   8
ATOM      8  C   UNL     1      -0.224   1.160   0.424  1.00  0.00     0.077 C 
ATOM      9  C   UNL     1       1.909   0.024   1.468  1.00  0.00     0.009 C 
ATOM     10  C   UNL     1       0.966   0.144   0.279  1.00  0.00     0.006 C 
ATOM     11  C   UNL     1       0.372  -1.164  -0.226  1.00  0.00     0.005 C 
ATOM     12  C   UNL     1      -0.831  -0.734  -1.058  1.00  0.00     0.002 C 
ATOM     13  C   UNL     1      -1.380   0.545  -0.418  1.00  0.00     0.022 C 
BRANCH   8  14
ATOM     14  C   UNL     1       0.351   2.451  -0.266  1.00  0.00    -0.028 A 
ATOM     15  C   UNL     1       1.043   3.454   0.461  1.00  0.00     0.009 A 
ATOM     16  C   UNL     1       0.444   2.494  -1.680  1.00  0.00     0.055 A 
ATOM     17  C   UNL     1       1.815   4.437  -0.177  1.00  0.00     0.051 A 
ATOM     18  C   UNL     1       1.258   3.433  -2.275  1.00  0.00     0.166 A 
ATOM     19  C   UNL     1       1.933   4.375  -1.544  1.00  0.00     0.165 A 
ATOM     20  O   UNL     1       1.563   3.482  -3.600  1.00  0.00    -0.454 OA
ATOM     21  O   UNL     1       2.747   5.141  -2.320  1.00  0.00    -0.454 OA
ATOM     22  C   UNL     1       2.637   4.442  -3.578  1.00  0.00     0.468 C 
ENDBRANCH   8  14
ENDBRANCH   5   8
ENDBRANCH   3   4
ENDBRANCH   2   3
ENDBRANCH   1   2
BRANCH   1  23
ATOM     23  C   UNL     1      -2.712  -2.706   4.823  1.00  0.00     0.116 C 
BRANCH  23  24
ATOM     24  N   UNL     1      -3.140  -3.827   3.996  1.00  0.00    -0.352 N 
ATOM     25  C   UNL     1      -4.078  -4.786   4.298  1.00  0.00     0.251 C 
ATOM     26  H   UNL     1      -2.706  -3.908   3.116  1.00  0.00     0.163 HD
ATOM     27  O   UNL     1      -4.296  -5.723   3.539  1.00  0.00    -0.269 OA
BRANCH  25  28
ATOM     28  C   UNL     1      -4.783  -4.686   5.588  1.00  0.00     0.039 A 
ATOM     29  C   UNL     1      -4.729  -5.766   6.470  1.00  0.00     0.014 A 
ATOM     30  C   UNL     1      -5.397  -3.487   5.956  1.00  0.00     0.014 A 
ATOM     31  C   UNL     1      -5.230  -5.615   7.762  1.00  0.00     0.010 A 
ATOM     32  C   UNL     1      -5.819  -3.313   7.267  1.00  0.00     0.010 A 
ATOM     33  C   UNL     1      -5.740  -4.375   8.180  1.00  0.00    -0.014 A 
BRANCH  33  34
ATOM     34  C   UNL     1      -6.206  -4.168   9.571  1.00  0.00     0.031 A 
ATOM     35  C   UNL     1      -7.653  -3.863   9.833  1.00  0.00     0.074 A 
ATOM     36  C   UNL     1      -5.317  -4.184  10.582  1.00  0.00     0.049 A 
ATOM     37  N   UNL     1      -8.249  -3.587  10.964  1.00  0.00    -0.248 NA
ATOM     38  C   UNL     1      -8.542  -3.827   8.661  1.00  0.00     0.031 C 
ATOM     39  C   UNL     1      -3.876  -4.404  10.441  1.00  0.00     0.029 A 
ATOM     40  N   UNL     1      -5.495  -4.003  11.930  1.00  0.00    -0.354 N 
ATOM     41  C   UNL     1      -9.572  -3.328  10.636  1.00  0.00     0.074 A 
ATOM     42  C   UNL     1      -9.682  -3.420   9.198  1.00  0.00     0.031 C 
ATOM     43  C   UNL     1      -3.306  -4.371  11.657  1.00  0.00     0.029 A 
ATOM     44  C   UNL     1      -4.333  -4.100  12.657  1.00  0.00     0.049 A 
ATOM     45  H   UNL     1      -6.372  -3.819  12.338  1.00  0.00     0.167 HD
ATOM     46  C   UNL     1     -10.610  -3.065  11.465  1.00  0.00     0.037 A 
ATOM     47  C   UNL     1      -4.127  -3.986  13.982  1.00  0.00     0.037 A 
ATOM     48  C   UNL     1     -10.502  -3.014  12.898  1.00  0.00     0.049 A 
ATOM     49  C   UNL     1      -5.302  -3.725  14.885  1.00  0.00     0.074 A 
ATOM     50  C   UNL     1     -11.504  -2.825  13.833  1.00  0.00     0.029 A 
ATOM     51  N   UNL     1      -9.316  -3.159  13.603  1.00  0.00    -0.354 N 
ATOM     52  N   UNL     1      -6.564  -3.558  14.572  1.00  0.00    -0.248 NA
ATOM     53  C   UNL     1      -5.026  -3.648  16.326  1.00  0.00     0.031 C 
ATOM     54  C   UNL     1     -10.918  -2.822  15.104  1.00  0.00     0.029 A 
ATOM     55  C   UNL     1      -9.558  -3.050  14.962  1.00  0.00     0.049 A 
ATOM     56  H   UNL     1      -8.433  -3.315  13.197  1.00  0.00     0.167 HD
ATOM     57  C   UNL     1      -7.236  -3.383  15.773  1.00  0.00     0.074 A 
ATOM     58  C   UNL     1      -6.243  -3.479  16.824  1.00  0.00     0.031 C 
ATOM     59  C   UNL     1      -8.555  -3.161  15.989  1.00  0.00     0.037 A 
BRANCH  46  60
ATOM     60  C   UNL     1     -11.951  -2.829  10.837  1.00  0.00     0.064 A 
ATOM     61  C   UNL     1     -12.669  -3.868  10.226  1.00  0.00     0.173 A 
ATOM     62  C   UNL     1     -12.536  -1.554  10.863  1.00  0.00     0.173 A 
ATOM     63  F   UNL     1     -12.146  -5.102  10.162  1.00  0.00    -0.203 F 
ATOM     64  C   UNL     1     -13.908  -3.634   9.637  1.00  0.00     0.198 A 
ATOM     65  C   UNL     1     -13.789  -1.329  10.298  1.00  0.00     0.198 A 
ATOM     66  F   UNL     1     -11.893  -0.526  11.436  1.00  0.00    -0.203 F 
ATOM     67  F   UNL     1     -14.550  -4.631   9.012  1.00  0.00    -0.200 F 
ATOM     68  C   UNL     1     -14.470  -2.367   9.679  1.00  0.00     0.200 A 
ATOM     69  F   UNL     1     -14.335  -0.107  10.348  1.00  0.00    -0.200 F 
ATOM     70  F   UNL     1     -15.664  -2.143   9.114  1.00  0.00    -0.200 F 
ENDBRANCH  46  60
BRANCH  47  71
ATOM     71  C   UNL     1      -2.761  -4.162  14.540  1.00  0.00     0.064 A 
ATOM     72  C   UNL     1      -2.435  -5.301  15.290  1.00  0.00     0.173 A 
ATOM     73  C   UNL     1      -1.759  -3.203  14.340  1.00  0.00     0.173 A 
ATOM     74  F   UNL     1      -3.366  -6.237  15.524  1.00  0.00    -0.203 F 
ATOM     75  C   UNL     1      -1.164  -5.463  15.837  1.00  0.00     0.198 A 
ATOM     76  C   UNL     1      -0.481  -3.378  14.866  1.00  0.00     0.198 A 
ATOM     77  F   UNL     1      -2.019  -2.099  13.624  1.00  0.00    -0.203 F 
ATOM     78  F   UNL     1      -0.892  -6.540  16.586  1.00  0.00    -0.200 F 
ATOM     79  C   UNL     1      -0.186  -4.504  15.620  1.00  0.00     0.200 A 
ATOM     80  F   UNL     1       0.465  -2.455  14.644  1.00  0.00    -0.200 F 
ATOM     81  F   UNL     1       1.037  -4.661  16.144  1.00  0.00    -0.200 F 
ENDBRANCH  47  71
BRANCH  59  82
ATOM     82  C   UNL     1      -9.005  -3.040  17.415  1.00  0.00     0.064 A 
ATOM     83  C   UNL     1      -8.722  -1.900  18.180  1.00  0.00     0.173 A 
ATOM     84  C   UNL     1      -9.765  -4.060  18.006  1.00  0.00     0.173 A 
ATOM     85  F   UNL     1      -7.985  -0.905  17.662  1.00  0.00    -0.203 F 
ATOM     86  C   UNL     1      -9.165  -1.795  19.495  1.00  0.00     0.198 A 
ATOM     87  C   UNL     1     -10.229  -3.940  19.312  1.00  0.00     0.198 A 
ATOM     88  F   UNL     1     -10.068  -5.168  17.312  1.00  0.00    -0.203 F 
ATOM     89  F   UNL     1      -8.846  -0.716  20.223  1.00  0.00    -0.200 F 
ATOM     90  C   UNL     1      -9.923  -2.811  20.058  1.00  0.00     0.200 A 
ATOM     91  F   UNL     1     -10.973  -4.916  19.851  1.00  0.00    -0.200 F 
ATOM     92  F   UNL     1     -10.354  -2.705  21.322  1.00  0.00    -0.200 F 
ENDBRANCH  59  82
ENDBRANCH  33  34
ENDBRANCH  25  28
ENDBRANCH  23  24
ENDBRANCH   1  23
TORSDOF 12
