REMARK SMILES Cc1c(Cl)cc2c(c1C)O[C@H](C(F)(F)F)C(C(=O)NCCCCNC(=O)c1ccc(-c3c4nc(c(-c5c(F)c(F)c(F)c(F)c5F)c5ccc([nH]5)c(-c5c(F)c(F)c(F)c(F)c5F)c5nc(c(-c6c(F)c(F)c(F)c(F)c6F)c6ccc3[nH]6)C=C5)C=C4)cc1)=C2
REMARK SMILES IDX 22 1 21 2 20 3 19 4 17 5 18 6 16 8 1 9 2 10 3 11 8 12 4 13
REMARK SMILES IDX 5 14 7 15 9 16 6 17 10 18 90 19 11 20 12 21 13 22 14 23
REMARK SMILES IDX 15 24 23 25 24 26 25 27 26 29 27 30 28 31 89 32 29 33 88 34
REMARK SMILES IDX 30 35 31 36 32 37 82 38 33 39 87 40 81 41 83 42 34 43 86 44
REMARK SMILES IDX 80 45 79 46 35 48 67 49 47 50 66 51 48 52 51 53 65 54 84 55
REMARK SMILES IDX 49 56 50 57 64 59 85 60 52 61 36 62 37 63 45 64 38 65 39 66
REMARK SMILES IDX 43 67 46 68 40 69 41 70 44 71 42 72 68 73 69 74 77 75 70 76
REMARK SMILES IDX 71 77 75 78 78 79 72 80 73 81 76 82 74 83 53 84 54 85 62 86
REMARK SMILES IDX 55 87 56 88 60 89 63 90 57 91 58 92 61 93 59 94
REMARK H PARENT 19 7 24 28 83 47 51 58
REMARK Flexibility Score: inf
ROOT
ATOM      1  C   UNL     1      -1.260  -2.786  10.375  1.00  0.00     0.023 C 
ENDROOT
BRANCH   1   2
ATOM      2  C   UNL     1      -1.138  -2.684   8.853  1.00  0.00     0.023 C 
BRANCH   2   3
ATOM      3  C   UNL     1      -2.266  -1.901   8.188  1.00  0.00     0.116 C 
BRANCH   3   4
ATOM      4  N   UNL     1      -2.000  -0.474   8.171  1.00  0.00    -0.352 N 
ATOM      5  C   UNL     1      -1.552   0.434   7.273  1.00  0.00     0.251 C 
ATOM      6  O   UNL     1      -1.461   1.590   7.699  1.00  0.00    -0.270 OA
ATOM      7  H   UNL     1      -2.196  -0.058   9.042  1.00  0.00     0.163 HD
BRANCH   5   8
ATOM      8  C   UNL     1      -1.176   0.137   5.859  1.00  0.00     0.067 C 
ATOM      9  C   UNL     1       0.904   0.269  -0.347  1.00  0.00     0.046 C 
ATOM     10  C   UNL     1       0.498   0.499   1.087  1.00  0.00    -0.026 A 
ATOM     11  C   UNL     1       0.491   1.798   1.639  1.00  0.00     0.045 A 
ATOM     12  C   UNL     1       0.174  -0.594   1.927  1.00  0.00    -0.004 A 
ATOM     13  Cl  UNL     1       0.962   3.190   0.725  1.00  0.00    -0.084 Cl
ATOM     14  C   UNL     1       0.118   2.019   2.969  1.00  0.00     0.032 A 
ATOM     15  C   UNL     1      -0.232  -0.343   3.253  1.00  0.00     0.131 A 
ATOM     16  C   UNL     1       0.196  -2.024   1.444  1.00  0.00     0.049 C 
ATOM     17  C   UNL     1      -0.256   0.950   3.779  1.00  0.00     0.019 A 
ATOM     18  O   UNL     1      -0.554  -1.427   4.026  1.00  0.00    -0.475 OA
ATOM     19  C   UNL     1      -0.623   1.156   5.175  1.00  0.00     0.025 C 
ATOM     20  C   UNL     1      -1.410  -1.177   5.173  1.00  0.00     0.314 C 
BRANCH  20  21
ATOM     21  C   UNL     1      -2.883  -1.383   4.769  1.00  0.00     0.429 C 
ATOM     22  F   UNL     1      -3.107  -2.682   4.447  1.00  0.00    -0.167 F 
ATOM     23  F   UNL     1      -3.740  -1.087   5.775  1.00  0.00    -0.167 F 
ATOM     24  F   UNL     1      -3.246  -0.633   3.707  1.00  0.00    -0.167 F 
ENDBRANCH  20  21
ENDBRANCH   5   8
ENDBRANCH   3   4
ENDBRANCH   2   3
ENDBRANCH   1   2
BRANCH   1  25
ATOM     25  C   UNL     1      -2.575  -3.366  10.891  1.00  0.00     0.116 C 
BRANCH  25  26
ATOM     26  N   UNL     1      -2.945  -4.635  10.278  1.00  0.00    -0.352 N 
ATOM     27  C   UNL     1      -3.683  -5.654  10.832  1.00  0.00     0.251 C 
ATOM     28  H   UNL     1      -2.629  -4.780   9.358  1.00  0.00     0.163 HD
ATOM     29  O   UNL     1      -3.872  -6.702  10.225  1.00  0.00    -0.269 OA
BRANCH  27  30
ATOM     30  C   UNL     1      -4.201  -5.480  12.200  1.00  0.00     0.039 A 
ATOM     31  C   UNL     1      -3.821  -6.397  13.181  1.00  0.00     0.014 A 
ATOM     32  C   UNL     1      -4.977  -4.363  12.523  1.00  0.00     0.014 A 
ATOM     33  C   UNL     1      -4.153  -6.150  14.511  1.00  0.00     0.010 A 
ATOM     34  C   UNL     1      -5.256  -4.088  13.857  1.00  0.00     0.010 A 
ATOM     35  C   UNL     1      -4.836  -4.973  14.861  1.00  0.00    -0.014 A 
BRANCH  35  36
ATOM     36  C   UNL     1      -5.101  -4.647  16.281  1.00  0.00     0.031 A 
ATOM     37  C   UNL     1      -6.507  -4.646  16.802  1.00  0.00     0.074 A 
ATOM     38  C   UNL     1      -4.075  -4.306  17.085  1.00  0.00     0.049 A 
ATOM     39  N   UNL     1      -6.941  -4.369  18.005  1.00  0.00    -0.248 NA
ATOM     40  C   UNL     1      -7.569  -4.977  15.839  1.00  0.00     0.031 C 
ATOM     41  C   UNL     1      -2.672  -4.222  16.675  1.00  0.00     0.029 A 
ATOM     42  N   UNL     1      -4.054  -3.968  18.414  1.00  0.00    -0.354 N 
ATOM     43  C   UNL     1      -8.321  -4.488  17.942  1.00  0.00     0.074 A 
ATOM     44  C   UNL     1      -8.660  -4.808  16.572  1.00  0.00     0.031 C 
ATOM     45  C   UNL     1      -1.923  -3.892  17.739  1.00  0.00     0.029 A 
ATOM     46  C   UNL     1      -2.794  -3.719  18.898  1.00  0.00     0.049 A 
ATOM     47  H   UNL     1      -4.866  -3.910  18.968  1.00  0.00     0.167 HD
ATOM     48  C   UNL     1      -9.222  -4.370  18.944  1.00  0.00     0.037 A 
ATOM     49  C   UNL     1      -2.389  -3.397  20.141  1.00  0.00     0.037 A 
ATOM     50  C   UNL     1      -8.880  -4.081  20.310  1.00  0.00     0.049 A 
ATOM     51  C   UNL     1      -3.409  -3.274  21.238  1.00  0.00     0.074 A 
ATOM     52  C   UNL     1      -9.715  -3.996  21.409  1.00  0.00     0.029 A 
ATOM     53  N   UNL     1      -7.592  -3.835  20.763  1.00  0.00    -0.354 N 
ATOM     54  N   UNL     1      -4.707  -3.447  21.180  1.00  0.00    -0.248 NA
ATOM     55  C   UNL     1      -2.910  -2.913  22.572  1.00  0.00     0.031 C 
ATOM     56  C   UNL     1      -8.936  -3.672  22.524  1.00  0.00     0.029 A 
ATOM     57  C   UNL     1      -7.612  -3.585  22.124  1.00  0.00     0.049 A 
ATOM     58  H   UNL     1      -6.784  -3.838  20.200  1.00  0.00     0.167 HD
ATOM     59  C   UNL     1      -5.178  -3.237  22.467  1.00  0.00     0.074 A 
ATOM     60  C   UNL     1      -4.026  -2.932  23.290  1.00  0.00     0.031 C 
ATOM     61  C   UNL     1      -6.452  -3.290  22.925  1.00  0.00     0.037 A 
BRANCH  48  62
ATOM     62  C   UNL     1     -10.665  -4.577  18.601  1.00  0.00     0.064 A 
ATOM     63  C   UNL     1     -11.169  -5.857  18.326  1.00  0.00     0.173 A 
ATOM     64  C   UNL     1     -11.559  -3.498  18.583  1.00  0.00     0.173 A 
ATOM     65  F   UNL     1     -10.348  -6.918  18.317  1.00  0.00    -0.203 F 
ATOM     66  C   UNL     1     -12.514  -6.046  18.023  1.00  0.00     0.198 A 
ATOM     67  C   UNL     1     -12.909  -3.694  18.303  1.00  0.00     0.198 A 
ATOM     68  F   UNL     1     -11.126  -2.255  18.842  1.00  0.00    -0.203 F 
ATOM     69  F   UNL     1     -12.966  -7.272  17.724  1.00  0.00    -0.200 F 
ATOM     70  C   UNL     1     -13.384  -4.966  18.018  1.00  0.00     0.200 A 
ATOM     71  F   UNL     1     -13.751  -2.651  18.306  1.00  0.00    -0.200 F 
ATOM     72  F   UNL     1     -14.680  -5.150  17.733  1.00  0.00    -0.200 F 
ENDBRANCH  48  62
BRANCH  49  73
ATOM     73  C   UNL     1      -0.942  -3.225  20.422  1.00  0.00     0.064 A 
ATOM     74  C   UNL     1      -0.234  -4.203  21.134  1.00  0.00     0.173 A 
ATOM     75  C   UNL     1      -0.235  -2.102  19.972  1.00  0.00     0.173 A 
ATOM     76  F   UNL     1      -0.874  -5.286  21.599  1.00  0.00    -0.203 F 
ATOM     77  C   UNL     1       1.127  -4.060  21.392  1.00  0.00     0.198 A 
ATOM     78  C   UNL     1       1.131  -1.969  20.215  1.00  0.00     0.198 A 
ATOM     79  F   UNL     1      -0.868  -1.141  19.283  1.00  0.00    -0.203 F 
ATOM     80  F   UNL     1       1.775  -4.998  22.097  1.00  0.00    -0.200 F 
ATOM     81  C   UNL     1       1.810  -2.946  20.928  1.00  0.00     0.200 A 
ATOM     82  F   UNL     1       1.790  -0.896  19.756  1.00  0.00    -0.200 F 
ATOM     83  F   UNL     1       3.121  -2.812  21.170  1.00  0.00    -0.200 F 
ENDBRANCH  49  73
BRANCH  61  84
ATOM     84  C   UNL     1      -6.674  -3.027  24.383  1.00  0.00     0.064 A 
ATOM     85  C   UNL     1      -6.647  -1.724  24.898  1.00  0.00     0.173 A 
ATOM     86  C   UNL     1      -6.997  -4.078  25.253  1.00  0.00     0.173 A 
ATOM     87  F   UNL     1      -6.329  -0.691  24.104  1.00  0.00    -0.203 F 
ATOM     88  C   UNL     1      -6.934  -1.482  26.238  1.00  0.00     0.198 A 
ATOM     89  C   UNL     1      -7.303  -3.830  26.588  1.00  0.00     0.198 A 
ATOM     90  F   UNL     1      -7.040  -5.341  24.802  1.00  0.00    -0.203 F 
ATOM     91  F   UNL     1      -6.883  -0.232  26.717  1.00  0.00    -0.200 F 
ATOM     92  C   UNL     1      -7.270  -2.534  27.079  1.00  0.00     0.200 A 
ATOM     93  F   UNL     1      -7.638  -4.845  27.397  1.00  0.00    -0.200 F 
ATOM     94  F   UNL     1      -7.562  -2.296  28.365  1.00  0.00    -0.200 F 
ENDBRANCH  61  84
ENDBRANCH  35  36
ENDBRANCH  27  30
ENDBRANCH  25  26
ENDBRANCH   1  25
TORSDOF 12
