REMARK SMILES CC1(C)CCC[C@H]1NS(=O)(=O)c1ccc(O)c(C(=O)NCCCCNC(=O)c2ccc(-c3c4nc(c(-c5c(F)c(F)c(F)c(F)c5F)c5ccc([nH]5)c(-c5c(F)c(F)c(F)c(F)c5F)c5nc(c(-c6c(F)c(F)c(F)c(F)c6F)c6ccc3[nH]6)C=C5)C=C4)cc2)c1
REMARK SMILES IDX 22 1 21 2 20 3 18 4 19 5 17 7 12 8 13 9 91 10 14 11 15 12
REMARK SMILES IDX 9 13 10 14 11 15 8 16 7 18 1 19 2 20 3 21 4 22 5 23 6 24
REMARK SMILES IDX 16 25 23 27 24 28 25 29 26 30 27 32 28 33 29 34 90 35 30 36
REMARK SMILES IDX 89 37 31 38 32 39 33 40 83 41 34 42 88 43 82 44 84 45 35 46
REMARK SMILES IDX 87 47 81 48 80 49 36 51 68 52 48 53 67 54 49 55 52 56 66 57
REMARK SMILES IDX 85 58 50 59 51 60 65 62 86 63 53 64 37 65 38 66 46 67 39 68
REMARK SMILES IDX 40 69 44 70 47 71 41 72 42 73 45 74 43 75 69 76 70 77 78 78
REMARK SMILES IDX 71 79 72 80 76 81 79 82 73 83 74 84 77 85 75 86 54 87 55 88
REMARK SMILES IDX 63 89 56 90 57 91 61 92 64 93 58 94 59 95 62 96 60 97
REMARK H PARENT 20 6 8 17 16 26 25 31 84 50 52 61
REMARK Flexibility Score: inf
ROOT
ATOM      1  C   UNL     1      -1.340   9.729  -2.025  1.00  0.00     0.023 C 
ENDROOT
BRANCH   1   2
ATOM      2  C   UNL     1      -0.431   9.584  -0.800  1.00  0.00     0.116 C 
BRANCH   2   3
ATOM      3  N   UNL     1      -1.210   9.131   0.329  1.00  0.00    -0.352 N 
ATOM      4  C   UNL     1      -1.557   7.878   0.758  1.00  0.00     0.255 C 
ATOM      5  O   UNL     1      -2.371   7.840   1.686  1.00  0.00    -0.269 OA
ATOM      6  H   UNL     1      -1.555   9.858   0.895  1.00  0.00     0.163 HD
BRANCH   4   7
ATOM      7  C   UNL     1      -0.965   6.588   0.272  1.00  0.00     0.082 A 
ATOM      8  C   UNL     1      -0.530   4.264   0.914  1.00  0.00     0.083 A 
ATOM      9  C   UNL     1       0.199   4.053  -0.247  1.00  0.00     0.025 A 
ATOM     10  C   UNL     1      -1.050   5.533   1.201  1.00  0.00     0.039 A 
ATOM     11  C   UNL     1       0.227   5.053  -1.209  1.00  0.00     0.048 A 
ATOM     12  C   UNL     1      -0.412   6.280  -0.978  1.00  0.00     0.128 A 
BRANCH   8  13
ATOM     13  S   UNL     1      -1.006   2.943   1.992  1.00  0.00     0.240 S 
ATOM     14  O   UNL     1      -2.416   2.704   1.765  1.00  0.00    -0.207 OA
ATOM     15  O   UNL     1      -0.484   3.259   3.298  1.00  0.00    -0.207 OA
BRANCH  13  16
ATOM     16  N   UNL     1      -0.155   1.583   1.505  1.00  0.00    -0.208 NA
ATOM     17  H   UNL     1       0.807   1.891   1.362  1.00  0.00     0.141 HD
BRANCH  16  18
ATOM     18  C   UNL     1      -0.506   0.791   0.314  1.00  0.00     0.075 C 
ATOM     19  C   UNL     1       1.899  -0.159   0.790  1.00  0.00     0.013 C 
ATOM     20  C   UNL     1       0.555  -0.330   0.062  1.00  0.00    -0.019 C 
ATOM     21  C   UNL     1       0.865  -0.423  -1.448  1.00  0.00     0.013 C 
ATOM     22  C   UNL     1      -0.158  -1.603   0.548  1.00  0.00     0.008 C 
ATOM     23  C   UNL     1      -1.606  -1.392   0.143  1.00  0.00     0.002 C 
ATOM     24  C   UNL     1      -1.856   0.073   0.467  1.00  0.00     0.020 C 
ENDBRANCH  16  18
ENDBRANCH  13  16
ENDBRANCH   8  13
BRANCH  12  25
ATOM     25  O   UNL     1      -0.532   7.098  -2.061  1.00  0.00    -0.507 OA
ATOM     26  H   UNL     1      -0.145   6.852  -2.878  1.00  0.00     0.293 HD
ENDBRANCH  12  25
ENDBRANCH   4   7
ENDBRANCH   2   3
ENDBRANCH   1   2
BRANCH   1  27
ATOM     27  C   UNL     1      -2.012  11.095  -2.157  1.00  0.00     0.023 C 
BRANCH  27  28
ATOM     28  C   UNL     1      -1.047  12.232  -2.459  1.00  0.00     0.116 C 
BRANCH  28  29
ATOM     29  N   UNL     1      -0.261  12.020  -3.665  1.00  0.00    -0.352 N 
ATOM     30  C   UNL     1       0.343  12.957  -4.465  1.00  0.00     0.251 C 
ATOM     31  H   UNL     1      -0.147  11.082  -3.943  1.00  0.00     0.163 HD
ATOM     32  O   UNL     1       0.911  12.624  -5.500  1.00  0.00    -0.269 OA
BRANCH  30  33
ATOM     33  C   UNL     1       0.247  14.381  -4.094  1.00  0.00     0.039 A 
ATOM     34  C   UNL     1      -0.191  15.291  -5.059  1.00  0.00     0.014 A 
ATOM     35  C   UNL     1       0.535  14.805  -2.794  1.00  0.00     0.014 A 
ATOM     36  C   UNL     1      -0.406  16.620  -4.699  1.00  0.00     0.010 A 
ATOM     37  C   UNL     1       0.253  16.112  -2.419  1.00  0.00     0.010 A 
ATOM     38  C   UNL     1      -0.219  17.030  -3.369  1.00  0.00    -0.014 A 
BRANCH  38  39
ATOM     39  C   UNL     1      -0.514  18.421  -2.958  1.00  0.00     0.031 A 
ATOM     40  C   UNL     1       0.597  19.327  -2.516  1.00  0.00     0.074 A 
ATOM     41  C   UNL     1      -1.792  18.844  -2.931  1.00  0.00     0.049 A 
ATOM     42  N   UNL     1       0.538  20.568  -2.106  1.00  0.00    -0.248 NA
ATOM     43  C   UNL     1       1.952  18.754  -2.505  1.00  0.00     0.031 C 
ATOM     44  C   UNL     1      -2.961  18.028  -3.268  1.00  0.00     0.029 A 
ATOM     45  N   UNL     1      -2.322  20.064  -2.599  1.00  0.00    -0.354 N 
ATOM     46  C   UNL     1       1.839  20.916  -1.775  1.00  0.00     0.074 A 
ATOM     47  C   UNL     1       2.660  19.744  -1.982  1.00  0.00     0.031 C 
ATOM     48  C   UNL     1      -4.068  18.780  -3.154  1.00  0.00     0.029 A 
ATOM     49  C   UNL     1      -3.689  20.120  -2.718  1.00  0.00     0.049 A 
ATOM     50  H   UNL     1      -1.775  20.827  -2.304  1.00  0.00     0.167 HD
ATOM     51  C   UNL     1       2.310  22.116  -1.361  1.00  0.00     0.037 A 
ATOM     52  C   UNL     1      -4.536  21.145  -2.509  1.00  0.00     0.037 A 
ATOM     53  C   UNL     1       1.496  23.289  -1.192  1.00  0.00     0.049 A 
ATOM     54  C   UNL     1      -3.981  22.480  -2.099  1.00  0.00     0.074 A 
ATOM     55  C   UNL     1       1.885  24.570  -0.843  1.00  0.00     0.029 A 
ATOM     56  N   UNL     1       0.120  23.321  -1.367  1.00  0.00    -0.354 N 
ATOM     57  N   UNL     1      -2.737  22.822  -1.867  1.00  0.00    -0.248 NA
ATOM     58  C   UNL     1      -4.946  23.575  -1.935  1.00  0.00     0.031 C 
ATOM     59  C   UNL     1       0.740  25.372  -0.780  1.00  0.00     0.029 A 
ATOM     60  C   UNL     1      -0.358  24.598  -1.123  1.00  0.00     0.049 A 
ATOM     61  H   UNL     1      -0.435  22.550  -1.625  1.00  0.00     0.167 HD
ATOM     62  C   UNL     1      -2.765  24.173  -1.554  1.00  0.00     0.074 A 
ATOM     63  C   UNL     1      -4.149  24.593  -1.640  1.00  0.00     0.031 C 
ATOM     64  C   UNL     1      -1.738  24.994  -1.224  1.00  0.00     0.037 A 
BRANCH  51  65
ATOM     65  C   UNL     1       3.779  22.218  -1.076  1.00  0.00     0.064 A 
ATOM     66  C   UNL     1       4.727  22.202  -2.111  1.00  0.00     0.173 A 
ATOM     67  C   UNL     1       4.243  22.353   0.240  1.00  0.00     0.173 A 
ATOM     68  F   UNL     1       4.333  22.058  -3.385  1.00  0.00    -0.203 F 
ATOM     69  C   UNL     1       6.088  22.290  -1.835  1.00  0.00     0.198 A 
ATOM     70  C   UNL     1       5.604  22.467   0.510  1.00  0.00     0.198 A 
ATOM     71  F   UNL     1       3.377  22.375   1.264  1.00  0.00    -0.203 F 
ATOM     72  F   UNL     1       6.978  22.225  -2.835  1.00  0.00    -0.200 F 
ATOM     73  C   UNL     1       6.526  22.429  -0.527  1.00  0.00     0.200 A 
ATOM     74  F   UNL     1       6.026  22.609   1.774  1.00  0.00    -0.200 F 
ATOM     75  F   UNL     1       7.837  22.516  -0.263  1.00  0.00    -0.200 F 
ENDBRANCH  51  65
BRANCH  52  76
ATOM     76  C   UNL     1      -5.989  20.960  -2.741  1.00  0.00     0.064 A 
ATOM     77  C   UNL     1      -6.613  21.529  -3.860  1.00  0.00     0.173 A 
ATOM     78  C   UNL     1      -6.781  20.209  -1.861  1.00  0.00     0.173 A 
ATOM     79  F   UNL     1      -5.898  22.270  -4.719  1.00  0.00    -0.203 F 
ATOM     80  C   UNL     1      -7.979  21.369  -4.081  1.00  0.00     0.198 A 
ATOM     81  C   UNL     1      -8.143  20.031  -2.095  1.00  0.00     0.198 A 
ATOM     82  F   UNL     1      -6.228  19.639  -0.781  1.00  0.00    -0.203 F 
ATOM     83  F   UNL     1      -8.557  21.954  -5.139  1.00  0.00    -0.200 F 
ATOM     84  C   UNL     1      -8.742  20.616  -3.201  1.00  0.00     0.200 A 
ATOM     85  F   UNL     1      -8.875  19.294  -1.249  1.00  0.00    -0.200 F 
ATOM     86  F   UNL     1     -10.055  20.460  -3.415  1.00  0.00    -0.200 F 
ENDBRANCH  52  76
BRANCH  64  87
ATOM     87  C   UNL     1      -2.072  26.430  -0.958  1.00  0.00     0.064 A 
ATOM     88  C   UNL     1      -2.704  26.827   0.228  1.00  0.00     0.173 A 
ATOM     89  C   UNL     1      -1.722  27.422  -1.886  1.00  0.00     0.173 A 
ATOM     90  F   UNL     1      -3.071  25.911   1.137  1.00  0.00    -0.203 F 
ATOM     91  C   UNL     1      -2.996  28.167   0.467  1.00  0.00     0.198 A 
ATOM     92  C   UNL     1      -1.994  28.763  -1.633  1.00  0.00     0.198 A 
ATOM     93  F   UNL     1      -1.112  27.091  -3.033  1.00  0.00    -0.203 F 
ATOM     94  F   UNL     1      -3.638  28.521   1.589  1.00  0.00    -0.200 F 
ATOM     95  C   UNL     1      -2.635  29.134  -0.461  1.00  0.00     0.200 A 
ATOM     96  F   UNL     1      -1.638  29.698  -2.526  1.00  0.00    -0.200 F 
ATOM     97  F   UNL     1      -2.914  30.424  -0.227  1.00  0.00    -0.200 F 
ENDBRANCH  64  87
ENDBRANCH  38  39
ENDBRANCH  30  33
ENDBRANCH  28  29
ENDBRANCH  27  28
ENDBRANCH   1  27
TORSDOF 15
