REMARK SMILES O=C(NCCCCNC(=O)c1cc(S(=O)(=O)NCc2ccncc2)c(Cl)cc1Cl)c1ccc(-c2c3nc(c(-c4c(F)c(F)c(F)c(F)c4F)c4ccc([nH]4)c(-c4c(F)c(F)c(F)c(F)c4F)c4nc(c(-c5c(F)c(F)c(F)c(F)c5F)c5ccc2[nH]5)C=C4)C=C3)cc1
REMARK SMILES IDX 6 1 5 2 4 3 3 4 1 5 2 6 30 8 31 9 92 10 32 11 91 12 33 13
REMARK SMILES IDX 34 14 35 15 85 16 36 17 90 18 84 19 86 20 37 21 89 22 83 23
REMARK SMILES IDX 82 24 38 26 70 27 50 28 69 29 51 30 54 31 68 32 87 33 52 34
REMARK SMILES IDX 53 35 67 37 88 38 55 39 39 40 40 41 48 42 41 43 42 44 46 45
REMARK SMILES IDX 49 46 43 47 44 48 47 49 45 50 71 51 72 52 80 53 73 54 74 55
REMARK SMILES IDX 78 56 81 57 75 58 76 59 79 60 77 61 56 62 57 63 65 64 58 65
REMARK SMILES IDX 59 66 63 67 66 68 60 69 61 70 64 71 62 72 7 73 8 74 9 75
REMARK SMILES IDX 10 77 11 78 12 79 28 80 13 81 27 82 29 83 25 84 26 85 14 86
REMARK SMILES IDX 15 87 16 88 17 89 18 91 19 92 20 93 24 94 21 95 23 96 22 97
REMARK H PARENT 3 7 86 25 54 36 8 76 17 90
REMARK Flexibility Score: inf
ROOT
ATOM      1  C   UNL     1       4.321  -1.069  -3.749  1.00  0.00     0.023 C 
ENDROOT
BRANCH   1   2
ATOM      2  C   UNL     1       4.833  -1.337  -2.335  1.00  0.00     0.023 C 
BRANCH   2   3
ATOM      3  C   UNL     1       4.540  -0.248  -1.311  1.00  0.00     0.116 C 
BRANCH   3   4
ATOM      4  N   UNL     1       3.118  -0.037  -1.093  1.00  0.00    -0.352 N 
ATOM      5  O   UNL     1       1.171  -0.005   0.045  1.00  0.00    -0.269 OA
ATOM      6  C   UNL     1       2.395  -0.079   0.076  1.00  0.00     0.251 C 
ATOM      7  H   UNL     1       2.595   0.165  -1.902  1.00  0.00     0.163 HD
BRANCH   6   8
ATOM      8  C   UNL     1       3.086  -0.244   1.374  1.00  0.00     0.039 A 
ATOM      9  C   UNL     1       4.234   0.490   1.679  1.00  0.00     0.014 A 
ATOM     10  C   UNL     1       2.561  -1.143   2.309  1.00  0.00     0.014 A 
ATOM     11  C   UNL     1       4.936   0.221   2.850  1.00  0.00     0.010 A 
ATOM     12  C   UNL     1       3.224  -1.354   3.522  1.00  0.00     0.010 A 
ATOM     13  C   UNL     1       4.436  -0.699   3.787  1.00  0.00    -0.014 A 
BRANCH  13  14
ATOM     14  C   UNL     1       5.177  -0.922   5.054  1.00  0.00     0.031 A 
ATOM     15  C   UNL     1       5.825  -2.244   5.353  1.00  0.00     0.074 A 
ATOM     16  C   UNL     1       5.293   0.100   5.924  1.00  0.00     0.049 A 
ATOM     17  N   UNL     1       6.535  -2.598   6.397  1.00  0.00    -0.248 NA
ATOM     18  C   UNL     1       5.654  -3.312   4.357  1.00  0.00     0.031 C 
ATOM     19  C   UNL     1       4.695   1.425   5.747  1.00  0.00     0.029 A 
ATOM     20  N   UNL     1       5.965   0.194   7.115  1.00  0.00    -0.354 N 
ATOM     21  C   UNL     1       6.883  -3.925   6.189  1.00  0.00     0.074 A 
ATOM     22  C   UNL     1       6.286  -4.326   4.933  1.00  0.00     0.031 C 
ATOM     23  C   UNL     1       5.063   2.212   6.768  1.00  0.00     0.029 A 
ATOM     24  C   UNL     1       5.878   1.435   7.695  1.00  0.00     0.049 A 
ATOM     25  H   UNL     1       6.461  -0.556   7.516  1.00  0.00     0.167 HD
ATOM     26  C   UNL     1       7.642  -4.731   6.971  1.00  0.00     0.037 A 
ATOM     27  C   UNL     1       6.391   1.895   8.851  1.00  0.00     0.037 A 
ATOM     28  C   UNL     1       8.247  -4.325   8.215  1.00  0.00     0.049 A 
ATOM     29  C   UNL     1       7.218   0.976   9.702  1.00  0.00     0.074 A 
ATOM     30  C   UNL     1       9.046  -5.065   9.069  1.00  0.00     0.029 A 
ATOM     31  N   UNL     1       8.118  -3.065   8.781  1.00  0.00    -0.354 N 
ATOM     32  N   UNL     1       7.557  -0.271   9.483  1.00  0.00    -0.248 NA
ATOM     33  C   UNL     1       7.731   1.527  10.963  1.00  0.00     0.031 C 
ATOM     34  C   UNL     1       9.375  -4.263  10.168  1.00  0.00     0.029 A 
ATOM     35  C   UNL     1       8.812  -3.012   9.980  1.00  0.00     0.049 A 
ATOM     36  H   UNL     1       7.610  -2.319   8.389  1.00  0.00     0.167 HD
ATOM     37  C   UNL     1       8.330  -0.651  10.569  1.00  0.00     0.074 A 
ATOM     38  C   UNL     1       8.430   0.505  11.437  1.00  0.00     0.031 C 
ATOM     39  C   UNL     1       8.900  -1.853  10.829  1.00  0.00     0.037 A 
BRANCH  26  40
ATOM     40  C   UNL     1       7.862  -6.142   6.511  1.00  0.00     0.064 A 
ATOM     41  C   UNL     1       8.725  -6.439   5.446  1.00  0.00     0.173 A 
ATOM     42  C   UNL     1       7.247  -7.213   7.176  1.00  0.00     0.173 A 
ATOM     43  F   UNL     1       9.329  -5.450   4.771  1.00  0.00    -0.203 F 
ATOM     44  C   UNL     1       8.952  -7.757   5.054  1.00  0.00     0.198 A 
ATOM     45  C   UNL     1       7.493  -8.530   6.796  1.00  0.00     0.198 A 
ATOM     46  F   UNL     1       6.417  -6.983   8.205  1.00  0.00    -0.203 F 
ATOM     47  F   UNL     1       9.755  -8.016   4.013  1.00  0.00    -0.200 F 
ATOM     48  C   UNL     1       8.341  -8.800   5.734  1.00  0.00     0.200 A 
ATOM     49  F   UNL     1       6.911  -9.538   7.461  1.00  0.00    -0.200 F 
ATOM     50  F   UNL     1       8.567 -10.068   5.360  1.00  0.00    -0.200 F 
ENDBRANCH  26  40
BRANCH  27  51
ATOM     51  C   UNL     1       6.136   3.299   9.261  1.00  0.00     0.064 A 
ATOM     52  C   UNL     1       7.164   4.250   9.254  1.00  0.00     0.173 A 
ATOM     53  C   UNL     1       4.856   3.719   9.652  1.00  0.00     0.173 A 
ATOM     54  F   UNL     1       8.408   3.889   8.906  1.00  0.00    -0.203 F 
ATOM     55  C   UNL     1       6.925   5.568   9.636  1.00  0.00     0.198 A 
ATOM     56  C   UNL     1       4.612   5.043  10.007  1.00  0.00     0.198 A 
ATOM     57  F   UNL     1       3.839   2.845   9.670  1.00  0.00    -0.203 F 
ATOM     58  F   UNL     1       7.933   6.451   9.657  1.00  0.00    -0.200 F 
ATOM     59  C   UNL     1       5.648   5.965  10.005  1.00  0.00     0.200 A 
ATOM     60  F   UNL     1       3.374   5.425  10.349  1.00  0.00    -0.200 F 
ATOM     61  F   UNL     1       5.416   7.235  10.364  1.00  0.00    -0.200 F 
ENDBRANCH  27  51
BRANCH  39  62
ATOM     62  C   UNL     1       9.694  -1.966  12.095  1.00  0.00     0.064 A 
ATOM     63  C   UNL     1       9.066  -2.036  13.347  1.00  0.00     0.173 A 
ATOM     64  C   UNL     1      11.095  -2.024  12.054  1.00  0.00     0.173 A 
ATOM     65  F   UNL     1       7.730  -1.966  13.437  1.00  0.00    -0.203 F 
ATOM     66  C   UNL     1       9.815  -2.134  14.517  1.00  0.00     0.198 A 
ATOM     67  C   UNL     1      11.839  -2.147  13.224  1.00  0.00     0.198 A 
ATOM     68  F   UNL     1      11.740  -1.965  10.880  1.00  0.00    -0.203 F 
ATOM     69  F   UNL     1       9.198  -2.153  15.706  1.00  0.00    -0.200 F 
ATOM     70  C   UNL     1      11.200  -2.194  14.454  1.00  0.00     0.200 A 
ATOM     71  F   UNL     1      13.176  -2.212  13.161  1.00  0.00    -0.200 F 
ATOM     72  F   UNL     1      11.919  -2.288  15.580  1.00  0.00    -0.200 F 
ENDBRANCH  39  62
ENDBRANCH  13  14
ENDBRANCH   6   8
ENDBRANCH   3   4
ENDBRANCH   2   3
ENDBRANCH   1   2
BRANCH   1  73
ATOM     73  C   UNL     1       4.716   0.277  -4.348  1.00  0.00     0.116 C 
BRANCH  73  74
ATOM     74  N   UNL     1       6.157   0.477  -4.373  1.00  0.00    -0.352 N 
ATOM     75  C   UNL     1       6.993   0.772  -5.418  1.00  0.00     0.252 C 
ATOM     76  H   UNL     1       6.602   0.386  -3.499  1.00  0.00     0.163 HD
ATOM     77  O   UNL     1       8.199   0.879  -5.222  1.00  0.00    -0.269 OA
BRANCH  75  78
ATOM     78  C   UNL     1       6.445   1.022  -6.766  1.00  0.00     0.059 A 
ATOM     79  C   UNL     1       5.450   1.996  -6.917  1.00  0.00     0.038 A 
ATOM     80  C   UNL     1       6.946   0.375  -7.897  1.00  0.00     0.055 A 
ATOM     81  C   UNL     1       4.923   2.301  -8.183  1.00  0.00     0.101 A 
ATOM     82  C   UNL     1       6.470   0.732  -9.165  1.00  0.00     0.043 A 
ATOM     83  Cl  UNL     1       8.112  -0.894  -7.810  1.00  0.00    -0.083 Cl
ATOM     84  C   UNL     1       5.475   1.710  -9.317  1.00  0.00     0.062 A 
ATOM     85  Cl  UNL     1       5.053   2.135 -10.934  1.00  0.00    -0.083 Cl
BRANCH  81  86
ATOM     86  S   UNL     1       3.560   3.431  -8.200  1.00  0.00     0.242 S 
ATOM     87  O   UNL     1       2.860   3.240  -6.949  1.00  0.00    -0.207 OA
ATOM     88  O   UNL     1       4.102   4.721  -8.563  1.00  0.00    -0.207 OA
BRANCH  86  89
ATOM     89  N   UNL     1       2.515   2.995  -9.419  1.00  0.00    -0.207 NA
ATOM     90  H   UNL     1       3.018   3.166 -10.290  1.00  0.00     0.141 HD
BRANCH  89  91
ATOM     91  C   UNL     1       1.931   1.666  -9.556  1.00  0.00     0.134 C 
BRANCH  91  92
ATOM     92  C   UNL     1       0.865   1.274  -8.573  1.00  0.00    -0.030 A 
ATOM     93  C   UNL     1      -0.022   2.200  -8.019  1.00  0.00     0.025 A 
ATOM     94  C   UNL     1       0.682  -0.080  -8.263  1.00  0.00     0.025 A 
ATOM     95  C   UNL     1      -1.015   1.744  -7.166  1.00  0.00     0.111 A 
ATOM     96  C   UNL     1      -0.346  -0.440  -7.406  1.00  0.00     0.111 A 
ATOM     97  N   UNL     1      -1.197   0.444  -6.848  1.00  0.00    -0.265 NA
ENDBRANCH  91  92
ENDBRANCH  89  91
ENDBRANCH  86  89
ENDBRANCH  81  86
ENDBRANCH  75  78
ENDBRANCH  73  74
ENDBRANCH   1  73
TORSDOF 15
