REMARK SMILES O=C(CSc1nc2ncccc2[nH]1)NCCCCNC(=O)c1ccc(-c2c3nc(c(-c4c(F)c(F)c(F)c(F)c4F)c4ccc([nH]4)c(-c4c(F)c(F)c(F)c(F)c4F)c4nc(c(-c5c(F)c(F)c(F)c(F)c5F)c5ccc2[nH]5)C=C4)C=C3)cc1
REMARK SMILES IDX 16 1 15 2 14 3 1 4 2 5 3 7 4 8 5 9 6 10 13 11 7 12 12 13
REMARK SMILES IDX 8 15 11 16 9 17 10 18 17 19 18 20 19 21 20 22 21 24 22 25
REMARK SMILES IDX 23 26 84 27 24 28 83 29 25 30 26 31 27 32 77 33 28 34 82 35
REMARK SMILES IDX 76 36 78 37 29 38 81 39 75 40 74 41 30 43 62 44 42 45 61 46
REMARK SMILES IDX 43 47 46 48 60 49 79 50 44 51 45 52 59 54 80 55 47 56 31 57
REMARK SMILES IDX 32 58 40 59 33 60 34 61 38 62 41 63 35 64 36 65 39 66 37 67
REMARK SMILES IDX 63 68 64 69 72 70 65 71 66 72 70 73 73 74 67 75 68 76 71 77
REMARK SMILES IDX 69 78 48 79 49 80 57 81 50 82 51 83 55 84 58 85 52 86 53 87
REMARK SMILES IDX 56 88 54 89
REMARK H PARENT 14 6 13 14 19 23 78 42 46 53
REMARK Flexibility Score: inf
ROOT
ATOM      1  C   UNL     1       2.363   0.071   3.434  1.00  0.00     0.023 C 
ENDROOT
BRANCH   1   2
ATOM      2  C   UNL     1       2.058   0.905   2.184  1.00  0.00     0.116 C 
BRANCH   2   3
ATOM      3  N   UNL     1       2.724   0.406   0.996  1.00  0.00    -0.355 N 
ATOM      4  O   UNL     1       0.819   0.088  -0.264  1.00  0.00    -0.274 OA
ATOM      5  C   UNL     1       2.041   0.043  -0.147  1.00  0.00     0.230 C 
ATOM      6  H   UNL     1       3.705   0.322   1.005  1.00  0.00     0.163 HD
BRANCH   5   7
ATOM      7  C   UNL     1       2.911  -0.479  -1.273  1.00  0.00     0.178 C 
BRANCH   7   8
ATOM      8  S   UNL     1       4.032   0.784  -1.911  1.00  0.00    -0.078 SA
BRANCH   8   9
ATOM      9  C   UNL     1       2.991   2.072  -2.402  1.00  0.00     0.168 A 
ATOM     10  N   UNL     1       3.287   3.344  -2.284  1.00  0.00    -0.203 NA
ATOM     11  N   UNL     1       1.802   1.874  -3.049  1.00  0.00    -0.332 N 
ATOM     12  C   UNL     1       2.255   3.999  -2.898  1.00  0.00     0.178 A 
ATOM     13  C   UNL     1       1.310   3.107  -3.393  1.00  0.00     0.086 A 
ATOM     14  H   UNL     1       1.378   1.006  -3.234  1.00  0.00     0.169 HD
ATOM     15  N   UNL     1       2.152   5.340  -3.033  1.00  0.00    -0.235 NA
ATOM     16  C   UNL     1       0.173   3.535  -4.074  1.00  0.00     0.032 A 
ATOM     17  C   UNL     1       1.050   5.747  -3.699  1.00  0.00     0.114 A 
ATOM     18  C   UNL     1       0.062   4.917  -4.223  1.00  0.00     0.022 A 
ENDBRANCH   8   9
ENDBRANCH   7   8
ENDBRANCH   5   7
ENDBRANCH   2   3
ENDBRANCH   1   2
BRANCH   1  19
ATOM     19  C   UNL     1       3.839  -0.027   3.847  1.00  0.00     0.023 C 
BRANCH  19  20
ATOM     20  C   UNL     1       4.506   1.309   4.142  1.00  0.00     0.116 C 
BRANCH  20  21
ATOM     21  N   UNL     1       3.982   1.965   5.335  1.00  0.00    -0.352 N 
ATOM     22  C   UNL     1       4.429   3.128   5.923  1.00  0.00     0.251 C 
ATOM     23  H   UNL     1       3.218   1.524   5.772  1.00  0.00     0.163 HD
ATOM     24  O   UNL     1       4.167   3.372   7.103  1.00  0.00    -0.269 OA
BRANCH  22  25
ATOM     25  C   UNL     1       5.229   4.085   5.136  1.00  0.00     0.039 A 
ATOM     26  C   UNL     1       6.273   4.800   5.731  1.00  0.00     0.014 A 
ATOM     27  C   UNL     1       4.910   4.292   3.793  1.00  0.00     0.014 A 
ATOM     28  C   UNL     1       7.026   5.671   4.948  1.00  0.00     0.010 A 
ATOM     29  C   UNL     1       5.728   5.055   2.992  1.00  0.00     0.010 A 
ATOM     30  C   UNL     1       6.757   5.783   3.573  1.00  0.00    -0.014 A 
BRANCH  30  31
ATOM     31  C   UNL     1       7.615   6.598   2.724  1.00  0.00     0.031 A 
ATOM     32  C   UNL     1       9.055   6.233   2.772  1.00  0.00     0.074 A 
ATOM     33  C   UNL     1       7.158   7.509   1.839  1.00  0.00     0.049 A 
ATOM     34  N   UNL     1      10.018   6.917   3.294  1.00  0.00    -0.248 NA
ATOM     35  C   UNL     1       9.458   4.901   2.297  1.00  0.00     0.031 C 
ATOM     36  C   UNL     1       5.776   7.785   1.434  1.00  0.00     0.029 A 
ATOM     37  N   UNL     1       7.877   8.350   1.044  1.00  0.00    -0.354 N 
ATOM     38  C   UNL     1      11.181   6.192   3.059  1.00  0.00     0.074 A 
ATOM     39  C   UNL     1      10.762   4.899   2.583  1.00  0.00     0.031 C 
ATOM     40  C   UNL     1       5.773   8.567   0.330  1.00  0.00     0.029 A 
ATOM     41  C   UNL     1       7.134   8.990   0.059  1.00  0.00     0.049 A 
ATOM     42  H   UNL     1       8.844   8.494   1.159  1.00  0.00     0.167 HD
ATOM     43  C   UNL     1      12.397   6.806   3.065  1.00  0.00     0.037 A 
ATOM     44  C   UNL     1       7.615   9.802  -0.914  1.00  0.00     0.037 A 
ATOM     45  C   UNL     1      12.320   8.100   3.695  1.00  0.00     0.049 A 
ATOM     46  C   UNL     1       8.927  10.307  -0.443  1.00  0.00     0.074 A 
ATOM     47  C   UNL     1      11.994   8.551   4.958  1.00  0.00     0.029 A 
ATOM     48  N   UNL     1      12.240   9.196   2.873  1.00  0.00    -0.354 N 
ATOM     49  N   UNL     1       9.078  11.112   0.572  1.00  0.00    -0.248 NA
ATOM     50  C   UNL     1      10.116   9.573  -0.845  1.00  0.00     0.031 C 
ATOM     51  C   UNL     1      11.279   9.766   4.742  1.00  0.00     0.029 A 
ATOM     52  C   UNL     1      11.265  10.018   3.370  1.00  0.00     0.049 A 
ATOM     53  H   UNL     1      12.786   9.362   2.071  1.00  0.00     0.167 HD
ATOM     54  C   UNL     1      10.231  10.667   1.199  1.00  0.00     0.074 A 
ATOM     55  C   UNL     1      10.879   9.790   0.228  1.00  0.00     0.031 C 
ATOM     56  C   UNL     1      10.403  10.831   2.542  1.00  0.00     0.037 A 
BRANCH  43  57
ATOM     57  C   UNL     1      13.557   6.431   2.176  1.00  0.00     0.064 A 
ATOM     58  C   UNL     1      14.799   7.072   2.365  1.00  0.00     0.173 A 
ATOM     59  C   UNL     1      13.416   5.722   0.965  1.00  0.00     0.173 A 
ATOM     60  F   UNL     1      15.037   7.791   3.472  1.00  0.00    -0.203 F 
ATOM     61  C   UNL     1      15.787   7.073   1.377  1.00  0.00     0.198 A 
ATOM     62  C   UNL     1      14.426   5.681   0.004  1.00  0.00     0.198 A 
ATOM     63  F   UNL     1      12.265   5.142   0.607  1.00  0.00    -0.203 F 
ATOM     64  F   UNL     1      16.895   7.808   1.546  1.00  0.00    -0.200 F 
ATOM     65  C   UNL     1      15.597   6.383   0.195  1.00  0.00     0.200 A 
ATOM     66  F   UNL     1      14.214   5.024  -1.145  1.00  0.00    -0.200 F 
ATOM     67  F   UNL     1      16.514   6.436  -0.780  1.00  0.00    -0.200 F 
ENDBRANCH  43  57
BRANCH  44  68
ATOM     68  C   UNL     1       7.197   9.911  -2.333  1.00  0.00     0.064 A 
ATOM     69  C   UNL     1       7.650  10.973  -3.134  1.00  0.00     0.173 A 
ATOM     70  C   UNL     1       6.620   8.819  -3.010  1.00  0.00     0.173 A 
ATOM     71  F   UNL     1       8.248  12.034  -2.571  1.00  0.00    -0.203 F 
ATOM     72  C   UNL     1       7.577  10.925  -4.529  1.00  0.00     0.198 A 
ATOM     73  C   UNL     1       6.541   8.775  -4.404  1.00  0.00     0.198 A 
ATOM     74  F   UNL     1       6.221   7.731  -2.337  1.00  0.00    -0.203 F 
ATOM     75  F   UNL     1       8.094  11.923  -5.261  1.00  0.00    -0.200 F 
ATOM     76  C   UNL     1       7.037   9.819  -5.163  1.00  0.00     0.200 A 
ATOM     77  F   UNL     1       6.054   7.684  -5.011  1.00  0.00    -0.200 F 
ATOM     78  F   UNL     1       7.036   9.739  -6.502  1.00  0.00    -0.200 F 
ENDBRANCH  44  68
BRANCH  56  79
ATOM     79  C   UNL     1       9.474  11.760   3.271  1.00  0.00     0.064 A 
ATOM     80  C   UNL     1       8.101  11.522   3.455  1.00  0.00     0.173 A 
ATOM     81  C   UNL     1      10.045  12.830   3.973  1.00  0.00     0.173 A 
ATOM     82  F   UNL     1       7.497  10.475   2.881  1.00  0.00    -0.203 F 
ATOM     83  C   UNL     1       7.338  12.327   4.301  1.00  0.00     0.198 A 
ATOM     84  C   UNL     1       9.289  13.609   4.842  1.00  0.00     0.198 A 
ATOM     85  F   UNL     1      11.360  13.076   3.865  1.00  0.00    -0.203 F 
ATOM     86  F   UNL     1       6.031  12.076   4.472  1.00  0.00    -0.200 F 
ATOM     87  C   UNL     1       7.937  13.359   5.005  1.00  0.00     0.200 A 
ATOM     88  F   UNL     1       9.883  14.577   5.555  1.00  0.00    -0.200 F 
ATOM     89  F   UNL     1       7.218  14.094   5.865  1.00  0.00    -0.200 F 
ENDBRANCH  56  79
ENDBRANCH  30  31
ENDBRANCH  22  25
ENDBRANCH  20  21
ENDBRANCH  19  20
ENDBRANCH   1  19
TORSDOF 13
