REMARK SMILES O=C(NCCCCNC(=O)[C@H]1CN(C(=O)C[C@H]2NC(=O)c3ccccc32)C[C@@H]1c1ccc(F)cc1)c1ccc(-c2c3nc(c(-c4c(F)c(F)c(F)c(F)c4F)c4ccc([nH]4)c(-c4c(F)c(F)c(F)c(F)c4F)c4nc(c(-c5c(F)c(F)c(F)c(F)c5F)c5ccc2[nH]5)C=C4)C=C3)cc1
REMARK SMILES IDX 6 1 5 2 4 3 3 4 1 5 2 6 36 8 37 9 98 10 38 11 97 12 39 13
REMARK SMILES IDX 40 14 41 15 91 16 42 17 96 18 90 19 92 20 43 21 95 22 89 23
REMARK SMILES IDX 88 24 44 26 76 27 56 28 75 29 57 30 60 31 74 32 93 33 58 34
REMARK SMILES IDX 59 35 73 37 94 38 61 39 45 40 46 41 54 42 47 43 48 44 52 45
REMARK SMILES IDX 55 46 49 47 50 48 53 49 51 50 77 51 78 52 86 53 79 54 80 55
REMARK SMILES IDX 84 56 87 57 81 58 82 59 85 60 83 61 62 62 63 63 71 64 64 65
REMARK SMILES IDX 65 66 69 67 72 68 66 69 67 70 70 71 68 72 7 73 8 74 9 75
REMARK SMILES IDX 10 77 11 78 12 79 28 80 13 81 27 82 29 83 30 84 35 85 31 86
REMARK SMILES IDX 34 87 32 88 33 89 14 90 15 91 16 92 17 93 18 94 26 95 19 96
REMARK SMILES IDX 21 98 25 99 20 100 22 101 24 102 23 103
REMARK H PARENT 3 7 92 25 60 36 8 76 18 97
REMARK Flexibility Score: inf
ROOT
ATOM      1  C   UNL     1       8.983  -4.279   3.640  1.00  0.00     0.023 C 
ENDROOT
BRANCH   1   2
ATOM      2  C   UNL     1       9.999  -3.845   2.592  1.00  0.00     0.023 C 
BRANCH   2   3
ATOM      3  C   UNL     1      10.808  -2.616   2.974  1.00  0.00     0.116 C 
BRANCH   3   4
ATOM      4  N   UNL     1      11.520  -2.762   4.237  1.00  0.00    -0.352 N 
ATOM      5  O   UNL     1      13.345  -2.752   5.583  1.00  0.00    -0.269 OA
ATOM      6  C   UNL     1      12.837  -2.476   4.503  1.00  0.00     0.251 C 
ATOM      7  H   UNL     1      10.992  -3.109   4.993  1.00  0.00     0.163 HD
BRANCH   6   8
ATOM      8  C   UNL     1      13.640  -1.860   3.434  1.00  0.00     0.039 A 
ATOM      9  C   UNL     1      13.147  -0.742   2.754  1.00  0.00     0.014 A 
ATOM     10  C   UNL     1      14.837  -2.464   3.052  1.00  0.00     0.014 A 
ATOM     11  C   UNL     1      13.774  -0.323   1.591  1.00  0.00     0.010 A 
ATOM     12  C   UNL     1      15.521  -1.973   1.942  1.00  0.00     0.010 A 
ATOM     13  C   UNL     1      14.979  -0.919   1.189  1.00  0.00    -0.014 A 
BRANCH  13  14
ATOM     14  C   UNL     1      15.716  -0.376   0.025  1.00  0.00     0.031 A 
ATOM     15  C   UNL     1      15.976  -1.218  -1.186  1.00  0.00     0.074 A 
ATOM     16  C   UNL     1      16.185   0.882   0.102  1.00  0.00     0.049 A 
ATOM     17  N   UNL     1      16.704  -0.941  -2.238  1.00  0.00    -0.248 NA
ATOM     18  C   UNL     1      15.348  -2.547  -1.221  1.00  0.00     0.031 C 
ATOM     19  C   UNL     1      15.977   1.787   1.234  1.00  0.00     0.029 A 
ATOM     20  N   UNL     1      16.940   1.615  -0.776  1.00  0.00    -0.354 N 
ATOM     21  C   UNL     1      16.651  -2.070  -3.043  1.00  0.00     0.074 A 
ATOM     22  C   UNL     1      15.832  -3.043  -2.353  1.00  0.00     0.031 C 
ATOM     23  C   UNL     1      16.571   2.958   0.975  1.00  0.00     0.029 A 
ATOM     24  C   UNL     1      17.273   2.857  -0.299  1.00  0.00     0.049 A 
ATOM     25  H   UNL     1      17.216   1.282  -1.661  1.00  0.00     0.167 HD
ATOM     26  C   UNL     1      17.239  -2.265  -4.247  1.00  0.00     0.037 A 
ATOM     27  C   UNL     1      18.091   3.798  -0.803  1.00  0.00     0.037 A 
ATOM     28  C   UNL     1      18.039  -1.272  -4.918  1.00  0.00     0.049 A 
ATOM     29  C   UNL     1      18.776   3.540  -2.110  1.00  0.00     0.074 A 
ATOM     30  C   UNL     1      18.630  -1.347  -6.167  1.00  0.00     0.029 A 
ATOM     31  N   UNL     1      18.374  -0.032  -4.391  1.00  0.00    -0.354 N 
ATOM     32  N   UNL     1      18.697   2.483  -2.882  1.00  0.00    -0.248 NA
ATOM     33  C   UNL     1      19.664   4.592  -2.618  1.00  0.00     0.031 C 
ATOM     34  C   UNL     1      19.385  -0.188  -6.361  1.00  0.00     0.029 A 
ATOM     35  C   UNL     1      19.200   0.648  -5.271  1.00  0.00     0.049 A 
ATOM     36  H   UNL     1      18.069   0.313  -3.521  1.00  0.00     0.167 HD
ATOM     37  C   UNL     1      19.506   2.748  -3.975  1.00  0.00     0.074 A 
ATOM     38  C   UNL     1      20.068   4.067  -3.768  1.00  0.00     0.031 C 
ATOM     39  C   UNL     1      19.750   1.965  -5.054  1.00  0.00     0.037 A 
BRANCH  26  40
ATOM     40  C   UNL     1      17.080  -3.607  -4.904  1.00  0.00     0.064 A 
ATOM     41  C   UNL     1      18.195  -4.443  -5.080  1.00  0.00     0.173 A 
ATOM     42  C   UNL     1      15.849  -4.048  -5.412  1.00  0.00     0.173 A 
ATOM     43  F   UNL     1      19.400  -4.068  -4.623  1.00  0.00    -0.203 F 
ATOM     44  C   UNL     1      18.084  -5.662  -5.743  1.00  0.00     0.198 A 
ATOM     45  C   UNL     1      15.734  -5.285  -6.043  1.00  0.00     0.198 A 
ATOM     46  F   UNL     1      14.749  -3.293  -5.267  1.00  0.00    -0.203 F 
ATOM     47  F   UNL     1      19.171  -6.425  -5.925  1.00  0.00    -0.200 F 
ATOM     48  C   UNL     1      16.853  -6.086  -6.216  1.00  0.00     0.200 A 
ATOM     49  F   UNL     1      14.538  -5.705  -6.477  1.00  0.00    -0.200 F 
ATOM     50  F   UNL     1      16.743  -7.270  -6.835  1.00  0.00    -0.200 F 
ENDBRANCH  26  40
BRANCH  27  51
ATOM     51  C   UNL     1      18.281   5.053  -0.035  1.00  0.00     0.064 A 
ATOM     52  C   UNL     1      18.953   5.055   1.198  1.00  0.00     0.173 A 
ATOM     53  C   UNL     1      17.681   6.245  -0.456  1.00  0.00     0.173 A 
ATOM     54  F   UNL     1      19.527   3.931   1.651  1.00  0.00    -0.203 F 
ATOM     55  C   UNL     1      18.979   6.192   2.001  1.00  0.00     0.198 A 
ATOM     56  C   UNL     1      17.732   7.391   0.336  1.00  0.00     0.198 A 
ATOM     57  F   UNL     1      17.035   6.292  -1.630  1.00  0.00    -0.203 F 
ATOM     58  F   UNL     1      19.567   6.148   3.204  1.00  0.00    -0.200 F 
ATOM     59  C   UNL     1      18.366   7.359   1.569  1.00  0.00     0.200 A 
ATOM     60  F   UNL     1      17.149   8.520  -0.088  1.00  0.00    -0.200 F 
ATOM     61  F   UNL     1      18.378   8.450   2.347  1.00  0.00    -0.200 F 
ENDBRANCH  27  51
BRANCH  39  62
ATOM     62  C   UNL     1      20.645   2.506  -6.130  1.00  0.00     0.064 A 
ATOM     63  C   UNL     1      20.112   2.830  -7.388  1.00  0.00     0.173 A 
ATOM     64  C   UNL     1      22.035   2.562  -5.967  1.00  0.00     0.173 A 
ATOM     65  F   UNL     1      18.787   2.785  -7.593  1.00  0.00    -0.203 F 
ATOM     66  C   UNL     1      20.945   3.147  -8.456  1.00  0.00     0.198 A 
ATOM     67  C   UNL     1      22.863   2.909  -7.032  1.00  0.00     0.198 A 
ATOM     68  F   UNL     1      22.588   2.277  -4.779  1.00  0.00    -0.203 F 
ATOM     69  F   UNL     1      20.418   3.391  -9.665  1.00  0.00    -0.200 F 
ATOM     70  C   UNL     1      22.319   3.183  -8.278  1.00  0.00     0.200 A 
ATOM     71  F   UNL     1      24.190   2.963  -6.855  1.00  0.00    -0.200 F 
ATOM     72  F   UNL     1      23.121   3.474  -9.312  1.00  0.00    -0.200 F 
ENDBRANCH  39  62
ENDBRANCH  13  14
ENDBRANCH   6   8
ENDBRANCH   3   4
ENDBRANCH   2   3
ENDBRANCH   1   2
BRANCH   1  73
ATOM     73  C   UNL     1       8.018  -3.179   4.071  1.00  0.00     0.116 C 
BRANCH  73  74
ATOM     74  N   UNL     1       6.926  -3.007   3.142  1.00  0.00    -0.356 N 
ATOM     75  C   UNL     1       5.601  -3.268   3.235  1.00  0.00     0.225 C 
ATOM     76  H   UNL     1       7.197  -2.628   2.275  1.00  0.00     0.163 HD
ATOM     77  O   UNL     1       4.922  -2.951   2.251  1.00  0.00    -0.275 OA
BRANCH  75  78
ATOM     78  C   UNL     1       4.919  -3.987   4.399  1.00  0.00     0.107 C 
ATOM     79  C   UNL     1       5.331  -5.449   4.441  1.00  0.00     0.133 C 
ATOM     80  C   UNL     1       5.143  -3.453   5.833  1.00  0.00     0.053 C 
ATOM     81  N   UNL     1       6.313  -5.523   5.504  1.00  0.00    -0.341 N 
ATOM     82  C   UNL     1       6.054  -4.508   6.507  1.00  0.00     0.128 C 
BRANCH  80  83
ATOM     83  C   UNL     1       3.927  -3.280   6.739  1.00  0.00    -0.042 A 
ATOM     84  C   UNL     1       4.119  -2.638   7.980  1.00  0.00     0.007 A 
ATOM     85  C   UNL     1       2.665  -3.830   6.464  1.00  0.00     0.007 A 
ATOM     86  C   UNL     1       3.097  -2.586   8.928  1.00  0.00     0.039 A 
ATOM     87  C   UNL     1       1.638  -3.762   7.409  1.00  0.00     0.039 A 
ATOM     88  C   UNL     1       1.866  -3.154   8.635  1.00  0.00     0.123 A 
ATOM     89  F   UNL     1       0.891  -3.131   9.552  1.00  0.00    -0.207 F 
ENDBRANCH  80  83
BRANCH  81  90
ATOM     90  C   UNL     1       7.377  -6.378   5.637  1.00  0.00     0.225 C 
ATOM     91  O   UNL     1       8.184  -6.266   6.562  1.00  0.00    -0.275 OA
BRANCH  90  92
ATOM     92  C   UNL     1       7.539  -7.492   4.636  1.00  0.00     0.130 C 
BRANCH  92  93
ATOM     93  C   UNL     1       6.799  -8.708   5.171  1.00  0.00     0.123 C 
ATOM     94  N   UNL     1       5.525  -8.919   4.504  1.00  0.00    -0.345 N 
ATOM     95  C   UNL     1       7.513  -9.995   4.879  1.00  0.00    -0.012 A 
ATOM     96  C   UNL     1       5.414 -10.162   3.921  1.00  0.00     0.252 C 
ATOM     97  H   UNL     1       4.812  -8.241   4.471  1.00  0.00     0.164 HD
ATOM     98  C   UNL     1       6.682 -10.854   4.159  1.00  0.00     0.045 A 
ATOM     99  C   UNL     1       8.785 -10.399   5.247  1.00  0.00     0.007 A 
ATOM    100  O   UNL     1       4.446 -10.603   3.333  1.00  0.00    -0.269 OA
ATOM    101  C   UNL     1       7.065 -12.127   3.791  1.00  0.00     0.014 A 
ATOM    102  C   UNL     1       9.201 -11.681   4.877  1.00  0.00     0.000 A 
ATOM    103  C   UNL     1       8.347 -12.540   4.160  1.00  0.00     0.001 A 
ENDBRANCH  92  93
ENDBRANCH  90  92
ENDBRANCH  81  90
ENDBRANCH  75  78
ENDBRANCH  73  74
ENDBRANCH   1  73
TORSDOF 15
