REMARK SMILES CCc1ccc(-c2cc(Cl)cc3c2O[C@H](C(F)(F)F)C(C(=O)NCCCCNC(=O)c2ccc(-c4c5nc(c(-c6c(F)c(F)c(F)c(F)c6F)c6ccc([nH]6)c(-c6c(F)c(F)c(F)c(F)c6F)c6nc(c(-c7c(F)c(F)c(F)c(F)c7F)c7ccc4[nH]7)C=C6)C=C5)cc2)=C3)cc1
REMARK SMILES IDX 25 1 24 2 23 3 21 4 22 5 20 7 7 8 8 9 13 10 9 11 12 12 14 13
REMARK SMILES IDX 10 14 11 15 94 16 15 17 6 18 3 19 4 20 96 21 5 22 95 23 2 24
REMARK SMILES IDX 1 25 16 26 17 27 18 28 19 29 26 30 27 31 28 32 29 33 30 35
REMARK SMILES IDX 31 36 32 37 93 38 33 39 92 40 34 41 35 42 36 43 86 44 37 45
REMARK SMILES IDX 91 46 85 47 87 48 38 49 90 50 84 51 83 52 39 54 71 55 51 56
REMARK SMILES IDX 70 57 52 58 55 59 69 60 88 61 53 62 54 63 68 65 89 66 56 67
REMARK SMILES IDX 40 68 41 69 49 70 42 71 43 72 47 73 50 74 44 75 45 76 48 77
REMARK SMILES IDX 46 78 72 79 73 80 81 81 74 82 75 83 79 84 82 85 76 86 77 87
REMARK SMILES IDX 80 88 78 89 57 90 58 91 66 92 59 93 60 94 64 95 67 96 61 97
REMARK SMILES IDX 62 98 65 99 63 100
REMARK H PARENT 23 6 28 34 87 53 55 64
REMARK Flexibility Score: inf
ROOT
ATOM      1  C   UNL     1       6.163  13.824  -2.342  1.00  0.00     0.023 C 
ENDROOT
BRANCH   1   2
ATOM      2  C   UNL     1       4.764  13.290  -2.002  1.00  0.00     0.116 C 
BRANCH   2   3
ATOM      3  N   UNL     1       4.420  12.223  -2.915  1.00  0.00    -0.352 N 
ATOM      4  C   UNL     1       3.896  11.003  -2.667  1.00  0.00     0.251 C 
ATOM      5  O   UNL     1       4.185  10.094  -3.438  1.00  0.00    -0.270 OA
ATOM      6  H   UNL     1       4.594  12.416  -3.865  1.00  0.00     0.163 HD
BRANCH   4   7
ATOM      7  C   UNL     1       2.900  10.851  -1.563  1.00  0.00     0.067 C 
ATOM      8  C   UNL     1       2.465   6.792  -1.567  1.00  0.00     0.026 A 
ATOM      9  C   UNL     1       2.385   6.403  -2.930  1.00  0.00     0.033 A 
ATOM     10  C   UNL     1       2.341   8.170  -1.308  1.00  0.00     0.135 A 
ATOM     11  C   UNL     1       1.995   7.283  -3.937  1.00  0.00     0.042 A 
ATOM     12  C   UNL     1       1.820   9.017  -2.317  1.00  0.00     0.019 A 
ATOM     13  O   UNL     1       2.757   8.767  -0.125  1.00  0.00    -0.475 OA
ATOM     14  Cl  UNL     1       1.935   6.744  -5.567  1.00  0.00    -0.084 Cl
ATOM     15  C   UNL     1       1.625   8.575  -3.621  1.00  0.00     0.032 A 
ATOM     16  C   UNL     1       1.689  10.459  -2.008  1.00  0.00     0.025 C 
ATOM     17  C   UNL     1       3.400  10.105  -0.327  1.00  0.00     0.314 C 
BRANCH   8  18
ATOM     18  C   UNL     1       2.376   5.665  -0.596  1.00  0.00    -0.015 A 
ATOM     19  C   UNL     1       1.440   3.134   0.364  1.00  0.00    -0.048 A 
ATOM     20  C   UNL     1       2.649   3.232  -0.329  1.00  0.00     0.004 A 
ATOM     21  C   UNL     1       0.787   4.330   0.700  1.00  0.00     0.004 A 
ATOM     22  C   UNL     1       3.117   4.479  -0.786  1.00  0.00     0.009 A 
ATOM     23  C   UNL     1       1.248   5.574   0.235  1.00  0.00     0.009 A 
BRANCH  19  24
ATOM     24  C   UNL     1       0.805   1.819   0.772  1.00  0.00     0.032 C 
ATOM     25  C   UNL     1       1.213   0.567  -0.002  1.00  0.00     0.009 C 
ENDBRANCH  19  24
ENDBRANCH   8  18
BRANCH  17  26
ATOM     26  C   UNL     1       3.205  11.023   0.902  1.00  0.00     0.429 C 
ATOM     27  F   UNL     1       2.230  10.591   1.732  1.00  0.00    -0.167 F 
ATOM     28  F   UNL     1       4.347  11.124   1.625  1.00  0.00    -0.167 F 
ATOM     29  F   UNL     1       2.873  12.295   0.550  1.00  0.00    -0.167 F 
ENDBRANCH  17  26
ENDBRANCH   4   7
ENDBRANCH   2   3
ENDBRANCH   1   2
BRANCH   1  30
ATOM     30  C   UNL     1       6.330  14.369  -3.769  1.00  0.00     0.023 C 
BRANCH  30  31
ATOM     31  C   UNL     1       5.329  15.447  -4.164  1.00  0.00     0.116 C 
BRANCH  31  32
ATOM     32  N   UNL     1       5.494  16.656  -3.373  1.00  0.00    -0.352 N 
ATOM     33  C   UNL     1       5.768  17.934  -3.788  1.00  0.00     0.251 C 
ATOM     34  H   UNL     1       5.395  16.540  -2.400  1.00  0.00     0.163 HD
ATOM     35  O   UNL     1       6.078  18.796  -2.967  1.00  0.00    -0.269 OA
BRANCH  33  36
ATOM     36  C   UNL     1       5.718  18.273  -5.226  1.00  0.00     0.039 A 
ATOM     37  C   UNL     1       6.750  19.035  -5.778  1.00  0.00     0.014 A 
ATOM     38  C   UNL     1       4.657  17.840  -6.027  1.00  0.00     0.014 A 
ATOM     39  C   UNL     1       6.754  19.305  -7.148  1.00  0.00     0.010 A 
ATOM     40  C   UNL     1       4.703  18.044  -7.404  1.00  0.00     0.010 A 
ATOM     41  C   UNL     1       5.751  18.778  -7.980  1.00  0.00    -0.014 A 
BRANCH  41  42
ATOM     42  C   UNL     1       5.790  18.977  -9.452  1.00  0.00     0.031 A 
ATOM     43  C   UNL     1       4.694  19.740 -10.144  1.00  0.00     0.074 A 
ATOM     44  C   UNL     1       6.778  18.414 -10.175  1.00  0.00     0.049 A 
ATOM     45  N   UNL     1       4.518  19.961 -11.423  1.00  0.00    -0.248 NA
ATOM     46  C   UNL     1       3.642  20.308  -9.288  1.00  0.00     0.031 C 
ATOM     47  C   UNL     1       7.873  17.612  -9.627  1.00  0.00     0.029 A 
ATOM     48  N   UNL     1       7.017  18.422 -11.527  1.00  0.00    -0.354 N 
ATOM     49  C   UNL     1       3.334  20.680 -11.523  1.00  0.00     0.074 A 
ATOM     50  C   UNL     1       2.804  20.808 -10.183  1.00  0.00     0.031 C 
ATOM     51  C   UNL     1       8.678  17.224 -10.629  1.00  0.00     0.029 A 
ATOM     52  C   UNL     1       8.135  17.712 -11.893  1.00  0.00     0.049 A 
ATOM     53  H   UNL     1       6.442  18.892 -12.173  1.00  0.00     0.167 HD
ATOM     54  C   UNL     1       2.755  21.205 -12.629  1.00  0.00     0.037 A 
ATOM     55  C   UNL     1       8.657  17.472 -13.111  1.00  0.00     0.037 A 
ATOM     56  C   UNL     1       3.295  21.089 -13.959  1.00  0.00     0.049 A 
ATOM     57  C   UNL     1       7.982  18.051 -14.326  1.00  0.00     0.074 A 
ATOM     58  C   UNL     1       2.814  21.635 -15.136  1.00  0.00     0.029 A 
ATOM     59  N   UNL     1       4.435  20.371 -14.289  1.00  0.00    -0.354 N 
ATOM     60  N   UNL     1       6.904  18.792 -14.400  1.00  0.00    -0.248 NA
ATOM     61  C   UNL     1       8.603  17.764 -15.627  1.00  0.00     0.031 C 
ATOM     62  C   UNL     1       3.629  21.200 -16.186  1.00  0.00     0.029 A 
ATOM     63  C   UNL     1       4.656  20.436 -15.656  1.00  0.00     0.049 A 
ATOM     64  H   UNL     1       5.003  19.886 -13.647  1.00  0.00     0.167 HD
ATOM     65  C   UNL     1       6.734  19.085 -15.747  1.00  0.00     0.074 A 
ATOM     66  C   UNL     1       7.830  18.456 -16.452  1.00  0.00     0.031 C 
ATOM     67  C   UNL     1       5.757  19.811 -16.345  1.00  0.00     0.037 A 
BRANCH  54  68
ATOM     68  C   UNL     1       1.464  21.954 -12.450  1.00  0.00     0.064 A 
ATOM     69  C   UNL     1       1.415  23.189 -11.785  1.00  0.00     0.173 A 
ATOM     70  C   UNL     1       0.268  21.451 -12.983  1.00  0.00     0.173 A 
ATOM     71  F   UNL     1       2.527  23.712 -11.247  1.00  0.00    -0.203 F 
ATOM     72  C   UNL     1       0.212  23.875 -11.633  1.00  0.00     0.198 A 
ATOM     73  C   UNL     1      -0.926  22.156 -12.860  1.00  0.00     0.198 A 
ATOM     74  F   UNL     1       0.258  20.278 -13.635  1.00  0.00    -0.203 F 
ATOM     75  F   UNL     1       0.182  25.026 -10.947  1.00  0.00    -0.200 F 
ATOM     76  C   UNL     1      -0.955  23.362 -12.177  1.00  0.00     0.200 A 
ATOM     77  F   UNL     1      -2.051  21.666 -13.400  1.00  0.00    -0.200 F 
ATOM     78  F   UNL     1      -2.110  24.028 -12.037  1.00  0.00    -0.200 F 
ENDBRANCH  54  68
BRANCH  55  79
ATOM     79  C   UNL     1       9.895  16.658 -13.244  1.00  0.00     0.064 A 
ATOM     80  C   UNL     1      11.097  17.239 -13.674  1.00  0.00     0.173 A 
ATOM     81  C   UNL     1       9.902  15.286 -12.956  1.00  0.00     0.173 A 
ATOM     82  F   UNL     1      11.137  18.544 -13.982  1.00  0.00    -0.203 F 
ATOM     83  C   UNL     1      12.250  16.474 -13.835  1.00  0.00     0.198 A 
ATOM     84  C   UNL     1      11.064  14.528 -13.086  1.00  0.00     0.198 A 
ATOM     85  F   UNL     1       8.781  14.682 -12.535  1.00  0.00    -0.203 F 
ATOM     86  F   UNL     1      13.370  17.044 -14.299  1.00  0.00    -0.200 F 
ATOM     87  C   UNL     1      12.235  15.120 -13.535  1.00  0.00     0.200 A 
ATOM     88  F   UNL     1      11.049  13.224 -12.779  1.00  0.00    -0.200 F 
ATOM     89  F   UNL     1      13.345  14.385 -13.687  1.00  0.00    -0.200 F 
ENDBRANCH  55  79
BRANCH  67  90
ATOM     90  C   UNL     1       5.849  19.999 -17.833  1.00  0.00     0.064 A 
ATOM     91  C   UNL     1       5.627  18.942 -18.728  1.00  0.00     0.173 A 
ATOM     92  C   UNL     1       6.125  21.266 -18.370  1.00  0.00     0.173 A 
ATOM     93  F   UNL     1       5.375  17.708 -18.266  1.00  0.00    -0.203 F 
ATOM     94  C   UNL     1       5.707  19.140 -20.104  1.00  0.00     0.198 A 
ATOM     95  C   UNL     1       6.169  21.468 -19.747  1.00  0.00     0.198 A 
ATOM     96  F   UNL     1       6.337  22.314 -17.560  1.00  0.00    -0.203 F 
ATOM     97  F   UNL     1       5.544  18.104 -20.939  1.00  0.00    -0.200 F 
ATOM     98  C   UNL     1       5.969  20.404 -20.612  1.00  0.00     0.200 A 
ATOM     99  F   UNL     1       6.405  22.694 -20.236  1.00  0.00    -0.200 F 
ATOM    100  F   UNL     1       6.035  20.594 -21.937  1.00  0.00    -0.200 F 
ENDBRANCH  67  90
ENDBRANCH  41  42
ENDBRANCH  33  36
ENDBRANCH  31  32
ENDBRANCH  30  31
ENDBRANCH   1  30
TORSDOF 14
