REMARK SMILES Cc1ccc(CNc2nc(OCC(=O)NCCCCNC(=O)c3ccc(-c4c5nc(c(-c6c(F)c(F)c(F)c(F)c6F)c6ccc([nH]6)c(-c6c(F)c(F)c(F)c(F)c6F)c6nc(c(-c7c(F)c(F)c(F)c(F)c7F)c7ccc4[nH]7)C=C6)C=C5)cc3)cc(C(F)(F)F)n2)cc1
REMARK SMILES IDX 16 1 15 2 13 3 14 4 12 6 11 7 10 8 8 9 9 10 92 11 87 12
REMARK SMILES IDX 86 13 7 14 6 16 5 17 1 18 2 19 3 20 94 21 4 22 93 23 88 24
REMARK SMILES IDX 89 25 90 26 91 27 17 28 18 29 19 30 20 31 21 32 22 34 23 35
REMARK SMILES IDX 24 36 85 37 25 38 84 39 26 40 27 41 28 42 78 43 29 44 83 45
REMARK SMILES IDX 77 46 79 47 30 48 82 49 76 50 75 51 31 53 63 54 43 55 62 56
REMARK SMILES IDX 44 57 47 58 61 59 80 60 45 61 46 62 60 64 81 65 48 66 32 67
REMARK SMILES IDX 33 68 41 69 34 70 35 71 39 72 42 73 36 74 37 75 40 76 38 77
REMARK SMILES IDX 64 78 65 79 73 80 66 81 67 82 71 83 74 84 68 85 69 86 72 87
REMARK SMILES IDX 70 88 49 89 50 90 58 91 51 92 52 93 56 94 59 95 53 96 54 97
REMARK SMILES IDX 57 98 55 99
REMARK H PARENT 15 5 7 15 20 33 79 52 47 63
REMARK Flexibility Score: inf
ROOT
ATOM      1  C   UNL     1      -2.885  -6.916  -1.485  1.00  0.00     0.116 C 
ENDROOT
BRANCH   1   2
ATOM      2  N   UNL     1      -4.127  -7.149  -0.767  1.00  0.00    -0.353 N 
ATOM      3  C   UNL     1      -5.406  -6.848  -1.129  1.00  0.00     0.258 C 
ATOM      4  O   UNL     1      -6.320  -7.133  -0.352  1.00  0.00    -0.271 OA
ATOM      5  H   UNL     1      -4.029  -7.588   0.109  1.00  0.00     0.163 HD
BRANCH   3   6
ATOM      6  C   UNL     1      -5.699  -6.183  -2.478  1.00  0.00     0.331 C 
BRANCH   6   7
ATOM      7  O   UNL     1      -5.120  -4.914  -2.708  1.00  0.00    -0.467 OA
BRANCH   7   8
ATOM      8  C   UNL     1      -5.425  -3.898  -1.853  1.00  0.00     0.219 A 
ATOM      9  C   UNL     1      -4.679  -1.857  -1.120  1.00  0.00     0.226 A 
ATOM     10  N   UNL     1      -4.554  -2.885  -1.958  1.00  0.00    -0.177 NA
ATOM     11  N   UNL     1      -5.633  -1.773  -0.192  1.00  0.00    -0.208 NA
ATOM     12  C   UNL     1      -6.541  -2.780  -0.126  1.00  0.00     0.153 A 
ATOM     13  C   UNL     1      -6.471  -3.879  -0.964  1.00  0.00     0.102 A 
BRANCH   9  14
ATOM     14  N   UNL     1      -3.729  -0.886  -1.236  1.00  0.00    -0.350 N 
ATOM     15  H   UNL     1      -3.303  -0.730  -2.110  1.00  0.00     0.164 HD
BRANCH  14  16
ATOM     16  C   UNL     1      -3.336  -0.084  -0.107  1.00  0.00     0.152 C 
BRANCH  16  17
ATOM     17  C   UNL     1      -1.824  -0.035  -0.046  1.00  0.00    -0.029 A 
ATOM     18  C   UNL     1       2.494   0.038   0.034  1.00  0.00     0.044 C 
ATOM     19  C   UNL     1       0.995   0.023   0.025  1.00  0.00    -0.051 A 
ATOM     20  C   UNL     1       0.312  -1.197   0.062  1.00  0.00     0.004 A 
ATOM     21  C   UNL     1       0.259   1.213  -0.038  1.00  0.00     0.004 A 
ATOM     22  C   UNL     1      -1.082  -1.225   0.035  1.00  0.00     0.006 A 
ATOM     23  C   UNL     1      -1.138   1.185  -0.072  1.00  0.00     0.006 A 
ENDBRANCH  16  17
ENDBRANCH  14  16
ENDBRANCH   9  14
BRANCH  12  24
ATOM     24  C   UNL     1      -7.657  -2.679   0.900  1.00  0.00     0.433 C 
ATOM     25  F   UNL     1      -7.202  -2.455   2.166  1.00  0.00    -0.165 F 
ATOM     26  F   UNL     1      -8.536  -1.672   0.630  1.00  0.00    -0.165 F 
ATOM     27  F   UNL     1      -8.418  -3.810   0.983  1.00  0.00    -0.165 F 
ENDBRANCH  12  24
ENDBRANCH   7   8
ENDBRANCH   6   7
ENDBRANCH   3   6
ENDBRANCH   1   2
BRANCH   1  28
ATOM     28  C   UNL     1      -2.102  -5.698  -0.976  1.00  0.00     0.023 C 
BRANCH  28  29
ATOM     29  C   UNL     1      -1.871  -5.634   0.536  1.00  0.00     0.023 C 
BRANCH  29  30
ATOM     30  C   UNL     1      -1.011  -6.753   1.111  1.00  0.00     0.116 C 
BRANCH  30  31
ATOM     31  N   UNL     1       0.420  -6.479   1.126  1.00  0.00    -0.352 N 
ATOM     32  C   UNL     1       1.477  -7.308   1.483  1.00  0.00     0.251 C 
ATOM     33  H   UNL     1       0.676  -5.572   0.840  1.00  0.00     0.163 HD
ATOM     34  O   UNL     1       2.613  -6.891   1.478  1.00  0.00    -0.269 OA
BRANCH  32  35
ATOM     35  C   UNL     1       1.212  -8.750   1.744  1.00  0.00     0.039 A 
ATOM     36  C   UNL     1       2.028  -9.692   1.105  1.00  0.00     0.014 A 
ATOM     37  C   UNL     1       0.076  -9.165   2.432  1.00  0.00     0.014 A 
ATOM     38  C   UNL     1       1.562 -10.995   0.935  1.00  0.00     0.010 A 
ATOM     39  C   UNL     1      -0.432 -10.426   2.186  1.00  0.00     0.010 A 
ATOM     40  C   UNL     1       0.274 -11.315   1.368  1.00  0.00    -0.014 A 
BRANCH  40  41
ATOM     41  C   UNL     1      -0.483 -12.441   0.828  1.00  0.00     0.031 A 
ATOM     42  C   UNL     1      -0.841 -13.621   1.640  1.00  0.00     0.074 A 
ATOM     43  C   UNL     1      -0.971 -12.345  -0.431  1.00  0.00     0.049 A 
ATOM     44  N   UNL     1      -1.056 -14.794   1.139  1.00  0.00    -0.248 NA
ATOM     45  C   UNL     1      -0.978 -13.580   3.091  1.00  0.00     0.031 C 
ATOM     46  C   UNL     1      -1.991 -13.186  -1.052  1.00  0.00     0.029 A 
ATOM     47  N   UNL     1      -0.497 -11.542  -1.482  1.00  0.00    -0.354 N 
ATOM     48  C   UNL     1      -1.628 -15.566   2.122  1.00  0.00     0.074 A 
ATOM     49  C   UNL     1      -1.492 -14.790   3.337  1.00  0.00     0.031 C 
ATOM     50  C   UNL     1      -1.886 -13.085  -2.385  1.00  0.00     0.029 A 
ATOM     51  C   UNL     1      -0.705 -12.289  -2.663  1.00  0.00     0.049 A 
ATOM     52  H   UNL     1      -0.101 -10.643  -1.410  1.00  0.00     0.167 HD
ATOM     53  C   UNL     1      -2.291 -16.712   1.790  1.00  0.00     0.037 A 
ATOM     54  C   UNL     1       0.329 -12.675  -3.463  1.00  0.00     0.037 A 
ATOM     55  C   UNL     1      -2.285 -16.949   0.351  1.00  0.00     0.049 A 
ATOM     56  C   UNL     1       0.422 -14.166  -3.679  1.00  0.00     0.074 A 
ATOM     57  C   UNL     1      -3.227 -16.704  -0.636  1.00  0.00     0.029 A 
ATOM     58  N   UNL     1      -1.093 -17.233  -0.306  1.00  0.00    -0.354 N 
ATOM     59  N   UNL     1      -0.145 -15.045  -2.905  1.00  0.00    -0.248 NA
ATOM     60  C   UNL     1       1.211 -14.783  -4.742  1.00  0.00     0.031 C 
ATOM     61  C   UNL     1      -2.598 -16.838  -1.893  1.00  0.00     0.029 A 
ATOM     62  C   UNL     1      -1.271 -17.158  -1.675  1.00  0.00     0.049 A 
ATOM     63  H   UNL     1      -0.244 -17.455   0.139  1.00  0.00     0.167 HD
ATOM     64  C   UNL     1       0.221 -16.306  -3.300  1.00  0.00     0.074 A 
ATOM     65  C   UNL     1       1.044 -16.090  -4.473  1.00  0.00     0.031 C 
ATOM     66  C   UNL     1      -0.176 -17.409  -2.598  1.00  0.00     0.037 A 
BRANCH  53  67
ATOM     67  C   UNL     1      -3.208 -17.432   2.751  1.00  0.00     0.064 A 
ATOM     68  C   UNL     1      -4.417 -18.021   2.319  1.00  0.00     0.173 A 
ATOM     69  C   UNL     1      -2.963 -17.530   4.132  1.00  0.00     0.173 A 
ATOM     70  F   UNL     1      -4.734 -18.109   1.022  1.00  0.00    -0.203 F 
ATOM     71  C   UNL     1      -5.360 -18.538   3.209  1.00  0.00     0.198 A 
ATOM     72  C   UNL     1      -3.928 -18.002   5.029  1.00  0.00     0.198 A 
ATOM     73  F   UNL     1      -1.770 -17.195   4.644  1.00  0.00    -0.203 F 
ATOM     74  F   UNL     1      -6.500 -19.065   2.738  1.00  0.00    -0.200 F 
ATOM     75  C   UNL     1      -5.134 -18.491   4.568  1.00  0.00     0.200 A 
ATOM     76  F   UNL     1      -3.683 -17.968   6.347  1.00  0.00    -0.200 F 
ATOM     77  F   UNL     1      -6.064 -18.932   5.426  1.00  0.00    -0.200 F 
ENDBRANCH  53  67
BRANCH  54  78
ATOM     78  C   UNL     1       1.503 -11.768  -3.398  1.00  0.00     0.064 A 
ATOM     79  C   UNL     1       1.351 -10.436  -3.829  1.00  0.00     0.173 A 
ATOM     80  C   UNL     1       2.619 -12.073  -2.610  1.00  0.00     0.173 A 
ATOM     81  F   UNL     1       0.290 -10.090  -4.576  1.00  0.00    -0.203 F 
ATOM     82  C   UNL     1       2.218  -9.434  -3.400  1.00  0.00     0.198 A 
ATOM     83  C   UNL     1       3.492 -11.068  -2.193  1.00  0.00     0.198 A 
ATOM     84  F   UNL     1       2.805 -13.318  -2.151  1.00  0.00    -0.203 F 
ATOM     85  F   UNL     1       1.982  -8.158  -3.738  1.00  0.00    -0.200 F 
ATOM     86  C   UNL     1       3.274  -9.748  -2.562  1.00  0.00     0.200 A 
ATOM     87  F   UNL     1       4.494 -11.364  -1.352  1.00  0.00    -0.200 F 
ATOM     88  F   UNL     1       4.056  -8.775  -2.074  1.00  0.00    -0.200 F 
ENDBRANCH  54  78
BRANCH  66  89
ATOM     89  C   UNL     1       0.330 -18.824  -2.765  1.00  0.00     0.064 A 
ATOM     90  C   UNL     1       1.591 -19.157  -3.288  1.00  0.00     0.173 A 
ATOM     91  C   UNL     1      -0.418 -19.915  -2.255  1.00  0.00     0.173 A 
ATOM     92  F   UNL     1       2.451 -18.214  -3.692  1.00  0.00    -0.203 F 
ATOM     93  C   UNL     1       2.041 -20.480  -3.354  1.00  0.00     0.198 A 
ATOM     94  C   UNL     1       0.058 -21.226  -2.269  1.00  0.00     0.198 A 
ATOM     95  F   UNL     1      -1.627 -19.741  -1.700  1.00  0.00    -0.203 F 
ATOM     96  F   UNL     1       3.236 -20.746  -3.900  1.00  0.00    -0.200 F 
ATOM     97  C   UNL     1       1.282 -21.511  -2.834  1.00  0.00     0.200 A 
ATOM     98  F   UNL     1      -0.669 -22.204  -1.712  1.00  0.00    -0.200 F 
ATOM     99  F   UNL     1       1.738 -22.770  -2.858  1.00  0.00    -0.200 F 
ENDBRANCH  66  89
ENDBRANCH  40  41
ENDBRANCH  32  35
ENDBRANCH  30  31
ENDBRANCH  29  30
ENDBRANCH  28  29
ENDBRANCH   1  28
TORSDOF 17
