REMARK SMILES COc1ccc(-c2cc([C@@H]3CC[N@@H+](CC(=O)NCCCCNC(=O)c4ccc(-c5c6nc(c(-c7c(F)c(F)c(F)c(F)c7F)c7ccc([nH]7)c(-c7c(F)c(F)c(F)c(F)c7F)c7nc(c(-c8c(F)c(F)c(F)c(F)c8F)c8ccc5[nH]8)C=C7)C=C6)cc4)C3)ccn2)c2ccc(C)nc12
REMARK SMILES IDX 18 1 17 2 15 3 16 4 14 6 13 7 10 8 11 9 88 10 12 11 9 13
REMARK SMILES IDX 7 14 8 15 91 16 90 17 89 18 6 19 3 20 4 21 98 22 5 23 92 24
REMARK SMILES IDX 97 25 93 26 95 27 94 28 96 29 2 30 1 31 19 32 20 33 21 34
REMARK SMILES IDX 22 35 23 36 24 38 25 39 26 40 87 41 27 42 86 43 28 44 29 45
REMARK SMILES IDX 30 46 80 47 31 48 85 49 79 50 81 51 32 52 84 53 78 54 77 55
REMARK SMILES IDX 33 57 65 58 45 59 64 60 46 61 49 62 63 63 82 64 47 65 48 66
REMARK SMILES IDX 62 68 83 69 50 70 34 71 35 72 43 73 36 74 37 75 41 76 44 77
REMARK SMILES IDX 38 78 39 79 42 80 40 81 66 82 67 83 75 84 68 85 69 86 73 87
REMARK SMILES IDX 76 88 70 89 71 90 74 91 72 92 51 93 52 94 60 95 53 96 54 97
REMARK SMILES IDX 58 98 61 99 55 100 56 101 59 102 57 103
REMARK H PARENT 17 5 13 12 22 37 81 56 49 67
REMARK Flexibility Score: inf
ROOT
ATOM      1  C   UNL     1       5.076   6.499   8.659  1.00  0.00     0.116 C 
ENDROOT
BRANCH   1   2
ATOM      2  N   UNL     1       5.835   5.542   9.452  1.00  0.00    -0.351 N 
ATOM      3  C   UNL     1       6.591   4.452   9.115  1.00  0.00     0.275 C 
ATOM      4  O   UNL     1       7.125   3.837  10.045  1.00  0.00    -0.269 OA
ATOM      5  H   UNL     1       5.797   5.713  10.421  1.00  0.00     0.163 HD
BRANCH   3   6
ATOM      6  C   UNL     1       6.753   3.977   7.663  1.00  0.00     0.363 C 
BRANCH   6   7
ATOM      7  N   UNL     1       5.763   2.967   7.201  1.00  0.00    -0.327 N 
ATOM      8  C   UNL     1       4.378   1.599   8.702  1.00  0.00     0.080 C 
ATOM      9  C   UNL     1       3.841   3.022   8.582  1.00  0.00     0.075 C 
ATOM     10  C   UNL     1       5.736   1.694   7.956  1.00  0.00     0.271 C 
ATOM     11  C   UNL     1       4.413   3.502   7.249  1.00  0.00     0.263 C 
ATOM     12  H   UNL     1       6.077   2.759   6.253  1.00  0.00     0.348 HD
BRANCH   8  13
ATOM     13  C   UNL     1       3.305   0.681   8.137  1.00  0.00    -0.035 A 
ATOM     14  C   UNL     1       1.889   0.061   6.256  1.00  0.00     0.071 A 
ATOM     15  C   UNL     1       3.023   0.681   6.773  1.00  0.00     0.033 A 
ATOM     16  N   UNL     1       1.019  -0.587   7.060  1.00  0.00    -0.256 NA
ATOM     17  C   UNL     1       1.318  -0.626   8.382  1.00  0.00     0.112 A 
ATOM     18  C   UNL     1       2.426  -0.015   8.961  1.00  0.00     0.024 A 
BRANCH  14  19
ATOM     19  C   UNL     1       1.558   0.202   4.819  1.00  0.00     0.010 A 
ATOM     20  C   UNL     1       0.923   0.773   2.149  1.00  0.00     0.145 A 
ATOM     21  C   UNL     1      -0.052   0.895   3.141  1.00  0.00     0.049 A 
ATOM     22  C   UNL     1       2.246   0.407   2.449  1.00  0.00     0.113 A 
ATOM     23  C   UNL     1       0.262   0.611   4.464  1.00  0.00     0.015 A 
ATOM     24  C   UNL     1       2.550   0.072   3.788  1.00  0.00     0.013 A 
ATOM     25  N   UNL     1       3.204   0.393   1.486  1.00  0.00    -0.249 NA
ATOM     26  C   UNL     1       3.873  -0.370   4.031  1.00  0.00     0.013 A 
ATOM     27  C   UNL     1       4.475   0.043   1.784  1.00  0.00     0.038 A 
ATOM     28  C   UNL     1       4.846  -0.359   3.046  1.00  0.00     0.024 A 
ATOM     29  C   UNL     1       5.466   0.047   0.663  1.00  0.00     0.067 C 
BRANCH  20  30
ATOM     30  O   UNL     1       0.477   1.093   0.883  1.00  0.00    -0.494 OA
ATOM     31  C   UNL     1       0.829   0.117  -0.098  1.00  0.00     0.278 C 
ENDBRANCH  20  30
ENDBRANCH  14  19
ENDBRANCH   8  13
ENDBRANCH   6   7
ENDBRANCH   3   6
ENDBRANCH   1   2
BRANCH   1  32
ATOM     32  C   UNL     1       3.550   6.303   8.672  1.00  0.00     0.023 C 
BRANCH  32  33
ATOM     33  C   UNL     1       2.897   6.157  10.041  1.00  0.00     0.023 C 
BRANCH  33  34
ATOM     34  C   UNL     1       2.569   7.499  10.646  1.00  0.00     0.116 C 
BRANCH  34  35
ATOM     35  N   UNL     1       1.619   8.237   9.821  1.00  0.00    -0.352 N 
ATOM     36  C   UNL     1       0.605   9.071  10.204  1.00  0.00     0.251 C 
ATOM     37  H   UNL     1       1.723   8.117   8.849  1.00  0.00     0.163 HD
ATOM     38  O   UNL     1      -0.198   9.491   9.387  1.00  0.00    -0.269 OA
BRANCH  36  39
ATOM     39  C   UNL     1       0.482   9.416  11.628  1.00  0.00     0.039 A 
ATOM     40  C   UNL     1      -0.786   9.412  12.207  1.00  0.00     0.014 A 
ATOM     41  C   UNL     1       1.620   9.698  12.388  1.00  0.00     0.014 A 
ATOM     42  C   UNL     1      -0.906   9.662  13.568  1.00  0.00     0.010 A 
ATOM     43  C   UNL     1       1.511   9.824  13.760  1.00  0.00     0.010 A 
ATOM     44  C   UNL     1       0.244   9.844  14.354  1.00  0.00    -0.014 A 
BRANCH  44  45
ATOM     45  C   UNL     1       0.137  10.113  15.801  1.00  0.00     0.031 A 
ATOM     46  C   UNL     1       0.626  11.424  16.344  1.00  0.00     0.074 A 
ATOM     47  C   UNL     1      -0.358   9.159  16.609  1.00  0.00     0.049 A 
ATOM     48  N   UNL     1       0.646  11.849  17.580  1.00  0.00    -0.248 NA
ATOM     49  C   UNL     1       1.206  12.372  15.377  1.00  0.00     0.031 C 
ATOM     50  C   UNL     1      -0.799   7.830  16.179  1.00  0.00     0.029 A 
ATOM     51  N   UNL     1      -0.577   9.162  17.960  1.00  0.00    -0.354 N 
ATOM     52  C   UNL     1       1.248  13.099  17.535  1.00  0.00     0.074 A 
ATOM     53  C   UNL     1       1.650  13.335  16.169  1.00  0.00     0.031 C 
ATOM     54  C   UNL     1      -1.273   7.161  17.241  1.00  0.00     0.029 A 
ATOM     55  C   UNL     1      -1.132   7.998  18.427  1.00  0.00     0.049 A 
ATOM     56  H   UNL     1      -0.356   9.927  18.541  1.00  0.00     0.167 HD
ATOM     57  C   UNL     1       1.417  13.985  18.544  1.00  0.00     0.037 A 
ATOM     58  C   UNL     1      -1.487   7.654  19.678  1.00  0.00     0.037 A 
ATOM     59  C   UNL     1       0.985  13.741  19.893  1.00  0.00     0.049 A 
ATOM     60  C   UNL     1      -1.297   8.662  20.779  1.00  0.00     0.074 A 
ATOM     61  C   UNL     1       1.050  14.584  20.986  1.00  0.00     0.029 A 
ATOM     62  N   UNL     1       0.406  12.557  20.331  1.00  0.00    -0.354 N 
ATOM     63  N   UNL     1      -0.798   9.874  20.716  1.00  0.00    -0.248 NA
ATOM     64  C   UNL     1      -1.733   8.260  22.121  1.00  0.00     0.031 C 
ATOM     65  C   UNL     1       0.563  13.890  22.099  1.00  0.00     0.029 A 
ATOM     66  C   UNL     1       0.131  12.639  21.685  1.00  0.00     0.049 A 
ATOM     67  H   UNL     1       0.219  11.776  19.762  1.00  0.00     0.167 HD
ATOM     68  C   UNL     1      -0.888  10.391  22.001  1.00  0.00     0.074 A 
ATOM     69  C   UNL     1      -1.509   9.366  22.815  1.00  0.00     0.031 C 
ATOM     70  C   UNL     1      -0.493  11.602  22.468  1.00  0.00     0.037 A 
BRANCH  57  71
ATOM     71  C   UNL     1       2.094  15.287  18.221  1.00  0.00     0.064 A 
ATOM     72  C   UNL     1       1.493  16.248  17.393  1.00  0.00     0.173 A 
ATOM     73  C   UNL     1       3.352  15.587  18.764  1.00  0.00     0.173 A 
ATOM     74  F   UNL     1       0.298  16.007  16.832  1.00  0.00    -0.203 F 
ATOM     75  C   UNL     1       2.140  17.445  17.095  1.00  0.00     0.198 A 
ATOM     76  C   UNL     1       3.980  16.800  18.493  1.00  0.00     0.198 A 
ATOM     77  F   UNL     1       3.974  14.704  19.560  1.00  0.00    -0.203 F 
ATOM     78  F   UNL     1       1.573  18.321  16.254  1.00  0.00    -0.200 F 
ATOM     79  C   UNL     1       3.379  17.724  17.652  1.00  0.00     0.200 A 
ATOM     80  F   UNL     1       5.172  17.072  19.042  1.00  0.00    -0.200 F 
ATOM     81  F   UNL     1       3.997  18.879  17.372  1.00  0.00    -0.200 F 
ENDBRANCH  57  71
BRANCH  58  82
ATOM     82  C   UNL     1      -2.084   6.320  19.943  1.00  0.00     0.064 A 
ATOM     83  C   UNL     1      -3.423   6.192  20.337  1.00  0.00     0.173 A 
ATOM     84  C   UNL     1      -1.331   5.144  19.808  1.00  0.00     0.173 A 
ATOM     85  F   UNL     1      -4.183   7.287  20.492  1.00  0.00    -0.203 F 
ATOM     86  C   UNL     1      -3.977   4.944  20.615  1.00  0.00     0.198 A 
ATOM     87  C   UNL     1      -1.895   3.894  20.053  1.00  0.00     0.198 A 
ATOM     88  F   UNL     1      -0.048   5.209  19.420  1.00  0.00    -0.203 F 
ATOM     89  F   UNL     1      -5.244   4.856  21.041  1.00  0.00    -0.200 F 
ATOM     90  C   UNL     1      -3.214   3.796  20.468  1.00  0.00     0.200 A 
ATOM     91  F   UNL     1      -1.159   2.786  19.890  1.00  0.00    -0.200 F 
ATOM     92  F   UNL     1      -3.747   2.595  20.732  1.00  0.00    -0.200 F 
ENDBRANCH  58  82
BRANCH  70  93
ATOM     93  C   UNL     1      -0.764  11.893  23.916  1.00  0.00     0.064 A 
ATOM     94  C   UNL     1      -0.076  11.232  24.945  1.00  0.00     0.173 A 
ATOM     95  C   UNL     1      -1.709  12.866  24.276  1.00  0.00     0.173 A 
ATOM     96  F   UNL     1       0.829  10.285  24.654  1.00  0.00    -0.203 F 
ATOM     97  C   UNL     1      -0.356  11.505  26.281  1.00  0.00     0.198 A 
ATOM     98  C   UNL     1      -1.957  13.164  25.612  1.00  0.00     0.198 A 
ATOM     99  F   UNL     1      -2.386  13.535  23.330  1.00  0.00    -0.203 F 
ATOM    100  F   UNL     1       0.264  10.814  27.247  1.00  0.00    -0.200 F 
ATOM    101  C   UNL     1      -1.290  12.475  26.613  1.00  0.00     0.200 A 
ATOM    102  F   UNL     1      -2.846  14.115  25.930  1.00  0.00    -0.200 F 
ATOM    103  F   UNL     1      -1.555  12.739  27.900  1.00  0.00    -0.200 F 
ENDBRANCH  70  93
ENDBRANCH  44  45
ENDBRANCH  36  39
ENDBRANCH  34  35
ENDBRANCH  33  34
ENDBRANCH  32  33
ENDBRANCH   1  32
TORSDOF 15
