REMARK SMILES C[C@@H]1[C@H](C(=O)NCCCCNC(=O)c2ccc(-c3c4nc(c(-c5c(F)c(F)c(F)c(F)c5F)c5ccc([nH]5)c(-c5c(F)c(F)c(F)c(F)c5F)c5nc(c(-c6c(F)c(F)c(F)c(F)c6F)c6ccc3[nH]6)C=C5)C=C4)cc2)CCN1S(=O)(=O)c1cc(F)cc(F)c1
REMARK SMILES IDX 8 1 7 2 6 3 4 4 5 5 3 7 1 8 2 9 79 10 77 11 78 12 80 13
REMARK SMILES IDX 81 14 82 15 83 16 84 17 90 18 85 19 88 20 86 21 87 22 89 23
REMARK SMILES IDX 9 24 10 25 11 26 12 27 13 29 14 30 15 31 76 32 16 33 75 34
REMARK SMILES IDX 17 35 18 36 19 37 69 38 20 39 74 40 68 41 70 42 21 43 73 44
REMARK SMILES IDX 67 45 66 46 22 48 54 49 34 50 53 51 35 52 38 53 52 54 71 55
REMARK SMILES IDX 36 56 37 57 51 59 72 60 39 61 23 62 24 63 32 64 25 65 26 66
REMARK SMILES IDX 30 67 33 68 27 69 28 70 31 71 29 72 55 73 56 74 64 75 57 76
REMARK SMILES IDX 58 77 62 78 65 79 59 80 60 81 63 82 61 83 40 84 41 85 49 86
REMARK SMILES IDX 42 87 43 88 47 89 50 90 44 91 45 92 48 93 46 94
REMARK H PARENT 6 6 11 28 70 47 38 58
REMARK Flexibility Score: inf
ROOT
ATOM      1  C   UNL     1       2.657   1.643   2.516  1.00  0.00     0.023 C 
ENDROOT
BRANCH   1   2
ATOM      2  C   UNL     1       1.225   2.115   2.231  1.00  0.00     0.116 C 
BRANCH   2   3
ATOM      3  N   UNL     1       1.085   2.730   0.919  1.00  0.00    -0.356 N 
ATOM      4  C   UNL     1       0.572   2.329  -0.272  1.00  0.00     0.224 C 
ATOM      5  O   UNL     1       0.668   3.157  -1.189  1.00  0.00    -0.275 OA
ATOM      6  H   UNL     1       1.443   3.646   0.890  1.00  0.00     0.163 HD
BRANCH   4   7
ATOM      7  C   UNL     1      -0.062   0.972  -0.588  1.00  0.00     0.098 C 
ATOM      8  C   UNL     1       2.076  -0.219   0.109  1.00  0.00     0.026 C 
ATOM      9  C   UNL     1       0.864  -0.248  -0.776  1.00  0.00     0.082 C 
ATOM     10  N   UNL     1      -0.021  -1.460  -0.611  1.00  0.00    -0.194 NA
ATOM     11  C   UNL     1      -1.184   0.468   0.289  1.00  0.00     0.032 C 
ATOM     12  C   UNL     1      -1.389  -0.948  -0.232  1.00  0.00     0.104 C 
BRANCH  10  13
ATOM     13  S   UNL     1       0.390  -2.853   0.280  1.00  0.00     0.243 S 
ATOM     14  O   UNL     1       0.689  -2.416   1.629  1.00  0.00    -0.207 OA
ATOM     15  O   UNL     1      -0.668  -3.813   0.043  1.00  0.00    -0.207 OA
BRANCH  13  16
ATOM     16  C   UNL     1       1.867  -3.621  -0.337  1.00  0.00     0.088 A 
ATOM     17  C   UNL     1       2.241  -4.815   0.298  1.00  0.00     0.061 A 
ATOM     18  C   UNL     1       2.706  -3.062  -1.297  1.00  0.00     0.061 A 
ATOM     19  C   UNL     1       3.485  -5.376   0.038  1.00  0.00     0.127 A 
ATOM     20  C   UNL     1       3.976  -3.607  -1.484  1.00  0.00     0.127 A 
ATOM     21  F   UNL     1       3.839  -6.509   0.657  1.00  0.00    -0.207 F 
ATOM     22  C   UNL     1       4.379  -4.758  -0.821  1.00  0.00     0.078 A 
ATOM     23  F   UNL     1       4.843  -2.977  -2.288  1.00  0.00    -0.207 F 
ENDBRANCH  13  16
ENDBRANCH  10  13
ENDBRANCH   4   7
ENDBRANCH   2   3
ENDBRANCH   1   2
BRANCH   1  24
ATOM     24  C   UNL     1       3.601   2.646   3.141  1.00  0.00     0.023 C 
BRANCH  24  25
ATOM     25  C   UNL     1       3.233   3.056   4.547  1.00  0.00     0.116 C 
BRANCH  25  26
ATOM     26  N   UNL     1       3.112   1.948   5.486  1.00  0.00    -0.352 N 
ATOM     27  C   UNL     1       3.527   1.901   6.801  1.00  0.00     0.251 C 
ATOM     28  H   UNL     1       2.680   1.133   5.141  1.00  0.00     0.163 HD
ATOM     29  O   UNL     1       3.417   0.887   7.469  1.00  0.00    -0.269 OA
BRANCH  27  30
ATOM     30  C   UNL     1       4.168   3.107   7.361  1.00  0.00     0.039 A 
ATOM     31  C   UNL     1       5.423   2.994   7.960  1.00  0.00     0.014 A 
ATOM     32  C   UNL     1       3.582   4.357   7.155  1.00  0.00     0.014 A 
ATOM     33  C   UNL     1       6.133   4.152   8.274  1.00  0.00     0.010 A 
ATOM     34  C   UNL     1       4.342   5.499   7.343  1.00  0.00     0.010 A 
ATOM     35  C   UNL     1       5.617   5.410   7.923  1.00  0.00    -0.014 A 
BRANCH  35  36
ATOM     36  C   UNL     1       6.354   6.665   8.202  1.00  0.00     0.031 A 
ATOM     37  C   UNL     1       5.721   7.693   9.098  1.00  0.00     0.074 A 
ATOM     38  C   UNL     1       7.526   6.916   7.590  1.00  0.00     0.049 A 
ATOM     39  N   UNL     1       6.114   8.909   9.374  1.00  0.00    -0.248 NA
ATOM     40  C   UNL     1       4.441   7.322   9.726  1.00  0.00     0.031 C 
ATOM     41  C   UNL     1       8.203   6.026   6.646  1.00  0.00     0.029 A 
ATOM     42  N   UNL     1       8.353   8.008   7.666  1.00  0.00    -0.354 N 
ATOM     43  C   UNL     1       5.112   9.453  10.166  1.00  0.00     0.074 A 
ATOM     44  C   UNL     1       4.063   8.466  10.269  1.00  0.00     0.031 C 
ATOM     45  C   UNL     1       9.359   6.591   6.259  1.00  0.00     0.029 A 
ATOM     46  C   UNL     1       9.488   7.895   6.902  1.00  0.00     0.049 A 
ATOM     47  H   UNL     1       8.151   8.798   8.218  1.00  0.00     0.167 HD
ATOM     48  C   UNL     1       5.086  10.655  10.786  1.00  0.00     0.037 A 
ATOM     49  C   UNL     1      10.516   8.751   6.748  1.00  0.00     0.037 A 
ATOM     50  C   UNL     1       6.166  11.601  10.739  1.00  0.00     0.049 A 
ATOM     51  C   UNL     1      10.497  10.053   7.501  1.00  0.00     0.074 A 
ATOM     52  C   UNL     1       6.281  12.816  11.387  1.00  0.00     0.029 A 
ATOM     53  N   UNL     1       7.332  11.420  10.009  1.00  0.00    -0.354 N 
ATOM     54  N   UNL     1       9.572  10.536   8.296  1.00  0.00    -0.248 NA
ATOM     55  C   UNL     1      11.668  10.926   7.345  1.00  0.00     0.031 C 
ATOM     56  C   UNL     1       7.511  13.382  11.032  1.00  0.00     0.029 A 
ATOM     57  C   UNL     1       8.175  12.502  10.191  1.00  0.00     0.049 A 
ATOM     58  H   UNL     1       7.531  10.637   9.445  1.00  0.00     0.167 HD
ATOM     59  C   UNL     1      10.061  11.748   8.760  1.00  0.00     0.074 A 
ATOM     60  C   UNL     1      11.370  11.925   8.164  1.00  0.00     0.031 C 
ATOM     61  C   UNL     1       9.482  12.639   9.602  1.00  0.00     0.037 A 
BRANCH  48  62
ATOM     62  C   UNL     1       3.860  10.992  11.582  1.00  0.00     0.064 A 
ATOM     63  C   UNL     1       3.546  10.317  12.772  1.00  0.00     0.173 A 
ATOM     64  C   UNL     1       2.982  11.996  11.146  1.00  0.00     0.173 A 
ATOM     65  F   UNL     1       4.342   9.334  13.220  1.00  0.00    -0.203 F 
ATOM     66  C   UNL     1       2.380  10.606  13.474  1.00  0.00     0.198 A 
ATOM     67  C   UNL     1       1.833  12.305  11.870  1.00  0.00     0.198 A 
ATOM     68  F   UNL     1       3.234  12.672  10.016  1.00  0.00    -0.203 F 
ATOM     69  F   UNL     1       2.069   9.901  14.571  1.00  0.00    -0.200 F 
ATOM     70  C   UNL     1       1.528  11.603  13.027  1.00  0.00     0.200 A 
ATOM     71  F   UNL     1       1.014  13.275  11.441  1.00  0.00    -0.200 F 
ATOM     72  F   UNL     1       0.404  11.879  13.703  1.00  0.00    -0.200 F 
ENDBRANCH  48  62
BRANCH  49  73
ATOM     73  C   UNL     1      11.674   8.378   5.895  1.00  0.00     0.064 A 
ATOM     74  C   UNL     1      12.910   8.053   6.473  1.00  0.00     0.173 A 
ATOM     75  C   UNL     1      11.574   8.334   4.498  1.00  0.00     0.173 A 
ATOM     76  F   UNL     1      13.058   8.098   7.805  1.00  0.00    -0.203 F 
ATOM     77  C   UNL     1      14.008   7.718   5.684  1.00  0.00     0.198 A 
ATOM     78  C   UNL     1      12.668   7.976   3.711  1.00  0.00     0.198 A 
ATOM     79  F   UNL     1      10.412   8.629   3.898  1.00  0.00    -0.203 F 
ATOM     80  F   UNL     1      15.188   7.451   6.260  1.00  0.00    -0.200 F 
ATOM     81  C   UNL     1      13.885   7.675   4.303  1.00  0.00     0.200 A 
ATOM     82  F   UNL     1      12.542   7.923   2.377  1.00  0.00    -0.200 F 
ATOM     83  F   UNL     1      14.941   7.350   3.545  1.00  0.00    -0.200 F 
ENDBRANCH  49  73
BRANCH  61  84
ATOM     84  C   UNL     1      10.276  13.856   9.966  1.00  0.00     0.064 A 
ATOM     85  C   UNL     1      10.458  14.910   9.061  1.00  0.00     0.173 A 
ATOM     86  C   UNL     1      10.815  13.988  11.254  1.00  0.00     0.173 A 
ATOM     87  F   UNL     1       9.972  14.822   7.814  1.00  0.00    -0.203 F 
ATOM     88  C   UNL     1      11.172  16.048   9.427  1.00  0.00     0.198 A 
ATOM     89  C   UNL     1      11.505  15.137  11.625  1.00  0.00     0.198 A 
ATOM     90  F   UNL     1      10.659  13.008  12.156  1.00  0.00    -0.203 F 
ATOM     91  F   UNL     1      11.369  17.028   8.535  1.00  0.00    -0.200 F 
ATOM     92  C   UNL     1      11.688  16.164  10.710  1.00  0.00     0.200 A 
ATOM     93  F   UNL     1      11.992  15.253  12.868  1.00  0.00    -0.200 F 
ATOM     94  F   UNL     1      12.367  17.264  11.062  1.00  0.00    -0.200 F 
ENDBRANCH  61  84
ENDBRANCH  35  36
ENDBRANCH  27  30
ENDBRANCH  25  26
ENDBRANCH  24  25
ENDBRANCH   1  24
TORSDOF 13
