REMARK SMILES COc1ccc(-c2nc(C(C)C)cc3nn(CC(=O)NCCCCNC(=O)c4ccc(-c5c6nc(c(-c7c(F)c(F)c(F)c(F)c7F)c7ccc([nH]7)c(-c7c(F)c(F)c(F)c(F)c7F)c7nc(c(-c8c(F)c(F)c(F)c(F)c8F)c8ccc5[nH]8)C=C7)C=C6)cc4)c(=O)n23)cc1
REMARK SMILES IDX 22 1 21 2 20 3 18 4 19 5 17 7 16 8 7 9 8 10 93 11 9 12 14 13
REMARK SMILES IDX 91 14 13 15 15 16 92 17 6 18 3 19 4 20 95 21 5 22 94 23 2 24
REMARK SMILES IDX 1 25 10 26 11 27 12 28 23 29 24 30 25 31 26 32 27 34 28 35
REMARK SMILES IDX 29 36 90 37 30 38 89 39 31 40 32 41 33 42 83 43 34 44 88 45
REMARK SMILES IDX 82 46 84 47 35 48 87 49 81 50 80 51 36 53 68 54 48 55 67 56
REMARK SMILES IDX 49 57 52 58 66 59 85 60 50 61 51 62 65 64 86 65 53 66 37 67
REMARK SMILES IDX 38 68 46 69 39 70 40 71 44 72 47 73 41 74 42 75 45 76 43 77
REMARK SMILES IDX 69 78 70 79 78 80 71 81 72 82 76 83 79 84 73 85 74 86 77 87
REMARK SMILES IDX 75 88 54 89 55 90 63 91 56 92 57 93 61 94 64 95 58 96 59 97
REMARK SMILES IDX 62 98 60 99
REMARK H PARENT 20 6 25 33 84 52 52 63
REMARK Flexibility Score: inf
ROOT
ATOM      1  C   UNL     1      -1.277   8.719   4.085  1.00  0.00     0.023 C 
ENDROOT
BRANCH   1   2
ATOM      2  C   UNL     1      -1.765   8.542   5.527  1.00  0.00     0.116 C 
BRANCH   2   3
ATOM      3  N   UNL     1      -2.515   7.316   5.724  1.00  0.00    -0.354 N 
ATOM      4  C   UNL     1      -2.188   6.195   6.436  1.00  0.00     0.241 C 
ATOM      5  O   UNL     1      -3.102   5.396   6.666  1.00  0.00    -0.273 OA
ATOM      6  H   UNL     1      -3.392   7.287   5.278  1.00  0.00     0.163 HD
BRANCH   4   7
ATOM      7  C   UNL     1      -0.806   6.010   7.065  1.00  0.00     0.249 C 
BRANCH   7   8
ATOM      8  N   UNL     1       0.249   6.203   6.104  1.00  0.00    -0.203 N 
ATOM      9  C   UNL     1       2.270   5.684   3.185  1.00  0.00     0.150 A 
ATOM     10  N   UNL     1       3.269   6.415   2.780  1.00  0.00    -0.234 NA
ATOM     11  N   UNL     1       1.586   5.959   4.362  1.00  0.00    -0.226 N 
ATOM     12  C   UNL     1       3.627   7.516   3.537  1.00  0.00     0.049 A 
ATOM     13  C   UNL     1       1.900   7.035   5.115  1.00  0.00     0.165 A 
ATOM     14  C   UNL     1       0.532   5.350   5.031  1.00  0.00     0.352 A 
ATOM     15  C   UNL     1       3.007   7.871   4.674  1.00  0.00     0.073 A 
ATOM     16  N   UNL     1       1.158   7.232   6.161  1.00  0.00    -0.149 NA
ATOM     17  O   UNL     1      -0.051   4.304   4.773  1.00  0.00    -0.245 OA
BRANCH   9  18
ATOM     18  C   UNL     1       1.822   4.530   2.374  1.00  0.00     0.018 A 
ATOM     19  C   UNL     1       1.000   2.343   0.831  1.00  0.00     0.118 A 
ATOM     20  C   UNL     1       0.115   3.389   1.102  1.00  0.00     0.047 A 
ATOM     21  C   UNL     1       2.310   2.409   1.312  1.00  0.00     0.047 A 
ATOM     22  C   UNL     1       0.520   4.484   1.869  1.00  0.00     0.016 A 
ATOM     23  C   UNL     1       2.725   3.507   2.076  1.00  0.00     0.016 A 
BRANCH  19  24
ATOM     24  O   UNL     1       0.486   1.348   0.046  1.00  0.00    -0.497 OA
ATOM     25  C   UNL     1       1.103   0.071   0.155  1.00  0.00     0.278 C 
ENDBRANCH  19  24
ENDBRANCH   9  18
BRANCH  12  26
ATOM     26  C   UNL     1       4.786   8.342   2.989  1.00  0.00     0.032 C 
ATOM     27  C   UNL     1       4.328   9.740   2.558  1.00  0.00     0.014 C 
ATOM     28  C   UNL     1       5.942   8.440   3.989  1.00  0.00     0.014 C 
ENDBRANCH  12  26
ENDBRANCH   7   8
ENDBRANCH   4   7
ENDBRANCH   2   3
ENDBRANCH   1   2
BRANCH   1  29
ATOM     29  C   UNL     1      -2.371   8.852   3.015  1.00  0.00     0.023 C 
BRANCH  29  30
ATOM     30  C   UNL     1      -3.344  10.007   3.220  1.00  0.00     0.116 C 
BRANCH  30  31
ATOM     31  N   UNL     1      -2.709  11.319   3.131  1.00  0.00    -0.352 N 
ATOM     32  C   UNL     1      -3.302  12.556   3.297  1.00  0.00     0.251 C 
ATOM     33  H   UNL     1      -1.746  11.323   2.929  1.00  0.00     0.163 HD
ATOM     34  O   UNL     1      -2.809  13.559   2.792  1.00  0.00    -0.269 OA
BRANCH  32  35
ATOM     35  C   UNL     1      -4.535  12.664   4.099  1.00  0.00     0.039 A 
ATOM     36  C   UNL     1      -5.565  13.532   3.726  1.00  0.00     0.014 A 
ATOM     37  C   UNL     1      -4.654  11.880   5.247  1.00  0.00     0.014 A 
ATOM     38  C   UNL     1      -6.744  13.536   4.470  1.00  0.00     0.010 A 
ATOM     39  C   UNL     1      -5.859  11.788   5.903  1.00  0.00     0.010 A 
ATOM     40  C   UNL     1      -6.897  12.637   5.542  1.00  0.00    -0.014 A 
BRANCH  40  41
ATOM     41  C   UNL     1      -8.215  12.425   6.143  1.00  0.00     0.031 A 
ATOM     42  C   UNL     1      -9.238  12.066   5.124  1.00  0.00     0.074 A 
ATOM     43  C   UNL     1      -8.445  12.344   7.475  1.00  0.00     0.049 A 
ATOM     44  N   UNL     1     -10.219  12.800   4.719  1.00  0.00    -0.248 NA
ATOM     45  C   UNL     1      -9.049  10.845   4.319  1.00  0.00     0.031 C 
ATOM     46  C   UNL     1      -7.442  12.367   8.547  1.00  0.00     0.029 A 
ATOM     47  N   UNL     1      -9.608  12.124   8.167  1.00  0.00    -0.354 N 
ATOM     48  C   UNL     1     -10.930  12.012   3.817  1.00  0.00     0.074 A 
ATOM     49  C   UNL     1     -10.047  10.947   3.437  1.00  0.00     0.031 C 
ATOM     50  C   UNL     1      -7.994  11.935   9.703  1.00  0.00     0.029 A 
ATOM     51  C   UNL     1      -9.421  11.768   9.506  1.00  0.00     0.049 A 
ATOM     52  H   UNL     1     -10.498  12.209   7.755  1.00  0.00     0.167 HD
ATOM     53  C   UNL     1     -12.289  12.115   3.776  1.00  0.00     0.037 A 
ATOM     54  C   UNL     1     -10.371  11.366  10.392  1.00  0.00     0.037 A 
ATOM     55  C   UNL     1     -12.704  13.316   4.460  1.00  0.00     0.049 A 
ATOM     56  C   UNL     1     -11.673  11.846   9.884  1.00  0.00     0.074 A 
ATOM     57  C   UNL     1     -12.695  14.672   4.221  1.00  0.00     0.029 A 
ATOM     58  N   UNL     1     -12.823  13.141   5.812  1.00  0.00    -0.354 N 
ATOM     59  N   UNL     1     -12.004  13.106   9.850  1.00  0.00    -0.248 NA
ATOM     60  C   UNL     1     -12.495  10.953   9.076  1.00  0.00     0.031 C 
ATOM     61  C   UNL     1     -12.714  15.304   5.501  1.00  0.00     0.029 A 
ATOM     62  C   UNL     1     -12.803  14.326   6.487  1.00  0.00     0.049 A 
ATOM     63  H   UNL     1     -12.912  12.262   6.247  1.00  0.00     0.167 HD
ATOM     64  C   UNL     1     -12.750  13.218   8.697  1.00  0.00     0.074 A 
ATOM     65  C   UNL     1     -13.174  11.862   8.371  1.00  0.00     0.031 C 
ATOM     66  C   UNL     1     -12.644  14.333   7.921  1.00  0.00     0.037 A 
BRANCH  53  67
ATOM     67  C   UNL     1     -13.252  10.938   3.674  1.00  0.00     0.064 A 
ATOM     68  C   UNL     1     -14.641  11.206   3.705  1.00  0.00     0.173 A 
ATOM     69  C   UNL     1     -12.902   9.588   3.887  1.00  0.00     0.173 A 
ATOM     70  F   UNL     1     -15.102  12.453   3.524  1.00  0.00    -0.203 F 
ATOM     71  C   UNL     1     -15.584  10.220   4.018  1.00  0.00     0.198 A 
ATOM     72  C   UNL     1     -13.850   8.599   4.156  1.00  0.00     0.198 A 
ATOM     73  F   UNL     1     -11.634   9.172   3.954  1.00  0.00    -0.203 F 
ATOM     74  F   UNL     1     -16.874  10.553   4.160  1.00  0.00    -0.200 F 
ATOM     75  C   UNL     1     -15.186   8.919   4.254  1.00  0.00     0.200 A 
ATOM     76  F   UNL     1     -13.440   7.347   4.405  1.00  0.00    -0.200 F 
ATOM     77  F   UNL     1     -16.076   7.986   4.616  1.00  0.00    -0.200 F 
ENDBRANCH  53  67
BRANCH  54  78
ATOM     78  C   UNL     1     -10.301  10.450  11.559  1.00  0.00     0.064 A 
ATOM     79  C   UNL     1     -11.326  10.422  12.526  1.00  0.00     0.173 A 
ATOM     80  C   UNL     1      -9.403   9.368  11.575  1.00  0.00     0.173 A 
ATOM     81  F   UNL     1     -12.244  11.399  12.566  1.00  0.00    -0.203 F 
ATOM     82  C   UNL     1     -11.477   9.350  13.412  1.00  0.00     0.198 A 
ATOM     83  C   UNL     1      -9.554   8.298  12.463  1.00  0.00     0.198 A 
ATOM     84  F   UNL     1      -8.426   9.279  10.662  1.00  0.00    -0.203 F 
ATOM     85  F   UNL     1     -12.514   9.324  14.262  1.00  0.00    -0.200 F 
ATOM     86  C   UNL     1     -10.602   8.279  13.367  1.00  0.00     0.200 A 
ATOM     87  F   UNL     1      -8.721   7.250  12.388  1.00  0.00    -0.200 F 
ATOM     88  F   UNL     1     -10.792   7.214  14.158  1.00  0.00    -0.200 F 
ENDBRANCH  54  78
BRANCH  66  89
ATOM     89  C   UNL     1     -12.213  15.601   8.582  1.00  0.00     0.064 A 
ATOM     90  C   UNL     1     -10.941  15.833   9.129  1.00  0.00     0.173 A 
ATOM     91  C   UNL     1     -13.129  16.660   8.588  1.00  0.00     0.173 A 
ATOM     92  F   UNL     1      -9.990  14.889   9.095  1.00  0.00    -0.203 F 
ATOM     93  C   UNL     1     -10.619  17.070   9.686  1.00  0.00     0.198 A 
ATOM     94  C   UNL     1     -12.793  17.902   9.108  1.00  0.00     0.198 A 
ATOM     95  F   UNL     1     -14.348  16.497   8.049  1.00  0.00    -0.203 F 
ATOM     96  F   UNL     1      -9.405  17.271  10.220  1.00  0.00    -0.200 F 
ATOM     97  C   UNL     1     -11.542  18.105   9.667  1.00  0.00     0.200 A 
ATOM     98  F   UNL     1     -13.676  18.909   9.049  1.00  0.00    -0.200 F 
ATOM     99  F   UNL     1     -11.220  19.305  10.169  1.00  0.00    -0.200 F 
ENDBRANCH  66  89
ENDBRANCH  40  41
ENDBRANCH  32  35
ENDBRANCH  30  31
ENDBRANCH  29  30
ENDBRANCH   1  29
TORSDOF 15
