REMARK SMILES O=C1C[C@@H](C(=O)Nc2cccc(C(=O)NCCCCNC(=O)c3ccc(-c4c5nc(c(-c6c(F)c(F)c(F)c(F)c6F)c6ccc([nH]6)c(-c6c(F)c(F)c(F)c(F)c6F)c6nc(c(-c7c(F)c(F)c(F)c(F)c7F)c7ccc4[nH]7)C=C6)C=C5)cc3)c2)[C@H](c2ccccc2)O1
REMARK SMILES IDX 17 1 16 2 15 3 13 4 14 5 12 7 8 8 9 9 86 10 10 11 11 12 7 13
REMARK SMILES IDX 5 14 6 15 4 17 1 18 2 19 3 20 94 21 87 22 88 23 89 24 93 25
REMARK SMILES IDX 90 26 92 27 91 28 18 29 19 30 20 31 21 32 22 34 23 35 24 36
REMARK SMILES IDX 85 37 25 38 84 39 26 40 27 41 28 42 78 43 29 44 83 45 77 46
REMARK SMILES IDX 79 47 30 48 82 49 76 50 75 51 31 53 63 54 43 55 62 56 44 57
REMARK SMILES IDX 47 58 61 59 80 60 45 61 46 62 60 64 81 65 48 66 32 67 33 68
REMARK SMILES IDX 41 69 34 70 35 71 39 72 42 73 36 74 37 75 40 76 38 77 64 78
REMARK SMILES IDX 65 79 73 80 66 81 67 82 71 83 74 84 68 85 69 86 72 87 70 88
REMARK SMILES IDX 49 89 50 90 58 91 51 92 52 93 56 94 59 95 53 96 54 97 57 98
REMARK SMILES IDX 55 99
REMARK H PARENT 15 6 7 16 20 33 79 52 47 63
REMARK Flexibility Score: inf
ROOT
ATOM      1  C   UNL     1       3.430   4.346  -1.193  1.00  0.00     0.023 C 
ENDROOT
BRANCH   1   2
ATOM      2  C   UNL     1       3.493   3.051  -2.002  1.00  0.00     0.116 C 
BRANCH   2   3
ATOM      3  N   UNL     1       4.849   2.745  -2.396  1.00  0.00    -0.352 N 
ATOM      4  C   UNL     1       5.832   1.957  -1.855  1.00  0.00     0.251 C 
ATOM      5  O   UNL     1       6.889   1.888  -2.484  1.00  0.00    -0.269 OA
ATOM      6  H   UNL     1       5.125   3.197  -3.226  1.00  0.00     0.163 HD
BRANCH   4   7
ATOM      7  C   UNL     1       5.679   1.135  -0.614  1.00  0.00     0.041 A 
ATOM      8  C   UNL     1       4.484   0.335   1.352  1.00  0.00     0.041 A 
ATOM      9  C   UNL     1       5.449  -0.647   1.561  1.00  0.00     0.026 A 
ATOM     10  C   UNL     1       4.669   1.286   0.341  1.00  0.00     0.040 A 
ATOM     11  C   UNL     1       6.511  -0.769   0.667  1.00  0.00     0.003 A 
ATOM     12  C   UNL     1       6.605   0.095  -0.428  1.00  0.00     0.014 A 
BRANCH   8  13
ATOM     13  N   UNL     1       3.345   0.331   2.171  1.00  0.00    -0.326 N 
ATOM     14  C   UNL     1       2.026   0.526   1.837  1.00  0.00     0.232 C 
ATOM     15  O   UNL     1       1.204   0.656   2.746  1.00  0.00    -0.274 OA
ATOM     16  H   UNL     1       3.515   0.162   3.126  1.00  0.00     0.169 HD
BRANCH  14  17
ATOM     17  C   UNL     1       1.582   0.433   0.379  1.00  0.00     0.135 C 
ATOM     18  O   UNL     1      -1.933   0.071   0.218  1.00  0.00    -0.252 OA
ATOM     19  C   UNL     1      -0.715  -0.036   0.212  1.00  0.00     0.307 C 
ATOM     20  C   UNL     1       0.247   1.103   0.134  1.00  0.00     0.140 C 
ATOM     21  O   UNL     1      -0.059  -1.229   0.191  1.00  0.00    -0.457 OA
ATOM     22  C   UNL     1       1.341  -1.016  -0.025  1.00  0.00     0.220 C 
BRANCH  22  23
ATOM     23  C   UNL     1       1.722  -1.312  -1.475  1.00  0.00    -0.007 A 
ATOM     24  C   UNL     1       0.786  -1.729  -2.434  1.00  0.00     0.007 A 
ATOM     25  C   UNL     1       3.060  -1.194  -1.883  1.00  0.00     0.007 A 
ATOM     26  C   UNL     1       1.173  -1.978  -3.756  1.00  0.00     0.000 A 
ATOM     27  C   UNL     1       3.446  -1.418  -3.206  1.00  0.00     0.000 A 
ATOM     28  C   UNL     1       2.500  -1.810  -4.144  1.00  0.00     0.000 A 
ENDBRANCH  22  23
ENDBRANCH  14  17
ENDBRANCH   8  13
ENDBRANCH   4   7
ENDBRANCH   2   3
ENDBRANCH   1   2
BRANCH   1  29
ATOM     29  C   UNL     1       3.240   5.585  -2.067  1.00  0.00     0.023 C 
BRANCH  29  30
ATOM     30  C   UNL     1       1.933   5.605  -2.850  1.00  0.00     0.116 C 
BRANCH  30  31
ATOM     31  N   UNL     1       0.748   5.545  -2.007  1.00  0.00    -0.352 N 
ATOM     32  C   UNL     1      -0.458   6.177  -2.203  1.00  0.00     0.251 C 
ATOM     33  H   UNL     1       0.818   4.986  -1.200  1.00  0.00     0.163 HD
ATOM     34  O   UNL     1      -1.337   6.134  -1.351  1.00  0.00    -0.269 OA
BRANCH  32  35
ATOM     35  C   UNL     1      -0.649   6.955  -3.442  1.00  0.00     0.039 A 
ATOM     36  C   UNL     1      -1.049   8.288  -3.345  1.00  0.00     0.014 A 
ATOM     37  C   UNL     1      -0.338   6.389  -4.681  1.00  0.00     0.014 A 
ATOM     38  C   UNL     1      -1.065   9.080  -4.493  1.00  0.00     0.010 A 
ATOM     39  C   UNL     1      -0.268   7.202  -5.805  1.00  0.00     0.010 A 
ATOM     40  C   UNL     1      -0.632   8.555  -5.723  1.00  0.00    -0.014 A 
BRANCH  40  41
ATOM     41  C   UNL     1      -0.550   9.408  -6.935  1.00  0.00     0.031 A 
ATOM     42  C   UNL     1      -1.397   9.092  -8.135  1.00  0.00     0.074 A 
ATOM     43  C   UNL     1       0.331  10.427  -6.975  1.00  0.00     0.049 A 
ATOM     44  N   UNL     1      -1.438   9.688  -9.300  1.00  0.00    -0.248 NA
ATOM     45  C   UNL     1      -2.296   7.932  -8.023  1.00  0.00     0.031 C 
ATOM     46  C   UNL     1       1.244  10.800  -5.893  1.00  0.00     0.029 A 
ATOM     47  N   UNL     1       0.606  11.334  -7.968  1.00  0.00    -0.354 N 
ATOM     48  C   UNL     1      -2.351   8.967 -10.059  1.00  0.00     0.074 A 
ATOM     49  C   UNL     1      -2.794   7.856  -9.247  1.00  0.00     0.031 C 
ATOM     50  C   UNL     1       1.950  11.880  -6.266  1.00  0.00     0.029 A 
ATOM     51  C   UNL     1       1.572  12.249  -7.627  1.00  0.00     0.049 A 
ATOM     52  H   UNL     1       0.152  11.330  -8.842  1.00  0.00     0.167 HD
ATOM     53  C   UNL     1      -2.797   9.226 -11.310  1.00  0.00     0.037 A 
ATOM     54  C   UNL     1       2.096  13.268  -8.335  1.00  0.00     0.037 A 
ATOM     55  C   UNL     1      -2.370  10.349 -12.102  1.00  0.00     0.049 A 
ATOM     56  C   UNL     1       1.593  13.522  -9.731  1.00  0.00     0.074 A 
ATOM     57  C   UNL     1      -2.816  10.742 -13.351  1.00  0.00     0.029 A 
ATOM     58  N   UNL     1      -1.389  11.255 -11.724  1.00  0.00    -0.354 N 
ATOM     59  N   UNL     1       0.666  12.887 -10.407  1.00  0.00    -0.248 NA
ATOM     60  C   UNL     1       2.206  14.641 -10.460  1.00  0.00     0.031 C 
ATOM     61  C   UNL     1      -2.059  11.846 -13.757  1.00  0.00     0.029 A 
ATOM     62  C   UNL     1      -1.190  12.184 -12.732  1.00  0.00     0.049 A 
ATOM     63  H   UNL     1      -0.906  11.239 -10.866  1.00  0.00     0.167 HD
ATOM     64  C   UNL     1       0.561  13.548 -11.624  1.00  0.00     0.074 A 
ATOM     65  C   UNL     1       1.508  14.643 -11.586  1.00  0.00     0.031 C 
ATOM     66  C   UNL     1      -0.248  13.274 -12.677  1.00  0.00     0.037 A 
BRANCH  53  67
ATOM     67  C   UNL     1      -3.795   8.271 -11.904  1.00  0.00     0.064 A 
ATOM     68  C   UNL     1      -5.102   8.158 -11.404  1.00  0.00     0.173 A 
ATOM     69  C   UNL     1      -3.446   7.479 -13.009  1.00  0.00     0.173 A 
ATOM     70  F   UNL     1      -5.484   8.883 -10.342  1.00  0.00    -0.203 F 
ATOM     71  C   UNL     1      -6.009   7.263 -11.965  1.00  0.00     0.198 A 
ATOM     72  C   UNL     1      -4.368   6.612 -13.590  1.00  0.00     0.198 A 
ATOM     73  F   UNL     1      -2.213   7.550 -13.531  1.00  0.00    -0.203 F 
ATOM     74  F   UNL     1      -7.232   7.130 -11.433  1.00  0.00    -0.200 F 
ATOM     75  C   UNL     1      -5.645   6.497 -13.062  1.00  0.00     0.200 A 
ATOM     76  F   UNL     1      -4.018   5.884 -14.659  1.00  0.00    -0.200 F 
ATOM     77  F   UNL     1      -6.522   5.642 -13.605  1.00  0.00    -0.200 F 
ENDBRANCH  53  67
BRANCH  54  78
ATOM     78  C   UNL     1       3.135  14.143  -7.729  1.00  0.00     0.064 A 
ATOM     79  C   UNL     1       2.859  15.487  -7.434  1.00  0.00     0.173 A 
ATOM     80  C   UNL     1       4.422  13.666  -7.444  1.00  0.00     0.173 A 
ATOM     81  F   UNL     1       1.649  15.996  -7.707  1.00  0.00    -0.203 F 
ATOM     82  C   UNL     1       3.837  16.324  -6.903  1.00  0.00     0.198 A 
ATOM     83  C   UNL     1       5.390  14.496  -6.882  1.00  0.00     0.198 A 
ATOM     84  F   UNL     1       4.738  12.388  -7.701  1.00  0.00    -0.203 F 
ATOM     85  F   UNL     1       3.561  17.616  -6.681  1.00  0.00    -0.200 F 
ATOM     86  C   UNL     1       5.100  15.827  -6.621  1.00  0.00     0.200 A 
ATOM     87  F   UNL     1       6.605  14.008  -6.596  1.00  0.00    -0.200 F 
ATOM     88  F   UNL     1       6.040  16.632  -6.107  1.00  0.00    -0.200 F 
ENDBRANCH  54  78
BRANCH  66  89
ATOM     89  C   UNL     1      -0.177  14.197 -13.861  1.00  0.00     0.064 A 
ATOM     90  C   UNL     1       0.943  14.233 -14.705  1.00  0.00     0.173 A 
ATOM     91  C   UNL     1      -1.263  15.029 -14.176  1.00  0.00     0.173 A 
ATOM     92  F   UNL     1       2.013  13.469 -14.442  1.00  0.00    -0.203 F 
ATOM     93  C   UNL     1       0.985  15.091 -15.802  1.00  0.00     0.198 A 
ATOM     94  C   UNL     1      -1.232  15.857 -15.293  1.00  0.00     0.198 A 
ATOM     95  F   UNL     1      -2.362  15.027 -13.406  1.00  0.00    -0.203 F 
ATOM     96  F   UNL     1       2.087  15.150 -16.561  1.00  0.00    -0.200 F 
ATOM     97  C   UNL     1      -0.105  15.895 -16.100  1.00  0.00     0.200 A 
ATOM     98  F   UNL     1      -2.294  16.620 -15.590  1.00  0.00    -0.200 F 
ATOM     99  F   UNL     1      -0.066  16.713 -17.161  1.00  0.00    -0.200 F 
ENDBRANCH  66  89
ENDBRANCH  40  41
ENDBRANCH  32  35
ENDBRANCH  30  31
ENDBRANCH  29  30
ENDBRANCH   1  29
TORSDOF 14
