REMARK SMILES O=C(NCCCCNC(=O)[C@@H](CCCCO)c1cccc(Cl)c1)c1ccc(-c2c3nc(c(-c4c(F)c(F)c(F)c(F)c4F)c4ccc([nH]4)c(-c4c(F)c(F)c(F)c(F)c4F)c4nc(c(-c5c(F)c(F)c(F)c(F)c5F)c5ccc2[nH]5)C=C4)C=C3)cc1
REMARK SMILES IDX 7 1 6 2 5 3 4 4 3 5 1 6 2 7 24 9 25 10 86 11 26 12 85 13
REMARK SMILES IDX 27 14 28 15 29 16 79 17 30 18 84 19 78 20 80 21 31 22 83 23
REMARK SMILES IDX 77 24 76 25 32 27 64 28 44 29 63 30 45 31 48 32 62 33 81 34
REMARK SMILES IDX 46 35 47 36 61 38 82 39 49 40 33 41 34 42 42 43 35 44 36 45
REMARK SMILES IDX 40 46 43 47 37 48 38 49 41 50 39 51 65 52 66 53 74 54 67 55
REMARK SMILES IDX 68 56 72 57 75 58 69 59 70 60 73 61 71 62 50 63 51 64 59 65
REMARK SMILES IDX 52 66 53 67 57 68 60 69 54 70 55 71 58 72 56 73 8 74 9 75
REMARK SMILES IDX 10 77 11 78 12 79 13 80 14 81 15 82 16 83 17 85 18 86 23 87
REMARK SMILES IDX 19 88 21 89 20 90 22 91
REMARK H PARENT 3 8 80 26 48 37 8 76 16 84
REMARK Flexibility Score: inf
ROOT
ATOM      1  C   UNL     1       5.459  -2.755  -2.722  1.00  0.00     0.116 C 
ENDROOT
BRANCH   1   2
ATOM      2  C   UNL     1       4.812  -3.219  -1.418  1.00  0.00     0.023 C 
BRANCH   2   3
ATOM      3  C   UNL     1       5.139  -2.370  -0.199  1.00  0.00     0.023 C 
BRANCH   3   4
ATOM      4  C   UNL     1       4.672  -0.927  -0.280  1.00  0.00     0.116 C 
BRANCH   4   5
ATOM      5  N   UNL     1       3.236  -0.768  -0.472  1.00  0.00    -0.352 N 
ATOM      6  O   UNL     1       1.190   0.130  -0.080  1.00  0.00    -0.269 OA
ATOM      7  C   UNL     1       2.393   0.144   0.129  1.00  0.00     0.251 C 
ATOM      8  H   UNL     1       2.816  -1.388  -1.110  1.00  0.00     0.163 HD
BRANCH   7   9
ATOM      9  C   UNL     1       2.979   1.109   1.082  1.00  0.00     0.039 A 
ATOM     10  C   UNL     1       4.120   1.826   0.724  1.00  0.00     0.014 A 
ATOM     11  C   UNL     1       2.467   1.183   2.379  1.00  0.00     0.014 A 
ATOM     12  C   UNL     1       4.872   2.436   1.716  1.00  0.00     0.010 A 
ATOM     13  C   UNL     1       3.170   1.897   3.354  1.00  0.00     0.010 A 
ATOM     14  C   UNL     1       4.411   2.474   3.045  1.00  0.00    -0.014 A 
BRANCH  14  15
ATOM     15  C   UNL     1       5.260   3.123   4.078  1.00  0.00     0.031 A 
ATOM     16  C   UNL     1       5.822   2.340   5.234  1.00  0.00     0.074 A 
ATOM     17  C   UNL     1       5.584   4.420   3.919  1.00  0.00     0.049 A 
ATOM     18  N   UNL     1       6.612   2.748   6.197  1.00  0.00    -0.248 NA
ATOM     19  C   UNL     1       5.447   0.921   5.334  1.00  0.00     0.031 C 
ATOM     20  C   UNL     1       5.097   5.280   2.839  1.00  0.00     0.029 A 
ATOM     21  N   UNL     1       6.429   5.229   4.633  1.00  0.00    -0.354 N 
ATOM     22  C   UNL     1       6.788   1.655   7.038  1.00  0.00     0.074 A 
ATOM     23  C   UNL     1       6.021   0.565   6.475  1.00  0.00     0.031 C 
ATOM     24  C   UNL     1       5.712   6.468   2.912  1.00  0.00     0.029 A 
ATOM     25  C   UNL     1       6.578   6.479   4.084  1.00  0.00     0.049 A 
ATOM     26  H   UNL     1       6.883   4.943   5.458  1.00  0.00     0.167 HD
ATOM     27  C   UNL     1       7.523   1.574   8.174  1.00  0.00     0.037 A 
ATOM     28  C   UNL     1       7.326   7.523   4.483  1.00  0.00     0.037 A 
ATOM     29  C   UNL     1       8.326   2.647   8.701  1.00  0.00     0.049 A 
ATOM     30  C   UNL     1       8.157   7.392   5.724  1.00  0.00     0.074 A 
ATOM     31  C   UNL     1       9.134   2.650   9.826  1.00  0.00     0.029 A 
ATOM     32  N   UNL     1       8.432   3.908   8.132  1.00  0.00    -0.354 N 
ATOM     33  N   UNL     1       8.310   6.354   6.508  1.00  0.00    -0.248 NA
ATOM     34  C   UNL     1       8.909   8.582   6.141  1.00  0.00     0.031 C 
ATOM     35  C   UNL     1       9.704   3.922   9.954  1.00  0.00     0.029 A 
ATOM     36  C   UNL     1       9.282   4.699   8.888  1.00  0.00     0.049 A 
ATOM     37  H   UNL     1       7.971   4.197   7.312  1.00  0.00     0.167 HD
ATOM     38  C   UNL     1       9.179   6.760   7.509  1.00  0.00     0.074 A 
ATOM     39  C   UNL     1       9.540   8.133   7.217  1.00  0.00     0.031 C 
ATOM     40  C   UNL     1       9.629   6.062   8.579  1.00  0.00     0.037 A 
BRANCH  27  41
ATOM     41  C   UNL     1       7.479   0.287   8.945  1.00  0.00     0.064 A 
ATOM     42  C   UNL     1       8.148  -0.864   8.507  1.00  0.00     0.173 A 
ATOM     43  C   UNL     1       6.799   0.224  10.172  1.00  0.00     0.173 A 
ATOM     44  F   UNL     1       8.802  -0.860   7.336  1.00  0.00    -0.203 F 
ATOM     45  C   UNL     1       8.124  -2.037   9.260  1.00  0.00     0.198 A 
ATOM     46  C   UNL     1       6.797  -0.943  10.933  1.00  0.00     0.198 A 
ATOM     47  F   UNL     1       6.147   1.299  10.639  1.00  0.00    -0.203 F 
ATOM     48  F   UNL     1       8.743  -3.136   8.806  1.00  0.00    -0.200 F 
ATOM     49  C   UNL     1       7.455  -2.073  10.475  1.00  0.00     0.200 A 
ATOM     50  F   UNL     1       6.158  -0.972  12.111  1.00  0.00    -0.200 F 
ATOM     51  F   UNL     1       7.441  -3.199  11.201  1.00  0.00    -0.200 F 
ENDBRANCH  27  41
BRANCH  28  52
ATOM     52  C   UNL     1       7.320   8.774   3.685  1.00  0.00     0.064 A 
ATOM     53  C   UNL     1       8.445   9.158   2.944  1.00  0.00     0.173 A 
ATOM     54  C   UNL     1       6.181   9.589   3.617  1.00  0.00     0.173 A 
ATOM     55  F   UNL     1       9.563   8.418   2.991  1.00  0.00    -0.203 F 
ATOM     56  C   UNL     1       8.433  10.314   2.167  1.00  0.00     0.198 A 
ATOM     57  C   UNL     1       6.160  10.729   2.818  1.00  0.00     0.198 A 
ATOM     58  F   UNL     1       5.077   9.258   4.303  1.00  0.00    -0.203 F 
ATOM     59  F   UNL     1       9.530  10.675   1.490  1.00  0.00    -0.200 F 
ATOM     60  C   UNL     1       7.287  11.094   2.098  1.00  0.00     0.200 A 
ATOM     61  F   UNL     1       5.045  11.468   2.739  1.00  0.00    -0.200 F 
ATOM     62  F   UNL     1       7.270  12.197   1.339  1.00  0.00    -0.200 F 
ENDBRANCH  28  52
BRANCH  40  63
ATOM     63  C   UNL     1      10.577   6.772   9.497  1.00  0.00     0.064 A 
ATOM     64  C   UNL     1      10.132   7.764  10.382  1.00  0.00     0.173 A 
ATOM     65  C   UNL     1      11.942   6.449   9.497  1.00  0.00     0.173 A 
ATOM     66  F   UNL     1       8.838   8.118  10.403  1.00  0.00    -0.203 F 
ATOM     67  C   UNL     1      11.026   8.429  11.216  1.00  0.00     0.198 A 
ATOM     68  C   UNL     1      12.829   7.100  10.349  1.00  0.00     0.198 A 
ATOM     69  F   UNL     1      12.414   5.505   8.670  1.00  0.00    -0.203 F 
ATOM     70  F   UNL     1      10.588   9.408  12.019  1.00  0.00    -0.200 F 
ATOM     71  C   UNL     1      12.372   8.094  11.202  1.00  0.00     0.200 A 
ATOM     72  F   UNL     1      14.128   6.772  10.339  1.00  0.00    -0.200 F 
ATOM     73  F   UNL     1      13.232   8.738  12.003  1.00  0.00    -0.200 F 
ENDBRANCH  40  63
ENDBRANCH  14  15
ENDBRANCH   7   9
ENDBRANCH   4   5
ENDBRANCH   3   4
ENDBRANCH   2   3
ENDBRANCH   1   2
BRANCH   1  74
ATOM     74  N   UNL     1       6.772  -3.333  -2.908  1.00  0.00    -0.356 N 
ATOM     75  C   UNL     1       7.263  -4.135  -3.892  1.00  0.00     0.227 C 
ATOM     76  H   UNL     1       7.421  -3.107  -2.203  1.00  0.00     0.163 HD
ATOM     77  O   UNL     1       8.466  -4.411  -3.811  1.00  0.00    -0.274 OA
BRANCH  75  78
ATOM     78  C   UNL     1       6.415  -4.729  -5.033  1.00  0.00     0.108 C 
BRANCH  78  79
ATOM     79  C   UNL     1       5.608  -5.983  -4.588  1.00  0.00     0.018 C 
BRANCH  79  80
ATOM     80  C   UNL     1       4.368  -5.852  -3.693  1.00  0.00     0.004 C 
BRANCH  80  81
ATOM     81  C   UNL     1       3.164  -5.061  -4.218  1.00  0.00     0.028 C 
BRANCH  81  82
ATOM     82  C   UNL     1       2.287  -5.836  -5.193  1.00  0.00     0.156 C 
BRANCH  82  83
ATOM     83  O   UNL     1       1.444  -6.737  -4.489  1.00  0.00    -0.396 OA
ATOM     84  H   UNL     1       1.988  -7.368  -3.991  1.00  0.00     0.210 HD
ENDBRANCH  82  83
ENDBRANCH  81  82
ENDBRANCH  80  81
ENDBRANCH  79  80
ENDBRANCH  78  79
BRANCH  78  85
ATOM     85  C   UNL     1       5.752  -3.764  -6.015  1.00  0.00    -0.034 A 
ATOM     86  C   UNL     1       5.989  -2.380  -6.005  1.00  0.00     0.004 A 
ATOM     87  C   UNL     1       4.934  -4.271  -7.043  1.00  0.00     0.025 A 
ATOM     88  C   UNL     1       5.348  -1.529  -6.914  1.00  0.00     0.002 A 
ATOM     89  C   UNL     1       4.294  -3.422  -7.947  1.00  0.00     0.041 A 
ATOM     90  C   UNL     1       4.486  -2.049  -7.876  1.00  0.00     0.020 A 
ATOM     91  Cl  UNL     1       3.255  -4.086  -9.146  1.00  0.00    -0.084 Cl
ENDBRANCH  78  85
ENDBRANCH  75  78
ENDBRANCH   1  74
TORSDOF 17
