REMARK SMILES CC(C)[C@@H]1C[N@H+](Cc2ccc(O)c(C(=O)NCCCCNC(=O)c3ccc(-c4c5nc(c(-c6c(F)c(F)c(F)c(F)c6F)c6ccc([nH]6)c(-c6c(F)c(F)c(F)c(F)c6F)c6nc(c(-c7c(F)c(F)c(F)c(F)c7F)c7ccc4[nH]7)C=C6)C=C5)cc3)c2)CCC[N@H+]1CC1CC1
REMARK SMILES IDX 14 1 15 2 16 3 13 5 8 6 9 7 87 8 10 9 11 10 7 11 6 12 5 14
REMARK SMILES IDX 4 15 2 16 1 17 3 18 91 19 90 21 89 22 92 24 93 25 94 26
REMARK SMILES IDX 95 27 88 28 12 30 17 32 18 33 19 34 20 35 21 36 22 37 23 39
REMARK SMILES IDX 24 40 25 41 86 42 26 43 85 44 27 45 28 46 29 47 79 48 30 49
REMARK SMILES IDX 84 50 78 51 80 52 31 53 83 54 77 55 76 56 32 58 64 59 44 60
REMARK SMILES IDX 63 61 45 62 48 63 62 64 81 65 46 66 47 67 61 69 82 70 49 71
REMARK SMILES IDX 33 72 34 73 42 74 35 75 36 76 40 77 43 78 37 79 38 80 41 81
REMARK SMILES IDX 39 82 65 83 66 84 74 85 67 86 68 87 72 88 75 89 69 90 70 91
REMARK SMILES IDX 73 92 71 93 50 94 51 95 59 96 52 97 53 98 57 99 60 100
REMARK SMILES IDX 54 101 55 102 58 103 56 104
REMARK H PARENT 16 4 6 13 91 20 12 31 21 38 80 57 48 68
REMARK Flexibility Score: 90.00
ROOT
ATOM      1  C   UNL     1      -4.012  -4.695  -6.331  1.00  0.00     0.255 C 
ATOM      2  O   UNL     1      -5.188  -4.842  -5.972  1.00  0.00    -0.269 OA
ATOM      3  N   UNL     1      -3.816  -4.811  -7.683  1.00  0.00    -0.352 N 
ATOM      4  H   UNL     1      -4.630  -5.076  -8.170  1.00  0.00     0.163 HD
ENDROOT
BRANCH   1   5
ATOM      5  C   UNL     1      -2.986  -4.424  -5.262  1.00  0.00     0.082 A 
ATOM      6  C   UNL     1      -2.742  -3.844  -2.860  1.00  0.00     0.007 A 
ATOM      7  C   UNL     1      -1.382  -4.156  -2.946  1.00  0.00     0.013 A 
ATOM      8  C   UNL     1      -3.531  -4.014  -4.012  1.00  0.00     0.027 A 
ATOM      9  C   UNL     1      -0.808  -4.479  -4.167  1.00  0.00     0.047 A 
ATOM     10  C   UNL     1      -1.597  -4.590  -5.318  1.00  0.00     0.128 A 
BRANCH   6  11
ATOM     11  C   UNL     1      -3.308  -3.308  -1.549  1.00  0.00     0.299 C 
BRANCH  11  12
ATOM     12  N   UNL     1      -3.131  -1.854  -1.276  1.00  0.00    -0.326 N 
ATOM     13  H   UNL     1      -3.311  -1.673  -0.289  1.00  0.00     0.348 HD
BRANCH  12  14
ATOM     14  C   UNL     1      -1.723  -1.431  -1.444  1.00  0.00     0.328 C 
BRANCH  14  15
ATOM     15  C   UNL     1      -1.294   0.071  -1.434  1.00  0.00     0.242 C 
BRANCH  15  16
ATOM     16  C   UNL     1       0.274   0.207  -1.406  1.00  0.00     0.047 C 
ATOM     17  C   UNL     1       0.814   0.080   0.028  1.00  0.00     0.014 C 
ATOM     18  C   UNL     1       1.032  -0.791  -2.296  1.00  0.00     0.014 C 
ENDBRANCH  15  16
BRANCH  15  19
ATOM     19  N   UNL     1      -2.012   0.698  -2.561  1.00  0.00    -0.327 N 
ATOM     20  H   UNL     1      -2.225  -0.145  -3.094  1.00  0.00     0.348 HD
BRANCH  19  21
ATOM     21  C   UNL     1      -3.226   1.372  -2.117  1.00  0.00     0.268 C 
BRANCH  21  22
ATOM     22  C   UNL     1      -4.234   0.410  -1.480  1.00  0.00     0.123 CG0
ATOM     23  G   UNL     1      -4.148  -1.048  -1.961  1.00  0.00     0.000 G0
ENDBRANCH  21  22
ENDBRANCH  19  21
BRANCH  19  24
ATOM     24  C   UNL     1      -1.332   1.351  -3.662  1.00  0.00     0.266 C 
BRANCH  24  25
ATOM     25  C   UNL     1      -1.806   0.902  -5.031  1.00  0.00     0.044 C 
ATOM     26  C   UNL     1      -2.150  -0.568  -5.354  1.00  0.00     0.010 C 
ATOM     27  C   UNL     1      -3.188   0.554  -5.378  1.00  0.00     0.010 C 
ENDBRANCH  24  25
ENDBRANCH  19  24
ENDBRANCH  15  19
ENDBRANCH  14  15
ENDBRANCH  12  14
BRANCH  12  28
ATOM     28  C   UNL     1      -4.148  -1.048  -1.961  1.00  0.00     0.268 CG0
ATOM     29  G   UNL     1      -4.234   0.410  -1.480  1.00  0.00     0.000 G0
ENDBRANCH  12  28
ENDBRANCH  11  12
ENDBRANCH   6  11
BRANCH  10  30
ATOM     30  O   UNL     1      -0.912  -4.880  -6.456  1.00  0.00    -0.507 OA
ATOM     31  H   UNL     1       0.020  -4.980  -6.429  1.00  0.00     0.293 HD
ENDBRANCH  10  30
ENDBRANCH   1   5
BRANCH   3  32
ATOM     32  C   UNL     1      -2.672  -4.628  -8.551  1.00  0.00     0.116 C 
BRANCH  32  33
ATOM     33  C   UNL     1      -1.905  -5.937  -8.775  1.00  0.00     0.023 C 
BRANCH  33  34
ATOM     34  C   UNL     1      -2.451  -6.841  -9.877  1.00  0.00     0.023 C 
BRANCH  34  35
ATOM     35  C   UNL     1      -2.337  -6.281 -11.288  1.00  0.00     0.116 C 
BRANCH  35  36
ATOM     36  N   UNL     1      -0.969  -6.000 -11.704  1.00  0.00    -0.352 N 
ATOM     37  C   UNL     1      -0.426  -6.084 -12.967  1.00  0.00     0.251 C 
ATOM     38  H   UNL     1      -0.354  -5.715 -10.990  1.00  0.00     0.163 HD
ATOM     39  O   UNL     1       0.764  -5.886 -13.154  1.00  0.00    -0.269 OA
BRANCH  37  40
ATOM     40  C   UNL     1      -1.303  -6.468 -14.093  1.00  0.00     0.039 A 
ATOM     41  C   UNL     1      -0.914  -7.524 -14.921  1.00  0.00     0.014 A 
ATOM     42  C   UNL     1      -2.531  -5.831 -14.287  1.00  0.00     0.014 A 
ATOM     43  C   UNL     1      -1.797  -7.999 -15.893  1.00  0.00     0.010 A 
ATOM     44  C   UNL     1      -3.436  -6.351 -15.204  1.00  0.00     0.010 A 
ATOM     45  C   UNL     1      -3.082  -7.444 -16.011  1.00  0.00    -0.014 A 
BRANCH  45  46
ATOM     46  C   UNL     1      -4.079  -7.989 -16.965  1.00  0.00     0.031 A 
ATOM     47  C   UNL     1      -4.580  -7.132 -18.092  1.00  0.00     0.074 A 
ATOM     48  C   UNL     1      -4.600  -9.214 -16.761  1.00  0.00     0.049 A 
ATOM     49  N   UNL     1      -5.530  -7.374 -18.959  1.00  0.00    -0.248 NA
ATOM     50  C   UNL     1      -3.948  -5.811 -18.246  1.00  0.00     0.031 C 
ATOM     51  C   UNL     1      -4.229 -10.123 -15.675  1.00  0.00     0.029 A 
ATOM     52  N   UNL     1      -5.569  -9.900 -17.451  1.00  0.00    -0.354 N 
ATOM     53  C   UNL     1      -5.627  -6.230 -19.739  1.00  0.00     0.074 A 
ATOM     54  C   UNL     1      -4.671  -5.277 -19.219  1.00  0.00     0.031 C 
ATOM     55  C   UNL     1      -4.947 -11.253 -15.783  1.00  0.00     0.029 A 
ATOM     56  C   UNL     1      -5.856 -11.134 -16.918  1.00  0.00     0.049 A 
ATOM     57  H   UNL     1      -6.016  -9.542 -18.251  1.00  0.00     0.167 HD
ATOM     58  C   UNL     1      -6.429  -6.004 -20.807  1.00  0.00     0.037 A 
ATOM     59  C   UNL     1      -6.760 -12.057 -17.299  1.00  0.00     0.037 A 
ATOM     60  C   UNL     1      -7.348  -6.970 -21.346  1.00  0.00     0.049 A 
ATOM     61  C   UNL     1      -7.636 -11.780 -18.491  1.00  0.00     0.074 A 
ATOM     62  C   UNL     1      -8.146  -6.866 -22.472  1.00  0.00     0.029 A 
ATOM     63  N   UNL     1      -7.592  -8.220 -20.796  1.00  0.00    -0.354 N 
ATOM     64  N   UNL     1      -7.668 -10.724 -19.267  1.00  0.00    -0.248 NA
ATOM     65  C   UNL     1      -8.600 -12.826 -18.861  1.00  0.00     0.031 C 
ATOM     66  C   UNL     1      -8.905  -8.036 -22.579  1.00  0.00     0.029 A 
ATOM     67  C   UNL     1      -8.545  -8.888 -21.547  1.00  0.00     0.049 A 
ATOM     68  H   UNL     1      -7.153  -8.578 -19.991  1.00  0.00     0.167 HD
ATOM     69  C   UNL     1      -8.627 -10.991 -20.235  1.00  0.00     0.074 A 
ATOM     70  C   UNL     1      -9.149 -12.312 -19.953  1.00  0.00     0.031 C 
ATOM     71  C   UNL     1      -9.037 -10.211 -21.264  1.00  0.00     0.037 A 
BRANCH  58  72
ATOM     72  C   UNL     1      -6.346  -4.659 -21.466  1.00  0.00     0.064 A 
ATOM     73  C   UNL     1      -5.223  -4.273 -22.215  1.00  0.00     0.173 A 
ATOM     74  C   UNL     1      -7.420  -3.760 -21.383  1.00  0.00     0.173 A 
ATOM     75  F   UNL     1      -4.166  -5.092 -22.316  1.00  0.00    -0.203 F 
ATOM     76  C   UNL     1      -5.168  -3.026 -22.831  1.00  0.00     0.198 A 
ATOM     77  C   UNL     1      -7.372  -2.526 -22.025  1.00  0.00     0.198 A 
ATOM     78  F   UNL     1      -8.519  -4.081 -20.684  1.00  0.00    -0.203 F 
ATOM     79  F   UNL     1      -4.066  -2.661 -23.501  1.00  0.00    -0.200 F 
ATOM     80  C   UNL     1      -6.244  -2.157 -22.743  1.00  0.00     0.200 A 
ATOM     81  F   UNL     1      -8.419  -1.692 -21.949  1.00  0.00    -0.200 F 
ATOM     82  F   UNL     1      -6.192  -0.961 -23.344  1.00  0.00    -0.200 F 
ENDBRANCH  58  72
BRANCH  59  83
ATOM     83  C   UNL     1      -6.866 -13.344 -16.563  1.00  0.00     0.064 A 
ATOM     84  C   UNL     1      -6.459 -14.546 -17.160  1.00  0.00     0.173 A 
ATOM     85  C   UNL     1      -7.388 -13.406 -15.263  1.00  0.00     0.173 A 
ATOM     86  F   UNL     1      -5.974 -14.540 -18.411  1.00  0.00    -0.203 F 
ATOM     87  C   UNL     1      -6.589 -15.762 -16.494  1.00  0.00     0.198 A 
ATOM     88  C   UNL     1      -7.492 -14.621 -14.587  1.00  0.00     0.198 A 
ATOM     89  F   UNL     1      -7.789 -12.286 -14.646  1.00  0.00    -0.203 F 
ATOM     90  F   UNL     1      -6.236 -16.900 -17.108  1.00  0.00    -0.200 F 
ATOM     91  C   UNL     1      -7.101 -15.798 -15.206  1.00  0.00     0.200 A 
ATOM     92  F   UNL     1      -7.977 -14.651 -13.338  1.00  0.00    -0.200 F 
ATOM     93  F   UNL     1      -7.227 -16.969 -14.566  1.00  0.00    -0.200 F 
ENDBRANCH  59  83
BRANCH  71  94
ATOM     94  C   UNL     1     -10.067 -10.781 -22.195  1.00  0.00     0.064 A 
ATOM     95  C   UNL     1     -11.409 -10.918 -21.814  1.00  0.00     0.173 A 
ATOM     96  C   UNL     1      -9.712 -11.144 -23.503  1.00  0.00     0.173 A 
ATOM     97  F   UNL     1     -11.794 -10.599 -20.569  1.00  0.00    -0.203 F 
ATOM     98  C   UNL     1     -12.357 -11.414 -22.706  1.00  0.00     0.198 A 
ATOM     99  C   UNL     1     -10.668 -11.612 -24.400  1.00  0.00     0.198 A 
ATOM    100  F   UNL     1      -8.442 -11.026 -23.917  1.00  0.00    -0.203 F 
ATOM    101  F   UNL     1     -13.627 -11.573 -22.309  1.00  0.00    -0.200 F 
ATOM    102  C   UNL     1     -11.988 -11.752 -23.999  1.00  0.00     0.200 A 
ATOM    103  F   UNL     1     -10.312 -11.926 -25.654  1.00  0.00    -0.200 F 
ATOM    104  F   UNL     1     -12.904 -12.217 -24.859  1.00  0.00    -0.200 F 
ENDBRANCH  71  94
ENDBRANCH  45  46
ENDBRANCH  37  40
ENDBRANCH  35  36
ENDBRANCH  34  35
ENDBRANCH  33  34
ENDBRANCH  32  33
ENDBRANCH   3  32
TORSDOF 17
