REMARK SMILES COC[C@H]1CC[N@@H+](Cc2ccc(C(=O)NCCCCNC(=O)c3ccc(-c4c5nc(c(-c6c(F)c(F)c(F)c(F)c6F)c6ccc([nH]6)c(-c6c(F)c(F)c(F)c(F)c6F)c6nc(c(-c7c(F)c(F)c(F)c(F)c7F)c7ccc4[nH]7)C=C6)C=C5)cc3)cn2)C1
REMARK SMILES IDX 16 1 15 2 13 3 14 4 12 6 9 7 10 8 87 9 11 10 86 11 8 12 7 13
REMARK SMILES IDX 4 14 5 15 88 16 6 17 3 19 2 20 1 21 17 22 18 23 19 24 20 25
REMARK SMILES IDX 21 26 22 28 23 29 24 30 85 31 25 32 84 33 26 34 27 35 28 36
REMARK SMILES IDX 78 37 29 38 83 39 77 40 79 41 30 42 82 43 76 44 75 45 31 47
REMARK SMILES IDX 63 48 43 49 62 50 44 51 47 52 61 53 80 54 45 55 46 56 60 58
REMARK SMILES IDX 81 59 48 60 32 61 33 62 41 63 34 64 35 65 39 66 42 67 36 68
REMARK SMILES IDX 37 69 40 70 38 71 64 72 65 73 73 74 66 75 67 76 71 77 74 78
REMARK SMILES IDX 68 79 69 80 72 81 70 82 49 83 50 84 58 85 51 86 52 87 56 88
REMARK SMILES IDX 59 89 53 90 54 91 57 92 55 93
REMARK H PARENT 15 5 7 18 20 27 79 46 47 57
REMARK Flexibility Score: inf
ROOT
ATOM      1  C   UNL     1       0.442   2.180   4.795  1.00  0.00     0.116 C 
ENDROOT
BRANCH   1   2
ATOM      2  N   UNL     1      -0.918   2.397   5.256  1.00  0.00    -0.352 N 
ATOM      3  C   UNL     1      -1.943   3.138   4.718  1.00  0.00     0.252 C 
ATOM      4  O   UNL     1      -3.054   3.078   5.238  1.00  0.00    -0.269 OA
ATOM      5  H   UNL     1      -1.144   1.936   6.096  1.00  0.00     0.163 HD
BRANCH   3   6
ATOM      6  C   UNL     1      -1.764   3.939   3.490  1.00  0.00     0.058 A 
ATOM      7  C   UNL     1      -1.532   5.144   1.016  1.00  0.00     0.095 A 
ATOM      8  C   UNL     1      -0.508   5.298   1.949  1.00  0.00     0.030 A 
ATOM      9  N   UNL     1      -2.691   4.506   1.325  1.00  0.00    -0.255 NA
ATOM     10  C   UNL     1      -0.633   4.697   3.201  1.00  0.00     0.017 A 
ATOM     11  C   UNL     1      -2.785   3.931   2.551  1.00  0.00     0.125 A 
BRANCH   7  12
ATOM     12  C   UNL     1      -1.343   5.630  -0.413  1.00  0.00     0.319 C 
BRANCH  12  13
ATOM     13  N   UNL     1      -0.815   4.670  -1.407  1.00  0.00    -0.330 N 
ATOM     14  C   UNL     1       0.283   2.593  -0.796  1.00  0.00     0.076 C 
ATOM     15  C   UNL     1      -1.227   2.405  -0.830  1.00  0.00     0.073 C 
ATOM     16  C   UNL     1       0.495   4.087  -1.094  1.00  0.00     0.268 C 
ATOM     17  C   UNL     1      -1.720   3.553  -1.688  1.00  0.00     0.263 C 
ATOM     18  H   UNL     1      -0.717   5.273  -2.224  1.00  0.00     0.348 HD
BRANCH  14  19
ATOM     19  C   UNL     1       0.977   2.161   0.497  1.00  0.00     0.169 C 
BRANCH  19  20
ATOM     20  O   UNL     1       0.803   0.787   0.835  1.00  0.00    -0.384 OA
ATOM     21  C   UNL     1      -0.406   0.497   1.525  1.00  0.00     0.194 C 
ENDBRANCH  19  20
ENDBRANCH  14  19
ENDBRANCH  12  13
ENDBRANCH   7  12
ENDBRANCH   3   6
ENDBRANCH   1   2
BRANCH   1  22
ATOM     22  C   UNL     1       1.446   2.980   5.623  1.00  0.00     0.023 C 
BRANCH  22  23
ATOM     23  C   UNL     1       1.677   2.436   7.033  1.00  0.00     0.023 C 
BRANCH  23  24
ATOM     24  C   UNL     1       2.251   1.026   7.097  1.00  0.00     0.116 C 
BRANCH  24  25
ATOM     25  N   UNL     1       3.524   0.895   6.408  1.00  0.00    -0.352 N 
ATOM     26  C   UNL     1       4.659   0.225   6.798  1.00  0.00     0.251 C 
ATOM     27  H   UNL     1       3.582   1.352   5.537  1.00  0.00     0.163 HD
ATOM     28  O   UNL     1       5.690   0.332   6.149  1.00  0.00    -0.269 OA
BRANCH  26  29
ATOM     29  C   UNL     1       4.639  -0.602   8.025  1.00  0.00     0.039 A 
ATOM     30  C   UNL     1       5.717  -0.513   8.909  1.00  0.00     0.014 A 
ATOM     31  C   UNL     1       3.569  -1.455   8.306  1.00  0.00     0.014 A 
ATOM     32  C   UNL     1       5.693  -1.237  10.102  1.00  0.00     0.010 A 
ATOM     33  C   UNL     1       3.508  -2.110   9.533  1.00  0.00     0.010 A 
ATOM     34  C   UNL     1       4.573  -2.015  10.440  1.00  0.00    -0.014 A 
BRANCH  34  35
ATOM     35  C   UNL     1       4.511  -2.741  11.734  1.00  0.00     0.031 A 
ATOM     36  C   UNL     1       4.454  -4.243  11.758  1.00  0.00     0.074 A 
ATOM     37  C   UNL     1       4.464  -2.044  12.886  1.00  0.00     0.049 A 
ATOM     38  N   UNL     1       4.379  -5.053  12.784  1.00  0.00    -0.248 NA
ATOM     39  C   UNL     1       4.454  -4.928  10.455  1.00  0.00     0.031 C 
ATOM     40  C   UNL     1       4.458  -0.584  12.991  1.00  0.00     0.029 A 
ATOM     41  N   UNL     1       4.409  -2.470  14.190  1.00  0.00    -0.354 N 
ATOM     42  C   UNL     1       4.314  -6.334  12.252  1.00  0.00     0.074 A 
ATOM     43  C   UNL     1       4.294  -6.193  10.813  1.00  0.00     0.031 C 
ATOM     44  C   UNL     1       4.438  -0.236  14.287  1.00  0.00     0.029 A 
ATOM     45  C   UNL     1       4.391  -1.445  15.104  1.00  0.00     0.049 A 
ATOM     46  H   UNL     1       4.385  -3.421  14.445  1.00  0.00     0.167 HD
ATOM     47  C   UNL     1       4.302  -7.521  12.904  1.00  0.00     0.037 A 
ATOM     48  C   UNL     1       4.341  -1.478  16.449  1.00  0.00     0.037 A 
ATOM     49  C   UNL     1       4.345  -7.656  14.336  1.00  0.00     0.049 A 
ATOM     50  C   UNL     1       4.317  -2.811  17.149  1.00  0.00     0.074 A 
ATOM     51  C   UNL     1       4.399  -8.813  15.093  1.00  0.00     0.029 A 
ATOM     52  N   UNL     1       4.332  -6.595  15.230  1.00  0.00    -0.354 N 
ATOM     53  N   UNL     1       4.340  -4.017  16.635  1.00  0.00    -0.248 NA
ATOM     54  C   UNL     1       4.268  -2.786  18.617  1.00  0.00     0.031 C 
ATOM     55  C   UNL     1       4.362  -8.455  16.444  1.00  0.00     0.029 A 
ATOM     56  C   UNL     1       4.348  -7.072  16.531  1.00  0.00     0.049 A 
ATOM     57  H   UNL     1       4.314  -5.643  14.977  1.00  0.00     0.167 HD
ATOM     58  C   UNL     1       4.342  -4.892  17.714  1.00  0.00     0.074 A 
ATOM     59  C   UNL     1       4.333  -4.077  18.911  1.00  0.00     0.031 C 
ATOM     60  C   UNL     1       4.349  -6.247  17.713  1.00  0.00     0.037 A 
BRANCH  47  61
ATOM     61  C   UNL     1       4.243  -8.771  12.073  1.00  0.00     0.064 A 
ATOM     62  C   UNL     1       5.322  -9.174  11.269  1.00  0.00     0.173 A 
ATOM     63  C   UNL     1       3.110  -9.597  12.108  1.00  0.00     0.173 A 
ATOM     64  F   UNL     1       6.426  -8.416  11.191  1.00  0.00    -0.203 F 
ATOM     65  C   UNL     1       5.254 -10.339  10.509  1.00  0.00     0.198 A 
ATOM     66  C   UNL     1       3.059 -10.778  11.372  1.00  0.00     0.198 A 
ATOM     67  F   UNL     1       2.052  -9.264  12.863  1.00  0.00    -0.203 F 
ATOM     68  F   UNL     1       6.276 -10.674   9.708  1.00  0.00    -0.200 F 
ATOM     69  C   UNL     1       4.127 -11.144  10.567  1.00  0.00     0.200 A 
ATOM     70  F   UNL     1       1.975 -11.563  11.441  1.00  0.00    -0.200 F 
ATOM     71  F   UNL     1       4.067 -12.269   9.841  1.00  0.00    -0.200 F 
ENDBRANCH  47  61
BRANCH  48  72
ATOM     72  C   UNL     1       4.341  -0.210  17.227  1.00  0.00     0.064 A 
ATOM     73  C   UNL     1       5.437   0.145  18.026  1.00  0.00     0.173 A 
ATOM     74  C   UNL     1       3.245   0.665  17.198  1.00  0.00     0.173 A 
ATOM     75  F   UNL     1       6.501  -0.668  18.101  1.00  0.00    -0.203 F 
ATOM     76  C   UNL     1       5.427   1.313  18.785  1.00  0.00     0.198 A 
ATOM     77  C   UNL     1       3.249   1.848  17.934  1.00  0.00     0.198 A 
ATOM     78  F   UNL     1       2.173   0.376  16.446  1.00  0.00    -0.203 F 
ATOM     79  F   UNL     1       6.466   1.601  19.580  1.00  0.00    -0.200 F 
ATOM     80  C   UNL     1       4.335   2.166  18.735  1.00  0.00     0.200 A 
ATOM     81  F   UNL     1       2.199   2.678  17.870  1.00  0.00    -0.200 F 
ATOM     82  F   UNL     1       4.327   3.291  19.464  1.00  0.00    -0.200 F 
ENDBRANCH  48  72
BRANCH  60  83
ATOM     83  C   UNL     1       4.390  -6.938  19.046  1.00  0.00     0.064 A 
ATOM     84  C   UNL     1       3.288  -6.937  19.913  1.00  0.00     0.173 A 
ATOM     85  C   UNL     1       5.535  -7.647  19.442  1.00  0.00     0.173 A 
ATOM     86  F   UNL     1       2.174  -6.263  19.589  1.00  0.00    -0.203 F 
ATOM     87  C   UNL     1       3.341  -7.594  21.140  1.00  0.00     0.198 A 
ATOM     88  C   UNL     1       5.573  -8.332  20.653  1.00  0.00     0.198 A 
ATOM     89  F   UNL     1       6.615  -7.687  18.646  1.00  0.00    -0.203 F 
ATOM     90  F   UNL     1       2.295  -7.535  21.975  1.00  0.00    -0.200 F 
ATOM     91  C   UNL     1       4.479  -8.298  21.504  1.00  0.00     0.200 A 
ATOM     92  F   UNL     1       6.667  -9.024  20.995  1.00  0.00    -0.200 F 
ATOM     93  F   UNL     1       4.525  -8.938  22.681  1.00  0.00    -0.200 F 
ENDBRANCH  60  83
ENDBRANCH  34  35
ENDBRANCH  26  29
ENDBRANCH  24  25
ENDBRANCH  23  24
ENDBRANCH  22  23
ENDBRANCH   1  22
TORSDOF 15
