REMARK SMILES O=C(NCCCCNC(=O)c1ccc([S@@](=O)[C@H]2CCOC3(CCCC3)C2)cc1)c1ccc(-c2c3nc(c(-c4c(F)c(F)c(F)c(F)c4F)c4ccc([nH]4)c(-c4c(F)c(F)c(F)c(F)c4F)c4nc(c(-c5c(F)c(F)c(F)c(F)c5F)c5ccc2[nH]5)C=C4)C=C3)cc1
REMARK SMILES IDX 5 1 4 2 3 3 1 4 2 5 29 7 30 8 91 9 31 10 90 11 32 12 33 13
REMARK SMILES IDX 34 14 84 15 35 16 89 17 83 18 85 19 36 20 88 21 82 22 81 23
REMARK SMILES IDX 37 25 69 26 49 27 68 28 50 29 53 30 67 31 86 32 51 33 52 34
REMARK SMILES IDX 66 36 87 37 54 38 38 39 39 40 47 41 40 42 41 43 45 44 48 45
REMARK SMILES IDX 42 46 43 47 46 48 44 49 70 50 71 51 79 52 72 53 73 54 77 55
REMARK SMILES IDX 80 56 74 57 75 58 78 59 76 60 55 61 56 62 64 63 57 64 58 65
REMARK SMILES IDX 62 66 65 67 59 68 60 69 63 70 61 71 6 72 7 73 8 74 9 75
REMARK SMILES IDX 10 77 11 78 12 79 28 80 13 81 27 82 14 83 15 84 16 85 17 86
REMARK SMILES IDX 18 87 26 88 19 89 21 90 20 91 22 92 25 93 23 94 24 95
REMARK H PARENT 3 6 85 24 53 35 8 76
REMARK Flexibility Score: inf
ROOT
ATOM      1  C   UNL     1      -4.912  15.439   4.222  1.00  0.00     0.023 C 
ENDROOT
BRANCH   1   2
ATOM      2  C   UNL     1      -6.171  14.952   4.925  1.00  0.00     0.116 C 
BRANCH   2   3
ATOM      3  N   UNL     1      -6.287  15.445   6.288  1.00  0.00    -0.352 N 
ATOM      4  O   UNL     1      -7.215  16.584   8.005  1.00  0.00    -0.269 OA
ATOM      5  C   UNL     1      -7.334  16.112   6.878  1.00  0.00     0.251 C 
ATOM      6  H   UNL     1      -5.509  15.278   6.868  1.00  0.00     0.163 HD
BRANCH   5   7
ATOM      7  C   UNL     1      -8.602  16.281   6.137  1.00  0.00     0.039 A 
ATOM      8  C   UNL     1      -9.174  15.204   5.457  1.00  0.00     0.014 A 
ATOM      9  C   UNL     1      -9.225  17.533   6.125  1.00  0.00     0.014 A 
ATOM     10  C   UNL     1     -10.291  15.409   4.657  1.00  0.00     0.010 A 
ATOM     11  C   UNL     1     -10.399  17.716   5.391  1.00  0.00     0.010 A 
ATOM     12  C   UNL     1     -10.930  16.660   4.634  1.00  0.00    -0.014 A 
BRANCH  12  13
ATOM     13  C   UNL     1     -12.208  16.801   3.894  1.00  0.00     0.031 A 
ATOM     14  C   UNL     1     -12.327  17.695   2.694  1.00  0.00     0.074 A 
ATOM     15  C   UNL     1     -13.269  16.087   4.321  1.00  0.00     0.049 A 
ATOM     16  N   UNL     1     -13.373  17.918   1.937  1.00  0.00    -0.248 NA
ATOM     17  C   UNL     1     -11.126  18.440   2.289  1.00  0.00     0.031 C 
ATOM     18  C   UNL     1     -13.270  15.204   5.490  1.00  0.00     0.029 A 
ATOM     19  N   UNL     1     -14.541  15.978   3.822  1.00  0.00    -0.354 N 
ATOM     20  C   UNL     1     -12.964  18.839   0.982  1.00  0.00     0.074 A 
ATOM     21  C   UNL     1     -11.577  19.148   1.261  1.00  0.00     0.031 C 
ATOM     22  C   UNL     1     -14.469  14.616   5.597  1.00  0.00     0.029 A 
ATOM     23  C   UNL     1     -15.340  15.127   4.546  1.00  0.00     0.049 A 
ATOM     24  H   UNL     1     -14.851  16.463   3.024  1.00  0.00     0.167 HD
ATOM     25  C   UNL     1     -13.684  19.369  -0.036  1.00  0.00     0.037 A 
ATOM     26  C   UNL     1     -16.639  14.811   4.396  1.00  0.00     0.037 A 
ATOM     27  C   UNL     1     -15.057  19.035  -0.320  1.00  0.00     0.049 A 
ATOM     28  C   UNL     1     -17.410  15.431   3.268  1.00  0.00     0.074 A 
ATOM     29  C   UNL     1     -15.852  19.472  -1.366  1.00  0.00     0.029 A 
ATOM     30  N   UNL     1     -15.842  18.188   0.449  1.00  0.00    -0.354 N 
ATOM     31  N   UNL     1     -16.995  16.258   2.340  1.00  0.00    -0.248 NA
ATOM     32  C   UNL     1     -18.832  15.077   3.168  1.00  0.00     0.031 C 
ATOM     33  C   UNL     1     -17.131  18.930  -1.203  1.00  0.00     0.029 A 
ATOM     34  C   UNL     1     -17.121  18.116  -0.083  1.00  0.00     0.049 A 
ATOM     35  H   UNL     1     -15.536  17.708   1.252  1.00  0.00     0.167 HD
ATOM     36  C   UNL     1     -18.099  16.517   1.542  1.00  0.00     0.074 A 
ATOM     37  C   UNL     1     -19.194  15.734   2.076  1.00  0.00     0.031 C 
ATOM     38  C   UNL     1     -18.199  17.335   0.467  1.00  0.00     0.037 A 
BRANCH  25  39
ATOM     39  C   UNL     1     -13.020  20.380  -0.925  1.00  0.00     0.064 A 
ATOM     40  C   UNL     1     -12.070  20.005  -1.885  1.00  0.00     0.173 A 
ATOM     41  C   UNL     1     -13.414  21.726  -0.881  1.00  0.00     0.173 A 
ATOM     42  F   UNL     1     -11.655  18.732  -1.964  1.00  0.00    -0.203 F 
ATOM     43  C   UNL     1     -11.535  20.942  -2.766  1.00  0.00     0.198 A 
ATOM     44  C   UNL     1     -12.894  22.656  -1.777  1.00  0.00     0.198 A 
ATOM     45  F   UNL     1     -14.325  22.135   0.015  1.00  0.00    -0.203 F 
ATOM     46  F   UNL     1     -10.614  20.566  -3.665  1.00  0.00    -0.200 F 
ATOM     47  C   UNL     1     -11.954  22.264  -2.719  1.00  0.00     0.200 A 
ATOM     48  F   UNL     1     -13.311  23.929  -1.738  1.00  0.00    -0.200 F 
ATOM     49  F   UNL     1     -11.454  23.159  -3.581  1.00  0.00    -0.200 F 
ENDBRANCH  25  39
BRANCH  26  50
ATOM     50  C   UNL     1     -17.291  13.884   5.356  1.00  0.00     0.064 A 
ATOM     51  C   UNL     1     -17.734  12.617   4.952  1.00  0.00     0.173 A 
ATOM     52  C   UNL     1     -17.489  14.249   6.696  1.00  0.00     0.173 A 
ATOM     53  F   UNL     1     -17.584  12.230   3.677  1.00  0.00    -0.203 F 
ATOM     54  C   UNL     1     -18.371  11.761   5.848  1.00  0.00     0.198 A 
ATOM     55  C   UNL     1     -18.096  13.379   7.598  1.00  0.00     0.198 A 
ATOM     56  F   UNL     1     -17.077  15.448   7.133  1.00  0.00    -0.203 F 
ATOM     57  F   UNL     1     -18.831  10.576   5.424  1.00  0.00    -0.200 F 
ATOM     58  C   UNL     1     -18.546  12.140   7.170  1.00  0.00     0.200 A 
ATOM     59  F   UNL     1     -18.246  13.743   8.878  1.00  0.00    -0.200 F 
ATOM     60  F   UNL     1     -19.156  11.314   8.031  1.00  0.00    -0.200 F 
ENDBRANCH  26  50
BRANCH  38  61
ATOM     61  C   UNL     1     -19.538  17.412  -0.204  1.00  0.00     0.064 A 
ATOM     62  C   UNL     1     -20.619  18.075   0.395  1.00  0.00     0.173 A 
ATOM     63  C   UNL     1     -19.737  16.832  -1.466  1.00  0.00     0.173 A 
ATOM     64  F   UNL     1     -20.482  18.628   1.609  1.00  0.00    -0.203 F 
ATOM     65  C   UNL     1     -21.860  18.130  -0.233  1.00  0.00     0.198 A 
ATOM     66  C   UNL     1     -20.971  16.914  -2.104  1.00  0.00     0.198 A 
ATOM     67  F   UNL     1     -18.732  16.190  -2.082  1.00  0.00    -0.203 F 
ATOM     68  F   UNL     1     -22.893  18.723   0.381  1.00  0.00    -0.200 F 
ATOM     69  C   UNL     1     -22.033  17.555  -1.484  1.00  0.00     0.200 A 
ATOM     70  F   UNL     1     -21.134  16.369  -3.317  1.00  0.00    -0.200 F 
ATOM     71  F   UNL     1     -23.228  17.611  -2.088  1.00  0.00    -0.200 F 
ENDBRANCH  38  61
ENDBRANCH  12  13
ENDBRANCH   5   7
ENDBRANCH   2   3
ENDBRANCH   1   2
BRANCH   1  72
ATOM     72  C   UNL     1      -3.601  14.972   4.847  1.00  0.00     0.023 C 
BRANCH  72  73
ATOM     73  C   UNL     1      -3.489  13.465   5.062  1.00  0.00     0.116 C 
BRANCH  73  74
ATOM     74  N   UNL     1      -3.605  12.718   3.819  1.00  0.00    -0.352 N 
ATOM     75  C   UNL     1      -2.691  11.873   3.239  1.00  0.00     0.251 C 
ATOM     76  H   UNL     1      -4.450  12.833   3.328  1.00  0.00     0.163 HD
ATOM     77  O   UNL     1      -2.868  11.429   2.111  1.00  0.00    -0.269 OA
BRANCH  75  78
ATOM     78  C   UNL     1      -1.472  11.521   3.988  1.00  0.00     0.039 A 
ATOM     79  C   UNL     1      -0.225  11.822   3.435  1.00  0.00     0.015 A 
ATOM     80  C   UNL     1      -1.571  10.923   5.247  1.00  0.00     0.015 A 
ATOM     81  C   UNL     1       0.933  11.584   4.178  1.00  0.00     0.018 A 
ATOM     82  C   UNL     1      -0.415  10.690   5.986  1.00  0.00     0.018 A 
ATOM     83  C   UNL     1       0.841  11.018   5.458  1.00  0.00     0.039 A 
BRANCH  83  84
ATOM     84  S   UNL     1       2.325  10.736   6.438  1.00  0.00     0.056 S 
ATOM     85  O   UNL     1       1.837  10.411   7.819  1.00  0.00    -0.254 OA
BRANCH  84  86
ATOM     86  C   UNL     1       2.998   9.202   5.681  1.00  0.00     0.089 C 
ATOM     87  C   UNL     1       3.531   8.281   6.782  1.00  0.00     0.046 C 
ATOM     88  C   UNL     1       2.038   8.410   4.798  1.00  0.00     0.053 C 
ATOM     89  C   UNL     1       4.129   7.015   6.192  1.00  0.00     0.162 C 
ATOM     90  C   UNL     1       2.723   7.160   4.228  1.00  0.00     0.069 C 
ATOM     91  O   UNL     1       3.232   6.358   5.300  1.00  0.00    -0.375 OA
ATOM     92  C   UNL     1       1.706   6.290   3.449  1.00  0.00     0.035 C 
ATOM     93  C   UNL     1       3.823   7.497   3.194  1.00  0.00     0.035 C 
ATOM     94  C   UNL     1       2.163   6.304   1.995  1.00  0.00     0.003 C 
ATOM     95  C   UNL     1       3.667   6.452   2.099  1.00  0.00     0.003 C 
ENDBRANCH  84  86
ENDBRANCH  83  84
ENDBRANCH  75  78
ENDBRANCH  73  74
ENDBRANCH  72  73
ENDBRANCH   1  72
TORSDOF 13
