REMARK SMILES O=C(CCC(=O)/[NH+]=C1\S[C@H]2CS(=O)(=O)C[C@@H]2N1c1ccc(Oc2ccccc2)cc1)NCCCCNC(=O)c1ccc(-c2c3nc(c(-c4c(F)c(F)c(F)c(F)c4F)c4ccc([nH]4)c(-c4c(F)c(F)c(F)c(F)c4F)c4nc(c(-c5c(F)c(F)c(F)c(F)c5F)c5ccc2[nH]5)C=C4)C=C3)cc1
REMARK SMILES IDX 32 1 31 2 2 3 1 4 3 6 4 7 5 8 6 9 7 10 8 11 9 13 17 14 10 15
REMARK SMILES IDX 16 16 11 17 15 18 12 19 13 20 14 21 18 22 19 23 30 24 20 25
REMARK SMILES IDX 29 26 21 27 22 28 23 29 24 30 28 31 25 32 27 33 26 34 33 35
REMARK SMILES IDX 34 36 35 37 36 38 37 39 38 41 39 42 40 43 101 44 41 45
REMARK SMILES IDX 100 46 42 47 43 48 44 49 94 50 45 51 99 52 93 53 95 54 46 55
REMARK SMILES IDX 98 56 92 57 91 58 47 60 79 61 59 62 78 63 60 64 63 65 77 66
REMARK SMILES IDX 96 67 61 68 62 69 76 71 97 72 64 73 48 74 49 75 57 76 50 77
REMARK SMILES IDX 51 78 55 79 58 80 52 81 53 82 56 83 54 84 80 85 81 86 89 87
REMARK SMILES IDX 82 88 83 89 87 90 90 91 84 92 85 93 88 94 86 95 65 96 66 97
REMARK SMILES IDX 74 98 67 99 68 100 72 101 75 102 69 103 70 104 73 105 71 106
REMARK H PARENT 31 5 7 12 36 40 95 59 63 70
REMARK Flexibility Score: inf
ROOT
ATOM      1  C   UNL     1       2.063  -2.090  -1.298  1.00  0.00     0.116 C 
ENDROOT
BRANCH   1   2
ATOM      2  N   UNL     1       3.500  -2.038  -1.094  1.00  0.00    -0.356 N 
ATOM      3  C   UNL     1       4.224  -1.682  -0.002  1.00  0.00     0.220 C 
ATOM      4  O   UNL     1       5.452  -1.785  -0.048  1.00  0.00    -0.275 OA
ATOM      5  H   UNL     1       4.037  -2.304  -1.875  1.00  0.00     0.163 HD
BRANCH   3   6
ATOM      6  C   UNL     1       3.536  -1.179   1.239  1.00  0.00     0.112 C 
BRANCH   6   7
ATOM      7  C   UNL     1       3.260   0.314   1.359  1.00  0.00     0.138 C 
BRANCH   7   8
ATOM      8  C   UNL     1       3.186   1.259   0.162  1.00  0.00     0.308 C 
ATOM      9  O   UNL     1       2.413   2.215   0.217  1.00  0.00    -0.247 OA
ATOM     10  N   UNL     1       3.926   1.028  -0.962  1.00  0.00    -0.204 N 
ATOM     11  C   UNL     1       5.213   1.117  -0.984  1.00  0.00     0.319 C 
ATOM     12  H   UNL     1       3.458   0.783  -1.792  1.00  0.00     0.316 HD
ATOM     13  S   UNL     1       6.224   1.459   0.450  1.00  0.00    -0.029 SA
ATOM     14  N   UNL     1       6.035   0.867  -2.090  1.00  0.00    -0.217 N 
ATOM     15  C   UNL     1       7.729   1.303  -0.527  1.00  0.00     0.120 C 
ATOM     16  C   UNL     1       7.341   0.365  -1.680  1.00  0.00     0.212 C 
ATOM     17  C   UNL     1       8.967   0.688   0.067  1.00  0.00     0.156 C 
ATOM     18  C   UNL     1       8.542   0.407  -2.597  1.00  0.00     0.188 C 
ATOM     19  S   UNL     1       9.910   0.332  -1.424  1.00  0.00     0.155 S 
ATOM     20  O   UNL     1      10.788   1.457  -1.687  1.00  0.00    -0.229 OA
ATOM     21  O   UNL     1      10.391  -1.026  -1.355  1.00  0.00    -0.229 OA
BRANCH  14  22
ATOM     22  C   UNL     1       5.624   0.972  -3.419  1.00  0.00     0.128 A 
ATOM     23  C   UNL     1       5.971   0.034  -4.402  1.00  0.00     0.056 A 
ATOM     24  C   UNL     1       4.795   2.039  -3.813  1.00  0.00     0.056 A 
ATOM     25  C   UNL     1       5.504   0.160  -5.718  1.00  0.00     0.051 A 
ATOM     26  C   UNL     1       4.316   2.166  -5.120  1.00  0.00     0.051 A 
ATOM     27  C   UNL     1       4.672   1.223  -6.075  1.00  0.00     0.127 A 
BRANCH  27  28
ATOM     28  O   UNL     1       4.135   1.179  -7.334  1.00  0.00    -0.457 OA
BRANCH  28  29
ATOM     29  C   UNL     1       3.810   2.348  -7.987  1.00  0.00     0.127 A 
ATOM     30  C   UNL     1       2.604   2.338  -8.696  1.00  0.00     0.047 A 
ATOM     31  C   UNL     1       4.716   3.395  -8.162  1.00  0.00     0.047 A 
ATOM     32  C   UNL     1       2.315   3.355  -9.603  1.00  0.00     0.004 A 
ATOM     33  C   UNL     1       4.407   4.432  -9.047  1.00  0.00     0.004 A 
ATOM     34  C   UNL     1       3.217   4.402  -9.779  1.00  0.00     0.000 A 
ENDBRANCH  28  29
ENDBRANCH  27  28
ENDBRANCH  14  22
ENDBRANCH   7   8
ENDBRANCH   6   7
ENDBRANCH   3   6
ENDBRANCH   1   2
BRANCH   1  35
ATOM     35  C   UNL     1       1.507  -0.944  -2.145  1.00  0.00     0.023 C 
BRANCH  35  36
ATOM     36  C   UNL     1       2.302  -0.618  -3.408  1.00  0.00     0.023 C 
BRANCH  36  37
ATOM     37  C   UNL     1       2.409  -1.735  -4.432  1.00  0.00     0.116 C 
BRANCH  37  38
ATOM     38  N   UNL     1       1.141  -2.013  -5.074  1.00  0.00    -0.352 N 
ATOM     39  C   UNL     1       0.811  -2.051  -6.405  1.00  0.00     0.251 C 
ATOM     40  H   UNL     1       0.397  -2.205  -4.457  1.00  0.00     0.163 HD
ATOM     41  O   UNL     1      -0.377  -2.091  -6.719  1.00  0.00    -0.269 OA
BRANCH  39  42
ATOM     42  C   UNL     1       1.845  -2.038  -7.473  1.00  0.00     0.039 A 
ATOM     43  C   UNL     1       1.526  -1.429  -8.693  1.00  0.00     0.014 A 
ATOM     44  C   UNL     1       3.083  -2.672  -7.333  1.00  0.00     0.014 A 
ATOM     45  C   UNL     1       2.449  -1.415  -9.744  1.00  0.00     0.010 A 
ATOM     46  C   UNL     1       4.032  -2.596  -8.354  1.00  0.00     0.010 A 
ATOM     47  C   UNL     1       3.720  -1.979  -9.576  1.00  0.00    -0.014 A 
BRANCH  47  48
ATOM     48  C   UNL     1       4.721  -1.979 -10.678  1.00  0.00     0.031 A 
ATOM     49  C   UNL     1       5.110  -3.267 -11.328  1.00  0.00     0.074 A 
ATOM     50  C   UNL     1       5.313  -0.837 -11.074  1.00  0.00     0.049 A 
ATOM     51  N   UNL     1       5.976  -3.471 -12.286  1.00  0.00    -0.248 NA
ATOM     52  C   UNL     1       4.440  -4.483 -10.845  1.00  0.00     0.031 C 
ATOM     53  C   UNL     1       4.985   0.470 -10.539  1.00  0.00     0.029 A 
ATOM     54  N   UNL     1       6.305  -0.571 -11.983  1.00  0.00    -0.354 N 
ATOM     55  C   UNL     1       5.933  -4.830 -12.541  1.00  0.00     0.074 A 
ATOM     56  C   UNL     1       5.023  -5.417 -11.580  1.00  0.00     0.031 C 
ATOM     57  C   UNL     1       5.774   1.404 -11.084  1.00  0.00     0.029 A 
ATOM     58  C   UNL     1       6.678   0.754 -12.017  1.00  0.00     0.049 A 
ATOM     59  H   UNL     1       6.712  -1.261 -12.556  1.00  0.00     0.167 HD
ATOM     60  C   UNL     1       6.566  -5.514 -13.521  1.00  0.00     0.037 A 
ATOM     61  C   UNL     1       7.635   1.385 -12.721  1.00  0.00     0.037 A 
ATOM     62  C   UNL     1       7.477  -4.916 -14.460  1.00  0.00     0.049 A 
ATOM     63  C   UNL     1       8.399   0.587 -13.733  1.00  0.00     0.074 A 
ATOM     64  C   UNL     1       8.151  -5.515 -15.508  1.00  0.00     0.029 A 
ATOM     65  N   UNL     1       7.855  -3.579 -14.454  1.00  0.00    -0.354 N 
ATOM     66  N   UNL     1       8.293  -0.688 -14.019  1.00  0.00    -0.248 NA
ATOM     67  C   UNL     1       9.378   1.311 -14.551  1.00  0.00     0.031 C 
ATOM     68  C   UNL     1       8.982  -4.556 -16.097  1.00  0.00     0.029 A 
ATOM     69  C   UNL     1       8.782  -3.343 -15.458  1.00  0.00     0.049 A 
ATOM     70  H   UNL     1       7.514  -2.898 -13.829  1.00  0.00     0.167 HD
ATOM     71  C   UNL     1       9.151  -0.912 -15.081  1.00  0.00     0.074 A 
ATOM     72  C   UNL     1       9.770   0.363 -15.390  1.00  0.00     0.031 C 
ATOM     73  C   UNL     1       9.392  -2.067 -15.747  1.00  0.00     0.037 A 
BRANCH  60  74
ATOM     74  C   UNL     1       6.288  -6.985 -13.604  1.00  0.00     0.064 A 
ATOM     75  C   UNL     1       5.029  -7.474 -13.989  1.00  0.00     0.173 A 
ATOM     76  C   UNL     1       7.282  -7.917 -13.276  1.00  0.00     0.173 A 
ATOM     77  F   UNL     1       4.037  -6.623 -14.291  1.00  0.00    -0.203 F 
ATOM     78  C   UNL     1       4.766  -8.841 -14.007  1.00  0.00     0.198 A 
ATOM     79  C   UNL     1       7.025  -9.284 -13.326  1.00  0.00     0.198 A 
ATOM     80  F   UNL     1       8.500  -7.501 -12.896  1.00  0.00    -0.203 F 
ATOM     81  F   UNL     1       3.538  -9.282 -14.314  1.00  0.00    -0.200 F 
ATOM     82  C   UNL     1       5.766  -9.744 -13.680  1.00  0.00     0.200 A 
ATOM     83  F   UNL     1       7.994 -10.157 -13.015  1.00  0.00    -0.200 F 
ATOM     84  F   UNL     1       5.511 -11.060 -13.692  1.00  0.00    -0.200 F 
ENDBRANCH  60  74
BRANCH  61  85
ATOM     85  C   UNL     1       7.874   2.841 -12.529  1.00  0.00     0.064 A 
ATOM     86  C   UNL     1       7.547   3.769 -13.527  1.00  0.00     0.173 A 
ATOM     87  C   UNL     1       8.427   3.337 -11.337  1.00  0.00     0.173 A 
ATOM     88  F   UNL     1       7.023   3.347 -14.687  1.00  0.00    -0.203 F 
ATOM     89  C   UNL     1       7.789   5.131 -13.354  1.00  0.00     0.198 A 
ATOM     90  C   UNL     1       8.644   4.703 -11.155  1.00  0.00     0.198 A 
ATOM     91  F   UNL     1       8.749   2.497 -10.343  1.00  0.00    -0.203 F 
ATOM     92  F   UNL     1       7.508   5.990 -14.344  1.00  0.00    -0.200 F 
ATOM     93  C   UNL     1       8.334   5.598 -12.168  1.00  0.00     0.200 A 
ATOM     94  F   UNL     1       9.154   5.151 -10.000  1.00  0.00    -0.200 F 
ATOM     95  F   UNL     1       8.565   6.907 -12.002  1.00  0.00    -0.200 F 
ENDBRANCH  61  85
BRANCH  73  96
ATOM     96  C   UNL     1      10.346  -1.993 -16.902  1.00  0.00     0.064 A 
ATOM     97  C   UNL     1      11.720  -1.788 -16.711  1.00  0.00     0.173 A 
ATOM     98  C   UNL     1       9.879  -2.154 -18.215  1.00  0.00     0.173 A 
ATOM     99  F   UNL     1      12.210  -1.607 -15.475  1.00  0.00    -0.203 F 
ATOM    100  C   UNL     1      12.588  -1.717 -17.796  1.00  0.00     0.198 A 
ATOM    101  C   UNL     1      10.755  -2.120 -19.294  1.00  0.00     0.198 A 
ATOM    102  F   UNL     1       8.573  -2.355 -18.450  1.00  0.00    -0.203 F 
ATOM    103  F   UNL     1      13.888  -1.462 -17.594  1.00  0.00    -0.200 F 
ATOM    104  C   UNL     1      12.107  -1.892 -19.085  1.00  0.00     0.200 A 
ATOM    105  F   UNL     1      10.291  -2.303 -20.538  1.00  0.00    -0.200 F 
ATOM    106  F   UNL     1      12.946  -1.833 -20.127  1.00  0.00    -0.200 F 
ENDBRANCH  73  96
ENDBRANCH  47  48
ENDBRANCH  39  42
ENDBRANCH  37  38
ENDBRANCH  36  37
ENDBRANCH  35  36
ENDBRANCH   1  35
TORSDOF 16
