REMARK SMILES Cc1cc(C)cc(Oc2nc3ccccn3c(=O)c2/C=C2\SC(=S)N(CCC(=O)NCCCCNC(=O)c3ccc(-c4c5nc(c(-c6c(F)c(F)c(F)c(F)c6F)c6ccc([nH]6)c(-c6c(F)c(F)c(F)c(F)c6F)c6nc(c(-c7c(F)c(F)c(F)c(F)c7F)c7ccc4[nH]7)C=C6)C=C5)cc3)C2=O)c1
REMARK SMILES IDX 31 1 30 2 28 3 29 4 27 6 26 7 25 8 20 9 21 10 22 11 101 12
REMARK SMILES IDX 23 13 102 14 24 15 19 16 9 17 10 18 11 19 17 20 12 21 16 22
REMARK SMILES IDX 18 23 13 24 15 25 14 26 8 27 7 28 1 29 2 30 3 31 103 32 4 33
REMARK SMILES IDX 5 34 6 35 32 36 33 37 34 38 35 39 36 40 37 42 38 43 39 44
REMARK SMILES IDX 100 45 40 46 99 47 41 48 42 49 43 50 93 51 44 52 98 53 92 54
REMARK SMILES IDX 94 55 45 56 97 57 91 58 90 59 46 61 78 62 58 63 77 64 59 65
REMARK SMILES IDX 62 66 76 67 95 68 60 69 61 70 75 72 96 73 63 74 47 75 48 76
REMARK SMILES IDX 56 77 49 78 50 79 54 80 57 81 51 82 52 83 55 84 53 85 79 86
REMARK SMILES IDX 80 87 88 88 81 89 82 90 86 91 89 92 83 93 84 94 87 95 85 96
REMARK SMILES IDX 64 97 65 98 73 99 66 100 67 101 71 102 74 103 68 104 69 105
REMARK SMILES IDX 72 106 70 107
REMARK H PARENT 30 5 35 41 94 60 62 71
REMARK Flexibility Score: inf
ROOT
ATOM      1  C   UNL     1       0.654   0.978   3.272  1.00  0.00     0.116 C 
ENDROOT
BRANCH   1   2
ATOM      2  N   UNL     1       0.838   1.552   4.597  1.00  0.00    -0.356 N 
ATOM      3  C   UNL     1       1.983   1.939   5.226  1.00  0.00     0.221 C 
ATOM      4  O   UNL     1       1.921   2.308   6.399  1.00  0.00    -0.275 OA
ATOM      5  H   UNL     1       0.012   1.679   5.117  1.00  0.00     0.163 HD
BRANCH   3   6
ATOM      6  C   UNL     1       3.301   1.946   4.476  1.00  0.00     0.122 C 
BRANCH   6   7
ATOM      7  C   UNL     1       4.309   0.901   5.005  1.00  0.00     0.137 C 
BRANCH   7   8
ATOM      8  N   UNL     1       4.430  -0.358   4.232  1.00  0.00    -0.292 N 
ATOM      9  C   UNL     1       2.647  -3.314   3.441  1.00  0.00     0.041 C 
ATOM     10  C   UNL     1       3.748  -2.530   3.603  1.00  0.00     0.081 C 
ATOM     11  S   UNL     1       5.051  -2.185   2.516  1.00  0.00    -0.054 SA
ATOM     12  C   UNL     1       3.832  -1.521   4.697  1.00  0.00     0.266 C 
ATOM     13  C   UNL     1       5.102  -0.488   3.028  1.00  0.00     0.148 C 
ATOM     14  O   UNL     1       3.320  -1.691   5.811  1.00  0.00    -0.268 OA
ATOM     15  S   UNL     1       5.781   0.713   2.088  1.00  0.00    -0.052 S 
BRANCH   9  16
ATOM     16  C   UNL     1       2.338  -4.219   2.317  1.00  0.00     0.104 A 
ATOM     17  C   UNL     1       1.282  -4.364   1.417  1.00  0.00     0.234 A 
ATOM     18  N   UNL     1       1.415  -5.442   0.509  1.00  0.00    -0.194 NA
ATOM     19  C   UNL     1       2.590  -5.918   0.173  1.00  0.00     0.143 A 
ATOM     20  C   UNL     1       3.509  -5.189   2.155  1.00  0.00     0.269 A 
ATOM     21  C   UNL     1       2.846  -6.760  -1.064  1.00  0.00     0.048 A 
ATOM     22  N   UNL     1       3.721  -5.698   0.911  1.00  0.00    -0.267 N 
ATOM     23  O   UNL     1       4.239  -5.458   3.114  1.00  0.00    -0.268 OA
ATOM     24  C   UNL     1       4.081  -7.110  -1.446  1.00  0.00     0.005 A 
ATOM     25  C   UNL     1       4.984  -6.159   0.541  1.00  0.00     0.096 A 
ATOM     26  C   UNL     1       5.199  -6.808  -0.609  1.00  0.00     0.019 A 
BRANCH  17  27
ATOM     27  O   UNL     1      -0.109  -3.535   1.369  1.00  0.00    -0.438 OA
BRANCH  27  28
ATOM     28  C   UNL     1      -0.693  -2.311   0.610  1.00  0.00     0.130 A 
ATOM     29  C   UNL     1       0.575   0.734  -1.480  1.00  0.00     0.044 C 
ATOM     30  C   UNL     1      -0.431  -0.114  -0.727  1.00  0.00    -0.047 A 
ATOM     31  C   UNL     1      -1.529   0.420  -0.127  1.00  0.00     0.007 A 
ATOM     32  C   UNL     1      -0.193  -1.488  -0.486  1.00  0.00     0.050 A 
ATOM     33  C   UNL     1      -2.324  -0.416   0.681  1.00  0.00    -0.047 A 
ATOM     34  C   UNL     1      -3.628   0.205   1.095  1.00  0.00     0.044 C 
ATOM     35  C   UNL     1      -1.879  -1.734   1.120  1.00  0.00     0.050 A 
ENDBRANCH  27  28
ENDBRANCH  17  27
ENDBRANCH   9  16
ENDBRANCH   7   8
ENDBRANCH   6   7
ENDBRANCH   3   6
ENDBRANCH   1   2
BRANCH   1  36
ATOM     36  C   UNL     1       1.589  -0.218   3.049  1.00  0.00     0.023 C 
BRANCH  36  37
ATOM     37  C   UNL     1       1.161  -1.226   1.999  1.00  0.00     0.023 C 
BRANCH  37  38
ATOM     38  C   UNL     1       2.089  -1.602   0.680  1.00  0.00     0.116 C 
BRANCH  38  39
ATOM     39  N   UNL     1       1.991  -2.832  -0.528  1.00  0.00    -0.352 N 
ATOM     40  C   UNL     1       1.180  -3.750  -1.447  1.00  0.00     0.251 C 
ATOM     41  H   UNL     1       2.929  -3.056  -0.726  1.00  0.00     0.163 HD
ATOM     42  O   UNL     1       1.840  -4.117  -2.435  1.00  0.00    -0.269 OA
BRANCH  40  43
ATOM     43  C   UNL     1      -0.312  -4.465  -1.351  1.00  0.00     0.039 A 
ATOM     44  C   UNL     1      -0.415  -5.869  -1.367  1.00  0.00     0.014 A 
ATOM     45  C   UNL     1      -1.591  -3.918  -1.289  1.00  0.00     0.014 A 
ATOM     46  C   UNL     1      -1.508  -6.627  -0.849  1.00  0.00     0.010 A 
ATOM     47  C   UNL     1      -2.692  -4.623  -0.694  1.00  0.00     0.010 A 
ATOM     48  C   UNL     1      -2.648  -5.994  -0.385  1.00  0.00    -0.014 A 
BRANCH  48  49
ATOM     49  C   UNL     1      -3.836  -6.751   0.182  1.00  0.00     0.031 A 
ATOM     50  C   UNL     1      -5.162  -6.663  -0.541  1.00  0.00     0.074 A 
ATOM     51  C   UNL     1      -3.817  -7.511   1.306  1.00  0.00     0.049 A 
ATOM     52  N   UNL     1      -6.357  -7.070  -0.177  1.00  0.00    -0.248 NA
ATOM     53  C   UNL     1      -5.133  -5.989  -1.843  1.00  0.00     0.031 C 
ATOM     54  C   UNL     1      -2.656  -7.776   2.154  1.00  0.00     0.029 A 
ATOM     55  N   UNL     1      -4.839  -8.208   1.940  1.00  0.00    -0.354 N 
ATOM     56  C   UNL     1      -7.221  -6.633  -1.174  1.00  0.00     0.074 A 
ATOM     57  C   UNL     1      -6.421  -5.883  -2.119  1.00  0.00     0.031 C 
ATOM     58  C   UNL     1      -3.022  -8.581   3.174  1.00  0.00     0.029 A 
ATOM     59  C   UNL     1      -4.455  -8.873   3.087  1.00  0.00     0.049 A 
ATOM     60  H   UNL     1      -5.762  -8.226   1.599  1.00  0.00     0.167 HD
ATOM     61  C   UNL     1      -8.549  -6.853  -1.331  1.00  0.00     0.037 A 
ATOM     62  C   UNL     1      -5.162  -9.621   3.968  1.00  0.00     0.037 A 
ATOM     63  C   UNL     1      -9.370  -7.666  -0.478  1.00  0.00     0.049 A 
ATOM     64  C   UNL     1      -6.654  -9.836   3.797  1.00  0.00     0.074 A 
ATOM     65  C   UNL     1     -10.713  -7.974  -0.618  1.00  0.00     0.029 A 
ATOM     66  N   UNL     1      -8.927  -8.317   0.660  1.00  0.00    -0.354 N 
ATOM     67  N   UNL     1      -7.449  -9.428   2.840  1.00  0.00    -0.248 NA
ATOM     68  C   UNL     1      -7.348 -10.621   4.840  1.00  0.00     0.031 C 
ATOM     69  C   UNL     1     -11.092  -8.789   0.453  1.00  0.00     0.029 A 
ATOM     70  C   UNL     1      -9.974  -9.020   1.236  1.00  0.00     0.049 A 
ATOM     71  H   UNL     1      -8.007  -8.285   1.009  1.00  0.00     0.167 HD
ATOM     72  C   UNL     1      -8.708  -9.947   3.134  1.00  0.00     0.074 A 
ATOM     73  C   UNL     1      -8.585 -10.692   4.365  1.00  0.00     0.031 C 
ATOM     74  C   UNL     1      -9.858  -9.815   2.430  1.00  0.00     0.037 A 
BRANCH  61  75
ATOM     75  C   UNL     1      -9.201  -6.177  -2.501  1.00  0.00     0.064 A 
ATOM     76  C   UNL     1      -8.927  -6.565  -3.822  1.00  0.00     0.173 A 
ATOM     77  C   UNL     1     -10.071  -5.097  -2.296  1.00  0.00     0.173 A 
ATOM     78  F   UNL     1      -8.087  -7.583  -4.066  1.00  0.00    -0.203 F 
ATOM     79  C   UNL     1      -9.444  -5.849  -4.896  1.00  0.00     0.198 A 
ATOM     80  C   UNL     1     -10.620  -4.410  -3.374  1.00  0.00     0.198 A 
ATOM     81  F   UNL     1     -10.375  -4.698  -1.052  1.00  0.00    -0.203 F 
ATOM     82  F   UNL     1      -9.089  -6.174  -6.146  1.00  0.00    -0.200 F 
ATOM     83  C   UNL     1     -10.290  -4.773  -4.671  1.00  0.00     0.200 A 
ATOM     84  F   UNL     1     -11.449  -3.380  -3.157  1.00  0.00    -0.200 F 
ATOM     85  F   UNL     1     -10.773  -4.074  -5.707  1.00  0.00    -0.200 F 
ENDBRANCH  61  75
BRANCH  62  86
ATOM     86  C   UNL     1      -4.487 -10.281   5.127  1.00  0.00     0.064 A 
ATOM     87  C   UNL     1      -4.347 -11.679   5.170  1.00  0.00     0.173 A 
ATOM     88  C   UNL     1      -4.064  -9.555   6.248  1.00  0.00     0.173 A 
ATOM     89  F   UNL     1      -4.788 -12.426   4.147  1.00  0.00    -0.203 F 
ATOM     90  C   UNL     1      -3.824 -12.322   6.292  1.00  0.00     0.198 A 
ATOM     91  C   UNL     1      -3.520 -10.198   7.362  1.00  0.00     0.198 A 
ATOM     92  F   UNL     1      -4.204  -8.222   6.276  1.00  0.00    -0.203 F 
ATOM     93  F   UNL     1      -3.759 -13.660   6.327  1.00  0.00    -0.200 F 
ATOM     94  C   UNL     1      -3.407 -11.580   7.386  1.00  0.00     0.200 A 
ATOM     95  F   UNL     1      -3.127  -9.480   8.423  1.00  0.00    -0.200 F 
ATOM     96  F   UNL     1      -2.918 -12.198   8.470  1.00  0.00    -0.200 F 
ENDBRANCH  62  86
BRANCH  74  97
ATOM     97  C   UNL     1     -11.085 -10.551   2.894  1.00  0.00     0.064 A 
ATOM     98  C   UNL     1     -11.836 -10.125   3.998  1.00  0.00     0.173 A 
ATOM     99  C   UNL     1     -11.578 -11.634   2.147  1.00  0.00     0.173 A 
ATOM    100  F   UNL     1     -11.407  -9.102   4.753  1.00  0.00    -0.203 F 
ATOM    101  C   UNL     1     -13.034 -10.754   4.337  1.00  0.00     0.198 A 
ATOM    102  C   UNL     1     -12.786 -12.246   2.474  1.00  0.00     0.198 A 
ATOM    103  F   UNL     1     -10.903 -12.078   1.076  1.00  0.00    -0.203 F 
ATOM    104  F   UNL     1     -13.730 -10.338   5.405  1.00  0.00    -0.200 F 
ATOM    105  C   UNL     1     -13.514 -11.805   3.568  1.00  0.00     0.200 A 
ATOM    106  F   UNL     1     -13.254 -13.250   1.720  1.00  0.00    -0.200 F 
ATOM    107  F   UNL     1     -14.679 -12.390   3.880  1.00  0.00    -0.200 F 
ENDBRANCH  74  97
ENDBRANCH  48  49
ENDBRANCH  40  43
ENDBRANCH  38  39
ENDBRANCH  37  38
ENDBRANCH  36  37
ENDBRANCH   1  36
TORSDOF 16
