REMARK SMILES C[C@@H]1CCC[C@H]1NC(=O)c1csc(/C=C/C(=O)NCCCCNC(=O)c2ccc(-c3c4nc(c(-c5c(F)c(F)c(F)c(F)c5F)c5ccc([nH]5)c(-c5c(F)c(F)c(F)c(F)c5F)c5nc(c(-c6c(F)c(F)c(F)c(F)c6F)c6ccc3[nH]6)C=C5)C=C4)cc2)c1
REMARK SMILES IDX 20 1 19 2 18 3 16 4 17 5 15 7 14 8 13 9 10 10 11 11 89 12
REMARK SMILES IDX 12 13 8 14 7 15 9 17 6 18 1 19 2 20 3 21 4 22 5 23 21 24
REMARK SMILES IDX 22 25 23 26 24 27 25 29 26 30 27 31 88 32 28 33 87 34 29 35
REMARK SMILES IDX 30 36 31 37 81 38 32 39 86 40 80 41 82 42 33 43 85 44 79 45
REMARK SMILES IDX 78 46 34 48 66 49 46 50 65 51 47 52 50 53 64 54 83 55 48 56
REMARK SMILES IDX 49 57 63 59 84 60 51 61 35 62 36 63 44 64 37 65 38 66 42 67
REMARK SMILES IDX 45 68 39 69 40 70 43 71 41 72 67 73 68 74 76 75 69 76 70 77
REMARK SMILES IDX 74 78 77 79 71 80 72 81 75 82 73 83 52 84 53 85 61 86 54 87
REMARK SMILES IDX 55 88 59 89 62 90 56 91 57 92 60 93 58 94
REMARK H PARENT 18 6 7 16 23 28 82 47 50 58
REMARK Flexibility Score: inf
ROOT
ATOM      1  C   UNL     1       5.086   6.928   4.646  1.00  0.00     0.023 C 
ENDROOT
BRANCH   1   2
ATOM      2  C   UNL     1       4.013   7.947   4.257  1.00  0.00     0.116 C 
BRANCH   2   3
ATOM      3  N   UNL     1       4.414   8.684   3.071  1.00  0.00    -0.353 N 
ATOM      4  C   UNL     1       3.969   8.614   1.787  1.00  0.00     0.244 C 
ATOM      5  O   UNL     1       4.422   9.388   0.947  1.00  0.00    -0.270 OA
ATOM      6  H   UNL     1       5.128   9.345   3.222  1.00  0.00     0.163 HD
BRANCH   4   7
ATOM      7  C   UNL     1       2.873   7.694   1.414  1.00  0.00     0.072 C 
ATOM      8  C   UNL     1       2.823   6.408   1.785  1.00  0.00     0.024 C 
BRANCH   8   9
ATOM      9  C   UNL     1       1.718   5.554   1.513  1.00  0.00     0.028 A 
ATOM     10  C   UNL     1       0.175   3.786   1.764  1.00  0.00     0.051 A 
ATOM     11  C   UNL     1      -0.205   4.325   0.551  1.00  0.00     0.079 A 
ATOM     12  C   UNL     1       1.246   4.545   2.333  1.00  0.00     0.033 A 
ATOM     13  S   UNL     1       0.791   5.627   0.069  1.00  0.00    -0.144 S 
BRANCH  10  14
ATOM     14  C   UNL     1      -0.451   2.646   2.419  1.00  0.00     0.252 C 
ATOM     15  N   UNL     1      -0.584   1.469   1.728  1.00  0.00    -0.349 N 
ATOM     16  H   UNL     1      -1.081   0.762   2.198  1.00  0.00     0.164 HD
ATOM     17  O   UNL     1      -0.806   2.694   3.593  1.00  0.00    -0.269 OA
BRANCH  15  18
ATOM     18  C   UNL     1      -0.098   1.109   0.398  1.00  0.00     0.085 C 
ATOM     19  C   UNL     1       1.776  -0.148  -0.751  1.00  0.00     0.010 C 
ATOM     20  C   UNL     1       0.836  -0.107   0.455  1.00  0.00     0.008 C 
ATOM     21  C   UNL     1      -0.130  -1.291   0.461  1.00  0.00     0.005 C 
ATOM     22  C   UNL     1      -1.302  -0.863  -0.416  1.00  0.00     0.002 C 
ATOM     23  C   UNL     1      -1.267   0.665  -0.483  1.00  0.00     0.025 C 
ENDBRANCH  15  18
ENDBRANCH  10  14
ENDBRANCH   8   9
ENDBRANCH   4   7
ENDBRANCH   2   3
ENDBRANCH   1   2
BRANCH   1  24
ATOM     24  C   UNL     1       6.302   7.540   5.346  1.00  0.00     0.023 C 
BRANCH  24  25
ATOM     25  C   UNL     1       5.994   8.232   6.668  1.00  0.00     0.116 C 
BRANCH  25  26
ATOM     26  N   UNL     1       5.375   7.353   7.648  1.00  0.00    -0.352 N 
ATOM     27  C   UNL     1       5.534   7.354   9.012  1.00  0.00     0.251 C 
ATOM     28  H   UNL     1       4.764   6.670   7.287  1.00  0.00     0.163 HD
ATOM     29  O   UNL     1       5.034   6.471   9.701  1.00  0.00    -0.269 OA
BRANCH  27  30
ATOM     30  C   UNL     1       6.350   8.412   9.639  1.00  0.00     0.039 A 
ATOM     31  C   UNL     1       7.338   8.050  10.557  1.00  0.00     0.014 A 
ATOM     32  C   UNL     1       6.163   9.752   9.290  1.00  0.00     0.014 A 
ATOM     33  C   UNL     1       8.178   9.031  11.084  1.00  0.00     0.010 A 
ATOM     34  C   UNL     1       7.053  10.714   9.751  1.00  0.00     0.010 A 
ATOM     35  C   UNL     1       8.063  10.366  10.661  1.00  0.00    -0.014 A 
BRANCH  35  36
ATOM     36  C   UNL     1       8.968  11.420  11.182  1.00  0.00     0.031 A 
ATOM     37  C   UNL     1       8.404  12.557  11.988  1.00  0.00     0.074 A 
ATOM     38  C   UNL     1      10.280  11.387  10.882  1.00  0.00     0.049 A 
ATOM     39  N   UNL     1       9.010  13.608  12.478  1.00  0.00    -0.248 NA
ATOM     40  C   UNL     1       6.956  12.523  12.253  1.00  0.00     0.031 C 
ATOM     41  C   UNL     1      10.938  10.362  10.071  1.00  0.00     0.029 A 
ATOM     42  N   UNL     1      11.296  12.246  11.219  1.00  0.00    -0.354 N 
ATOM     43  C   UNL     1       8.019  14.362  13.093  1.00  0.00     0.074 A 
ATOM     44  C   UNL     1       6.763  13.685  12.856  1.00  0.00     0.031 C 
ATOM     45  C   UNL     1      12.250  10.634   9.998  1.00  0.00     0.029 A 
ATOM     46  C   UNL     1      12.521  11.872  10.723  1.00  0.00     0.049 A 
ATOM     47  H   UNL     1      11.159  13.054  11.765  1.00  0.00     0.167 HD
ATOM     48  C   UNL     1       8.147  15.500  13.816  1.00  0.00     0.037 A 
ATOM     49  C   UNL     1      13.724  12.465  10.839  1.00  0.00     0.037 A 
ATOM     50  C   UNL     1       9.402  16.159  14.064  1.00  0.00     0.049 A 
ATOM     51  C   UNL     1      13.839  13.738  11.636  1.00  0.00     0.074 A 
ATOM     52  C   UNL     1       9.649  17.293  14.817  1.00  0.00     0.029 A 
ATOM     53  N   UNL     1      10.625  15.741  13.559  1.00  0.00    -0.354 N 
ATOM     54  N   UNL     1      12.906  14.409  12.267  1.00  0.00    -0.248 NA
ATOM     55  C   UNL     1      15.179  14.329  11.747  1.00  0.00     0.031 C 
ATOM     56  C   UNL     1      11.013  17.589  14.728  1.00  0.00     0.029 A 
ATOM     57  C   UNL     1      11.628  16.604  13.971  1.00  0.00     0.049 A 
ATOM     58  H   UNL     1      10.761  14.948  12.991  1.00  0.00     0.167 HD
ATOM     59  C   UNL     1      13.550  15.474  12.882  1.00  0.00     0.074 A 
ATOM     60  C   UNL     1      14.956  15.355  12.555  1.00  0.00     0.031 C 
ATOM     61  C   UNL     1      13.026  16.460  13.652  1.00  0.00     0.037 A 
BRANCH  48  62
ATOM     62  C   UNL     1       6.894  16.099  14.389  1.00  0.00     0.064 A 
ATOM     63  C   UNL     1       6.168  15.458  15.405  1.00  0.00     0.173 A 
ATOM     64  C   UNL     1       6.419  17.336  13.927  1.00  0.00     0.173 A 
ATOM     65  F   UNL     1       6.570  14.267  15.874  1.00  0.00    -0.203 F 
ATOM     66  C   UNL     1       4.994  16.012  15.908  1.00  0.00     0.198 A 
ATOM     67  C   UNL     1       5.264  17.905  14.459  1.00  0.00     0.198 A 
ATOM     68  F   UNL     1       7.075  17.997  12.961  1.00  0.00    -0.203 F 
ATOM     69  F   UNL     1       4.285  15.349  16.832  1.00  0.00    -0.200 F 
ATOM     70  C   UNL     1       4.547  17.238  15.440  1.00  0.00     0.200 A 
ATOM     71  F   UNL     1       4.841  19.097  14.016  1.00  0.00    -0.200 F 
ATOM     72  F   UNL     1       3.418  17.772  15.928  1.00  0.00    -0.200 F 
ENDBRANCH  48  62
BRANCH  49  73
ATOM     73  C   UNL     1      14.924  11.844  10.220  1.00  0.00     0.064 A 
ATOM     74  C   UNL     1      15.939  11.293  11.016  1.00  0.00     0.173 A 
ATOM     75  C   UNL     1      15.088  11.793   8.828  1.00  0.00     0.173 A 
ATOM     76  F   UNL     1      15.838  11.335  12.352  1.00  0.00    -0.203 F 
ATOM     77  C   UNL     1      17.083  10.740  10.444  1.00  0.00     0.198 A 
ATOM     78  C   UNL     1      16.218  11.211   8.257  1.00  0.00     0.198 A 
ATOM     79  F   UNL     1      14.143  12.299   8.021  1.00  0.00    -0.203 F 
ATOM     80  F   UNL     1      18.060  10.267  11.230  1.00  0.00    -0.200 F 
ATOM     81  C   UNL     1      17.219  10.694   9.065  1.00  0.00     0.200 A 
ATOM     82  F   UNL     1      16.338  11.154   6.924  1.00  0.00    -0.200 F 
ATOM     83  F   UNL     1      18.318  10.159   8.516  1.00  0.00    -0.200 F 
ENDBRANCH  49  73
BRANCH  61  84
ATOM     84  C   UNL     1      13.983  17.453  14.247  1.00  0.00     0.064 A 
ATOM     85  C   UNL     1      14.648  18.408  13.464  1.00  0.00     0.173 A 
ATOM     86  C   UNL     1      14.208  17.470  15.633  1.00  0.00     0.173 A 
ATOM     87  F   UNL     1      14.478  18.426  12.133  1.00  0.00    -0.203 F 
ATOM     88  C   UNL     1      15.527  19.320  14.041  1.00  0.00     0.198 A 
ATOM     89  C   UNL     1      15.060  18.406  16.211  1.00  0.00     0.198 A 
ATOM     90  F   UNL     1      13.590  16.584  16.430  1.00  0.00    -0.203 F 
ATOM     91  F   UNL     1      16.195  20.186  13.266  1.00  0.00    -0.200 F 
ATOM     92  C   UNL     1      15.727  19.324  15.414  1.00  0.00     0.200 A 
ATOM     93  F   UNL     1      15.238  18.418  17.539  1.00  0.00    -0.200 F 
ATOM     94  F   UNL     1      16.568  20.207  15.968  1.00  0.00    -0.200 F 
ENDBRANCH  61  84
ENDBRANCH  35  36
ENDBRANCH  27  30
ENDBRANCH  25  26
ENDBRANCH  24  25
ENDBRANCH   1  24
TORSDOF 14
