REMARK SMILES O=C(NCCCCNC(=O)[C@@]1(CCc2ccccc2)CCC[N@@H+](Cc2cccnc2)C1)c1ccc(-c2c3nc(c(-c4c(F)c(F)c(F)c(F)c4F)c4ccc([nH]4)c(-c4c(F)c(F)c(F)c(F)c4F)c4nc(c(-c5c(F)c(F)c(F)c(F)c5F)c5ccc2[nH]5)C=C4)C=C3)cc1
REMARK SMILES IDX 6 1 5 2 4 3 3 4 1 5 2 6 32 8 33 9 94 10 34 11 93 12 35 13
REMARK SMILES IDX 36 14 37 15 87 16 38 17 92 18 86 19 88 20 39 21 91 22 85 23
REMARK SMILES IDX 84 24 40 26 72 27 52 28 71 29 53 30 56 31 70 32 89 33 54 34
REMARK SMILES IDX 55 35 69 37 90 38 57 39 41 40 42 41 50 42 43 43 44 44 48 45
REMARK SMILES IDX 51 46 45 47 46 48 49 49 47 50 73 51 74 52 82 53 75 54 76 55
REMARK SMILES IDX 80 56 83 57 77 58 78 59 81 60 79 61 58 62 59 63 67 64 60 65
REMARK SMILES IDX 61 66 65 67 68 68 62 69 63 70 66 71 64 72 7 73 8 74 9 75
REMARK SMILES IDX 10 77 11 78 20 79 31 80 21 81 23 82 22 83 12 85 13 86 14 87
REMARK SMILES IDX 15 88 19 89 16 90 18 91 17 92 24 93 25 94 26 95 30 96 27 97
REMARK SMILES IDX 29 98 28 99
REMARK H PARENT 3 7 88 25 56 36 8 76 23 84
REMARK Flexibility Score: inf
ROOT
ATOM      1  C   UNL     1       9.693  -4.467  -7.716  1.00  0.00     0.023 C 
ENDROOT
BRANCH   1   2
ATOM      2  C   UNL     1      10.036  -4.262  -9.188  1.00  0.00     0.023 C 
BRANCH   2   3
ATOM      3  C   UNL     1      11.172  -3.288  -9.451  1.00  0.00     0.116 C 
BRANCH   3   4
ATOM      4  N   UNL     1      12.416  -3.647  -8.786  1.00  0.00    -0.352 N 
ATOM      5  O   UNL     1      14.654  -3.935  -8.610  1.00  0.00    -0.269 OA
ATOM      6  C   UNL     1      13.703  -3.497  -9.249  1.00  0.00     0.251 C 
ATOM      7  H   UNL     1      12.325  -4.049  -7.892  1.00  0.00     0.163 HD
BRANCH   6   8
ATOM      8  C   UNL     1      13.918  -2.840 -10.553  1.00  0.00     0.039 A 
ATOM      9  C   UNL     1      13.260  -1.647 -10.854  1.00  0.00     0.014 A 
ATOM     10  C   UNL     1      14.731  -3.461 -11.505  1.00  0.00     0.014 A 
ATOM     11  C   UNL     1      13.273  -1.169 -12.156  1.00  0.00     0.010 A 
ATOM     12  C   UNL     1      14.820  -2.922 -12.791  1.00  0.00     0.010 A 
ATOM     13  C   UNL     1      14.056  -1.798 -13.139  1.00  0.00    -0.014 A 
BRANCH  13  14
ATOM     14  C   UNL     1      14.073  -1.233 -14.510  1.00  0.00     0.031 A 
ATOM     15  C   UNL     1      13.527  -2.004 -15.679  1.00  0.00     0.074 A 
ATOM     16  C   UNL     1      14.540   0.019 -14.681  1.00  0.00     0.049 A 
ATOM     17  N   UNL     1      13.419  -1.636 -16.931  1.00  0.00    -0.248 NA
ATOM     18  C   UNL     1      13.048  -3.369 -15.415  1.00  0.00     0.031 C 
ATOM     19  C   UNL     1      15.100   0.857 -13.619  1.00  0.00     0.029 A 
ATOM     20  N   UNL     1      14.588   0.816 -15.794  1.00  0.00    -0.354 N 
ATOM     21  C   UNL     1      12.892  -2.728 -17.607  1.00  0.00     0.074 A 
ATOM     22  C   UNL     1      12.715  -3.782 -16.631  1.00  0.00     0.031 C 
ATOM     23  C   UNL     1      15.374   2.071 -14.116  1.00  0.00     0.029 A 
ATOM     24  C   UNL     1      15.070   2.076 -15.542  1.00  0.00     0.049 A 
ATOM     25  H   UNL     1      14.306   0.514 -16.688  1.00  0.00     0.167 HD
ATOM     26  C   UNL     1      12.580  -2.836 -18.922  1.00  0.00     0.037 A 
ATOM     27  C   UNL     1      15.254   3.121 -16.369  1.00  0.00     0.037 A 
ATOM     28  C   UNL     1      12.728  -1.770 -19.881  1.00  0.00     0.049 A 
ATOM     29  C   UNL     1      14.898   2.971 -17.819  1.00  0.00     0.074 A 
ATOM     30  C   UNL     1      12.394  -1.765 -21.224  1.00  0.00     0.029 A 
ATOM     31  N   UNL     1      13.253  -0.518 -19.596  1.00  0.00    -0.354 N 
ATOM     32  N   UNL     1      14.371   1.943 -18.438  1.00  0.00    -0.248 NA
ATOM     33  C   UNL     1      15.168   4.125 -18.685  1.00  0.00     0.031 C 
ATOM     34  C   UNL     1      12.758  -0.525 -21.762  1.00  0.00     0.029 A 
ATOM     35  C   UNL     1      13.275   0.260 -20.743  1.00  0.00     0.049 A 
ATOM     36  H   UNL     1      13.565  -0.225 -18.709  1.00  0.00     0.167 HD
ATOM     37  C   UNL     1      14.231   2.330 -19.762  1.00  0.00     0.074 A 
ATOM     38  C   UNL     1      14.709   3.695 -19.851  1.00  0.00     0.031 C 
ATOM     39  C   UNL     1      13.753   1.617 -20.812  1.00  0.00     0.037 A 
BRANCH  26  40
ATOM     40  C   UNL     1      12.070  -4.160 -19.413  1.00  0.00     0.064 A 
ATOM     41  C   UNL     1      10.783  -4.622 -19.100  1.00  0.00     0.173 A 
ATOM     42  C   UNL     1      12.866  -4.958 -20.249  1.00  0.00     0.173 A 
ATOM     43  F   UNL     1       9.985  -3.903 -18.295  1.00  0.00    -0.203 F 
ATOM     44  C   UNL     1      10.321  -5.843 -19.586  1.00  0.00     0.198 A 
ATOM     45  C   UNL     1      12.392  -6.166 -20.755  1.00  0.00     0.198 A 
ATOM     46  F   UNL     1      14.103  -4.561 -20.585  1.00  0.00    -0.203 F 
ATOM     47  F   UNL     1       9.104  -6.284 -19.240  1.00  0.00    -0.200 F 
ATOM     48  C   UNL     1      11.123  -6.610 -20.418  1.00  0.00     0.200 A 
ATOM     49  F   UNL     1      13.165  -6.900 -21.568  1.00  0.00    -0.200 F 
ATOM     50  F   UNL     1      10.675  -7.782 -20.890  1.00  0.00    -0.200 F 
ENDBRANCH  26  40
BRANCH  27  51
ATOM     51  C   UNL     1      15.789   4.397 -15.834  1.00  0.00     0.064 A 
ATOM     52  C   UNL     1      14.978   5.537 -15.749  1.00  0.00     0.173 A 
ATOM     53  C   UNL     1      17.110   4.498 -15.374  1.00  0.00     0.173 A 
ATOM     54  F   UNL     1      13.713   5.493 -16.192  1.00  0.00    -0.203 F 
ATOM     55  C   UNL     1      15.472   6.733 -15.235  1.00  0.00     0.198 A 
ATOM     56  C   UNL     1      17.594   5.686 -14.832  1.00  0.00     0.198 A 
ATOM     57  F   UNL     1      17.923   3.433 -15.427  1.00  0.00    -0.203 F 
ATOM     58  F   UNL     1      14.687   7.818 -15.197  1.00  0.00    -0.200 F 
ATOM     59  C   UNL     1      16.777   6.805 -14.769  1.00  0.00     0.200 A 
ATOM     60  F   UNL     1      18.849   5.745 -14.367  1.00  0.00    -0.200 F 
ATOM     61  F   UNL     1      17.248   7.952 -14.263  1.00  0.00    -0.200 F 
ENDBRANCH  27  51
BRANCH  39  62
ATOM     62  C   UNL     1      13.700   2.317 -22.137  1.00  0.00     0.064 A 
ATOM     63  C   UNL     1      14.864   2.590 -22.870  1.00  0.00     0.173 A 
ATOM     64  C   UNL     1      12.469   2.708 -22.684  1.00  0.00     0.173 A 
ATOM     65  F   UNL     1      16.066   2.252 -22.379  1.00  0.00    -0.203 F 
ATOM     66  C   UNL     1      14.800   3.257 -24.090  1.00  0.00     0.198 A 
ATOM     67  C   UNL     1      12.407   3.350 -23.917  1.00  0.00     0.198 A 
ATOM     68  F   UNL     1      11.328   2.465 -22.023  1.00  0.00    -0.203 F 
ATOM     69  F   UNL     1      15.929   3.557 -24.748  1.00  0.00    -0.200 F 
ATOM     70  C   UNL     1      13.572   3.632 -24.614  1.00  0.00     0.200 A 
ATOM     71  F   UNL     1      11.219   3.703 -24.428  1.00  0.00    -0.200 F 
ATOM     72  F   UNL     1      13.512   4.276 -25.788  1.00  0.00    -0.200 F 
ENDBRANCH  39  62
ENDBRANCH  13  14
ENDBRANCH   6   8
ENDBRANCH   3   4
ENDBRANCH   2   3
ENDBRANCH   1   2
BRANCH   1  73
ATOM     73  C   UNL     1       9.270  -3.201  -6.964  1.00  0.00     0.116 C 
BRANCH  73  74
ATOM     74  N   UNL     1       7.964  -2.728  -7.381  1.00  0.00    -0.355 N 
ATOM     75  C   UNL     1       6.706  -2.925  -6.898  1.00  0.00     0.231 C 
ATOM     76  H   UNL     1       7.993  -2.145  -8.174  1.00  0.00     0.163 HD
ATOM     77  O   UNL     1       5.807  -2.392  -7.556  1.00  0.00    -0.274 OA
BRANCH  75  78
ATOM     78  C   UNL     1       6.398  -3.726  -5.606  1.00  0.00     0.098 C 
ATOM     79  C   UNL     1       4.865  -3.968  -5.543  1.00  0.00     0.028 C 
ATOM     80  C   UNL     1       7.014  -5.147  -5.745  1.00  0.00     0.279 C 
ATOM     81  C   UNL     1       4.475  -4.939  -4.429  1.00  0.00     0.063 C 
ATOM     82  N   UNL     1       6.604  -6.178  -4.780  1.00  0.00    -0.330 N 
ATOM     83  C   UNL     1       5.148  -6.287  -4.639  1.00  0.00     0.262 C 
ATOM     84  H   UNL     1       6.948  -5.871  -3.870  1.00  0.00     0.348 HD
BRANCH  78  85
ATOM     85  C   UNL     1       6.924  -2.974  -4.341  1.00  0.00     0.027 C 
BRANCH  85  86
ATOM     86  C   UNL     1       6.734  -1.439  -4.265  1.00  0.00     0.037 C 
BRANCH  86  87
ATOM     87  C   UNL     1       5.354  -0.842  -4.107  1.00  0.00    -0.048 A 
ATOM     88  C   UNL     1       4.316  -1.481  -3.420  1.00  0.00     0.004 A 
ATOM     89  C   UNL     1       5.109   0.446  -4.612  1.00  0.00     0.004 A 
ATOM     90  C   UNL     1       3.037  -0.919  -3.361  1.00  0.00     0.000 A 
ATOM     91  C   UNL     1       3.844   1.032  -4.512  1.00  0.00     0.000 A 
ATOM     92  C   UNL     1       2.799   0.336  -3.912  1.00  0.00     0.000 A 
ENDBRANCH  86  87
ENDBRANCH  85  86
ENDBRANCH  78  85
BRANCH  82  93
ATOM     93  C   UNL     1       7.236  -7.491  -5.079  1.00  0.00     0.300 C 
BRANCH  93  94
ATOM     94  C   UNL     1       6.627  -8.277  -6.221  1.00  0.00     0.025 A 
ATOM     95  C   UNL     1       6.895  -7.992  -7.564  1.00  0.00     0.013 A 
ATOM     96  C   UNL     1       5.677  -9.264  -5.965  1.00  0.00     0.120 A 
ATOM     97  C   UNL     1       6.162  -8.620  -8.568  1.00  0.00     0.021 A 
ATOM     98  N   UNL     1       4.965  -9.906  -6.919  1.00  0.00    -0.264 NA
ATOM     99  C   UNL     1       5.208  -9.551  -8.198  1.00  0.00     0.111 A 
ENDBRANCH  93  94
ENDBRANCH  82  93
ENDBRANCH  75  78
ENDBRANCH  73  74
ENDBRANCH   1  73
TORSDOF 16
