REMARK SMILES O=C(NCCCCNC(=O)[C@H]1CCCN(C(=O)c2cccc3[nH]ccc23)C1)c1ccc(-c2c3nc(c(-c4c(F)c(F)c(F)c(F)c4F)c4ccc([nH]4)c(-c4c(F)c(F)c(F)c(F)c4F)c4nc(c(-c5c(F)c(F)c(F)c(F)c5F)c5ccc2[nH]5)C=C4)C=C3)cc1
REMARK SMILES IDX 5 1 4 2 3 3 1 4 2 5 28 7 29 8 90 9 30 10 89 11 31 12 32 13
REMARK SMILES IDX 33 14 83 15 34 16 88 17 82 18 84 19 35 20 87 21 81 22 80 23
REMARK SMILES IDX 36 25 68 26 48 27 67 28 49 29 52 30 66 31 85 32 50 33 51 34
REMARK SMILES IDX 65 36 86 37 53 38 37 39 38 40 46 41 39 42 40 43 44 44 47 45
REMARK SMILES IDX 41 46 42 47 45 48 43 49 69 50 70 51 78 52 71 53 72 54 76 55
REMARK SMILES IDX 79 56 73 57 74 58 77 59 75 60 54 61 55 62 63 63 56 64 57 65
REMARK SMILES IDX 61 66 64 67 58 68 59 69 62 70 60 71 6 72 7 73 8 74 9 75
REMARK SMILES IDX 10 77 11 78 12 79 27 80 13 81 15 82 14 83 16 84 17 85 18 86
REMARK SMILES IDX 19 87 26 88 20 89 22 90 25 91 21 92 23 93 24 94
REMARK H PARENT 3 6 84 24 52 35 8 76 23 95
REMARK Flexibility Score: inf
ROOT
ATOM      1  C   UNL     1       1.716   7.061   3.792  1.00  0.00     0.023 C 
ENDROOT
BRANCH   1   2
ATOM      2  C   UNL     1       0.953   7.480   5.037  1.00  0.00     0.116 C 
BRANCH   2   3
ATOM      3  N   UNL     1       1.023   8.909   5.294  1.00  0.00    -0.352 N 
ATOM      4  O   UNL     1       0.183  10.937   5.839  1.00  0.00    -0.269 OA
ATOM      5  C   UNL     1       0.032   9.727   5.782  1.00  0.00     0.251 C 
ATOM      6  H   UNL     1       1.884   9.344   5.094  1.00  0.00     0.163 HD
BRANCH   5   7
ATOM      7  C   UNL     1      -1.237   9.108   6.216  1.00  0.00     0.039 A 
ATOM      8  C   UNL     1      -1.221   8.010   7.079  1.00  0.00     0.014 A 
ATOM      9  C   UNL     1      -2.442   9.620   5.732  1.00  0.00     0.014 A 
ATOM     10  C   UNL     1      -2.407   7.357   7.381  1.00  0.00     0.010 A 
ATOM     11  C   UNL     1      -3.642   9.009   6.098  1.00  0.00     0.010 A 
ATOM     12  C   UNL     1      -3.630   7.869   6.918  1.00  0.00    -0.014 A 
BRANCH  12  13
ATOM     13  C   UNL     1      -4.891   7.278   7.419  1.00  0.00     0.031 A 
ATOM     14  C   UNL     1      -5.830   6.547   6.509  1.00  0.00     0.074 A 
ATOM     15  C   UNL     1      -5.172   7.427   8.728  1.00  0.00     0.049 A 
ATOM     16  N   UNL     1      -6.984   6.000   6.792  1.00  0.00    -0.248 NA
ATOM     17  C   UNL     1      -5.433   6.416   5.099  1.00  0.00     0.031 C 
ATOM     18  C   UNL     1      -4.330   8.143   9.691  1.00  0.00     0.029 A 
ATOM     19  N   UNL     1      -6.232   6.990   9.476  1.00  0.00    -0.354 N 
ATOM     20  C   UNL     1      -7.462   5.478   5.598  1.00  0.00     0.074 A 
ATOM     21  C   UNL     1      -6.478   5.782   4.580  1.00  0.00     0.031 C 
ATOM     22  C   UNL     1      -4.892   8.076  10.905  1.00  0.00     0.029 A 
ATOM     23  C   UNL     1      -6.162   7.370  10.794  1.00  0.00     0.049 A 
ATOM     24  H   UNL     1      -6.972   6.456   9.106  1.00  0.00     0.167 HD
ATOM     25  C   UNL     1      -8.618   4.807   5.384  1.00  0.00     0.037 A 
ATOM     26  C   UNL     1      -7.042   7.201  11.797  1.00  0.00     0.037 A 
ATOM     27  C   UNL     1      -9.573   4.489   6.416  1.00  0.00     0.049 A 
ATOM     28  C   UNL     1      -8.322   6.471  11.517  1.00  0.00     0.074 A 
ATOM     29  C   UNL     1     -10.732   3.739   6.316  1.00  0.00     0.029 A 
ATOM     30  N   UNL     1      -9.484   4.913   7.734  1.00  0.00    -0.354 N 
ATOM     31  N   UNL     1      -8.733   5.929  10.397  1.00  0.00    -0.248 NA
ATOM     32  C   UNL     1      -9.264   6.338  12.634  1.00  0.00     0.031 C 
ATOM     33  C   UNL     1     -11.371   3.753   7.560  1.00  0.00     0.029 A 
ATOM     34  C   UNL     1     -10.588   4.474   8.447  1.00  0.00     0.049 A 
ATOM     35  H   UNL     1      -8.745   5.446   8.107  1.00  0.00     0.167 HD
ATOM     36  C   UNL     1      -9.979   5.390  10.672  1.00  0.00     0.074 A 
ATOM     37  C   UNL     1     -10.243   5.641  12.075  1.00  0.00     0.031 C 
ATOM     38  C   UNL     1     -10.835   4.752   9.838  1.00  0.00     0.037 A 
BRANCH  25  39
ATOM     39  C   UNL     1      -8.941   4.373   3.985  1.00  0.00     0.064 A 
ATOM     40  C   UNL     1      -8.300   3.280   3.386  1.00  0.00     0.173 A 
ATOM     41  C   UNL     1      -9.979   4.997   3.276  1.00  0.00     0.173 A 
ATOM     42  F   UNL     1      -7.297   2.655   4.020  1.00  0.00    -0.203 F 
ATOM     43  C   UNL     1      -8.685   2.828   2.126  1.00  0.00     0.198 A 
ATOM     44  C   UNL     1     -10.375   4.531   2.025  1.00  0.00     0.198 A 
ATOM     45  F   UNL     1     -10.627   6.044   3.809  1.00  0.00    -0.203 F 
ATOM     46  F   UNL     1      -8.050   1.790   1.564  1.00  0.00    -0.200 F 
ATOM     47  C   UNL     1      -9.728   3.447   1.451  1.00  0.00     0.200 A 
ATOM     48  F   UNL     1     -11.390   5.122   1.381  1.00  0.00    -0.200 F 
ATOM     49  F   UNL     1     -10.111   2.997   0.248  1.00  0.00    -0.200 F 
ENDBRANCH  25  39
BRANCH  26  50
ATOM     50  C   UNL     1      -6.752   7.768  13.137  1.00  0.00     0.064 A 
ATOM     51  C   UNL     1      -6.499   6.938  14.236  1.00  0.00     0.173 A 
ATOM     52  C   UNL     1      -6.717   9.156  13.344  1.00  0.00     0.173 A 
ATOM     53  F   UNL     1      -6.539   5.605  14.092  1.00  0.00    -0.203 F 
ATOM     54  C   UNL     1      -6.241   7.474  15.496  1.00  0.00     0.198 A 
ATOM     55  C   UNL     1      -6.428   9.691  14.596  1.00  0.00     0.198 A 
ATOM     56  F   UNL     1      -6.946   9.993  12.321  1.00  0.00    -0.203 F 
ATOM     57  F   UNL     1      -6.048   6.658  16.541  1.00  0.00    -0.200 F 
ATOM     58  C   UNL     1      -6.200   8.849  15.674  1.00  0.00     0.200 A 
ATOM     59  F   UNL     1      -6.371  11.019  14.758  1.00  0.00    -0.200 F 
ATOM     60  F   UNL     1      -5.947   9.363  16.885  1.00  0.00    -0.200 F 
ENDBRANCH  26  50
BRANCH  38  61
ATOM     61  C   UNL     1     -12.135   4.293  10.426  1.00  0.00     0.064 A 
ATOM     62  C   UNL     1     -13.152   5.207  10.740  1.00  0.00     0.173 A 
ATOM     63  C   UNL     1     -12.373   2.932  10.659  1.00  0.00     0.173 A 
ATOM     64  F   UNL     1     -12.959   6.521  10.553  1.00  0.00    -0.203 F 
ATOM     65  C   UNL     1     -14.355   4.774  11.289  1.00  0.00     0.198 A 
ATOM     66  C   UNL     1     -13.588   2.500  11.183  1.00  0.00     0.198 A 
ATOM     67  F   UNL     1     -11.432   2.021  10.373  1.00  0.00    -0.203 F 
ATOM     68  F   UNL     1     -15.295   5.668  11.626  1.00  0.00    -0.200 F 
ATOM     69  C   UNL     1     -14.575   3.421  11.503  1.00  0.00     0.200 A 
ATOM     70  F   UNL     1     -13.804   1.192  11.381  1.00  0.00    -0.200 F 
ATOM     71  F   UNL     1     -15.735   3.006  12.029  1.00  0.00    -0.200 F 
ENDBRANCH  38  61
ENDBRANCH  12  13
ENDBRANCH   5   7
ENDBRANCH   2   3
ENDBRANCH   1   2
BRANCH   1  72
ATOM     72  C   UNL     1       3.205   7.396   3.818  1.00  0.00     0.023 C 
BRANCH  72  73
ATOM     73  C   UNL     1       3.974   6.763   4.977  1.00  0.00     0.116 C 
BRANCH  73  74
ATOM     74  N   UNL     1       4.112   5.329   4.801  1.00  0.00    -0.356 N 
ATOM     75  C   UNL     1       5.180   4.574   4.419  1.00  0.00     0.224 C 
ATOM     76  H   UNL     1       3.294   4.814   4.991  1.00  0.00     0.163 HD
ATOM     77  O   UNL     1       4.990   3.367   4.256  1.00  0.00    -0.275 OA
BRANCH  75  78
ATOM     78  C   UNL     1       6.565   5.176   4.228  1.00  0.00     0.098 C 
ATOM     79  C   UNL     1       6.618   6.212   3.092  1.00  0.00     0.017 C 
ATOM     80  C   UNL     1       7.112   5.646   5.583  1.00  0.00     0.133 C 
ATOM     81  C   UNL     1       7.872   7.080   3.116  1.00  0.00     0.022 C 
ATOM     82  N   UNL     1       8.293   6.489   5.437  1.00  0.00    -0.338 N 
ATOM     83  C   UNL     1       8.144   7.611   4.515  1.00  0.00     0.120 C 
BRANCH  82  84
ATOM     84  C   UNL     1       9.474   6.106   6.068  1.00  0.00     0.254 C 
ATOM     85  O   UNL     1       9.584   5.094   6.755  1.00  0.00    -0.269 OA
BRANCH  84  86
ATOM     86  C   UNL     1      10.667   6.952   5.899  1.00  0.00     0.049 A 
ATOM     87  C   UNL     1      10.708   8.234   6.469  1.00  0.00     0.014 A 
ATOM     88  C   UNL     1      11.775   6.460   5.179  1.00  0.00     0.012 A 
ATOM     89  C   UNL     1      11.823   9.046   6.283  1.00  0.00     0.003 A 
ATOM     90  C   UNL     1      12.879   7.300   5.018  1.00  0.00     0.046 A 
ATOM     91  C   UNL     1      12.084   5.236   4.517  1.00  0.00     0.029 A 
ATOM     92  C   UNL     1      12.927   8.597   5.549  1.00  0.00     0.027 A 
ATOM     93  N   UNL     1      13.817   6.602   4.289  1.00  0.00    -0.361 N 
ATOM     94  C   UNL     1      13.346   5.353   3.984  1.00  0.00     0.083 A 
ATOM     95  H   UNL     1      14.699   6.951   4.026  1.00  0.00     0.166 HD
ENDBRANCH  84  86
ENDBRANCH  82  84
ENDBRANCH  75  78
ENDBRANCH  73  74
ENDBRANCH  72  73
ENDBRANCH   1  72
TORSDOF 13
