REMARK SMILES Cc1ccccc1[C@@H]1[NH2+][C@@H](C(=O)NCCCCNC(=O)c2ccc(-c3c4nc(c(-c5c(F)c(F)c(F)c(F)c5F)c5ccc([nH]5)c(-c5c(F)c(F)c(F)c(F)c5F)c5nc(c(-c6c(F)c(F)c(F)c(F)c6F)c6ccc3[nH]6)C=C5)C=C4)cc2)CC2=c3ccccc3=N[C@@H]21
REMARK SMILES IDX 16 1 15 2 14 3 13 4 11 5 12 6 10 8 8 9 9 10 93 11 85 14
REMARK SMILES IDX 92 15 84 16 86 17 91 18 87 19 90 20 88 21 89 22 7 23 1 24
REMARK SMILES IDX 2 25 3 26 4 27 6 28 5 29 17 30 18 31 19 32 20 34 21 35 22 36
REMARK SMILES IDX 83 37 23 38 82 39 24 40 25 41 26 42 76 43 27 44 81 45 75 46
REMARK SMILES IDX 77 47 28 48 80 49 74 50 73 51 29 53 61 54 41 55 60 56 42 57
REMARK SMILES IDX 45 58 59 59 78 60 43 61 44 62 58 64 79 65 46 66 30 67 31 68
REMARK SMILES IDX 39 69 32 70 33 71 37 72 40 73 34 74 35 75 38 76 36 77 62 78
REMARK SMILES IDX 63 79 71 80 64 81 65 82 69 83 72 84 66 85 67 86 70 87 68 88
REMARK SMILES IDX 47 89 48 90 56 91 49 92 50 93 54 94 57 95 51 96 52 97 55 98
REMARK SMILES IDX 53 99
REMARK H PARENT 13 7 9 12 9 13 18 33 77 52 45 63
REMARK Flexibility Score: inf
ROOT
ATOM      1  C   UNL     1       3.349   2.720  -1.861  1.00  0.00     0.023 C 
ENDROOT
BRANCH   1   2
ATOM      2  C   UNL     1       3.760   4.128  -1.351  1.00  0.00     0.023 C 
BRANCH   2   3
ATOM      3  C   UNL     1       3.011   5.434  -1.773  1.00  0.00     0.116 C 
BRANCH   3   4
ATOM      4  N   UNL     1       1.733   5.984  -1.277  1.00  0.00    -0.351 N 
ATOM      5  C   UNL     1       1.161   6.054  -0.009  1.00  0.00     0.278 C 
ATOM      6  O   UNL     1       0.331   6.915   0.266  1.00  0.00    -0.268 OA
ATOM      7  H   UNL     1       1.173   6.378  -1.984  1.00  0.00     0.163 HD
BRANCH   5   8
ATOM      8  C   UNL     1       1.583   4.957   0.941  1.00  0.00     0.277 C 
ATOM      9  C   UNL     1       0.282   2.845   0.750  1.00  0.00     0.243 C 
ATOM     10  N   UNL     1       1.302   3.733   0.178  1.00  0.00    -0.327 N 
ATOM     11  C   UNL     1       1.105   2.247   1.989  1.00  0.00     0.196 C 
ATOM     12  H   UNL     1       0.990   4.009  -0.753  1.00  0.00     0.347 HD
ATOM     13  H   UNL     1       2.170   3.198   0.184  1.00  0.00     0.347 HD
ATOM     14  C   UNL     1       1.664   3.461   2.798  1.00  0.00    -0.024 C 
ATOM     15  N   UNL     1       2.377   1.555   1.551  1.00  0.00    -0.270 NA
ATOM     16  C   UNL     1       1.106   4.837   2.405  1.00  0.00     0.109 C 
ATOM     17  C   UNL     1       2.984   3.347   3.023  1.00  0.00     0.002 A 
ATOM     18  C   UNL     1       3.340   2.211   2.140  1.00  0.00     0.066 A 
ATOM     19  C   UNL     1       3.962   4.362   3.338  1.00  0.00     0.010 A 
ATOM     20  C   UNL     1       4.793   2.051   1.849  1.00  0.00     0.028 A 
ATOM     21  C   UNL     1       5.231   4.213   2.927  1.00  0.00     0.001 A 
ATOM     22  C   UNL     1       5.651   3.020   2.220  1.00  0.00     0.002 A 
BRANCH   9  23
ATOM     23  C   UNL     1      -0.417   2.161  -0.452  1.00  0.00     0.015 A 
ATOM     24  C   UNL     1      -1.786   0.490   0.911  1.00  0.00     0.045 C 
ATOM     25  C   UNL     1      -1.372   1.135  -0.376  1.00  0.00    -0.042 A 
ATOM     26  C   UNL     1      -2.112   0.777  -1.538  1.00  0.00     0.004 A 
ATOM     27  C   UNL     1      -1.929   1.405  -2.771  1.00  0.00     0.000 A 
ATOM     28  C   UNL     1      -0.306   2.801  -1.730  1.00  0.00     0.010 A 
ATOM     29  C   UNL     1      -1.015   2.428  -2.869  1.00  0.00     0.001 A 
ENDBRANCH   9  23
ENDBRANCH   5   8
ENDBRANCH   3   4
ENDBRANCH   2   3
ENDBRANCH   1   2
BRANCH   1  30
ATOM     30  C   UNL     1       3.623   2.477  -3.332  1.00  0.00     0.116 C 
BRANCH  30  31
ATOM     31  N   UNL     1       4.651   1.477  -3.628  1.00  0.00    -0.352 N 
ATOM     32  C   UNL     1       5.435   1.386  -4.775  1.00  0.00     0.251 C 
ATOM     33  H   UNL     1       4.805   0.792  -2.938  1.00  0.00     0.163 HD
ATOM     34  O   UNL     1       6.221   0.482  -4.961  1.00  0.00    -0.269 OA
BRANCH  32  35
ATOM     35  C   UNL     1       5.345   2.524  -5.721  1.00  0.00     0.039 A 
ATOM     36  C   UNL     1       6.434   3.398  -5.747  1.00  0.00     0.014 A 
ATOM     37  C   UNL     1       4.082   2.921  -6.159  1.00  0.00     0.014 A 
ATOM     38  C   UNL     1       6.197   4.753  -5.951  1.00  0.00     0.010 A 
ATOM     39  C   UNL     1       3.836   4.280  -6.266  1.00  0.00     0.010 A 
ATOM     40  C   UNL     1       4.878   5.200  -6.084  1.00  0.00    -0.014 A 
BRANCH  40  41
ATOM     41  C   UNL     1       4.523   6.611  -5.948  1.00  0.00     0.031 A 
ATOM     42  C   UNL     1       4.169   7.384  -7.152  1.00  0.00     0.074 A 
ATOM     43  C   UNL     1       4.645   7.296  -4.788  1.00  0.00     0.049 A 
ATOM     44  N   UNL     1       4.588   8.587  -7.370  1.00  0.00    -0.248 NA
ATOM     45  C   UNL     1       3.361   6.836  -8.231  1.00  0.00     0.031 C 
ATOM     46  C   UNL     1       4.198   8.663  -4.522  1.00  0.00     0.029 A 
ATOM     47  N   UNL     1       5.357   6.955  -3.650  1.00  0.00    -0.354 N 
ATOM     48  C   UNL     1       3.923   9.056  -8.474  1.00  0.00     0.074 A 
ATOM     49  C   UNL     1       3.223   7.910  -9.013  1.00  0.00     0.031 C 
ATOM     50  C   UNL     1       4.821   9.127  -3.428  1.00  0.00     0.029 A 
ATOM     51  C   UNL     1       5.763   8.117  -2.984  1.00  0.00     0.049 A 
ATOM     52  H   UNL     1       5.548   6.036  -3.355  1.00  0.00     0.167 HD
ATOM     53  C   UNL     1       3.911  10.390  -8.753  1.00  0.00     0.037 A 
ATOM     54  C   UNL     1       7.058   8.336  -2.614  1.00  0.00     0.037 A 
ATOM     55  C   UNL     1       4.608  11.172  -7.738  1.00  0.00     0.049 A 
ATOM     56  C   UNL     1       7.681   9.531  -3.290  1.00  0.00     0.074 A 
ATOM     57  C   UNL     1       4.144  11.859  -6.628  1.00  0.00     0.029 A 
ATOM     58  N   UNL     1       5.989  11.079  -7.591  1.00  0.00    -0.354 N 
ATOM     59  N   UNL     1       7.127  10.168  -4.282  1.00  0.00    -0.248 NA
ATOM     60  C   UNL     1       9.018  10.033  -2.978  1.00  0.00     0.031 C 
ATOM     61  C   UNL     1       5.248  12.176  -5.807  1.00  0.00     0.029 A 
ATOM     62  C   UNL     1       6.390  11.677  -6.409  1.00  0.00     0.049 A 
ATOM     63  H   UNL     1       6.595  10.650  -8.237  1.00  0.00     0.167 HD
ATOM     64  C   UNL     1       8.035  11.039  -4.819  1.00  0.00     0.074 A 
ATOM     65  C   UNL     1       9.179  10.966  -3.931  1.00  0.00     0.031 C 
ATOM     66  C   UNL     1       7.783  11.694  -5.989  1.00  0.00     0.037 A 
BRANCH  53  67
ATOM     67  C   UNL     1       2.957  10.972  -9.766  1.00  0.00     0.064 A 
ATOM     68  C   UNL     1       2.306  12.201  -9.544  1.00  0.00     0.173 A 
ATOM     69  C   UNL     1       2.596  10.311 -10.955  1.00  0.00     0.173 A 
ATOM     70  F   UNL     1       2.640  12.999  -8.523  1.00  0.00    -0.203 F 
ATOM     71  C   UNL     1       1.270  12.654 -10.364  1.00  0.00     0.198 A 
ATOM     72  C   UNL     1       1.520  10.729 -11.741  1.00  0.00     0.198 A 
ATOM     73  F   UNL     1       3.291   9.248 -11.389  1.00  0.00    -0.203 F 
ATOM     74  F   UNL     1       0.671  13.822 -10.094  1.00  0.00    -0.200 F 
ATOM     75  C   UNL     1       0.845  11.894 -11.435  1.00  0.00     0.200 A 
ATOM     76  F   UNL     1       1.131   9.987 -12.788  1.00  0.00    -0.200 F 
ATOM     77  F   UNL     1      -0.196  12.292 -12.178  1.00  0.00    -0.200 F 
ENDBRANCH  53  67
BRANCH  54  78
ATOM     78  C   UNL     1       7.788   7.078  -2.319  1.00  0.00     0.064 A 
ATOM     79  C   UNL     1       7.359   6.329  -1.210  1.00  0.00     0.173 A 
ATOM     80  C   UNL     1       8.518   6.419  -3.317  1.00  0.00     0.173 A 
ATOM     81  F   UNL     1       6.656   6.918  -0.230  1.00  0.00    -0.203 F 
ATOM     82  C   UNL     1       7.495   4.946  -1.193  1.00  0.00     0.198 A 
ATOM     83  C   UNL     1       8.664   5.034  -3.284  1.00  0.00     0.198 A 
ATOM     84  F   UNL     1       8.958   7.089  -4.391  1.00  0.00    -0.203 F 
ATOM     85  F   UNL     1       6.923   4.237  -0.212  1.00  0.00    -0.200 F 
ATOM     86  C   UNL     1       8.105   4.295  -2.252  1.00  0.00     0.200 A 
ATOM     87  F   UNL     1       9.250   4.402  -4.311  1.00  0.00    -0.200 F 
ATOM     88  F   UNL     1       8.096   2.957  -2.304  1.00  0.00    -0.200 F 
ENDBRANCH  54  78
BRANCH  66  89
ATOM     89  C   UNL     1       8.801  12.482  -6.768  1.00  0.00     0.064 A 
ATOM     90  C   UNL     1      10.172  12.175  -6.795  1.00  0.00     0.173 A 
ATOM     91  C   UNL     1       8.392  13.534  -7.618  1.00  0.00     0.173 A 
ATOM     92  F   UNL     1      10.660  11.111  -6.142  1.00  0.00    -0.203 F 
ATOM     93  C   UNL     1      11.083  12.925  -7.542  1.00  0.00     0.198 A 
ATOM     94  C   UNL     1       9.296  14.246  -8.407  1.00  0.00     0.198 A 
ATOM     95  F   UNL     1       7.102  13.887  -7.720  1.00  0.00    -0.203 F 
ATOM     96  F   UNL     1      12.389  12.629  -7.488  1.00  0.00    -0.200 F 
ATOM     97  C   UNL     1      10.645  13.957  -8.350  1.00  0.00     0.200 A 
ATOM     98  F   UNL     1       8.850  15.205  -9.230  1.00  0.00    -0.200 F 
ATOM     99  F   UNL     1      11.517  14.656  -9.088  1.00  0.00    -0.200 F 
ENDBRANCH  66  89
ENDBRANCH  40  41
ENDBRANCH  32  35
ENDBRANCH  30  31
ENDBRANCH   1  30
TORSDOF 12
