REMARK SMILES N#C[C@@H](c1ccccc1)[C@H](CC(=O)NCCCCNC(=O)c1ccc(-c2c3nc(c(-c4c(F)c(F)c(F)c(F)c4F)c4ccc([nH]4)c(-c4c(F)c(F)c(F)c(F)c4F)c4nc(c(-c5c(F)c(F)c(F)c(F)c5F)c5ccc2[nH]5)C=C4)C=C3)cc1)c1ccccc1
REMARK SMILES IDX 16 1 15 2 14 3 12 4 13 5 11 7 10 8 3 9 2 10 1 11 4 12 5 13
REMARK SMILES IDX 9 14 6 15 8 16 7 17 85 18 86 19 90 20 87 21 89 22 88 23
REMARK SMILES IDX 17 24 18 25 19 26 20 27 21 29 22 30 23 31 84 32 24 33 83 34
REMARK SMILES IDX 25 35 26 36 27 37 77 38 28 39 82 40 76 41 78 42 29 43 81 44
REMARK SMILES IDX 75 45 74 46 30 48 62 49 42 50 61 51 43 52 46 53 60 54 79 55
REMARK SMILES IDX 44 56 45 57 59 59 80 60 47 61 31 62 32 63 40 64 33 65 34 66
REMARK SMILES IDX 38 67 41 68 35 69 36 70 39 71 37 72 63 73 64 74 72 75 65 76
REMARK SMILES IDX 66 77 70 78 73 79 67 80 68 81 71 82 69 83 48 84 49 85 57 86
REMARK SMILES IDX 50 87 51 88 55 89 58 90 52 91 53 92 56 93 54 94
REMARK H PARENT 14 6 19 28 78 47 46 58
REMARK Flexibility Score: inf
ROOT
ATOM      1  C   UNL     1       7.582  -0.384   1.242  1.00  0.00     0.023 C 
ENDROOT
BRANCH   1   2
ATOM      2  C   UNL     1       6.427  -0.164   2.203  1.00  0.00     0.116 C 
BRANCH   2   3
ATOM      3  N   UNL     1       5.543   0.906   1.790  1.00  0.00    -0.356 N 
ATOM      4  C   UNL     1       4.577   0.906   0.835  1.00  0.00     0.220 C 
ATOM      5  O   UNL     1       3.837   1.886   0.743  1.00  0.00    -0.275 OA
ATOM      6  H   UNL     1       5.660   1.757   2.270  1.00  0.00     0.163 HD
BRANCH   4   7
ATOM      7  C   UNL     1       4.371  -0.295  -0.060  1.00  0.00     0.110 C 
BRANCH   7   8
ATOM      8  C   UNL     1       4.637  -0.074  -1.572  1.00  0.00     0.050 C 
BRANCH   8   9
ATOM      9  C   UNL     1       3.849   1.133  -2.193  1.00  0.00     0.130 C 
BRANCH   9  10
ATOM     10  C   UNL     1       4.520   2.477  -1.960  1.00  0.00     0.071 C 
ATOM     11  N   UNL     1       5.076   3.592  -1.767  1.00  0.00    -0.198 NA
ENDBRANCH   9  10
BRANCH   9  12
ATOM     12  C   UNL     1       3.645   0.979  -3.721  1.00  0.00    -0.030 A 
ATOM     13  C   UNL     1       4.715   0.750  -4.610  1.00  0.00     0.005 A 
ATOM     14  C   UNL     1       2.372   1.151  -4.284  1.00  0.00     0.005 A 
ATOM     15  C   UNL     1       4.527   0.660  -5.990  1.00  0.00     0.000 A 
ATOM     16  C   UNL     1       2.183   1.076  -5.672  1.00  0.00     0.000 A 
ATOM     17  C   UNL     1       3.258   0.825  -6.523  1.00  0.00     0.000 A 
ENDBRANCH   9  12
ENDBRANCH   8   9
BRANCH   8  18
ATOM     18  C   UNL     1       6.114  -0.286  -1.949  1.00  0.00    -0.043 A 
ATOM     19  C   UNL     1       6.567  -1.599  -2.187  1.00  0.00     0.004 A 
ATOM     20  C   UNL     1       7.056   0.746  -2.093  1.00  0.00     0.004 A 
ATOM     21  C   UNL     1       7.891  -1.858  -2.564  1.00  0.00     0.000 A 
ATOM     22  C   UNL     1       8.367   0.492  -2.517  1.00  0.00     0.000 A 
ATOM     23  C   UNL     1       8.789  -0.811  -2.740  1.00  0.00     0.000 A 
ENDBRANCH   8  18
ENDBRANCH   7   8
ENDBRANCH   4   7
ENDBRANCH   2   3
ENDBRANCH   1   2
BRANCH   1  24
ATOM     24  C   UNL     1       8.483   0.841   1.081  1.00  0.00     0.023 C 
BRANCH  24  25
ATOM     25  C   UNL     1       9.873   0.560   1.599  1.00  0.00     0.116 C 
BRANCH  25  26
ATOM     26  N   UNL     1      10.567  -0.500   0.879  1.00  0.00    -0.352 N 
ATOM     27  C   UNL     1      11.908  -0.806   0.907  1.00  0.00     0.251 C 
ATOM     28  H   UNL     1      10.007  -1.068   0.303  1.00  0.00     0.163 HD
ATOM     29  O   UNL     1      12.360  -1.704   0.202  1.00  0.00    -0.269 OA
BRANCH  27  30
ATOM     30  C   UNL     1      12.815   0.017   1.739  1.00  0.00     0.039 A 
ATOM     31  C   UNL     1      14.047   0.414   1.217  1.00  0.00     0.014 A 
ATOM     32  C   UNL     1      12.418   0.469   2.997  1.00  0.00     0.014 A 
ATOM     33  C   UNL     1      14.838   1.318   1.929  1.00  0.00     0.010 A 
ATOM     34  C   UNL     1      13.118   1.487   3.620  1.00  0.00     0.010 A 
ATOM     35  C   UNL     1      14.358   1.892   3.117  1.00  0.00    -0.014 A 
BRANCH  35  36
ATOM     36  C   UNL     1      15.159   2.855   3.909  1.00  0.00     0.031 A 
ATOM     37  C   UNL     1      15.503   2.523   5.338  1.00  0.00     0.074 A 
ATOM     38  C   UNL     1      15.501   4.043   3.377  1.00  0.00     0.049 A 
ATOM     39  N   UNL     1      16.097   3.258   6.243  1.00  0.00    -0.248 NA
ATOM     40  C   UNL     1      15.064   1.208   5.838  1.00  0.00     0.031 C 
ATOM     41  C   UNL     1      15.146   4.510   2.035  1.00  0.00     0.029 A 
ATOM     42  N   UNL     1      16.225   5.079   3.907  1.00  0.00    -0.354 N 
ATOM     43  C   UNL     1      16.061   2.512   7.414  1.00  0.00     0.074 A 
ATOM     44  C   UNL     1      15.311   1.310   7.133  1.00  0.00     0.031 C 
ATOM     45  C   UNL     1      15.695   5.718   1.830  1.00  0.00     0.029 A 
ATOM     46  C   UNL     1      16.411   6.123   3.035  1.00  0.00     0.049 A 
ATOM     47  H   UNL     1      16.577   5.076   4.827  1.00  0.00     0.167 HD
ATOM     48  C   UNL     1      16.643   2.779   8.606  1.00  0.00     0.037 A 
ATOM     49  C   UNL     1      17.098   7.269   3.195  1.00  0.00     0.037 A 
ATOM     50  C   UNL     1      17.454   3.940   8.848  1.00  0.00     0.049 A 
ATOM     51  C   UNL     1      17.805   7.508   4.502  1.00  0.00     0.074 A 
ATOM     52  C   UNL     1      18.161   4.281   9.986  1.00  0.00     0.029 A 
ATOM     53  N   UNL     1      17.680   4.943   7.916  1.00  0.00    -0.354 N 
ATOM     54  N   UNL     1      17.825   6.763   5.582  1.00  0.00    -0.248 NA
ATOM     55  C   UNL     1      18.599   8.739   4.606  1.00  0.00     0.031 C 
ATOM     56  C   UNL     1      18.796   5.506   9.750  1.00  0.00     0.029 A 
ATOM     57  C   UNL     1      18.516   5.906   8.452  1.00  0.00     0.049 A 
ATOM     58  H   UNL     1      17.300   4.966   7.007  1.00  0.00     0.167 HD
ATOM     59  C   UNL     1      18.652   7.419   6.483  1.00  0.00     0.074 A 
ATOM     60  C   UNL     1      19.132   8.611   5.813  1.00  0.00     0.031 C 
ATOM     61  C   UNL     1      18.983   7.074   7.752  1.00  0.00     0.037 A 
BRANCH  48  62
ATOM     62  C   UNL     1      16.445   1.782   9.713  1.00  0.00     0.064 A 
ATOM     63  C   UNL     1      16.997   0.492   9.651  1.00  0.00     0.173 A 
ATOM     64  C   UNL     1      15.691   2.116  10.847  1.00  0.00     0.173 A 
ATOM     65  F   UNL     1      17.711   0.114   8.580  1.00  0.00    -0.203 F 
ATOM     66  C   UNL     1      16.764  -0.439  10.659  1.00  0.00     0.198 A 
ATOM     67  C   UNL     1      15.491   1.193  11.872  1.00  0.00     0.198 A 
ATOM     68  F   UNL     1      15.141   3.334  10.961  1.00  0.00    -0.203 F 
ATOM     69  F   UNL     1      17.241  -1.686  10.541  1.00  0.00    -0.200 F 
ATOM     70  C   UNL     1      16.017  -0.086  11.772  1.00  0.00     0.200 A 
ATOM     71  F   UNL     1      14.776   1.539  12.952  1.00  0.00    -0.200 F 
ATOM     72  F   UNL     1      15.793  -0.983  12.742  1.00  0.00    -0.200 F 
ENDBRANCH  48  62
BRANCH  49  73
ATOM     73  C   UNL     1      17.208   8.238   2.073  1.00  0.00     0.064 A 
ATOM     74  C   UNL     1      18.425   8.420   1.402  1.00  0.00     0.173 A 
ATOM     75  C   UNL     1      16.110   8.998   1.648  1.00  0.00     0.173 A 
ATOM     76  F   UNL     1      19.509   7.727   1.782  1.00  0.00    -0.203 F 
ATOM     77  C   UNL     1      18.548   9.346   0.368  1.00  0.00     0.198 A 
ATOM     78  C   UNL     1      16.226   9.904   0.595  1.00  0.00     0.198 A 
ATOM     79  F   UNL     1      14.920   8.854   2.249  1.00  0.00    -0.203 F 
ATOM     80  F   UNL     1      19.736   9.534  -0.223  1.00  0.00    -0.200 F 
ATOM     81  C   UNL     1      17.447  10.084  -0.038  1.00  0.00     0.200 A 
ATOM     82  F   UNL     1      15.156  10.605   0.196  1.00  0.00    -0.200 F 
ATOM     83  F   UNL     1      17.564  10.973  -1.033  1.00  0.00    -0.200 F 
ENDBRANCH  49  73
BRANCH  61  84
ATOM     84  C   UNL     1      19.933   7.981   8.476  1.00  0.00     0.064 A 
ATOM     85  C   UNL     1      19.539   9.249   8.925  1.00  0.00     0.173 A 
ATOM     86  C   UNL     1      21.245   7.562   8.745  1.00  0.00     0.173 A 
ATOM     87  F   UNL     1      18.298   9.697   8.679  1.00  0.00    -0.203 F 
ATOM     88  C   UNL     1      20.435  10.081   9.590  1.00  0.00     0.198 A 
ATOM     89  C   UNL     1      22.128   8.384   9.438  1.00  0.00     0.198 A 
ATOM     90  F   UNL     1      21.665   6.353   8.344  1.00  0.00    -0.203 F 
ATOM     91  F   UNL     1      20.055  11.310   9.962  1.00  0.00    -0.200 F 
ATOM     92  C   UNL     1      21.726   9.645   9.850  1.00  0.00     0.200 A 
ATOM     93  F   UNL     1      23.371   7.957   9.702  1.00  0.00    -0.200 F 
ATOM     94  F   UNL     1      22.587  10.447  10.492  1.00  0.00    -0.200 F 
ENDBRANCH  61  84
ENDBRANCH  35  36
ENDBRANCH  27  30
ENDBRANCH  25  26
ENDBRANCH  24  25
ENDBRANCH   1  24
TORSDOF 16
