REMARK SMILES Cc1cc(C)cc(CSCc2cc(C(=O)NCCCCNC(=O)c3ccc(-c4c5nc(c(-c6c(F)c(F)c(F)c(F)c6F)c6ccc([nH]6)c(-c6c(F)c(F)c(F)c(F)c6F)c6nc(c(-c7c(F)c(F)c(F)c(F)c7F)c7ccc4[nH]7)C=C6)C=C5)cc3)c(C)o2)c1
REMARK SMILES IDX 17 1 16 2 14 3 15 4 13 6 11 7 12 8 89 9 87 10 88 11 10 12
REMARK SMILES IDX 9 13 8 14 7 15 1 16 2 17 3 18 90 19 4 20 5 21 6 22 18 23
REMARK SMILES IDX 19 24 20 25 21 26 22 27 23 29 24 30 25 31 86 32 26 33 85 34
REMARK SMILES IDX 27 35 28 36 29 37 79 38 30 39 84 40 78 41 80 42 31 43 83 44
REMARK SMILES IDX 77 45 76 46 32 48 64 49 44 50 63 51 45 52 48 53 62 54 81 55
REMARK SMILES IDX 46 56 47 57 61 59 82 60 49 61 33 62 34 63 42 64 35 65 36 66
REMARK SMILES IDX 40 67 43 68 37 69 38 70 41 71 39 72 65 73 66 74 74 75 67 76
REMARK SMILES IDX 68 77 72 78 75 79 69 80 70 81 73 82 71 83 50 84 51 85 59 86
REMARK SMILES IDX 52 87 53 88 57 89 60 90 54 91 55 92 58 93 56 94
REMARK H PARENT 16 5 21 28 80 47 48 58
REMARK Flexibility Score: inf
ROOT
ATOM      1  C   UNL     1      -3.422   0.447   1.184  1.00  0.00     0.116 C 
ENDROOT
BRANCH   1   2
ATOM      2  N   UNL     1      -2.831   1.548   1.917  1.00  0.00    -0.352 N 
ATOM      3  C   UNL     1      -1.752   1.556   2.791  1.00  0.00     0.254 C 
ATOM      4  O   UNL     1      -1.434   2.646   3.263  1.00  0.00    -0.269 OA
ATOM      5  H   UNL     1      -3.260   2.423   1.775  1.00  0.00     0.163 HD
BRANCH   3   6
ATOM      6  C   UNL     1      -1.020   0.329   3.120  1.00  0.00     0.081 A 
ATOM      7  C   UNL     1      -0.118  -1.756   3.094  1.00  0.00     0.114 A 
ATOM      8  C   UNL     1      -1.075  -0.955   2.522  1.00  0.00     0.060 A 
ATOM      9  O   UNL     1       0.491  -1.070   4.096  1.00  0.00    -0.465 OA
ATOM     10  C   UNL     1      -0.052   0.187   4.115  1.00  0.00     0.113 A 
ATOM     11  C   UNL     1       0.505   1.071   5.166  1.00  0.00     0.088 C 
BRANCH   7  12
ATOM     12  C   UNL     1       0.347  -3.139   2.814  1.00  0.00     0.145 C 
BRANCH  12  13
ATOM     13  S   UNL     1      -0.493  -3.875   1.358  1.00  0.00    -0.149 SA
BRANCH  13  14
ATOM     14  C   UNL     1       0.567  -3.305  -0.007  1.00  0.00     0.105 C 
BRANCH  14  15
ATOM     15  C   UNL     1       0.727  -1.814  -0.185  1.00  0.00    -0.038 A 
ATOM     16  C   UNL     1       3.399   0.859   0.390  1.00  0.00     0.044 C 
ATOM     17  C   UNL     1       2.115   0.189   0.009  1.00  0.00    -0.051 A 
ATOM     18  C   UNL     1       1.081   0.954  -0.528  1.00  0.00     0.006 A 
ATOM     19  C   UNL     1       1.924  -1.187   0.196  1.00  0.00     0.008 A 
ATOM     20  C   UNL     1      -0.105   0.350  -0.945  1.00  0.00    -0.051 A 
ATOM     21  C   UNL     1      -1.168   1.214  -1.540  1.00  0.00     0.044 C 
ATOM     22  C   UNL     1      -0.281  -1.031  -0.770  1.00  0.00     0.008 A 
ENDBRANCH  14  15
ENDBRANCH  13  14
ENDBRANCH  12  13
ENDBRANCH   7  12
ENDBRANCH   3   6
ENDBRANCH   1   2
BRANCH   1  23
ATOM     23  C   UNL     1      -4.814   0.654   0.592  1.00  0.00     0.023 C 
BRANCH  23  24
ATOM     24  C   UNL     1      -5.116   1.883  -0.261  1.00  0.00     0.023 C 
BRANCH  24  25
ATOM     25  C   UNL     1      -4.551   2.018  -1.675  1.00  0.00     0.116 C 
BRANCH  25  26
ATOM     26  N   UNL     1      -4.536   0.824  -2.504  1.00  0.00    -0.352 N 
ATOM     27  C   UNL     1      -4.630   0.748  -3.881  1.00  0.00     0.251 C 
ATOM     28  H   UNL     1      -4.447  -0.033  -2.028  1.00  0.00     0.163 HD
ATOM     29  O   UNL     1      -4.512  -0.325  -4.462  1.00  0.00    -0.269 OA
BRANCH  27  30
ATOM     30  C   UNL     1      -4.955   1.969  -4.652  1.00  0.00     0.039 A 
ATOM     31  C   UNL     1      -6.146   1.990  -5.382  1.00  0.00     0.014 A 
ATOM     32  C   UNL     1      -4.156   3.112  -4.571  1.00  0.00     0.014 A 
ATOM     33  C   UNL     1      -6.601   3.193  -5.926  1.00  0.00     0.010 A 
ATOM     34  C   UNL     1      -4.639   4.325  -5.069  1.00  0.00     0.010 A 
ATOM     35  C   UNL     1      -5.886   4.385  -5.712  1.00  0.00    -0.014 A 
BRANCH  35  36
ATOM     36  C   UNL     1      -6.493   5.700  -6.057  1.00  0.00     0.031 A 
ATOM     37  C   UNL     1      -5.896   6.580  -7.116  1.00  0.00     0.074 A 
ATOM     38  C   UNL     1      -7.566   6.127  -5.359  1.00  0.00     0.049 A 
ATOM     39  N   UNL     1      -6.286   7.763  -7.522  1.00  0.00    -0.248 NA
ATOM     40  C   UNL     1      -4.696   6.075  -7.796  1.00  0.00     0.031 C 
ATOM     41  C   UNL     1      -8.212   5.390  -4.271  1.00  0.00     0.029 A 
ATOM     42  N   UNL     1      -8.300   7.285  -5.452  1.00  0.00    -0.354 N 
ATOM     43  C   UNL     1      -5.383   8.144  -8.505  1.00  0.00     0.074 A 
ATOM     44  C   UNL     1      -4.396   7.088  -8.598  1.00  0.00     0.031 C 
ATOM     45  C   UNL     1      -9.257   6.099  -3.816  1.00  0.00     0.029 A 
ATOM     46  C   UNL     1      -9.332   7.359  -4.548  1.00  0.00     0.049 A 
ATOM     47  H   UNL     1      -8.105   7.995  -6.106  1.00  0.00     0.167 HD
ATOM     48  C   UNL     1      -5.390   9.261  -9.272  1.00  0.00     0.037 A 
ATOM     49  C   UNL     1     -10.233   8.336  -4.322  1.00  0.00     0.037 A 
ATOM     50  C   UNL     1      -6.373  10.311  -9.177  1.00  0.00     0.049 A 
ATOM     51  C   UNL     1     -10.193   9.582  -5.165  1.00  0.00     0.074 A 
ATOM     52  C   UNL     1      -6.492  11.453  -9.951  1.00  0.00     0.029 A 
ATOM     53  N   UNL     1      -7.398  10.356  -8.243  1.00  0.00    -0.354 N 
ATOM     54  N   UNL     1      -9.385   9.890  -6.149  1.00  0.00    -0.248 NA
ATOM     55  C   UNL     1     -11.195  10.616  -4.867  1.00  0.00     0.031 C 
ATOM     56  C   UNL     1      -7.548  12.219  -9.445  1.00  0.00     0.029 A 
ATOM     57  C   UNL     1      -8.130  11.524  -8.398  1.00  0.00     0.049 A 
ATOM     58  H   UNL     1      -7.579   9.661  -7.569  1.00  0.00     0.167 HD
ATOM     59  C   UNL     1      -9.795  11.137  -6.604  1.00  0.00     0.074 A 
ATOM     60  C   UNL     1     -10.938  11.518  -5.803  1.00  0.00     0.031 C 
ATOM     61  C   UNL     1      -9.267  11.898  -7.594  1.00  0.00     0.037 A 
BRANCH  48  62
ATOM     62  C   UNL     1      -4.292   9.415 -10.287  1.00  0.00     0.064 A 
ATOM     63  C   UNL     1      -4.222   8.598 -11.426  1.00  0.00     0.173 A 
ATOM     64  C   UNL     1      -3.330  10.428 -10.149  1.00  0.00     0.173 A 
ATOM     65  F   UNL     1      -5.113   7.611 -11.604  1.00  0.00    -0.203 F 
ATOM     66  C   UNL     1      -3.214   8.769 -12.372  1.00  0.00     0.198 A 
ATOM     67  C   UNL     1      -2.343  10.617 -11.113  1.00  0.00     0.198 A 
ATOM     68  F   UNL     1      -3.355  11.245  -9.085  1.00  0.00    -0.203 F 
ATOM     69  F   UNL     1      -3.141   7.946 -13.427  1.00  0.00    -0.200 F 
ATOM     70  C   UNL     1      -2.281   9.783 -12.219  1.00  0.00     0.200 A 
ATOM     71  F   UNL     1      -1.453  11.609 -10.972  1.00  0.00    -0.200 F 
ATOM     72  F   UNL     1      -1.319   9.954 -13.136  1.00  0.00    -0.200 F 
ENDBRANCH  48  62
BRANCH  49  73
ATOM     73  C   UNL     1     -11.257   8.175  -3.255  1.00  0.00     0.064 A 
ATOM     74  C   UNL     1     -12.618   8.054  -3.570  1.00  0.00     0.173 A 
ATOM     75  C   UNL     1     -10.900   8.157  -1.898  1.00  0.00     0.173 A 
ATOM     76  F   UNL     1     -13.014   8.088  -4.851  1.00  0.00    -0.203 F 
ATOM     77  C   UNL     1     -13.583   7.948  -2.571  1.00  0.00     0.198 A 
ATOM     78  C   UNL     1     -11.863   8.016  -0.901  1.00  0.00     0.198 A 
ATOM     79  F   UNL     1      -9.612   8.265  -1.540  1.00  0.00    -0.203 F 
ATOM     80  F   UNL     1     -14.881   7.889  -2.899  1.00  0.00    -0.200 F 
ATOM     81  C   UNL     1     -13.204   7.922  -1.237  1.00  0.00     0.200 A 
ATOM     82  F   UNL     1     -11.490   7.975   0.386  1.00  0.00    -0.200 F 
ATOM     83  F   UNL     1     -14.133   7.816  -0.276  1.00  0.00    -0.200 F 
ENDBRANCH  49  73
BRANCH  61  84
ATOM     84  C   UNL     1      -9.937  13.212  -7.886  1.00  0.00     0.064 A 
ATOM     85  C   UNL     1      -9.869  14.290  -6.990  1.00  0.00     0.173 A 
ATOM     86  C   UNL     1     -10.629  13.406  -9.091  1.00  0.00     0.173 A 
ATOM     87  F   UNL     1      -9.234  14.153  -5.816  1.00  0.00    -0.203 F 
ATOM     88  C   UNL     1     -10.494  15.501  -7.277  1.00  0.00     0.198 A 
ATOM     89  C   UNL     1     -11.223  14.630  -9.390  1.00  0.00     0.198 A 
ATOM     90  F   UNL     1     -10.721  12.411  -9.987  1.00  0.00    -0.203 F 
ATOM     91  F   UNL     1     -10.462  16.498  -6.381  1.00  0.00    -0.200 F 
ATOM     92  C   UNL     1     -11.162  15.673  -8.479  1.00  0.00     0.200 A 
ATOM     93  F   UNL     1     -11.855  14.798 -10.560  1.00  0.00    -0.200 F 
ATOM     94  F   UNL     1     -11.756  16.842  -8.757  1.00  0.00    -0.200 F 
ENDBRANCH  61  84
ENDBRANCH  35  36
ENDBRANCH  27  30
ENDBRANCH  25  26
ENDBRANCH  24  25
ENDBRANCH  23  24
ENDBRANCH   1  23
TORSDOF 15
