REMARK SMILES CCC(CC)(CC(=O)Nc1ccc(NC(C)=O)cc1)C(=O)NCCCCNC(=O)c1ccc(-c2c3nc(c(-c4c(F)c(F)c(F)c(F)c4F)c4ccc([nH]4)c(-c4c(F)c(F)c(F)c(F)c4F)c4nc(c(-c5c(F)c(F)c(F)c(F)c5F)c5ccc2[nH]5)C=C4)C=C3)cc1
REMARK SMILES IDX 23 1 22 2 20 3 21 4 3 6 2 7 1 8 4 9 5 10 6 11 7 12 8 13 9 14
REMARK SMILES IDX 10 16 11 17 19 18 12 19 18 20 13 21 14 22 15 23 16 25 17 26
REMARK SMILES IDX 24 27 25 28 26 29 27 30 28 31 29 33 30 34 31 35 92 36 32 37
REMARK SMILES IDX 91 38 33 39 34 40 35 41 85 42 36 43 90 44 84 45 86 46 37 47
REMARK SMILES IDX 89 48 83 49 82 50 38 52 70 53 50 54 69 55 51 56 54 57 68 58
REMARK SMILES IDX 87 59 52 60 53 61 67 63 88 64 55 65 39 66 40 67 48 68 41 69
REMARK SMILES IDX 42 70 46 71 49 72 43 73 44 74 47 75 45 76 71 77 72 78 80 79
REMARK SMILES IDX 73 80 74 81 78 82 81 83 75 84 76 85 79 86 77 87 56 88 57 89
REMARK SMILES IDX 65 90 58 91 59 92 63 93 66 94 60 95 61 96 64 97 62 98
REMARK H PARENT 22 5 9 15 14 24 27 32 86 51 54 62
REMARK Flexibility Score: inf
ROOT
ATOM      1  C   UNL     1       2.313   0.275   5.377  1.00  0.00     0.116 C 
ENDROOT
BRANCH   1   2
ATOM      2  N   UNL     1       2.973   0.080   4.104  1.00  0.00    -0.356 N 
ATOM      3  C   UNL     1       2.510  -0.108   2.846  1.00  0.00     0.226 C 
ATOM      4  O   UNL     1       3.380  -0.319   1.994  1.00  0.00    -0.274 OA
ATOM      5  H   UNL     1       3.955   0.086   4.164  1.00  0.00     0.163 HD
BRANCH   3   6
ATOM      6  C   UNL     1       1.008  -0.064   2.478  1.00  0.00     0.057 C 
BRANCH   6   7
ATOM      7  C   UNL     1       0.909  -0.095   0.926  1.00  0.00     0.014 C 
ATOM      8  C   UNL     1       1.373   1.117   0.129  1.00  0.00     0.005 C 
ENDBRANCH   6   7
BRANCH   6   9
ATOM      9  C   UNL     1       0.340   1.254   2.983  1.00  0.00     0.014 C 
ATOM     10  C   UNL     1      -1.181   1.300   2.879  1.00  0.00     0.005 C 
ENDBRANCH   6   9
BRANCH   6  11
ATOM     11  C   UNL     1       0.273  -1.337   3.009  1.00  0.00     0.117 C 
BRANCH  11  12
ATOM     12  C   UNL     1       0.946  -2.708   2.837  1.00  0.00     0.225 C 
ATOM     13  O   UNL     1       1.874  -3.044   3.578  1.00  0.00    -0.275 OA
ATOM     14  N   UNL     1       0.415  -3.640   1.971  1.00  0.00    -0.326 N 
ATOM     15  H   UNL     1       0.662  -4.579   2.137  1.00  0.00     0.169 HD
BRANCH  14  16
ATOM     16  C   UNL     1      -0.433  -3.408   0.882  1.00  0.00     0.041 A 
ATOM     17  C   UNL     1      -1.766  -3.799   0.920  1.00  0.00     0.028 A 
ATOM     18  C   UNL     1       0.064  -2.804  -0.266  1.00  0.00     0.028 A 
ATOM     19  C   UNL     1      -2.639  -3.396  -0.104  1.00  0.00     0.028 A 
ATOM     20  C   UNL     1      -0.809  -2.342  -1.252  1.00  0.00     0.028 A 
ATOM     21  C   UNL     1      -2.178  -2.597  -1.155  1.00  0.00     0.041 A 
BRANCH  21  22
ATOM     22  N   UNL     1      -3.011  -1.969  -2.101  1.00  0.00    -0.326 N 
ATOM     23  C   UNL     1      -4.362  -2.178  -2.297  1.00  0.00     0.221 C 
ATOM     24  H   UNL     1      -2.582  -1.306  -2.689  1.00  0.00     0.169 HD
ATOM     25  C   UNL     1      -4.970  -1.174  -3.246  1.00  0.00     0.114 C 
ATOM     26  O   UNL     1      -5.037  -3.079  -1.812  1.00  0.00    -0.275 OA
ENDBRANCH  21  22
ENDBRANCH  14  16
ENDBRANCH  11  12
ENDBRANCH   6  11
ENDBRANCH   3   6
ENDBRANCH   1   2
BRANCH   1  27
ATOM     27  C   UNL     1       2.858  -0.656   6.452  1.00  0.00     0.023 C 
BRANCH  27  28
ATOM     28  C   UNL     1       4.362  -0.556   6.700  1.00  0.00     0.023 C 
BRANCH  28  29
ATOM     29  C   UNL     1       4.899   0.857   6.897  1.00  0.00     0.116 C 
BRANCH  29  30
ATOM     30  N   UNL     1       4.242   1.569   7.982  1.00  0.00    -0.352 N 
ATOM     31  C   UNL     1       4.799   2.229   9.051  1.00  0.00     0.251 C 
ATOM     32  H   UNL     1       3.258   1.579   7.945  1.00  0.00     0.163 HD
ATOM     33  O   UNL     1       4.097   2.668   9.948  1.00  0.00    -0.269 OA
BRANCH  31  34
ATOM     34  C   UNL     1       6.268   2.371   9.120  1.00  0.00     0.039 A 
ATOM     35  C   UNL     1       6.923   2.014  10.300  1.00  0.00     0.014 A 
ATOM     36  C   UNL     1       6.993   2.814   8.011  1.00  0.00     0.014 A 
ATOM     37  C   UNL     1       8.318   2.034  10.343  1.00  0.00     0.010 A 
ATOM     38  C   UNL     1       8.381   2.753   8.029  1.00  0.00     0.010 A 
ATOM     39  C   UNL     1       9.058   2.364   9.196  1.00  0.00    -0.014 A 
BRANCH  39  40
ATOM     40  C   UNL     1      10.541   2.309   9.198  1.00  0.00     0.031 A 
ATOM     41  C   UNL     1      11.341   3.562   8.976  1.00  0.00     0.074 A 
ATOM     42  C   UNL     1      11.164   1.122   9.337  1.00  0.00     0.049 A 
ATOM     43  N   UNL     1      12.638   3.712   8.884  1.00  0.00    -0.248 NA
ATOM     44  C   UNL     1      10.580   4.810   8.807  1.00  0.00     0.031 C 
ATOM     45  C   UNL     1      10.496  -0.169   9.507  1.00  0.00     0.029 A 
ATOM     46  N   UNL     1      12.500   0.808   9.348  1.00  0.00    -0.354 N 
ATOM     47  C   UNL     1      12.844   5.061   8.633  1.00  0.00     0.074 A 
ATOM     48  C   UNL     1      11.540   5.678   8.528  1.00  0.00     0.031 C 
ATOM     49  C   UNL     1      11.424  -1.131   9.633  1.00  0.00     0.029 A 
ATOM     50  C   UNL     1      12.749  -0.533   9.511  1.00  0.00     0.049 A 
ATOM     51  H   UNL     1      13.213   1.480   9.249  1.00  0.00     0.167 HD
ATOM     52  C   UNL     1      14.017   5.731   8.528  1.00  0.00     0.037 A 
ATOM     53  C   UNL     1      13.916  -1.204   9.548  1.00  0.00     0.037 A 
ATOM     54  C   UNL     1      15.311   5.115   8.655  1.00  0.00     0.049 A 
ATOM     55  C   UNL     1      15.205  -0.437   9.413  1.00  0.00     0.074 A 
ATOM     56  C   UNL     1      16.558   5.714   8.626  1.00  0.00     0.029 A 
ATOM     57  N   UNL     1      15.524   3.755   8.832  1.00  0.00    -0.354 N 
ATOM     58  N   UNL     1      15.390   0.851   9.254  1.00  0.00    -0.248 NA
ATOM     59  C   UNL     1      16.448  -1.219   9.470  1.00  0.00     0.031 C 
ATOM     60  C   UNL     1      17.527   4.710   8.727  1.00  0.00     0.029 A 
ATOM     61  C   UNL     1      16.884   3.493   8.884  1.00  0.00     0.049 A 
ATOM     62  H   UNL     1      14.815   3.077   8.908  1.00  0.00     0.167 HD
ATOM     63  C   UNL     1      16.766   1.038   9.224  1.00  0.00     0.074 A 
ATOM     64  C   UNL     1      17.368  -0.267   9.398  1.00  0.00     0.031 C 
ATOM     65  C   UNL     1      17.467   2.188   9.067  1.00  0.00     0.037 A 
BRANCH  52  66
ATOM     66  C   UNL     1      13.953   7.208   8.261  1.00  0.00     0.064 A 
ATOM     67  C   UNL     1      13.471   8.111   9.222  1.00  0.00     0.173 A 
ATOM     68  C   UNL     1      14.410   7.731   7.042  1.00  0.00     0.173 A 
ATOM     69  F   UNL     1      13.011   7.663  10.399  1.00  0.00    -0.203 F 
ATOM     70  C   UNL     1      13.421   9.478   8.960  1.00  0.00     0.198 A 
ATOM     71  C   UNL     1      14.390   9.102   6.797  1.00  0.00     0.198 A 
ATOM     72  F   UNL     1      14.885   6.915   6.090  1.00  0.00    -0.203 F 
ATOM     73  F   UNL     1      12.906  10.314   9.872  1.00  0.00    -0.200 F 
ATOM     74  C   UNL     1      13.887   9.973   7.752  1.00  0.00     0.200 A 
ATOM     75  F   UNL     1      14.855   9.580   5.635  1.00  0.00    -0.200 F 
ATOM     76  F   UNL     1      13.847  11.289   7.505  1.00  0.00    -0.200 F 
ENDBRANCH  52  66
BRANCH  53  77
ATOM     77  C   UNL     1      13.924  -2.678   9.743  1.00  0.00     0.064 A 
ATOM     78  C   UNL     1      14.425  -3.246  10.924  1.00  0.00     0.173 A 
ATOM     79  C   UNL     1      13.444  -3.550   8.755  1.00  0.00     0.173 A 
ATOM     80  F   UNL     1      14.913  -2.456  11.891  1.00  0.00    -0.203 F 
ATOM     81  C   UNL     1      14.470  -4.628  11.097  1.00  0.00     0.198 A 
ATOM     82  C   UNL     1      13.460  -4.931   8.942  1.00  0.00     0.198 A 
ATOM     83  F   UNL     1      12.950  -3.060   7.609  1.00  0.00    -0.203 F 
ATOM     84  F   UNL     1      15.003  -5.144  12.213  1.00  0.00    -0.200 F 
ATOM     85  C   UNL     1      13.983  -5.469  10.108  1.00  0.00     0.200 A 
ATOM     86  F   UNL     1      12.975  -5.740   7.990  1.00  0.00    -0.200 F 
ATOM     87  F   UNL     1      14.025  -6.798  10.275  1.00  0.00    -0.200 F 
ENDBRANCH  53  77
BRANCH  65  88
ATOM     88  C   UNL     1      18.965   2.094   9.118  1.00  0.00     0.064 A 
ATOM     89  C   UNL     1      19.704   1.493   8.089  1.00  0.00     0.173 A 
ATOM     90  C   UNL     1      19.673   2.651  10.195  1.00  0.00     0.173 A 
ATOM     91  F   UNL     1      19.076   0.933   7.044  1.00  0.00    -0.203 F 
ATOM     92  C   UNL     1      21.094   1.428   8.149  1.00  0.00     0.198 A 
ATOM     93  C   UNL     1      21.064   2.616  10.235  1.00  0.00     0.198 A 
ATOM     94  F   UNL     1      19.015   3.245  11.202  1.00  0.00    -0.203 F 
ATOM     95  F   UNL     1      21.776   0.803   7.180  1.00  0.00    -0.200 F 
ATOM     96  C   UNL     1      21.773   1.997   9.217  1.00  0.00     0.200 A 
ATOM     97  F   UNL     1      21.718   3.181  11.259  1.00  0.00    -0.200 F 
ATOM     98  F   UNL     1      23.110   1.942   9.268  1.00  0.00    -0.200 F 
ENDBRANCH  65  88
ENDBRANCH  39  40
ENDBRANCH  31  34
ENDBRANCH  29  30
ENDBRANCH  28  29
ENDBRANCH  27  28
ENDBRANCH   1  27
TORSDOF 17
