REMARK SMILES CCCN(CC(=O)NCCCCNC(=O)c1ccc(-c2c3nc(c(-c4c(F)c(F)c(F)c(F)c4F)c4ccc([nH]4)c(-c4c(F)c(F)c(F)c(F)c4F)c4nc(c(-c5c(F)c(F)c(F)c(F)c5F)c5ccc2[nH]5)C=C4)C=C3)cc1)C(=O)C[C@@H]1CSCC[NH2+]1
REMARK SMILES IDX 9 1 8 2 6 3 7 4 5 6 4 7 3 8 2 9 1 10 79 11 80 12 81 13 82 14
REMARK SMILES IDX 83 15 87 16 84 17 86 18 85 21 10 22 11 23 12 24 13 25 14 26
REMARK SMILES IDX 15 28 16 29 17 30 78 31 18 32 77 33 19 34 20 35 21 36 71 37
REMARK SMILES IDX 22 38 76 39 70 40 72 41 23 42 75 43 69 44 68 45 24 47 56 48
REMARK SMILES IDX 36 49 55 50 37 51 40 52 54 53 73 54 38 55 39 56 53 58 74 59
REMARK SMILES IDX 41 60 25 61 26 62 34 63 27 64 28 65 32 66 35 67 29 68 30 69
REMARK SMILES IDX 33 70 31 71 57 72 58 73 66 74 59 75 60 76 64 77 67 78 61 79
REMARK SMILES IDX 62 80 65 81 63 82 42 83 43 84 51 85 44 86 45 87 49 88 52 89
REMARK SMILES IDX 46 90 47 91 50 92 48 93
REMARK H PARENT 8 5 87 19 87 20 13 27 72 46 40 57
REMARK Flexibility Score: inf
ROOT
ATOM      1  C   UNL     1       2.353   1.411   4.867  1.00  0.00     0.116 C 
ENDROOT
BRANCH   1   2
ATOM      2  N   UNL     1       1.426   2.515   4.961  1.00  0.00    -0.355 N 
ATOM      3  C   UNL     1       0.174   2.611   4.433  1.00  0.00     0.239 C 
ATOM      4  O   UNL     1      -0.561   3.513   4.846  1.00  0.00    -0.273 OA
ATOM      5  H   UNL     1       1.739   3.296   5.471  1.00  0.00     0.163 HD
BRANCH   3   6
ATOM      6  C   UNL     1      -0.350   1.589   3.410  1.00  0.00     0.219 C 
BRANCH   6   7
ATOM      7  N   UNL     1       0.513   1.387   2.239  1.00  0.00    -0.333 N 
BRANCH   7   8
ATOM      8  C   UNL     1       1.020   0.028   2.005  1.00  0.00     0.120 C 
BRANCH   8   9
ATOM      9  C   UNL     1       0.245  -0.785   0.965  1.00  0.00     0.018 C 
ATOM     10  C   UNL     1       0.629  -0.469  -0.472  1.00  0.00     0.006 C 
ENDBRANCH   8   9
ENDBRANCH   7   8
BRANCH   7  11
ATOM     11  C   UNL     1       0.829   2.385   1.319  1.00  0.00     0.229 C 
ATOM     12  O   UNL     1       1.617   2.170   0.394  1.00  0.00    -0.275 OA
BRANCH  11  13
ATOM     13  C   UNL     1       0.294   3.802   1.499  1.00  0.00     0.166 C 
BRANCH  13  14
ATOM     14  C   UNL     1      -1.227   3.967   1.289  1.00  0.00     0.201 C 
ATOM     15  C   UNL     1      -1.573   4.756   0.002  1.00  0.00     0.135 C 
ATOM     16  N   UNL     1      -1.927   4.547   2.461  1.00  0.00    -0.342 N 
ATOM     17  S   UNL     1      -1.112   6.523   0.064  1.00  0.00    -0.150 SA
ATOM     18  C   UNL     1      -1.550   5.940   2.746  1.00  0.00     0.271 C 
ATOM     19  H   UNL     1      -1.707   3.980   3.280  1.00  0.00     0.346 HD
ATOM     20  H   UNL     1      -2.923   4.548   2.243  1.00  0.00     0.346 HD
ATOM     21  C   UNL     1      -1.919   6.929   1.644  1.00  0.00     0.131 C 
ENDBRANCH  13  14
ENDBRANCH  11  13
ENDBRANCH   7  11
ENDBRANCH   6   7
ENDBRANCH   3   6
ENDBRANCH   1   2
BRANCH   1  22
ATOM     22  C   UNL     1       3.517   1.680   3.918  1.00  0.00     0.023 C 
BRANCH  22  23
ATOM     23  C   UNL     1       4.511   2.738   4.397  1.00  0.00     0.023 C 
BRANCH  23  24
ATOM     24  C   UNL     1       5.032   2.542   5.813  1.00  0.00     0.116 C 
BRANCH  24  25
ATOM     25  N   UNL     1       5.620   1.231   6.035  1.00  0.00    -0.352 N 
ATOM     26  C   UNL     1       6.710   0.898   6.800  1.00  0.00     0.251 C 
ATOM     27  H   UNL     1       5.177   0.481   5.576  1.00  0.00     0.163 HD
ATOM     28  O   UNL     1       7.141  -0.251   6.798  1.00  0.00    -0.269 OA
BRANCH  26  29
ATOM     29  C   UNL     1       7.383   1.940   7.603  1.00  0.00     0.039 A 
ATOM     30  C   UNL     1       8.777   2.014   7.577  1.00  0.00     0.014 A 
ATOM     31  C   UNL     1       6.642   2.843   8.368  1.00  0.00     0.014 A 
ATOM     32  C   UNL     1       9.427   3.020   8.292  1.00  0.00     0.010 A 
ATOM     33  C   UNL     1       7.284   3.898   9.005  1.00  0.00     0.010 A 
ATOM     34  C   UNL     1       8.684   3.982   8.996  1.00  0.00    -0.014 A 
BRANCH  34  35
ATOM     35  C   UNL     1       9.357   5.050   9.775  1.00  0.00     0.031 A 
ATOM     36  C   UNL     1       9.195   5.101  11.269  1.00  0.00     0.074 A 
ATOM     37  C   UNL     1      10.068   5.999   9.138  1.00  0.00     0.049 A 
ATOM     38  N   UNL     1       9.672   5.968  12.127  1.00  0.00    -0.248 NA
ATOM     39  C   UNL     1       8.353   4.059  11.876  1.00  0.00     0.031 C 
ATOM     40  C   UNL     1      10.246   6.093   7.689  1.00  0.00     0.029 A 
ATOM     41  N   UNL     1      10.768   7.071   9.631  1.00  0.00    -0.354 N 
ATOM     42  C   UNL     1       9.171   5.586  13.365  1.00  0.00     0.074 A 
ATOM     43  C   UNL     1       8.298   4.455  13.138  1.00  0.00     0.031 C 
ATOM     44  C   UNL     1      11.027   7.149   7.411  1.00  0.00     0.029 A 
ATOM     45  C   UNL     1      11.380   7.822   8.658  1.00  0.00     0.049 A 
ATOM     46  H   UNL     1      10.826   7.281  10.591  1.00  0.00     0.167 HD
ATOM     47  C   UNL     1       9.437   6.110  14.585  1.00  0.00     0.037 A 
ATOM     48  C   UNL     1      12.141   8.927   8.764  1.00  0.00     0.037 A 
ATOM     49  C   UNL     1      10.327   7.220  14.806  1.00  0.00     0.049 A 
ATOM     50  C   UNL     1      12.448   9.478  10.130  1.00  0.00     0.074 A 
ATOM     51  C   UNL     1      10.718   7.789  16.004  1.00  0.00     0.029 A 
ATOM     52  N   UNL     1      10.962   7.932  13.797  1.00  0.00    -0.354 N 
ATOM     53  N   UNL     1      12.036   9.062  11.303  1.00  0.00    -0.248 NA
ATOM     54  C   UNL     1      13.344  10.640  10.186  1.00  0.00     0.031 C 
ATOM     55  C   UNL     1      11.547   8.880  15.718  1.00  0.00     0.029 A 
ATOM     56  C   UNL     1      11.727   8.949  14.346  1.00  0.00     0.049 A 
ATOM     57  H   UNL     1      10.881   7.743  12.835  1.00  0.00     0.167 HD
ATOM     58  C   UNL     1      12.647   9.886  12.238  1.00  0.00     0.074 A 
ATOM     59  C   UNL     1      13.467  10.820  11.494  1.00  0.00     0.031 C 
ATOM     60  C   UNL     1      12.543   9.868  13.591  1.00  0.00     0.037 A 
BRANCH  47  61
ATOM     61  C   UNL     1       8.746   5.489  15.767  1.00  0.00     0.064 A 
ATOM     62  C   UNL     1       9.020   4.174  16.180  1.00  0.00     0.173 A 
ATOM     63  C   UNL     1       7.788   6.213  16.492  1.00  0.00     0.173 A 
ATOM     64  F   UNL     1       9.918   3.431  15.515  1.00  0.00    -0.203 F 
ATOM     65  C   UNL     1       8.326   3.594  17.239  1.00  0.00     0.198 A 
ATOM     66  C   UNL     1       7.124   5.642  17.576  1.00  0.00     0.198 A 
ATOM     67  F   UNL     1       7.489   7.475  16.148  1.00  0.00    -0.203 F 
ATOM     68  F   UNL     1       8.551   2.313  17.563  1.00  0.00    -0.200 F 
ATOM     69  C   UNL     1       7.383   4.330  17.939  1.00  0.00     0.200 A 
ATOM     70  F   UNL     1       6.222   6.360  18.260  1.00  0.00    -0.200 F 
ATOM     71  F   UNL     1       6.713   3.769  18.955  1.00  0.00    -0.200 F 
ENDBRANCH  47  61
BRANCH  48  72
ATOM     72  C   UNL     1      12.703   9.550   7.537  1.00  0.00     0.064 A 
ATOM     73  C   UNL     1      14.073   9.471   7.251  1.00  0.00     0.173 A 
ATOM     74  C   UNL     1      11.880  10.215   6.616  1.00  0.00     0.173 A 
ATOM     75  F   UNL     1      14.902   8.860   8.110  1.00  0.00    -0.203 F 
ATOM     76  C   UNL     1      14.601  10.047   6.097  1.00  0.00     0.198 A 
ATOM     77  C   UNL     1      12.406  10.766   5.449  1.00  0.00     0.198 A 
ATOM     78  F   UNL     1      10.562  10.310   6.840  1.00  0.00    -0.203 F 
ATOM     79  F   UNL     1      15.920   9.989   5.866  1.00  0.00    -0.200 F 
ATOM     80  C   UNL     1      13.766  10.687   5.194  1.00  0.00     0.200 A 
ATOM     81  F   UNL     1      11.593  11.369   4.571  1.00  0.00    -0.200 F 
ATOM     82  F   UNL     1      14.274  11.230   4.079  1.00  0.00    -0.200 F 
ENDBRANCH  48  72
BRANCH  60  83
ATOM     83  C   UNL     1      13.376  10.855  14.358  1.00  0.00     0.064 A 
ATOM     84  C   UNL     1      13.108  12.232  14.336  1.00  0.00     0.173 A 
ATOM     85  C   UNL     1      14.446  10.409  15.150  1.00  0.00     0.173 A 
ATOM     86  F   UNL     1      12.104  12.712  13.586  1.00  0.00    -0.203 F 
ATOM     87  C   UNL     1      13.902  13.128  15.047  1.00  0.00     0.198 A 
ATOM     88  C   UNL     1      15.216  11.304  15.888  1.00  0.00     0.198 A 
ATOM     89  F   UNL     1      14.741   9.102  15.216  1.00  0.00    -0.203 F 
ATOM     90  F   UNL     1      13.664  14.444  14.963  1.00  0.00    -0.200 F 
ATOM     91  C   UNL     1      14.950  12.663  15.828  1.00  0.00     0.200 A 
ATOM     92  F   UNL     1      16.217  10.850  16.655  1.00  0.00    -0.200 F 
ATOM     93  F   UNL     1      15.711  13.527  16.514  1.00  0.00    -0.200 F 
ENDBRANCH  60  83
ENDBRANCH  34  35
ENDBRANCH  26  29
ENDBRANCH  24  25
ENDBRANCH  23  24
ENDBRANCH  22  23
ENDBRANCH   1  22
TORSDOF 17
