REMARK SMILES Cc1ccnc(C(=O)c2[nH]c3ccc(OC(F)(F)F)cc3c2CC(=O)NCCCCNC(=O)c2ccc(-c3c4nc(c(-c5c(F)c(F)c(F)c(F)c5F)c5ccc([nH]5)c(-c5c(F)c(F)c(F)c(F)c5F)c5nc(c(-c6c(F)c(F)c(F)c(F)c6F)c6ccc3[nH]6)C=C5)C=C4)cc2)c1
REMARK SMILES IDX 28 1 27 2 26 3 24 4 25 5 23 7 22 8 9 9 10 10 11 11 21 13
REMARK SMILES IDX 12 14 20 15 13 16 14 17 7 18 8 19 6 20 1 21 2 22 3 23 97 24
REMARK SMILES IDX 4 25 5 26 15 27 16 28 17 29 18 30 19 31 29 32 30 33 31 34
REMARK SMILES IDX 32 35 33 37 34 38 35 39 96 40 36 41 95 42 37 43 38 44 39 45
REMARK SMILES IDX 89 46 40 47 94 48 88 49 90 50 41 51 93 52 87 53 86 54 42 56
REMARK SMILES IDX 74 57 54 58 73 59 55 60 58 61 72 62 91 63 56 64 57 65 71 67
REMARK SMILES IDX 92 68 59 69 43 70 44 71 52 72 45 73 46 74 50 75 53 76 47 77
REMARK SMILES IDX 48 78 51 79 49 80 75 81 76 82 84 83 77 84 78 85 82 86 85 87
REMARK SMILES IDX 79 88 80 89 83 90 81 91 60 92 61 93 69 94 62 95 63 96 67 97
REMARK SMILES IDX 70 98 64 99 65 100 68 101 66 102
REMARK H PARENT 26 6 10 12 31 36 90 55 58 66
REMARK Flexibility Score: inf
ROOT
ATOM      1  C   UNL     1       3.033  -6.882  -0.743  1.00  0.00     0.023 C 
ENDROOT
BRANCH   1   2
ATOM      2  C   UNL     1       3.391  -6.898   0.742  1.00  0.00     0.116 C 
BRANCH   2   3
ATOM      3  N   UNL     1       3.985  -5.657   1.193  1.00  0.00    -0.356 N 
ATOM      4  C   UNL     1       3.406  -4.611   1.855  1.00  0.00     0.224 C 
ATOM      5  O   UNL     1       4.144  -3.717   2.276  1.00  0.00    -0.275 OA
ATOM      6  H   UNL     1       4.943  -5.551   0.994  1.00  0.00     0.163 HD
BRANCH   4   7
ATOM      7  C   UNL     1       1.918  -4.610   2.178  1.00  0.00     0.138 C 
BRANCH   7   8
ATOM      8  C   UNL     1       1.003  -4.642   0.986  1.00  0.00    -0.002 A 
ATOM      9  C   UNL     1       0.909  -3.700  -0.034  1.00  0.00     0.093 A 
ATOM     10  N   UNL     1       0.020  -4.188  -0.965  1.00  0.00    -0.352 N 
ATOM     11  C   UNL     1      -0.547  -5.359  -0.529  1.00  0.00     0.046 A 
ATOM     12  H   UNL     1      -0.182  -3.755  -1.826  1.00  0.00     0.167 HD
ATOM     13  C   UNL     1       0.028  -5.659   0.702  1.00  0.00     0.008 A 
ATOM     14  C   UNL     1      -1.500  -6.180  -1.139  1.00  0.00     0.030 A 
ATOM     15  C   UNL     1      -0.389  -6.834   1.361  1.00  0.00     0.057 A 
ATOM     16  C   UNL     1      -1.885  -7.348  -0.467  1.00  0.00     0.049 A 
ATOM     17  C   UNL     1      -1.340  -7.680   0.772  1.00  0.00     0.130 A 
BRANCH   9  18
ATOM     18  C   UNL     1       1.653  -2.466  -0.223  1.00  0.00     0.227 C 
ATOM     19  O   UNL     1       2.853  -2.489  -0.475  1.00  0.00    -0.285 OA
BRANCH  18  20
ATOM     20  C   UNL     1       0.902  -1.155  -0.151  1.00  0.00     0.113 A 
ATOM     21  C   UNL     1      -2.594   0.256   0.294  1.00  0.00     0.044 C 
ATOM     22  C   UNL     1      -1.112   0.146   0.089  1.00  0.00    -0.047 A 
ATOM     23  C   UNL     1      -0.343   1.293  -0.106  1.00  0.00     0.023 A 
ATOM     24  C   UNL     1      -0.472  -1.097   0.088  1.00  0.00     0.036 A 
ATOM     25  C   UNL     1       1.018   1.151  -0.315  1.00  0.00     0.112 A 
ATOM     26  N   UNL     1       1.649  -0.040  -0.358  1.00  0.00    -0.253 NA
ENDBRANCH  18  20
ENDBRANCH   9  18
BRANCH  17  27
ATOM     27  O   UNL     1      -1.631  -8.790   1.515  1.00  0.00    -0.406 OA
BRANCH  27  28
ATOM     28  C   UNL     1      -2.542  -9.730   0.975  1.00  0.00     0.573 C 
ATOM     29  F   UNL     1      -3.760  -9.177   0.790  1.00  0.00    -0.132 F 
ATOM     30  F   UNL     1      -2.091 -10.230  -0.195  1.00  0.00    -0.132 F 
ATOM     31  F   UNL     1      -2.675 -10.755   1.846  1.00  0.00    -0.132 F 
ENDBRANCH  27  28
ENDBRANCH  17  27
ENDBRANCH   7   8
ENDBRANCH   4   7
ENDBRANCH   2   3
ENDBRANCH   1   2
BRANCH   1  32
ATOM     32  C   UNL     1       4.219  -6.855  -1.709  1.00  0.00     0.023 C 
BRANCH  32  33
ATOM     33  C   UNL     1       5.208  -8.006  -1.570  1.00  0.00     0.116 C 
BRANCH  33  34
ATOM     34  N   UNL     1       4.595  -9.317  -1.707  1.00  0.00    -0.352 N 
ATOM     35  C   UNL     1       5.135 -10.479  -2.202  1.00  0.00     0.251 C 
ATOM     36  H   UNL     1       3.661  -9.381  -1.401  1.00  0.00     0.163 HD
ATOM     37  O   UNL     1       4.437 -11.479  -2.322  1.00  0.00    -0.269 OA
BRANCH  35  38
ATOM     38  C   UNL     1       6.549 -10.515  -2.636  1.00  0.00     0.039 A 
ATOM     39  C   UNL     1       6.852 -11.117  -3.862  1.00  0.00     0.014 A 
ATOM     40  C   UNL     1       7.569  -9.972  -1.851  1.00  0.00     0.014 A 
ATOM     41  C   UNL     1       8.166 -11.111  -4.334  1.00  0.00     0.010 A 
ATOM     42  C   UNL     1       8.872  -9.924  -2.342  1.00  0.00     0.010 A 
ATOM     43  C   UNL     1       9.178 -10.486  -3.591  1.00  0.00    -0.014 A 
BRANCH  43  44
ATOM     44  C   UNL     1      10.563 -10.394  -4.109  1.00  0.00     0.031 A 
ATOM     45  C   UNL     1      11.665 -11.180  -3.465  1.00  0.00     0.074 A 
ATOM     46  C   UNL     1      10.836  -9.545  -5.117  1.00  0.00     0.049 A 
ATOM     47  N   UNL     1      12.949 -11.167  -3.722  1.00  0.00    -0.248 NA
ATOM     48  C   UNL     1      11.277 -12.087  -2.375  1.00  0.00     0.031 C 
ATOM     49  C   UNL     1       9.857  -8.702  -5.802  1.00  0.00     0.029 A 
ATOM     50  N   UNL     1      12.025  -9.246  -5.733  1.00  0.00    -0.354 N 
ATOM     51  C   UNL     1      13.524 -12.038  -2.809  1.00  0.00     0.074 A 
ATOM     52  C   UNL     1      12.454 -12.552  -1.980  1.00  0.00     0.031 C 
ATOM     53  C   UNL     1      10.481  -7.993  -6.757  1.00  0.00     0.029 A 
ATOM     54  C   UNL     1      11.905  -8.313  -6.732  1.00  0.00     0.049 A 
ATOM     55  H   UNL     1      12.882  -9.660  -5.482  1.00  0.00     0.167 HD
ATOM     56  C   UNL     1      14.826 -12.385  -2.680  1.00  0.00     0.037 A 
ATOM     57  C   UNL     1      12.841  -7.774  -7.534  1.00  0.00     0.037 A 
ATOM     58  C   UNL     1      15.886 -11.910  -3.529  1.00  0.00     0.049 A 
ATOM     59  C   UNL     1      14.275  -8.190  -7.383  1.00  0.00     0.074 A 
ATOM     60  C   UNL     1      17.223 -12.268  -3.527  1.00  0.00     0.029 A 
ATOM     61  N   UNL     1      15.723 -10.973  -4.538  1.00  0.00    -0.354 N 
ATOM     62  N   UNL     1      14.802  -9.049  -6.546  1.00  0.00    -0.248 NA
ATOM     63  C   UNL     1      15.246  -7.556  -8.287  1.00  0.00     0.031 C 
ATOM     64  C   UNL     1      17.875 -11.531  -4.523  1.00  0.00     0.029 A 
ATOM     65  C   UNL     1      16.939 -10.729  -5.156  1.00  0.00     0.049 A 
ATOM     66  H   UNL     1      14.870 -10.544  -4.779  1.00  0.00     0.167 HD
ATOM     67  C   UNL     1      16.158  -9.074  -6.831  1.00  0.00     0.074 A 
ATOM     68  C   UNL     1      16.377  -8.145  -7.921  1.00  0.00     0.031 C 
ATOM     69  C   UNL     1      17.135  -9.805  -6.241  1.00  0.00     0.037 A 
BRANCH  56  70
ATOM     70  C   UNL     1      15.174 -13.328  -1.572  1.00  0.00     0.064 A 
ATOM     71  C   UNL     1      14.909 -14.701  -1.670  1.00  0.00     0.173 A 
ATOM     72  C   UNL     1      15.790 -12.855  -0.405  1.00  0.00     0.173 A 
ATOM     73  F   UNL     1      14.307 -15.195  -2.763  1.00  0.00    -0.203 F 
ATOM     74  C   UNL     1      15.230 -15.566  -0.628  1.00  0.00     0.198 A 
ATOM     75  C   UNL     1      16.125 -13.725   0.629  1.00  0.00     0.198 A 
ATOM     76  F   UNL     1      16.061 -11.548  -0.265  1.00  0.00    -0.203 F 
ATOM     77  F   UNL     1      14.935 -16.870  -0.726  1.00  0.00    -0.200 F 
ATOM     78  C   UNL     1      15.840 -15.078   0.519  1.00  0.00     0.200 A 
ATOM     79  F   UNL     1      16.715 -13.254   1.736  1.00  0.00    -0.200 F 
ATOM     80  F   UNL     1      16.145 -15.912   1.523  1.00  0.00    -0.200 F 
ENDBRANCH  56  70
BRANCH  57  81
ATOM     81  C   UNL     1      12.437  -6.805  -8.579  1.00  0.00     0.064 A 
ATOM     82  C   UNL     1      12.332  -7.208  -9.917  1.00  0.00     0.173 A 
ATOM     83  C   UNL     1      12.129  -5.476  -8.264  1.00  0.00     0.173 A 
ATOM     84  F   UNL     1      12.637  -8.467 -10.262  1.00  0.00    -0.203 F 
ATOM     85  C   UNL     1      11.935  -6.312 -10.905  1.00  0.00     0.198 A 
ATOM     86  C   UNL     1      11.719  -4.584  -9.252  1.00  0.00     0.198 A 
ATOM     87  F   UNL     1      12.216  -5.049  -6.996  1.00  0.00    -0.203 F 
ATOM     88  F   UNL     1      11.861  -6.715 -12.181  1.00  0.00    -0.200 F 
ATOM     89  C   UNL     1      11.624  -5.002 -10.572  1.00  0.00     0.200 A 
ATOM     90  F   UNL     1      11.415  -3.320  -8.927  1.00  0.00    -0.200 F 
ATOM     91  F   UNL     1      11.238  -4.141 -11.523  1.00  0.00    -0.200 F 
ENDBRANCH  57  81
BRANCH  69  92
ATOM     92  C   UNL     1      18.521  -9.645  -6.780  1.00  0.00     0.064 A 
ATOM     93  C   UNL     1      19.320  -8.552  -6.418  1.00  0.00     0.173 A 
ATOM     94  C   UNL     1      19.066 -10.610  -7.639  1.00  0.00     0.173 A 
ATOM     95  F   UNL     1      18.832  -7.597  -5.613  1.00  0.00    -0.203 F 
ATOM     96  C   UNL     1      20.616  -8.424  -6.909  1.00  0.00     0.198 A 
ATOM     97  C   UNL     1      20.367 -10.486  -8.116  1.00  0.00     0.198 A 
ATOM     98  F   UNL     1      18.335 -11.671  -8.013  1.00  0.00    -0.203 F 
ATOM     99  F   UNL     1      21.356  -7.358  -6.574  1.00  0.00    -0.200 F 
ATOM    100  C   UNL     1      21.140  -9.393  -7.753  1.00  0.00     0.200 A 
ATOM    101  F   UNL     1      20.873 -11.423  -8.931  1.00  0.00    -0.200 F 
ATOM    102  F   UNL     1      22.389  -9.269  -8.224  1.00  0.00    -0.200 F 
ENDBRANCH  69  92
ENDBRANCH  43  44
ENDBRANCH  35  38
ENDBRANCH  33  34
ENDBRANCH  32  33
ENDBRANCH   1  32
TORSDOF 16
