REMARK SMILES O=C1NC(=S)S/C1=C\c1ccc(OCc2cn(-c3ccc(C(=O)NCCCCNC(=O)c4ccc(-c5c6nc(c(-c7c(F)c(F)c(F)c(F)c7F)c7ccc([nH]7)c(-c7c(F)c(F)c(F)c(F)c7F)c7nc(c(-c8c(F)c(F)c(F)c(F)c8F)c8ccc5[nH]8)C=C7)C=C6)cc4)cc3)nn2)cc1
REMARK SMILES IDX 25 1 24 2 22 3 23 4 21 6 18 7 19 8 96 9 20 10 95 11 17 12
REMARK SMILES IDX 15 13 16 14 98 15 97 16 14 17 13 18 12 19 9 20 10 21 100 22
REMARK SMILES IDX 11 23 99 24 8 25 1 26 2 27 3 28 7 29 4 30 6 32 5 33 26 34
REMARK SMILES IDX 27 35 28 36 29 37 30 38 31 40 32 41 33 42 94 43 34 44 93 45
REMARK SMILES IDX 35 46 36 47 37 48 87 49 38 50 92 51 86 52 88 53 39 54 91 55
REMARK SMILES IDX 85 56 84 57 40 59 72 60 52 61 71 62 53 63 56 64 70 65 89 66
REMARK SMILES IDX 54 67 55 68 69 70 90 71 57 72 41 73 42 74 50 75 43 76 44 77
REMARK SMILES IDX 48 78 51 79 45 80 46 81 49 82 47 83 73 84 74 85 82 86 75 87
REMARK SMILES IDX 76 88 80 89 83 90 77 91 78 92 81 93 79 94 58 95 59 96 67 97
REMARK SMILES IDX 60 98 61 99 65 100 68 101 62 102 63 103 66 104 64 105
REMARK H PARENT 24 5 3 31 29 39 88 58 56 69
REMARK Flexibility Score: inf
ROOT
ATOM      1  C   UNL     1       6.422  10.868   0.914  1.00  0.00     0.116 C 
ENDROOT
BRANCH   1   2
ATOM      2  N   UNL     1       7.033  10.067  -0.127  1.00  0.00    -0.352 N 
ATOM      3  C   UNL     1       6.558   9.093  -0.967  1.00  0.00     0.251 C 
ATOM      4  O   UNL     1       7.362   8.616  -1.769  1.00  0.00    -0.269 OA
ATOM      5  H   UNL     1       7.989  10.263  -0.259  1.00  0.00     0.163 HD
BRANCH   3   6
ATOM      6  C   UNL     1       5.138   8.629  -1.001  1.00  0.00     0.039 A 
ATOM      7  C   UNL     1       2.458   7.817  -1.314  1.00  0.00     0.066 A 
ATOM      8  C   UNL     1       3.399   7.508  -2.301  1.00  0.00     0.029 A 
ATOM      9  C   UNL     1       2.863   8.465  -0.147  1.00  0.00     0.029 A 
ATOM     10  C   UNL     1       4.722   7.940  -2.154  1.00  0.00     0.016 A 
ATOM     11  C   UNL     1       4.206   8.817   0.023  1.00  0.00     0.016 A 
BRANCH   7  12
ATOM     12  N   UNL     1       1.105   7.462  -1.494  1.00  0.00    -0.220 N 
ATOM     13  C   UNL     1      -1.069   7.294  -1.406  1.00  0.00     0.120 A 
ATOM     14  C   UNL     1      -0.012   8.041  -0.934  1.00  0.00     0.144 A 
ATOM     15  N   UNL     1      -0.578   6.338  -2.256  1.00  0.00    -0.131 NA
ATOM     16  N   UNL     1       0.736   6.469  -2.328  1.00  0.00    -0.062 NA
BRANCH  13  17
ATOM     17  C   UNL     1      -2.542   7.456  -1.211  1.00  0.00     0.289 C 
BRANCH  17  18
ATOM     18  O   UNL     1      -3.106   6.717  -0.114  1.00  0.00    -0.487 OA
BRANCH  18  19
ATOM     19  C   UNL     1      -3.134   5.351  -0.193  1.00  0.00     0.119 A 
ATOM     20  C   UNL     1      -2.932   2.555  -0.013  1.00  0.00    -0.024 A 
ATOM     21  C   UNL     1      -3.360   3.298   1.089  1.00  0.00     0.012 A 
ATOM     22  C   UNL     1      -2.707   3.206  -1.228  1.00  0.00     0.012 A 
ATOM     23  C   UNL     1      -3.454   4.692   0.997  1.00  0.00     0.047 A 
ATOM     24  C   UNL     1      -2.836   4.593  -1.322  1.00  0.00     0.047 A 
BRANCH  20  25
ATOM     25  C   UNL     1      -2.692   1.115   0.093  1.00  0.00     0.029 C 
ATOM     26  O   UNL     1      -2.197  -1.754   0.160  1.00  0.00    -0.268 OA
ATOM     27  C   UNL     1      -1.299  -0.931   0.116  1.00  0.00     0.263 C 
ATOM     28  N   UNL     1       0.034  -1.232   0.070  1.00  0.00    -0.307 N 
ATOM     29  C   UNL     1      -1.479   0.545   0.088  1.00  0.00     0.080 C 
ATOM     30  C   UNL     1       0.924  -0.204   0.022  1.00  0.00     0.145 C 
ATOM     31  H   UNL     1       0.341  -2.167   0.071  1.00  0.00     0.171 HD
ATOM     32  S   UNL     1       0.067   1.319   0.029  1.00  0.00    -0.055 SA
ATOM     33  S   UNL     1       2.566  -0.414  -0.030  1.00  0.00    -0.052 S 
ENDBRANCH  20  25
ENDBRANCH  18  19
ENDBRANCH  17  18
ENDBRANCH  13  17
ENDBRANCH   7  12
ENDBRANCH   3   6
ENDBRANCH   1   2
BRANCH   1  34
ATOM     34  C   UNL     1       6.619  10.237   2.296  1.00  0.00     0.023 C 
BRANCH  34  35
ATOM     35  C   UNL     1       8.031  10.390   2.880  1.00  0.00     0.023 C 
BRANCH  35  36
ATOM     36  C   UNL     1       8.423  11.819   3.245  1.00  0.00     0.116 C 
BRANCH  36  37
ATOM     37  N   UNL     1       7.554  12.407   4.264  1.00  0.00    -0.352 N 
ATOM     38  C   UNL     1       7.385  13.744   4.582  1.00  0.00     0.251 C 
ATOM     39  H   UNL     1       7.021  11.770   4.793  1.00  0.00     0.163 HD
ATOM     40  O   UNL     1       6.951  14.091   5.665  1.00  0.00    -0.269 OA
BRANCH  38  41
ATOM     41  C   UNL     1       7.731  14.748   3.561  1.00  0.00     0.039 A 
ATOM     42  C   UNL     1       8.480  15.883   3.876  1.00  0.00     0.014 A 
ATOM     43  C   UNL     1       7.329  14.494   2.254  1.00  0.00     0.014 A 
ATOM     44  C   UNL     1       8.906  16.711   2.840  1.00  0.00     0.010 A 
ATOM     45  C   UNL     1       7.872  15.222   1.226  1.00  0.00     0.010 A 
ATOM     46  C   UNL     1       8.623  16.359   1.510  1.00  0.00    -0.014 A 
BRANCH  46  47
ATOM     47  C   UNL     1       9.190  17.119   0.399  1.00  0.00     0.031 A 
ATOM     48  C   UNL     1      10.669  17.314   0.432  1.00  0.00     0.074 A 
ATOM     49  C   UNL     1       8.480  17.450  -0.701  1.00  0.00     0.049 A 
ATOM     50  N   UNL     1      11.314  18.432   0.503  1.00  0.00    -0.248 NA
ATOM     51  C   UNL     1      11.536  16.127   0.476  1.00  0.00     0.031 C 
ATOM     52  C   UNL     1       7.102  17.092  -1.052  1.00  0.00     0.029 A 
ATOM     53  N   UNL     1       8.906  18.110  -1.812  1.00  0.00    -0.354 N 
ATOM     54  C   UNL     1      12.670  18.113   0.444  1.00  0.00     0.074 A 
ATOM     55  C   UNL     1      12.749  16.680   0.562  1.00  0.00     0.031 C 
ATOM     56  C   UNL     1       6.894  17.326  -2.367  1.00  0.00     0.029 A 
ATOM     57  C   UNL     1       8.054  18.010  -2.903  1.00  0.00     0.049 A 
ATOM     58  H   UNL     1       9.749  18.617  -1.839  1.00  0.00     0.167 HD
ATOM     59  C   UNL     1      13.602  19.050   0.106  1.00  0.00     0.037 A 
ATOM     60  C   UNL     1       8.299  18.444  -4.163  1.00  0.00     0.037 A 
ATOM     61  C   UNL     1      13.067  20.383   0.231  1.00  0.00     0.049 A 
ATOM     62  C   UNL     1       9.372  19.466  -4.071  1.00  0.00     0.074 A 
ATOM     63  C   UNL     1      12.527  21.113   1.274  1.00  0.00     0.029 A 
ATOM     64  N   UNL     1      12.684  21.045  -0.910  1.00  0.00    -0.354 N 
ATOM     65  N   UNL     1       9.208  20.635  -3.516  1.00  0.00    -0.248 NA
ATOM     66  C   UNL     1      10.750  19.011  -4.178  1.00  0.00     0.031 C 
ATOM     67  C   UNL     1      11.435  21.825   0.692  1.00  0.00     0.029 A 
ATOM     68  C   UNL     1      11.428  21.542  -0.674  1.00  0.00     0.049 A 
ATOM     69  H   UNL     1      13.209  21.143  -1.738  1.00  0.00     0.167 HD
ATOM     70  C   UNL     1      10.383  20.856  -2.815  1.00  0.00     0.074 A 
ATOM     71  C   UNL     1      11.329  19.868  -3.333  1.00  0.00     0.031 C 
ATOM     72  C   UNL     1      10.400  21.619  -1.683  1.00  0.00     0.037 A 
BRANCH  59  73
ATOM     73  C   UNL     1      14.875  18.775  -0.660  1.00  0.00     0.064 A 
ATOM     74  C   UNL     1      15.801  19.823  -0.854  1.00  0.00     0.173 A 
ATOM     75  C   UNL     1      15.074  17.636  -1.469  1.00  0.00     0.173 A 
ATOM     76  F   UNL     1      15.709  20.957  -0.143  1.00  0.00    -0.203 F 
ATOM     77  C   UNL     1      16.780  19.773  -1.850  1.00  0.00     0.198 A 
ATOM     78  C   UNL     1      16.087  17.568  -2.426  1.00  0.00     0.198 A 
ATOM     79  F   UNL     1      14.236  16.594  -1.450  1.00  0.00    -0.203 F 
ATOM     80  F   UNL     1      17.543  20.848  -2.088  1.00  0.00    -0.200 F 
ATOM     81  C   UNL     1      16.914  18.649  -2.643  1.00  0.00     0.200 A 
ATOM     82  F   UNL     1      16.192  16.475  -3.194  1.00  0.00    -0.200 F 
ATOM     83  F   UNL     1      17.802  18.625  -3.645  1.00  0.00    -0.200 F 
ENDBRANCH  59  73
BRANCH  60  84
ATOM     84  C   UNL     1       7.853  17.860  -5.449  1.00  0.00     0.064 A 
ATOM     85  C   UNL     1       7.951  18.587  -6.646  1.00  0.00     0.173 A 
ATOM     86  C   UNL     1       7.584  16.482  -5.574  1.00  0.00     0.173 A 
ATOM     87  F   UNL     1       8.241  19.896  -6.618  1.00  0.00    -0.203 F 
ATOM     88  C   UNL     1       7.824  17.968  -7.893  1.00  0.00     0.198 A 
ATOM     89  C   UNL     1       7.450  15.867  -6.819  1.00  0.00     0.198 A 
ATOM     90  F   UNL     1       7.540  15.688  -4.494  1.00  0.00    -0.203 F 
ATOM     91  F   UNL     1       7.992  18.683  -9.014  1.00  0.00    -0.200 F 
ATOM     92  C   UNL     1       7.587  16.606  -7.979  1.00  0.00     0.200 A 
ATOM     93  F   UNL     1       7.252  14.542  -6.888  1.00  0.00    -0.200 F 
ATOM     94  F   UNL     1       7.531  16.001  -9.173  1.00  0.00    -0.200 F 
ENDBRANCH  60  84
BRANCH  72  95
ATOM     95  C   UNL     1       9.164  22.402  -1.337  1.00  0.00     0.064 A 
ATOM     96  C   UNL     1       7.913  21.819  -1.066  1.00  0.00     0.173 A 
ATOM     97  C   UNL     1       9.285  23.781  -1.126  1.00  0.00     0.173 A 
ATOM     98  F   UNL     1       7.737  20.495  -1.135  1.00  0.00    -0.203 F 
ATOM     99  C   UNL     1       6.826  22.588  -0.654  1.00  0.00     0.198 A 
ATOM    100  C   UNL     1       8.208  24.543  -0.678  1.00  0.00     0.198 A 
ATOM    101  F   UNL     1      10.469  24.387  -1.310  1.00  0.00    -0.203 F 
ATOM    102  F   UNL     1       5.641  22.005  -0.416  1.00  0.00    -0.200 F 
ATOM    103  C   UNL     1       6.977  23.949  -0.454  1.00  0.00     0.200 A 
ATOM    104  F   UNL     1       8.373  25.851  -0.437  1.00  0.00    -0.200 F 
ATOM    105  F   UNL     1       5.944  24.684  -0.019  1.00  0.00    -0.200 F 
ENDBRANCH  72  95
ENDBRANCH  46  47
ENDBRANCH  38  41
ENDBRANCH  36  37
ENDBRANCH  35  36
ENDBRANCH  34  35
ENDBRANCH   1  34
TORSDOF 16
