REMARK SMILES CCC[N@@H+]1CC2(CCN(c3nccnc3C)CC2)C[C@H]1C(=O)NCCCCNC(=O)c1ccc(-c2c3nc(c(-c4c(F)c(F)c(F)c(F)c4F)c4ccc([nH]4)c(-c4c(F)c(F)c(F)c(F)c4F)c4nc(c(-c5c(F)c(F)c(F)c(F)c5F)c5ccc2[nH]5)C=C4)C=C3)cc1
REMARK SMILES IDX 25 1 24 2 23 3 21 4 22 5 20 7 4 8 5 9 6 11 19 12 7 13 18 14
REMARK SMILES IDX 8 15 17 16 9 17 3 18 2 19 1 20 10 21 11 22 15 23 12 24 14 25
REMARK SMILES IDX 16 26 13 27 26 28 27 29 28 30 29 31 30 33 31 34 32 35 93 36
REMARK SMILES IDX 33 37 92 38 34 39 35 40 36 41 86 42 37 43 91 44 85 45 87 46
REMARK SMILES IDX 38 47 90 48 84 49 83 50 39 52 71 53 51 54 70 55 52 56 55 57
REMARK SMILES IDX 69 58 88 59 53 60 54 61 68 63 89 64 56 65 40 66 41 67 49 68
REMARK SMILES IDX 42 69 43 70 47 71 50 72 44 73 45 74 48 75 46 76 72 77 73 78
REMARK SMILES IDX 81 79 74 80 75 81 79 82 82 83 76 84 77 85 80 86 78 87 57 88
REMARK SMILES IDX 58 89 66 90 59 91 60 92 64 93 67 94 61 95 62 96 65 97 63 98
REMARK H PARENT 23 6 4 10 28 32 87 51 55 62
REMARK Flexibility Score: inf
ROOT
ATOM      1  C   UNL     1      -0.704  -1.440  -5.994  1.00  0.00     0.023 C 
ENDROOT
BRANCH   1   2
ATOM      2  C   UNL     1      -0.946  -2.016  -4.609  1.00  0.00     0.116 C 
BRANCH   2   3
ATOM      3  N   UNL     1       0.204  -2.538  -3.934  1.00  0.00    -0.351 N 
ATOM      4  C   UNL     1       0.706  -2.215  -2.708  1.00  0.00     0.278 C 
ATOM      5  O   UNL     1       1.599  -2.968  -2.290  1.00  0.00    -0.268 OA
ATOM      6  H   UNL     1       0.704  -3.229  -4.425  1.00  0.00     0.163 HD
BRANCH   4   7
ATOM      7  C   UNL     1       0.252  -1.012  -1.823  1.00  0.00     0.274 C 
ATOM      8  N   UNL     1       0.322   0.277  -2.524  1.00  0.00    -0.324 N 
ATOM      9  C   UNL     1      -1.038   0.824  -2.673  1.00  0.00     0.270 C 
ATOM     10  H   UNL     1       0.694   0.129  -3.462  1.00  0.00     0.348 HD
ATOM     11  C   UNL     1      -2.002   0.037  -1.751  1.00  0.00     0.029 C 
ATOM     12  C   UNL     1      -1.095  -1.039  -1.106  1.00  0.00     0.088 C 
ATOM     13  C   UNL     1      -3.202  -0.719  -2.397  1.00  0.00     0.034 C 
ATOM     14  C   UNL     1      -2.633   1.049  -0.743  1.00  0.00     0.034 C 
ATOM     15  C   UNL     1      -4.241   0.191  -3.036  1.00  0.00     0.119 C 
ATOM     16  C   UNL     1      -3.700   1.950  -1.411  1.00  0.00     0.119 C 
ATOM     17  N   UNL     1      -4.705   1.071  -1.982  1.00  0.00    -0.355 N 
BRANCH   8  18
ATOM     18  C   UNL     1       1.299   1.209  -1.923  1.00  0.00     0.262 C 
BRANCH  18  19
ATOM     19  C   UNL     1       1.173   1.645  -0.444  1.00  0.00     0.058 C 
ATOM     20  C   UNL     1       1.791   0.718   0.600  1.00  0.00     0.010 C 
ENDBRANCH  18  19
ENDBRANCH   8  18
BRANCH  17  21
ATOM     21  C   UNL     1      -6.021   1.488  -2.031  1.00  0.00     0.150 A 
ATOM     22  N   UNL     1      -6.272   2.766  -2.399  1.00  0.00    -0.236 NA
ATOM     23  C   UNL     1      -7.084   0.622  -1.685  1.00  0.00     0.080 A 
ATOM     24  C   UNL     1      -7.572   3.141  -2.428  1.00  0.00     0.133 A 
ATOM     25  N   UNL     1      -8.389   1.017  -1.708  1.00  0.00    -0.256 NA
ATOM     26  C   UNL     1      -6.854  -0.747  -1.113  1.00  0.00     0.071 C 
ATOM     27  C   UNL     1      -8.605   2.289  -2.090  1.00  0.00     0.131 A 
ENDBRANCH  17  21
ENDBRANCH   4   7
ENDBRANCH   2   3
ENDBRANCH   1   2
BRANCH   1  28
ATOM     28  C   UNL     1      -0.922  -2.416  -7.145  1.00  0.00     0.023 C 
BRANCH  28  29
ATOM     29  C   UNL     1      -2.280  -3.117  -7.186  1.00  0.00     0.116 C 
BRANCH  29  30
ATOM     30  N   UNL     1      -3.433  -2.225  -7.201  1.00  0.00    -0.352 N 
ATOM     31  C   UNL     1      -4.631  -2.405  -7.864  1.00  0.00     0.251 C 
ATOM     32  H   UNL     1      -3.348  -1.397  -6.676  1.00  0.00     0.163 HD
ATOM     33  O   UNL     1      -5.516  -1.567  -7.819  1.00  0.00    -0.269 OA
BRANCH  31  34
ATOM     34  C   UNL     1      -4.792  -3.622  -8.688  1.00  0.00     0.039 A 
ATOM     35  C   UNL     1      -4.995  -3.481 -10.062  1.00  0.00     0.014 A 
ATOM     36  C   UNL     1      -4.594  -4.882  -8.118  1.00  0.00     0.014 A 
ATOM     37  C   UNL     1      -4.883  -4.600 -10.889  1.00  0.00     0.010 A 
ATOM     38  C   UNL     1      -4.417  -5.982  -8.950  1.00  0.00     0.010 A 
ATOM     39  C   UNL     1      -4.532  -5.846 -10.343  1.00  0.00    -0.014 A 
BRANCH  39  40
ATOM     40  C   UNL     1      -4.222  -7.011 -11.209  1.00  0.00     0.031 A 
ATOM     41  C   UNL     1      -5.071  -8.245 -11.140  1.00  0.00     0.074 A 
ATOM     42  C   UNL     1      -3.112  -6.995 -11.974  1.00  0.00     0.049 A 
ATOM     43  N   UNL     1      -4.891  -9.407 -11.714  1.00  0.00    -0.248 NA
ATOM     44  C   UNL     1      -6.266  -8.173 -10.285  1.00  0.00     0.031 C 
ATOM     45  C   UNL     1      -2.173  -5.877 -12.082  1.00  0.00     0.029 A 
ATOM     46  N   UNL     1      -2.571  -7.960 -12.787  1.00  0.00    -0.354 N 
ATOM     47  C   UNL     1      -5.934 -10.209 -11.273  1.00  0.00     0.074 A 
ATOM     48  C   UNL     1      -6.718  -9.417 -10.350  1.00  0.00     0.031 C 
ATOM     49  C   UNL     1      -1.180  -6.214 -12.921  1.00  0.00     0.029 A 
ATOM     50  C   UNL     1      -1.389  -7.584 -13.379  1.00  0.00     0.049 A 
ATOM     51  H   UNL     1      -2.990  -8.839 -12.933  1.00  0.00     0.167 HD
ATOM     52  C   UNL     1      -6.221 -11.485 -11.622  1.00  0.00     0.037 A 
ATOM     53  C   UNL     1      -0.559  -8.272 -14.186  1.00  0.00     0.037 A 
ATOM     54  C   UNL     1      -5.462 -12.257 -12.569  1.00  0.00     0.049 A 
ATOM     55  C   UNL     1      -0.900  -9.689 -14.557  1.00  0.00     0.074 A 
ATOM     56  C   UNL     1      -5.730 -13.520 -13.066  1.00  0.00     0.029 A 
ATOM     57  N   UNL     1      -4.278 -11.837 -13.159  1.00  0.00    -0.354 N 
ATOM     58  N   UNL     1      -1.933 -10.411 -14.197  1.00  0.00    -0.248 NA
ATOM     59  C   UNL     1       0.042 -10.389 -15.443  1.00  0.00     0.031 C 
ATOM     60  C   UNL     1      -4.687 -13.883 -13.924  1.00  0.00     0.029 A 
ATOM     61  C   UNL     1      -3.787 -12.830 -13.991  1.00  0.00     0.049 A 
ATOM     62  H   UNL     1      -3.851 -10.963 -13.009  1.00  0.00     0.167 HD
ATOM     63  C   UNL     1      -1.774 -11.642 -14.818  1.00  0.00     0.074 A 
ATOM     64  C   UNL     1      -0.554 -11.564 -15.595  1.00  0.00     0.031 C 
ATOM     65  C   UNL     1      -2.566 -12.739 -14.748  1.00  0.00     0.037 A 
BRANCH  52  66
ATOM     66  C   UNL     1      -7.416 -12.125 -10.980  1.00  0.00     0.064 A 
ATOM     67  C   UNL     1      -8.723 -11.736 -11.307  1.00  0.00     0.173 A 
ATOM     68  C   UNL     1      -7.252 -13.158 -10.046  1.00  0.00     0.173 A 
ATOM     69  F   UNL     1      -8.931 -10.743 -12.186  1.00  0.00    -0.203 F 
ATOM     70  C   UNL     1      -9.822 -12.337 -10.701  1.00  0.00     0.198 A 
ATOM     71  C   UNL     1      -8.354 -13.776  -9.462  1.00  0.00     0.198 A 
ATOM     72  F   UNL     1      -6.022 -13.570  -9.701  1.00  0.00    -0.203 F 
ATOM     73  F   UNL     1     -11.060 -11.916 -10.994  1.00  0.00    -0.200 F 
ATOM     74  C   UNL     1      -9.637 -13.361  -9.784  1.00  0.00     0.200 A 
ATOM     75  F   UNL     1      -8.175 -14.772  -8.582  1.00  0.00    -0.200 F 
ATOM     76  F   UNL     1     -10.697 -13.941  -9.204  1.00  0.00    -0.200 F 
ENDBRANCH  52  66
BRANCH  53  77
ATOM     77  C   UNL     1       0.676  -7.628 -14.702  1.00  0.00     0.064 A 
ATOM     78  C   UNL     1       0.787  -7.268 -16.052  1.00  0.00     0.173 A 
ATOM     79  C   UNL     1       1.766  -7.358 -13.862  1.00  0.00     0.173 A 
ATOM     80  F   UNL     1      -0.221  -7.527 -16.898  1.00  0.00    -0.203 F 
ATOM     81  C   UNL     1       1.946  -6.674 -16.546  1.00  0.00     0.198 A 
ATOM     82  C   UNL     1       2.916  -6.742 -14.352  1.00  0.00     0.198 A 
ATOM     83  F   UNL     1       1.709  -7.682 -12.562  1.00  0.00    -0.203 F 
ATOM     84  F   UNL     1       2.040  -6.373 -17.848  1.00  0.00    -0.200 F 
ATOM     85  C   UNL     1       3.008  -6.406 -15.694  1.00  0.00     0.200 A 
ATOM     86  F   UNL     1       3.935  -6.475 -13.524  1.00  0.00    -0.200 F 
ATOM     87  F   UNL     1       4.121  -5.830 -16.169  1.00  0.00    -0.200 F 
ENDBRANCH  53  77
BRANCH  65  88
ATOM     88  C   UNL     1      -2.138 -13.945 -15.529  1.00  0.00     0.064 A 
ATOM     89  C   UNL     1      -1.070 -14.748 -15.103  1.00  0.00     0.173 A 
ATOM     90  C   UNL     1      -2.833 -14.331 -16.685  1.00  0.00     0.173 A 
ATOM     91  F   UNL     1      -0.365 -14.409 -14.013  1.00  0.00    -0.203 F 
ATOM     92  C   UNL     1      -0.705 -15.887 -15.814  1.00  0.00     0.198 A 
ATOM     93  C   UNL     1      -2.481 -15.485 -17.379  1.00  0.00     0.198 A 
ATOM     94  F   UNL     1      -3.864 -13.597 -17.130  1.00  0.00    -0.203 F 
ATOM     95  F   UNL     1       0.340 -16.621 -15.409  1.00  0.00    -0.200 F 
ATOM     96  C   UNL     1      -1.415 -16.259 -16.946  1.00  0.00     0.200 A 
ATOM     97  F   UNL     1      -3.175 -15.849 -18.466  1.00  0.00    -0.200 F 
ATOM     98  F   UNL     1      -1.069 -17.363 -17.623  1.00  0.00    -0.200 F 
ENDBRANCH  65  88
ENDBRANCH  39  40
ENDBRANCH  31  34
ENDBRANCH  29  30
ENDBRANCH  28  29
ENDBRANCH   1  28
TORSDOF 14
