REMARK SMILES CN(C)c1oc(/C=N/c2ccc(O)c(C(=O)NCCCCNC(=O)c3ccc(-c4c5nc(c(-c6c(F)c(F)c(F)c(F)c6F)c6ccc([nH]6)c(-c6c(F)c(F)c(F)c(F)c6F)c6nc(c(-c7c(F)c(F)c(F)c(F)c7F)c7ccc4[nH]7)C=C6)C=C5)cc3)c2)cc1Br
REMARK SMILES IDX 19 1 18 2 17 3 15 4 16 5 14 7 9 8 10 9 88 10 11 11 12 12
REMARK SMILES IDX 8 13 7 14 6 15 4 16 5 17 90 18 89 19 91 20 2 21 1 22 3 23
REMARK SMILES IDX 13 24 20 26 21 27 22 28 23 29 24 31 25 32 26 33 87 34 27 35
REMARK SMILES IDX 86 36 28 37 29 38 30 39 80 40 31 41 85 42 79 43 81 44 32 45
REMARK SMILES IDX 84 46 78 47 77 48 33 50 65 51 45 52 64 53 46 54 49 55 63 56
REMARK SMILES IDX 82 57 47 58 48 59 62 61 83 62 50 63 34 64 35 65 43 66 36 67
REMARK SMILES IDX 37 68 41 69 44 70 38 71 39 72 42 73 40 74 66 75 67 76 75 77
REMARK SMILES IDX 68 78 69 79 73 80 76 81 70 82 71 83 74 84 72 85 51 86 52 87
REMARK SMILES IDX 60 88 53 89 54 90 58 91 61 92 55 93 56 94 59 95 57 96
REMARK H PARENT 17 6 13 25 22 30 81 49 49 60
REMARK Flexibility Score: inf
ROOT
ATOM      1  C   UNL     1      -0.889  12.699  -6.738  1.00  0.00     0.023 C 
ENDROOT
BRANCH   1   2
ATOM      2  C   UNL     1      -0.890  11.373  -7.507  1.00  0.00     0.116 C 
BRANCH   2   3
ATOM      3  N   UNL     1       0.377  10.704  -7.338  1.00  0.00    -0.352 N 
ATOM      4  C   UNL     1       0.824   9.787  -6.425  1.00  0.00     0.255 C 
ATOM      5  O   UNL     1       2.018   9.486  -6.530  1.00  0.00    -0.269 OA
ATOM      6  H   UNL     1       1.051  10.955  -8.011  1.00  0.00     0.163 HD
BRANCH   4   7
ATOM      7  C   UNL     1      -0.003   9.089  -5.386  1.00  0.00     0.083 A 
ATOM      8  C   UNL     1      -0.040   7.083  -3.959  1.00  0.00     0.064 A 
ATOM      9  C   UNL     1      -1.217   7.526  -3.362  1.00  0.00     0.032 A 
ATOM     10  C   UNL     1       0.538   7.852  -4.971  1.00  0.00     0.046 A 
ATOM     11  C   UNL     1      -1.779   8.738  -3.747  1.00  0.00     0.049 A 
ATOM     12  C   UNL     1      -1.156   9.531  -4.722  1.00  0.00     0.128 A 
BRANCH   8  13
ATOM     13  N   UNL     1       0.678   6.000  -3.450  1.00  0.00    -0.253 NA
ATOM     14  C   UNL     1       0.095   4.856  -3.308  1.00  0.00     0.158 C 
BRANCH  14  15
ATOM     15  C   UNL     1       0.806   3.802  -2.647  1.00  0.00     0.149 A 
ATOM     16  C   UNL     1       1.007   1.831  -1.674  1.00  0.00     0.210 A 
ATOM     17  O   UNL     1       0.176   2.612  -2.437  1.00  0.00    -0.438 OA
ATOM     18  C   UNL     1       2.182   2.524  -1.457  1.00  0.00     0.082 A 
ATOM     19  C   UNL     1       2.068   3.774  -2.091  1.00  0.00     0.070 A 
ATOM     20  Br  UNL     1       3.734   2.011  -0.538  1.00  0.00    -0.045 Br
BRANCH  16  21
ATOM     21  N   UNL     1       0.512   0.629  -1.288  1.00  0.00    -0.348 N 
ATOM     22  C   UNL     1       0.950  -0.001  -0.058  1.00  0.00     0.146 C 
ATOM     23  C   UNL     1      -0.512  -0.020  -2.085  1.00  0.00     0.146 C 
ENDBRANCH  16  21
ENDBRANCH  14  15
ENDBRANCH   8  13
BRANCH  12  24
ATOM     24  O   UNL     1      -1.694  10.768  -4.912  1.00  0.00    -0.507 OA
ATOM     25  H   UNL     1      -2.466  11.020  -4.445  1.00  0.00     0.293 HD
ENDBRANCH  12  24
ENDBRANCH   4   7
ENDBRANCH   2   3
ENDBRANCH   1   2
BRANCH   1  26
ATOM     26  C   UNL     1      -0.266  13.874  -7.492  1.00  0.00     0.023 C 
BRANCH  26  27
ATOM     27  C   UNL     1      -1.030  14.290  -8.739  1.00  0.00     0.116 C 
BRANCH  27  28
ATOM     28  N   UNL     1      -2.414  14.650  -8.477  1.00  0.00    -0.352 N 
ATOM     29  C   UNL     1      -3.222  15.510  -9.179  1.00  0.00     0.251 C 
ATOM     30  H   UNL     1      -2.826  14.220  -7.693  1.00  0.00     0.163 HD
ATOM     31  O   UNL     1      -4.343  15.783  -8.771  1.00  0.00    -0.269 OA
BRANCH  29  32
ATOM     32  C   UNL     1      -2.706  16.138 -10.412  1.00  0.00     0.039 A 
ATOM     33  C   UNL     1      -2.893  17.509 -10.594  1.00  0.00     0.014 A 
ATOM     34  C   UNL     1      -2.032  15.382 -11.375  1.00  0.00     0.014 A 
ATOM     35  C   UNL     1      -2.370  18.131 -11.727  1.00  0.00     0.010 A 
ATOM     36  C   UNL     1      -1.435  16.016 -12.457  1.00  0.00     0.010 A 
ATOM     37  C   UNL     1      -1.621  17.391 -12.657  1.00  0.00    -0.014 A 
BRANCH  37  38
ATOM     38  C   UNL     1      -1.077  18.030 -13.878  1.00  0.00     0.031 A 
ATOM     39  C   UNL     1      -1.581  17.608 -15.230  1.00  0.00     0.074 A 
ATOM     40  C   UNL     1      -0.100  18.949 -13.774  1.00  0.00     0.049 A 
ATOM     41  N   UNL     1      -1.224  18.027 -16.417  1.00  0.00    -0.248 NA
ATOM     42  C   UNL     1      -2.596  16.543 -15.251  1.00  0.00     0.031 C 
ATOM     43  C   UNL     1       0.520  19.385 -12.523  1.00  0.00     0.029 A 
ATOM     44  N   UNL     1       0.547  19.675 -14.740  1.00  0.00    -0.354 N 
ATOM     45  C   UNL     1      -1.958  17.269 -17.319  1.00  0.00     0.074 A 
ATOM     46  C   UNL     1      -2.722  16.314 -16.548  1.00  0.00     0.031 C 
ATOM     47  C   UNL     1       1.443  20.322 -12.796  1.00  0.00     0.029 A 
ATOM     48  C   UNL     1       1.492  20.534 -14.240  1.00  0.00     0.049 A 
ATOM     49  H   UNL     1       0.353  19.588 -15.701  1.00  0.00     0.167 HD
ATOM     50  C   UNL     1      -2.018  17.381 -18.668  1.00  0.00     0.037 A 
ATOM     51  C   UNL     1       2.301  21.401 -14.877  1.00  0.00     0.037 A 
ATOM     52  C   UNL     1      -1.272  18.349 -19.426  1.00  0.00     0.049 A 
ATOM     53  C   UNL     1       2.190  21.542 -16.370  1.00  0.00     0.074 A 
ATOM     54  C   UNL     1      -1.294  18.587 -20.789  1.00  0.00     0.029 A 
ATOM     55  N   UNL     1      -0.362  19.244 -18.879  1.00  0.00    -0.354 N 
ATOM     56  N   UNL     1       1.433  20.878 -17.210  1.00  0.00    -0.248 NA
ATOM     57  C   UNL     1       3.028  22.570 -17.000  1.00  0.00     0.031 C 
ATOM     58  C   UNL     1      -0.369  19.598 -21.071  1.00  0.00     0.029 A 
ATOM     59  C   UNL     1       0.191  20.029 -19.878  1.00  0.00     0.049 A 
ATOM     60  H   UNL     1      -0.143  19.311 -17.922  1.00  0.00     0.167 HD
ATOM     61  C   UNL     1       1.679  21.425 -18.462  1.00  0.00     0.074 A 
ATOM     62  C   UNL     1       2.648  22.486 -18.267  1.00  0.00     0.031 C 
ATOM     63  C   UNL     1       1.150  21.084 -19.663  1.00  0.00     0.037 A 
BRANCH  50  64
ATOM     64  C   UNL     1      -2.926  16.429 -19.393  1.00  0.00     0.064 A 
ATOM     65  C   UNL     1      -4.322  16.484 -19.244  1.00  0.00     0.173 A 
ATOM     66  C   UNL     1      -2.398  15.436 -20.231  1.00  0.00     0.173 A 
ATOM     67  F   UNL     1      -4.880  17.404 -18.443  1.00  0.00    -0.203 F 
ATOM     68  C   UNL     1      -5.149  15.550 -19.865  1.00  0.00     0.198 A 
ATOM     69  C   UNL     1      -3.230  14.527 -20.880  1.00  0.00     0.198 A 
ATOM     70  F   UNL     1      -1.073  15.340 -20.415  1.00  0.00    -0.203 F 
ATOM     71  F   UNL     1      -6.470  15.577 -19.644  1.00  0.00    -0.200 F 
ATOM     72  C   UNL     1      -4.603  14.575 -20.684  1.00  0.00     0.200 A 
ATOM     73  F   UNL     1      -2.703  13.592 -21.682  1.00  0.00    -0.200 F 
ATOM     74  F   UNL     1      -5.398  13.673 -21.276  1.00  0.00    -0.200 F 
ENDBRANCH  50  64
BRANCH  51  75
ATOM     75  C   UNL     1       3.239  22.240 -14.088  1.00  0.00     0.064 A 
ATOM     76  C   UNL     1       3.007  23.611 -13.912  1.00  0.00     0.173 A 
ATOM     77  C   UNL     1       4.367  21.683 -13.468  1.00  0.00     0.173 A 
ATOM     78  F   UNL     1       1.949  24.191 -14.499  1.00  0.00    -0.203 F 
ATOM     79  C   UNL     1       3.874  24.397 -13.157  1.00  0.00     0.198 A 
ATOM     80  C   UNL     1       5.220  22.465 -12.692  1.00  0.00     0.198 A 
ATOM     81  F   UNL     1       4.627  20.374 -13.598  1.00  0.00    -0.203 F 
ATOM     82  F   UNL     1       3.647  25.711 -13.032  1.00  0.00    -0.200 F 
ATOM     83  C   UNL     1       4.976  23.822 -12.541  1.00  0.00     0.200 A 
ATOM     84  F   UNL     1       6.274  21.903 -12.085  1.00  0.00    -0.200 F 
ATOM     85  F   UNL     1       5.803  24.576 -11.805  1.00  0.00    -0.200 F 
ENDBRANCH  51  75
BRANCH  63  86
ATOM     86  C   UNL     1       1.574  21.893 -20.855  1.00  0.00     0.064 A 
ATOM     87  C   UNL     1       2.866  21.797 -21.393  1.00  0.00     0.173 A 
ATOM     88  C   UNL     1       0.663  22.756 -21.483  1.00  0.00     0.173 A 
ATOM     89  F   UNL     1       3.778  20.995 -20.822  1.00  0.00    -0.203 F 
ATOM     90  C   UNL     1       3.239  22.560 -22.496  1.00  0.00     0.198 A 
ATOM     91  C   UNL     1       1.030  23.493 -22.605  1.00  0.00     0.198 A 
ATOM     92  F   UNL     1      -0.587  22.878 -21.012  1.00  0.00    -0.203 F 
ATOM     93  F   UNL     1       4.495  22.493 -22.961  1.00  0.00    -0.200 F 
ATOM     94  C   UNL     1       2.320  23.402 -23.105  1.00  0.00     0.200 A 
ATOM     95  F   UNL     1       0.137  24.296 -23.199  1.00  0.00    -0.200 F 
ATOM     96  F   UNL     1       2.681  24.133 -24.168  1.00  0.00    -0.200 F 
ENDBRANCH  63  86
ENDBRANCH  37  38
ENDBRANCH  29  32
ENDBRANCH  27  28
ENDBRANCH  26  27
ENDBRANCH   1  26
TORSDOF 15
