REMARK SMILES Cc1cccc(S(=O)(=O)Nc2cnc(N(C)Cc3ccccc3)c(C(=O)NCCCCNC(=O)c3ccc(-c4c5nc(c(-c6c(F)c(F)c(F)c(F)c6F)c6ccc([nH]6)c(-c6c(F)c(F)c(F)c(F)c6F)c6nc(c(-c7c(F)c(F)c(F)c(F)c7F)c7ccc4[nH]7)C=C6)C=C5)cc3)c2)c1
REMARK SMILES IDX 29 1 28 2 27 3 25 4 26 5 24 7 11 8 12 9 98 10 13 11 14 12
REMARK SMILES IDX 10 13 7 15 8 16 9 17 6 18 1 19 2 20 3 21 99 22 4 23 5 24
REMARK SMILES IDX 15 25 16 26 17 27 18 28 19 29 23 30 20 31 22 32 21 33 30 34
REMARK SMILES IDX 31 35 32 36 33 37 34 39 35 40 36 41 97 42 37 43 96 44 38 45
REMARK SMILES IDX 39 46 40 47 90 48 41 49 95 50 89 51 91 52 42 53 94 54 88 55
REMARK SMILES IDX 87 56 43 58 75 59 55 60 74 61 56 62 59 63 73 64 92 65 57 66
REMARK SMILES IDX 58 67 72 69 93 70 60 71 44 72 45 73 53 74 46 75 47 76 51 77
REMARK SMILES IDX 54 78 48 79 49 80 52 81 50 82 76 83 77 84 85 85 78 86 79 87
REMARK SMILES IDX 83 88 86 89 80 90 81 91 84 92 82 93 61 94 62 95 70 96 63 97
REMARK SMILES IDX 64 98 68 99 71 100 65 101 66 102 69 103 67 104
REMARK H PARENT 27 6 10 14 32 38 91 57 59 68
REMARK Flexibility Score: inf
ROOT
ATOM      1  C   UNL     1       0.247   1.850  -4.098  1.00  0.00     0.023 C 
ENDROOT
BRANCH   1   2
ATOM      2  C   UNL     1       0.965   1.207  -2.896  1.00  0.00     0.116 C 
BRANCH   2   3
ATOM      3  N   UNL     1       2.382   1.554  -2.894  1.00  0.00    -0.352 N 
ATOM      4  C   UNL     1       3.063   2.654  -2.416  1.00  0.00     0.255 C 
ATOM      5  O   UNL     1       4.043   3.026  -3.058  1.00  0.00    -0.269 OA
ATOM      6  H   UNL     1       2.961   0.876  -3.312  1.00  0.00     0.163 HD
BRANCH   4   7
ATOM      7  C   UNL     1       2.662   3.376  -1.185  1.00  0.00     0.084 A 
ATOM      8  C   UNL     1       0.836   4.388   0.050  1.00  0.00     0.068 A 
ATOM      9  C   UNL     1       1.758   4.729   1.010  1.00  0.00     0.140 A 
ATOM     10  C   UNL     1       1.323   3.834  -1.121  1.00  0.00     0.046 A 
ATOM     11  N   UNL     1       3.060   4.400   0.927  1.00  0.00    -0.236 NA
ATOM     12  C   UNL     1       3.550   3.676  -0.123  1.00  0.00     0.141 A 
BRANCH   8  13
ATOM     13  N   UNL     1      -0.540   4.604   0.357  1.00  0.00    -0.278 N 
ATOM     14  H   UNL     1      -0.812   5.450   0.778  1.00  0.00     0.180 HD
BRANCH  13  15
ATOM     15  S   UNL     1      -1.716   3.434   0.011  1.00  0.00     0.261 S 
ATOM     16  O   UNL     1      -1.835   3.401  -1.435  1.00  0.00    -0.201 OA
ATOM     17  O   UNL     1      -2.854   3.780   0.832  1.00  0.00    -0.201 OA
BRANCH  15  18
ATOM     18  C   UNL     1      -1.201   1.798   0.496  1.00  0.00     0.088 A 
ATOM     19  C   UNL     1       1.952  -0.284   0.640  1.00  0.00     0.044 C 
ATOM     20  C   UNL     1       0.505   0.088   0.692  1.00  0.00    -0.050 A 
ATOM     21  C   UNL     1      -0.468  -0.900   0.609  1.00  0.00     0.003 A 
ATOM     22  C   UNL     1       0.120   1.433   0.733  1.00  0.00     0.025 A 
ATOM     23  C   UNL     1      -1.808  -0.541   0.541  1.00  0.00     0.002 A 
ATOM     24  C   UNL     1      -2.177   0.800   0.437  1.00  0.00     0.022 A 
ENDBRANCH  15  18
ENDBRANCH  13  15
ENDBRANCH   8  13
BRANCH  12  25
ATOM     25  N   UNL     1       4.870   3.318   0.053  1.00  0.00    -0.355 N 
ATOM     26  C   UNL     1       5.678   4.158   0.949  1.00  0.00     0.145 C 
BRANCH  25  27
ATOM     27  C   UNL     1       5.634   2.268  -0.619  1.00  0.00     0.153 C 
BRANCH  27  28
ATOM     28  C   UNL     1       5.391   0.871  -0.084  1.00  0.00    -0.029 A 
ATOM     29  C   UNL     1       5.427  -0.218  -0.971  1.00  0.00     0.005 A 
ATOM     30  C   UNL     1       5.266   0.608   1.289  1.00  0.00     0.005 A 
ATOM     31  C   UNL     1       5.314  -1.529  -0.502  1.00  0.00     0.000 A 
ATOM     32  C   UNL     1       5.152  -0.704   1.758  1.00  0.00     0.000 A 
ATOM     33  C   UNL     1       5.174  -1.772   0.863  1.00  0.00     0.000 A 
ENDBRANCH  27  28
ENDBRANCH  25  27
ENDBRANCH  12  25
ENDBRANCH   4   7
ENDBRANCH   2   3
ENDBRANCH   1   2
BRANCH   1  34
ATOM     34  C   UNL     1       0.776   1.389  -5.462  1.00  0.00     0.023 C 
BRANCH  34  35
ATOM     35  C   UNL     1       0.299   0.001  -5.867  1.00  0.00     0.116 C 
BRANCH  35  36
ATOM     36  N   UNL     1      -0.872   0.012  -6.733  1.00  0.00    -0.352 N 
ATOM     37  C   UNL     1      -1.625  -1.041  -7.233  1.00  0.00     0.251 C 
ATOM     38  H   UNL     1      -1.177   0.907  -7.007  1.00  0.00     0.163 HD
ATOM     39  O   UNL     1      -2.531  -0.835  -8.010  1.00  0.00    -0.269 OA
BRANCH  37  40
ATOM     40  C   UNL     1      -1.405  -2.408  -6.692  1.00  0.00     0.039 A 
ATOM     41  C   UNL     1      -2.538  -3.134  -6.299  1.00  0.00     0.014 A 
ATOM     42  C   UNL     1      -0.132  -2.869  -6.379  1.00  0.00     0.014 A 
ATOM     43  C   UNL     1      -2.400  -4.160  -5.370  1.00  0.00     0.010 A 
ATOM     44  C   UNL     1       0.001  -3.817  -5.387  1.00  0.00     0.010 A 
ATOM     45  C   UNL     1      -1.141  -4.398  -4.827  1.00  0.00    -0.014 A 
BRANCH  45  46
ATOM     46  C   UNL     1      -0.932  -5.114  -3.578  1.00  0.00     0.031 A 
ATOM     47  C   UNL     1      -0.339  -6.462  -3.571  1.00  0.00     0.074 A 
ATOM     48  C   UNL     1      -1.147  -4.452  -2.420  1.00  0.00     0.049 A 
ATOM     49  N   UNL     1      -0.348  -7.258  -2.557  1.00  0.00    -0.248 NA
ATOM     50  C   UNL     1       0.277  -7.048  -4.752  1.00  0.00     0.031 C 
ATOM     51  C   UNL     1      -0.688  -4.829  -1.087  1.00  0.00     0.029 A 
ATOM     52  N   UNL     1      -2.042  -3.389  -2.197  1.00  0.00    -0.354 N 
ATOM     53  C   UNL     1       0.491  -8.313  -2.836  1.00  0.00     0.074 A 
ATOM     54  C   UNL     1       0.774  -8.180  -4.246  1.00  0.00     0.031 C 
ATOM     55  C   UNL     1      -1.502  -4.269  -0.181  1.00  0.00     0.029 A 
ATOM     56  C   UNL     1      -2.580  -3.630  -0.917  1.00  0.00     0.049 A 
ATOM     57  H   UNL     1      -2.247  -2.641  -2.803  1.00  0.00     0.167 HD
ATOM     58  C   UNL     1       0.946  -9.073  -1.795  1.00  0.00     0.037 A 
ATOM     59  C   UNL     1      -3.907  -3.858  -0.707  1.00  0.00     0.037 A 
ATOM     60  C   UNL     1       0.239  -8.726  -0.555  1.00  0.00     0.049 A 
ATOM     61  C   UNL     1      -4.151  -5.159   0.008  1.00  0.00     0.074 A 
ATOM     62  C   UNL     1       0.586  -7.965   0.551  1.00  0.00     0.029 A 
ATOM     63  N   UNL     1      -1.140  -8.927  -0.470  1.00  0.00    -0.354 N 
ATOM     64  N   UNL     1      -3.332  -6.174  -0.057  1.00  0.00    -0.248 NA
ATOM     65  C   UNL     1      -5.291  -5.405   0.881  1.00  0.00     0.031 C 
ATOM     66  C   UNL     1      -0.599  -7.664   1.271  1.00  0.00     0.029 A 
ATOM     67  C   UNL     1      -1.667  -8.261   0.619  1.00  0.00     0.049 A 
ATOM     68  H   UNL     1      -1.665  -9.470  -1.102  1.00  0.00     0.167 HD
ATOM     69  C   UNL     1      -3.780  -7.167   0.770  1.00  0.00     0.074 A 
ATOM     70  C   UNL     1      -5.016  -6.644   1.326  1.00  0.00     0.031 C 
ATOM     71  C   UNL     1      -3.086  -8.330   0.947  1.00  0.00     0.037 A 
BRANCH  58  72
ATOM     72  C   UNL     1       2.222  -9.909  -1.827  1.00  0.00     0.064 A 
ATOM     73  C   UNL     1       2.915 -10.214  -0.631  1.00  0.00     0.173 A 
ATOM     74  C   UNL     1       2.868 -10.369  -2.990  1.00  0.00     0.173 A 
ATOM     75  F   UNL     1       2.393  -9.944   0.572  1.00  0.00    -0.203 F 
ATOM     76  C   UNL     1       4.183 -10.812  -0.617  1.00  0.00     0.198 A 
ATOM     77  C   UNL     1       4.152 -10.928  -2.983  1.00  0.00     0.198 A 
ATOM     78  F   UNL     1       2.267 -10.362  -4.181  1.00  0.00    -0.203 F 
ATOM     79  F   UNL     1       4.791 -11.056   0.552  1.00  0.00    -0.200 F 
ATOM     80  C   UNL     1       4.817 -11.139  -1.796  1.00  0.00     0.200 A 
ATOM     81  F   UNL     1       4.734 -11.264  -4.143  1.00  0.00    -0.200 F 
ATOM     82  F   UNL     1       6.043 -11.678  -1.789  1.00  0.00    -0.200 F 
ENDBRANCH  58  72
BRANCH  59  83
ATOM     83  C   UNL     1      -4.791  -3.211  -1.710  1.00  0.00     0.064 A 
ATOM     84  C   UNL     1      -4.841  -1.804  -1.729  1.00  0.00     0.173 A 
ATOM     85  C   UNL     1      -5.213  -3.881  -2.862  1.00  0.00     0.173 A 
ATOM     86  F   UNL     1      -4.513  -1.110  -0.630  1.00  0.00    -0.203 F 
ATOM     87  C   UNL     1      -5.130  -1.098  -2.893  1.00  0.00     0.198 A 
ATOM     88  C   UNL     1      -5.542  -3.169  -4.021  1.00  0.00     0.198 A 
ATOM     89  F   UNL     1      -5.195  -5.220  -2.912  1.00  0.00    -0.203 F 
ATOM     90  F   UNL     1      -5.021   0.238  -2.908  1.00  0.00    -0.200 F 
ATOM     91  C   UNL     1      -5.451  -1.784  -4.049  1.00  0.00     0.200 A 
ATOM     92  F   UNL     1      -5.847  -3.832  -5.145  1.00  0.00    -0.200 F 
ATOM     93  F   UNL     1      -5.638  -1.117  -5.197  1.00  0.00    -0.200 F 
ENDBRANCH  59  83
BRANCH  71  94
ATOM     94  C   UNL     1      -3.639  -9.597   1.555  1.00  0.00     0.064 A 
ATOM     95  C   UNL     1      -5.006  -9.925   1.563  1.00  0.00     0.173 A 
ATOM     96  C   UNL     1      -2.769 -10.619   2.007  1.00  0.00     0.173 A 
ATOM     97  F   UNL     1      -5.927  -9.099   1.048  1.00  0.00    -0.203 F 
ATOM     98  C   UNL     1      -5.472 -11.151   2.043  1.00  0.00     0.198 A 
ATOM     99  C   UNL     1      -3.234 -11.864   2.429  1.00  0.00     0.198 A 
ATOM    100  F   UNL     1      -1.438 -10.457   2.020  1.00  0.00    -0.203 F 
ATOM    101  F   UNL     1      -6.790 -11.395   2.064  1.00  0.00    -0.200 F 
ATOM    102  C   UNL     1      -4.587 -12.125   2.462  1.00  0.00     0.200 A 
ATOM    103  F   UNL     1      -2.358 -12.817   2.778  1.00  0.00    -0.200 F 
ATOM    104  F   UNL     1      -5.036 -13.319   2.869  1.00  0.00    -0.200 F 
ENDBRANCH  71  94
ENDBRANCH  45  46
ENDBRANCH  37  40
ENDBRANCH  35  36
ENDBRANCH  34  35
ENDBRANCH   1  34
TORSDOF 17
