REMARK SMILES C[C@@H]1CN(C(=O)N2CCC(CC(=O)NCCCCNC(=O)c3ccc(-c4c5nc(c(-c6c(F)c(F)c(F)c(F)c6F)c6ccc([nH]6)c(-c6c(F)c(F)c(F)c(F)c6F)c6nc(c(-c7c(F)c(F)c(F)c(F)c7F)c7ccc4[nH]7)C=C6)C=C5)cc3)CC2)C[C@@H](C)S1
REMARK SMILES IDX 17 1 16 2 15 3 14 4 12 5 13 6 11 8 10 9 1 10 2 11 3 12 90 13
REMARK SMILES IDX 4 14 88 15 5 16 87 17 89 18 6 19 7 20 8 21 86 22 9 23 85 24
REMARK SMILES IDX 18 25 19 26 20 27 21 29 22 30 23 31 84 32 24 33 83 34 25 35
REMARK SMILES IDX 26 36 27 37 77 38 28 39 82 40 76 41 78 42 29 43 81 44 75 45
REMARK SMILES IDX 74 46 30 48 62 49 42 50 61 51 43 52 46 53 60 54 79 55 44 56
REMARK SMILES IDX 45 57 59 59 80 60 47 61 31 62 32 63 40 64 33 65 34 66 38 67
REMARK SMILES IDX 41 68 35 69 36 70 39 71 37 72 63 73 64 74 72 75 65 76 66 77
REMARK SMILES IDX 70 78 73 79 67 80 68 81 71 82 69 83 48 84 49 85 57 86 50 87
REMARK SMILES IDX 51 88 55 89 58 90 52 91 53 92 56 93 54 94
REMARK H PARENT 14 7 19 28 78 47 46 58
REMARK Flexibility Score: inf
ROOT
ATOM      1  C   UNL     1      -5.596  -2.249   1.742  1.00  0.00     0.023 C 
ENDROOT
BRANCH   1   2
ATOM      2  C   UNL     1      -4.200  -2.136   1.157  1.00  0.00     0.023 C 
BRANCH   2   3
ATOM      3  C   UNL     1      -3.126  -2.991   1.837  1.00  0.00     0.116 C 
BRANCH   3   4
ATOM      4  N   UNL     1      -3.101  -4.334   1.285  1.00  0.00    -0.356 N 
ATOM      5  C   UNL     1      -2.265  -4.907   0.370  1.00  0.00     0.220 C 
ATOM      6  O   UNL     1      -2.528  -6.046  -0.019  1.00  0.00    -0.275 OA
ATOM      7  H   UNL     1      -3.805  -4.931   1.627  1.00  0.00     0.163 HD
BRANCH   5   8
ATOM      8  C   UNL     1      -1.036  -4.175  -0.144  1.00  0.00     0.103 C 
BRANCH   8   9
ATOM      9  C   UNL     1      -1.222  -3.467  -1.508  1.00  0.00     0.002 C 
ATOM     10  C   UNL     1       1.306   0.015   0.235  1.00  0.00     0.021 C 
ATOM     11  C   UNL     1       0.315   1.141   0.518  1.00  0.00     0.063 C 
ATOM     12  C   UNL     1      -0.936   1.079  -0.386  1.00  0.00     0.135 C 
ATOM     13  S   UNL     1       1.160   2.769   0.431  1.00  0.00    -0.152 SA
ATOM     14  N   UNL     1      -0.656   1.402  -1.790  1.00  0.00    -0.322 N 
ATOM     15  C   UNL     1       1.200   2.992  -1.398  1.00  0.00     0.063 C 
ATOM     16  C   UNL     1      -0.334   0.477  -2.776  1.00  0.00     0.320 C 
ATOM     17  C   UNL     1      -0.200   2.778  -1.998  1.00  0.00     0.135 C 
ATOM     18  C   UNL     1       1.730   4.387  -1.704  1.00  0.00     0.021 C 
ATOM     19  O   UNL     1       0.377   0.782  -3.734  1.00  0.00    -0.248 OA
ATOM     20  N   UNL     1      -0.753  -0.821  -2.592  1.00  0.00    -0.325 N 
ATOM     21  C   UNL     1       0.057  -1.915  -3.101  1.00  0.00     0.121 C 
ATOM     22  C   UNL     1      -2.138  -1.181  -2.383  1.00  0.00     0.121 C 
ATOM     23  C   UNL     1       0.151  -2.999  -2.031  1.00  0.00     0.026 C 
ATOM     24  C   UNL     1      -2.234  -2.320  -1.384  1.00  0.00     0.026 C 
ENDBRANCH   8   9
ENDBRANCH   5   8
ENDBRANCH   3   4
ENDBRANCH   2   3
ENDBRANCH   1   2
BRANCH   1  25
ATOM     25  C   UNL     1      -5.737  -1.631   3.117  1.00  0.00     0.116 C 
BRANCH  25  26
ATOM     26  N   UNL     1      -5.446  -0.204   3.147  1.00  0.00    -0.352 N 
ATOM     27  C   UNL     1      -6.135   0.797   3.796  1.00  0.00     0.251 C 
ATOM     28  H   UNL     1      -4.654   0.082   2.637  1.00  0.00     0.163 HD
ATOM     29  O   UNL     1      -5.827   1.967   3.651  1.00  0.00    -0.269 OA
BRANCH  27  30
ATOM     30  C   UNL     1      -7.288   0.418   4.638  1.00  0.00     0.039 A 
ATOM     31  C   UNL     1      -8.503   1.082   4.465  1.00  0.00     0.014 A 
ATOM     32  C   UNL     1      -7.183  -0.659   5.520  1.00  0.00     0.014 A 
ATOM     33  C   UNL     1      -9.638   0.610   5.125  1.00  0.00     0.010 A 
ATOM     34  C   UNL     1      -8.332  -1.197   6.078  1.00  0.00     0.010 A 
ATOM     35  C   UNL     1      -9.568  -0.558   5.902  1.00  0.00    -0.014 A 
BRANCH  35  36
ATOM     36  C   UNL     1     -10.760  -1.113   6.585  1.00  0.00     0.031 A 
ATOM     37  C   UNL     1     -10.762  -1.224   8.084  1.00  0.00     0.074 A 
ATOM     38  C   UNL     1     -11.792  -1.588   5.862  1.00  0.00     0.049 A 
ATOM     39  N   UNL     1     -11.651  -1.768   8.875  1.00  0.00    -0.248 NA
ATOM     40  C   UNL     1      -9.582  -0.694   8.787  1.00  0.00     0.031 C 
ATOM     41  C   UNL     1     -11.873  -1.600   4.401  1.00  0.00     0.029 A 
ATOM     42  N   UNL     1     -12.971  -2.164   6.264  1.00  0.00    -0.354 N 
ATOM     43  C   UNL     1     -11.121  -1.673  10.155  1.00  0.00     0.074 A 
ATOM     44  C   UNL     1      -9.806  -1.086  10.031  1.00  0.00     0.031 C 
ATOM     45  C   UNL     1     -13.052  -2.126   4.029  1.00  0.00     0.029 A 
ATOM     46  C   UNL     1     -13.795  -2.517   5.223  1.00  0.00     0.049 A 
ATOM     47  H   UNL     1     -13.204  -2.311   7.209  1.00  0.00     0.167 HD
ATOM     48  C   UNL     1     -11.694  -2.010  11.333  1.00  0.00     0.037 A 
ATOM     49  C   UNL     1     -15.014  -3.087   5.238  1.00  0.00     0.037 A 
ATOM     50  C   UNL     1     -13.024  -2.540  11.453  1.00  0.00     0.049 A 
ATOM     51  C   UNL     1     -15.650  -3.412   6.563  1.00  0.00     0.074 A 
ATOM     52  C   UNL     1     -13.733  -2.845  12.600  1.00  0.00     0.029 A 
ATOM     53  N   UNL     1     -13.851  -2.833  10.378  1.00  0.00    -0.354 N 
ATOM     54  N   UNL     1     -15.171  -3.250   7.773  1.00  0.00    -0.248 NA
ATOM     55  C   UNL     1     -17.002  -3.987   6.525  1.00  0.00     0.031 C 
ATOM     56  C   UNL     1     -14.979  -3.356  12.219  1.00  0.00     0.029 A 
ATOM     57  C   UNL     1     -15.061  -3.327  10.835  1.00  0.00     0.049 A 
ATOM     58  H   UNL     1     -13.613  -2.709   9.431  1.00  0.00     0.167 HD
ATOM     59  C   UNL     1     -16.169  -3.673   8.639  1.00  0.00     0.074 A 
ATOM     60  C   UNL     1     -17.287  -4.087   7.816  1.00  0.00     0.031 C 
ATOM     61  C   UNL     1     -16.163  -3.718   9.994  1.00  0.00     0.037 A 
BRANCH  48  62
ATOM     62  C   UNL     1     -10.885  -1.798  12.580  1.00  0.00     0.064 A 
ATOM     63  C   UNL     1     -10.571  -0.510  13.043  1.00  0.00     0.173 A 
ATOM     64  C   UNL     1     -10.423  -2.892  13.324  1.00  0.00     0.173 A 
ATOM     65  F   UNL     1     -10.974   0.571  12.358  1.00  0.00    -0.203 F 
ATOM     66  C   UNL     1      -9.793  -0.328  14.183  1.00  0.00     0.198 A 
ATOM     67  C   UNL     1      -9.672  -2.706  14.483  1.00  0.00     0.198 A 
ATOM     68  F   UNL     1     -10.695  -4.145  12.928  1.00  0.00    -0.203 F 
ATOM     69  F   UNL     1      -9.452   0.910  14.568  1.00  0.00    -0.200 F 
ATOM     70  C   UNL     1      -9.349  -1.425  14.905  1.00  0.00     0.200 A 
ATOM     71  F   UNL     1      -9.253  -3.767  15.186  1.00  0.00    -0.200 F 
ATOM     72  F   UNL     1      -8.601  -1.248  16.002  1.00  0.00    -0.200 F 
ENDBRANCH  48  62
BRANCH  49  73
ATOM     73  C   UNL     1     -15.732  -3.341   3.962  1.00  0.00     0.064 A 
ATOM     74  C   UNL     1     -16.857  -2.581   3.610  1.00  0.00     0.173 A 
ATOM     75  C   UNL     1     -15.314  -4.339   3.071  1.00  0.00     0.173 A 
ATOM     76  F   UNL     1     -17.305  -1.627   4.439  1.00  0.00    -0.203 F 
ATOM     77  C   UNL     1     -17.547  -2.823   2.424  1.00  0.00     0.198 A 
ATOM     78  C   UNL     1     -15.990  -4.563   1.873  1.00  0.00     0.198 A 
ATOM     79  F   UNL     1     -14.239  -5.088   3.357  1.00  0.00    -0.203 F 
ATOM     80  F   UNL     1     -18.644  -2.110   2.133  1.00  0.00    -0.200 F 
ATOM     81  C   UNL     1     -17.111  -3.810   1.554  1.00  0.00     0.200 A 
ATOM     82  F   UNL     1     -15.557  -5.508   1.027  1.00  0.00    -0.200 F 
ATOM     83  F   UNL     1     -17.773  -4.040   0.412  1.00  0.00    -0.200 F 
ENDBRANCH  49  73
BRANCH  61  84
ATOM     84  C   UNL     1     -17.415  -4.192  10.671  1.00  0.00     0.064 A 
ATOM     85  C   UNL     1     -17.792  -5.542  10.656  1.00  0.00     0.173 A 
ATOM     86  C   UNL     1     -18.220  -3.289  11.382  1.00  0.00     0.173 A 
ATOM     87  F   UNL     1     -17.062  -6.440   9.977  1.00  0.00    -0.203 F 
ATOM     88  C   UNL     1     -18.945  -5.967  11.309  1.00  0.00     0.198 A 
ATOM     89  C   UNL     1     -19.355  -3.723  12.058  1.00  0.00     0.198 A 
ATOM     90  F   UNL     1     -17.895  -1.988  11.432  1.00  0.00    -0.203 F 
ATOM     91  F   UNL     1     -19.313  -7.254  11.245  1.00  0.00    -0.200 F 
ATOM     92  C   UNL     1     -19.721  -5.059  12.015  1.00  0.00     0.200 A 
ATOM     93  F   UNL     1     -20.096  -2.847  12.751  1.00  0.00    -0.200 F 
ATOM     94  F   UNL     1     -20.826  -5.473  12.650  1.00  0.00    -0.200 F 
ENDBRANCH  61  84
ENDBRANCH  35  36
ENDBRANCH  27  30
ENDBRANCH  25  26
ENDBRANCH   1  25
TORSDOF 12
