REMARK SMILES O=C(NC1(C(=O)NCCCCNC(=O)c2ccc(-c3c4nc(c(-c5c(F)c(F)c(F)c(F)c5F)c5ccc([nH]5)c(-c5c(F)c(F)c(F)c(F)c5F)c5nc(c(-c6c(F)c(F)c(F)c(F)c6F)c6ccc3[nH]6)C=C5)C=C4)cc2)Cc2ccccc2C1)OCC1c2ccccc2-c2ccccc21
REMARK SMILES IDX 8 1 7 2 5 3 6 4 4 6 78 7 85 8 79 9 84 10 80 11 83 12 81 13
REMARK SMILES IDX 82 14 3 15 1 16 2 17 86 19 87 20 88 21 89 22 100 23 90 24
REMARK SMILES IDX 94 25 95 26 99 27 91 28 93 29 96 30 98 31 92 32 97 33 9 34
REMARK SMILES IDX 10 35 11 36 12 37 13 38 14 40 15 41 16 42 77 43 17 44 76 45
REMARK SMILES IDX 18 46 19 47 20 48 70 49 21 50 75 51 69 52 71 53 22 54 74 55
REMARK SMILES IDX 68 56 67 57 23 59 55 60 35 61 54 62 36 63 39 64 53 65 72 66
REMARK SMILES IDX 37 67 38 68 52 70 73 71 40 72 24 73 25 74 33 75 26 76 27 77
REMARK SMILES IDX 31 78 34 79 28 80 29 81 32 82 30 83 56 84 57 85 65 86 58 87
REMARK SMILES IDX 59 88 63 89 66 90 60 91 61 92 64 93 62 94 41 95 42 96 50 97
REMARK SMILES IDX 43 98 44 99 48 100 51 101 45 102 46 103 49 104 47 105
REMARK H PARENT 7 5 3 18 12 39 71 58 39 69
REMARK Flexibility Score: inf
ROOT
ATOM      1  C   UNL     1       7.030  -1.707  -0.416  1.00  0.00     0.116 C 
ENDROOT
BRANCH   1   2
ATOM      2  N   UNL     1       5.854  -2.408  -0.024  1.00  0.00    -0.354 N 
ATOM      3  C   UNL     1       4.607  -2.236  -0.491  1.00  0.00     0.246 C 
ATOM      4  O   UNL     1       3.788  -3.079  -0.093  1.00  0.00    -0.272 OA
ATOM      5  H   UNL     1       5.969  -3.098   0.669  1.00  0.00     0.163 HD
BRANCH   3   6
ATOM      6  C   UNL     1       4.206  -1.137  -1.550  1.00  0.00     0.130 C 
ATOM      7  C   UNL     1       4.437  -1.883  -2.905  1.00  0.00     0.075 C 
ATOM      8  C   UNL     1       4.841   0.268  -1.825  1.00  0.00     0.075 C 
ATOM      9  C   UNL     1       5.755  -1.276  -3.370  1.00  0.00    -0.042 A 
ATOM     10  C   UNL     1       5.891   0.025  -2.871  1.00  0.00    -0.042 A 
ATOM     11  C   UNL     1       6.880  -1.915  -3.883  1.00  0.00     0.004 A 
ATOM     12  C   UNL     1       7.061   0.771  -3.010  1.00  0.00     0.004 A 
ATOM     13  C   UNL     1       8.103  -1.217  -3.921  1.00  0.00     0.000 A 
ATOM     14  C   UNL     1       8.186   0.127  -3.519  1.00  0.00     0.000 A 
BRANCH   6  15
ATOM     15  N   UNL     1       2.845  -0.851  -1.072  1.00  0.00    -0.306 N 
ATOM     16  O   UNL     1       1.617   0.328   0.447  1.00  0.00    -0.225 OA
ATOM     17  C   UNL     1       2.643  -0.288   0.184  1.00  0.00     0.408 C 
ATOM     18  H   UNL     1       2.071  -1.059  -1.644  1.00  0.00     0.168 HD
BRANCH  17  19
ATOM     19  O   UNL     1       3.729  -0.397   1.043  1.00  0.00    -0.449 OA
BRANCH  19  20
ATOM     20  C   UNL     1       4.103   0.843   1.636  1.00  0.00     0.248 C 
BRANCH  20  21
ATOM     21  C   UNL     1       5.313   0.962   2.687  1.00  0.00     0.088 C 
ATOM     22  C   UNL     1       6.709   0.269   2.458  1.00  0.00    -0.029 A 
ATOM     23  C   UNL     1       5.665   2.501   2.437  1.00  0.00    -0.029 A 
ATOM     24  C   UNL     1       7.167  -1.454   2.312  1.00  0.00     0.005 A 
ATOM     25  C   UNL     1       7.632   1.513   1.585  1.00  0.00    -0.014 A 
ATOM     26  C   UNL     1       6.846   2.710   1.670  1.00  0.00    -0.014 A 
ATOM     27  C   UNL     1       4.716   3.525   2.526  1.00  0.00     0.005 A 
ATOM     28  C   UNL     1       8.562  -1.912   1.236  1.00  0.00     0.000 A 
ATOM     29  C   UNL     1       8.995   1.144   0.513  1.00  0.00     0.009 A 
ATOM     30  C   UNL     1       7.031   3.863   0.927  1.00  0.00     0.009 A 
ATOM     31  C   UNL     1       4.888   4.668   1.739  1.00  0.00     0.000 A 
ATOM     32  C   UNL     1       9.410  -0.580   0.249  1.00  0.00     0.001 A 
ATOM     33  C   UNL     1       6.023   4.824   0.930  1.00  0.00     0.001 A 
ENDBRANCH  20  21
ENDBRANCH  19  20
ENDBRANCH  17  19
ENDBRANCH   6  15
ENDBRANCH   3   6
ENDBRANCH   1   2
BRANCH   1  34
ATOM     34  C   UNL     1       7.438  -0.365   0.541  1.00  0.00     0.023 C 
BRANCH  34  35
ATOM     35  C   UNL     1       8.873  -0.175   2.193  1.00  0.00     0.023 C 
BRANCH  35  36
ATOM     36  C   UNL     1      10.455  -1.074   2.489  1.00  0.00     0.116 C 
BRANCH  36  37
ATOM     37  N   UNL     1      11.298  -1.525   1.328  1.00  0.00    -0.352 N 
ATOM     38  C   UNL     1      12.623  -1.689   1.109  1.00  0.00     0.251 C 
ATOM     39  H   UNL     1      10.757  -1.757   0.539  1.00  0.00     0.163 HD
ATOM     40  O   UNL     1      13.137  -1.629   0.002  1.00  0.00    -0.269 OA
BRANCH  38  41
ATOM     41  C   UNL     1      13.312  -2.287   2.222  1.00  0.00     0.039 A 
ATOM     42  C   UNL     1      14.474  -1.722   2.713  1.00  0.00     0.014 A 
ATOM     43  C   UNL     1      12.657  -3.378   2.805  1.00  0.00     0.014 A 
ATOM     44  C   UNL     1      14.948  -2.223   3.905  1.00  0.00     0.010 A 
ATOM     45  C   UNL     1      13.047  -3.773   4.049  1.00  0.00     0.010 A 
ATOM     46  C   UNL     1      14.202  -3.205   4.590  1.00  0.00    -0.014 A 
BRANCH  46  47
ATOM     47  C   UNL     1      14.625  -3.654   5.911  1.00  0.00     0.031 A 
ATOM     48  C   UNL     1      15.017  -5.081   6.095  1.00  0.00     0.074 A 
ATOM     49  C   UNL     1      14.603  -2.753   6.906  1.00  0.00     0.049 A 
ATOM     50  N   UNL     1      15.460  -5.670   7.169  1.00  0.00    -0.248 NA
ATOM     51  C   UNL     1      14.855  -5.981   4.936  1.00  0.00     0.031 C 
ATOM     52  C   UNL     1      14.125  -1.370   6.791  1.00  0.00     0.029 A 
ATOM     53  N   UNL     1      15.016  -2.858   8.200  1.00  0.00    -0.354 N 
ATOM     54  C   UNL     1      15.643  -6.995   6.807  1.00  0.00     0.074 A 
ATOM     55  C   UNL     1      15.154  -7.156   5.461  1.00  0.00     0.031 C 
ATOM     56  C   UNL     1      14.344  -0.735   7.951  1.00  0.00     0.029 A 
ATOM     57  C   UNL     1      14.927  -1.680   8.893  1.00  0.00     0.049 A 
ATOM     58  H   UNL     1      15.346  -3.697   8.596  1.00  0.00     0.167 HD
ATOM     59  C   UNL     1      16.231  -7.971   7.530  1.00  0.00     0.037 A 
ATOM     60  C   UNL     1      15.294  -1.413  10.157  1.00  0.00     0.037 A 
ATOM     61  C   UNL     1      16.713  -7.762   8.865  1.00  0.00     0.049 A 
ATOM     62  C   UNL     1      15.931  -2.526  10.940  1.00  0.00     0.074 A 
ATOM     63  C   UNL     1      17.341  -8.657   9.707  1.00  0.00     0.029 A 
ATOM     64  N   UNL     1      16.611  -6.558   9.553  1.00  0.00    -0.354 N 
ATOM     65  N   UNL     1      16.183  -3.762  10.573  1.00  0.00    -0.248 NA
ATOM     66  C   UNL     1      16.351  -2.207  12.306  1.00  0.00     0.031 C 
ATOM     67  C   UNL     1      17.567  -8.011  10.926  1.00  0.00     0.029 A 
ATOM     68  C   UNL     1      17.148  -6.692  10.819  1.00  0.00     0.049 A 
ATOM     69  H   UNL     1      16.215  -5.732   9.191  1.00  0.00     0.167 HD
ATOM     70  C   UNL     1      16.812  -4.362  11.652  1.00  0.00     0.074 A 
ATOM     71  C   UNL     1      16.933  -3.338  12.673  1.00  0.00     0.031 C 
ATOM     72  C   UNL     1      17.246  -5.639  11.800  1.00  0.00     0.037 A 
BRANCH  59  73
ATOM     73  C   UNL     1      16.385  -9.311   6.879  1.00  0.00     0.064 A 
ATOM     74  C   UNL     1      17.225  -9.497   5.767  1.00  0.00     0.173 A 
ATOM     75  C   UNL     1      15.689 -10.425   7.366  1.00  0.00     0.173 A 
ATOM     76  F   UNL     1      17.893  -8.458   5.242  1.00  0.00    -0.203 F 
ATOM     77  C   UNL     1      17.340 -10.741   5.154  1.00  0.00     0.198 A 
ATOM     78  C   UNL     1      15.835 -11.676   6.774  1.00  0.00     0.198 A 
ATOM     79  F   UNL     1      14.863 -10.300   8.415  1.00  0.00    -0.203 F 
ATOM     80  F   UNL     1      18.099 -10.879   4.058  1.00  0.00    -0.200 F 
ATOM     81  C   UNL     1      16.654 -11.832   5.665  1.00  0.00     0.200 A 
ATOM     82  F   UNL     1      15.178 -12.731   7.273  1.00  0.00    -0.200 F 
ATOM     83  F   UNL     1      16.773 -13.032   5.081  1.00  0.00    -0.200 F 
ENDBRANCH  59  73
BRANCH  60  84
ATOM     84  C   UNL     1      15.087  -0.059  10.729  1.00  0.00     0.064 A 
ATOM     85  C   UNL     1      16.168   0.746  11.112  1.00  0.00     0.173 A 
ATOM     86  C   UNL     1      13.795   0.456  10.919  1.00  0.00     0.173 A 
ATOM     87  F   UNL     1      17.424   0.303  10.949  1.00  0.00    -0.203 F 
ATOM     88  C   UNL     1      15.965   1.988  11.709  1.00  0.00     0.198 A 
ATOM     89  C   UNL     1      13.594   1.714  11.479  1.00  0.00     0.198 A 
ATOM     90  F   UNL     1      12.724  -0.262  10.549  1.00  0.00    -0.203 F 
ATOM     91  F   UNL     1      17.016   2.705  12.130  1.00  0.00    -0.200 F 
ATOM     92  C   UNL     1      14.679   2.472  11.890  1.00  0.00     0.200 A 
ATOM     93  F   UNL     1      12.349   2.188  11.626  1.00  0.00    -0.200 F 
ATOM     94  F   UNL     1      14.484   3.664  12.470  1.00  0.00    -0.200 F 
ENDBRANCH  60  84
BRANCH  72  95
ATOM     95  C   UNL     1      17.919  -5.972  13.099  1.00  0.00     0.064 A 
ATOM     96  C   UNL     1      17.213  -5.999  14.311  1.00  0.00     0.173 A 
ATOM     97  C   UNL     1      19.287  -6.283  13.125  1.00  0.00     0.173 A 
ATOM     98  F   UNL     1      15.906  -5.699  14.339  1.00  0.00    -0.203 F 
ATOM     99  C   UNL     1      17.865  -6.274  15.508  1.00  0.00     0.198 A 
ATOM    100  C   UNL     1      19.924  -6.605  14.317  1.00  0.00     0.198 A 
ATOM    101  F   UNL     1      20.003  -6.286  11.990  1.00  0.00    -0.203 F 
ATOM    102  F   UNL     1      17.189  -6.215  16.664  1.00  0.00    -0.200 F 
ATOM    103  C   UNL     1      19.217  -6.584  15.510  1.00  0.00     0.200 A 
ATOM    104  F   UNL     1      21.224  -6.928  14.313  1.00  0.00    -0.200 F 
ATOM    105  F   UNL     1      19.842  -6.851  16.664  1.00  0.00    -0.200 F 
ENDBRANCH  72  95
ENDBRANCH  46  47
ENDBRANCH  38  41
ENDBRANCH  36  37
ENDBRANCH  35  36
ENDBRANCH  34  35
ENDBRANCH   1  34
TORSDOF 15
