REMARK SMILES COc1ccc(-c2ncn(CC(=O)NCCCCNC(=O)c3ccc(-c4c5nc(c(-c6c(F)c(F)c(F)c(F)c6F)c6ccc([nH]6)c(-c6c(F)c(F)c(F)c(F)c6F)c6nc(c(-c7c(F)c(F)c(F)c(F)c7F)c7ccc4[nH]7)C=C6)C=C5)cc3)c2-c2ccc(OC)cc2)cc1
REMARK SMILES IDX 16 1 15 2 14 3 12 4 13 5 11 7 10 8 7 9 8 10 85 11 9 12 6 13
REMARK SMILES IDX 3 14 4 15 95 16 5 17 94 18 2 19 1 20 86 21 87 22 93 23 88 24
REMARK SMILES IDX 92 25 89 26 90 27 91 28 17 29 18 30 19 31 20 32 21 34 22 35
REMARK SMILES IDX 23 36 84 37 24 38 83 39 25 40 26 41 27 42 77 43 28 44 82 45
REMARK SMILES IDX 76 46 78 47 29 48 81 49 75 50 74 51 30 53 62 54 42 55 61 56
REMARK SMILES IDX 43 57 46 58 60 59 79 60 44 61 45 62 59 64 80 65 47 66 31 67
REMARK SMILES IDX 32 68 40 69 33 70 34 71 38 72 41 73 35 74 36 75 39 76 37 77
REMARK SMILES IDX 63 78 64 79 72 80 65 81 66 82 70 83 73 84 67 85 68 86 71 87
REMARK SMILES IDX 69 88 48 89 49 90 57 91 50 92 51 93 55 94 58 95 52 96 53 97
REMARK SMILES IDX 56 98 54 99
REMARK H PARENT 14 6 19 33 78 52 46 63
REMARK Flexibility Score: inf
ROOT
ATOM      1  C   UNL     1       0.529  -5.558   7.503  1.00  0.00     0.023 C 
ENDROOT
BRANCH   1   2
ATOM      2  C   UNL     1       0.766  -7.066   7.610  1.00  0.00     0.116 C 
BRANCH   2   3
ATOM      3  N   UNL     1      -0.105  -7.863   6.767  1.00  0.00    -0.355 N 
ATOM      4  C   UNL     1       0.171  -8.533   5.609  1.00  0.00     0.239 C 
ATOM      5  O   UNL     1      -0.701  -9.296   5.181  1.00  0.00    -0.273 OA
ATOM      6  H   UNL     1      -1.037  -7.932   7.077  1.00  0.00     0.163 HD
BRANCH   4   7
ATOM      7  C   UNL     1       1.510  -8.412   4.906  1.00  0.00     0.223 C 
BRANCH   7   8
ATOM      8  N   UNL     1       1.907  -7.049   4.601  1.00  0.00    -0.321 N 
ATOM      9  C   UNL     1       2.021  -4.980   3.937  1.00  0.00     0.096 A 
ATOM     10  N   UNL     1       3.127  -5.196   4.718  1.00  0.00    -0.236 NA
ATOM     11  C   UNL     1       1.281  -6.145   3.770  1.00  0.00     0.076 A 
ATOM     12  C   UNL     1       3.050  -6.457   5.072  1.00  0.00     0.201 A 
BRANCH   9  13
ATOM     13  C   UNL     1       1.701  -3.708   3.322  1.00  0.00     0.003 A 
ATOM     14  C   UNL     1       1.009  -1.363   1.950  1.00  0.00     0.118 A 
ATOM     15  C   UNL     1       0.081  -1.987   2.783  1.00  0.00     0.047 A 
ATOM     16  C   UNL     1       2.302  -1.881   1.847  1.00  0.00     0.047 A 
ATOM     17  C   UNL     1       0.421  -3.155   3.463  1.00  0.00     0.014 A 
ATOM     18  C   UNL     1       2.649  -3.048   2.538  1.00  0.00     0.014 A 
BRANCH  14  19
ATOM     19  O   UNL     1       0.559  -0.235   1.321  1.00  0.00    -0.497 OA
ATOM     20  C   UNL     1       1.147   0.029   0.053  1.00  0.00     0.278 C 
ENDBRANCH  14  19
ENDBRANCH   9  13
BRANCH  11  21
ATOM     21  C   UNL     1       0.164  -6.418   2.873  1.00  0.00     0.001 A 
ATOM     22  C   UNL     1      -1.131  -6.630   3.345  1.00  0.00     0.014 A 
ATOM     23  C   UNL     1       0.384  -6.382   1.490  1.00  0.00     0.014 A 
ATOM     24  C   UNL     1      -2.180  -6.843   2.446  1.00  0.00     0.047 A 
ATOM     25  C   UNL     1      -0.669  -6.571   0.592  1.00  0.00     0.047 A 
ATOM     26  C   UNL     1      -1.958  -6.806   1.068  1.00  0.00     0.118 A 
BRANCH  26  27
ATOM     27  O   UNL     1      -3.071  -7.010   0.301  1.00  0.00    -0.497 OA
ATOM     28  C   UNL     1      -2.926  -6.793  -1.097  1.00  0.00     0.278 C 
ENDBRANCH  26  27
ENDBRANCH  11  21
ENDBRANCH   7   8
ENDBRANCH   4   7
ENDBRANCH   2   3
ENDBRANCH   1   2
BRANCH   1  29
ATOM     29  C   UNL     1      -0.836  -5.030   7.964  1.00  0.00     0.023 C 
BRANCH  29  30
ATOM     30  C   UNL     1      -1.206  -5.341   9.408  1.00  0.00     0.116 C 
BRANCH  30  31
ATOM     31  N   UNL     1      -0.268  -4.785  10.384  1.00  0.00    -0.352 N 
ATOM     32  C   UNL     1      -0.227  -5.023  11.741  1.00  0.00     0.251 C 
ATOM     33  H   UNL     1       0.413  -4.169  10.030  1.00  0.00     0.163 HD
ATOM     34  O   UNL     1       0.326  -4.231  12.512  1.00  0.00    -0.269 OA
BRANCH  32  35
ATOM     35  C   UNL     1      -0.852  -6.243  12.270  1.00  0.00     0.039 A 
ATOM     36  C   UNL     1      -1.641  -6.225  13.422  1.00  0.00     0.014 A 
ATOM     37  C   UNL     1      -0.673  -7.420  11.550  1.00  0.00     0.014 A 
ATOM     38  C   UNL     1      -2.327  -7.382  13.784  1.00  0.00     0.010 A 
ATOM     39  C   UNL     1      -1.464  -8.508  11.816  1.00  0.00     0.010 A 
ATOM     40  C   UNL     1      -2.259  -8.516  12.958  1.00  0.00    -0.014 A 
BRANCH  40  41
ATOM     41  C   UNL     1      -3.111  -9.675  13.209  1.00  0.00     0.031 A 
ATOM     42  C   UNL     1      -4.566  -9.375  13.328  1.00  0.00     0.074 A 
ATOM     43  C   UNL     1      -2.668 -10.948  13.111  1.00  0.00     0.049 A 
ATOM     44  N   UNL     1      -5.333  -9.581  14.347  1.00  0.00    -0.248 NA
ATOM     45  C   UNL     1      -5.231  -8.672  12.218  1.00  0.00     0.031 C 
ATOM     46  C   UNL     1      -1.342 -11.419  12.694  1.00  0.00     0.029 A 
ATOM     47  N   UNL     1      -3.363 -12.111  13.248  1.00  0.00    -0.354 N 
ATOM     48  C   UNL     1      -6.616  -9.208  13.952  1.00  0.00     0.074 A 
ATOM     49  C   UNL     1      -6.465  -8.511  12.701  1.00  0.00     0.031 C 
ATOM     50  C   UNL     1      -1.407 -12.729  12.373  1.00  0.00     0.029 A 
ATOM     51  C   UNL     1      -2.723 -13.228  12.724  1.00  0.00     0.049 A 
ATOM     52  H   UNL     1      -4.245 -12.156  13.682  1.00  0.00     0.167 HD
ATOM     53  C   UNL     1      -7.716  -9.720  14.572  1.00  0.00     0.037 A 
ATOM     54  C   UNL     1      -3.251 -14.466  12.557  1.00  0.00     0.037 A 
ATOM     55  C   UNL     1      -7.376 -10.271  15.861  1.00  0.00     0.049 A 
ATOM     56  C   UNL     1      -4.427 -14.564  13.456  1.00  0.00     0.074 A 
ATOM     57  C   UNL     1      -6.774  -9.768  17.000  1.00  0.00     0.029 A 
ATOM     58  N   UNL     1      -7.310 -11.636  15.992  1.00  0.00    -0.354 N 
ATOM     59  N   UNL     1      -4.348 -14.584  14.757  1.00  0.00    -0.248 NA
ATOM     60  C   UNL     1      -5.723 -14.184  12.914  1.00  0.00     0.031 C 
ATOM     61  C   UNL     1      -5.931 -10.822  17.465  1.00  0.00     0.029 A 
ATOM     62  C   UNL     1      -6.131 -11.921  16.631  1.00  0.00     0.049 A 
ATOM     63  H   UNL     1      -7.982 -12.287  15.685  1.00  0.00     0.167 HD
ATOM     64  C   UNL     1      -5.407 -13.797  15.181  1.00  0.00     0.074 A 
ATOM     65  C   UNL     1      -6.272 -13.659  14.012  1.00  0.00     0.031 C 
ATOM     66  C   UNL     1      -5.336 -13.091  16.347  1.00  0.00     0.037 A 
BRANCH  53  67
ATOM     67  C   UNL     1      -9.004 -10.078  13.864  1.00  0.00     0.064 A 
ATOM     68  C   UNL     1     -10.103 -10.523  14.628  1.00  0.00     0.173 A 
ATOM     69  C   UNL     1      -9.101 -10.310  12.475  1.00  0.00     0.173 A 
ATOM     70  F   UNL     1     -10.117 -10.366  15.961  1.00  0.00    -0.203 F 
ATOM     71  C   UNL     1     -11.161 -11.237  14.058  1.00  0.00     0.198 A 
ATOM     72  C   UNL     1     -10.185 -10.974  11.902  1.00  0.00     0.198 A 
ATOM     73  F   UNL     1      -8.108 -10.016  11.628  1.00  0.00    -0.203 F 
ATOM     74  F   UNL     1     -12.107 -11.765  14.846  1.00  0.00    -0.200 F 
ATOM     75  C   UNL     1     -11.196 -11.470  12.697  1.00  0.00     0.200 A 
ATOM     76  F   UNL     1     -10.191 -11.205  10.582  1.00  0.00    -0.200 F 
ATOM     77  F   UNL     1     -12.169 -12.215  12.157  1.00  0.00    -0.200 F 
ENDBRANCH  53  67
BRANCH  54  78
ATOM     78  C   UNL     1      -2.985 -15.455  11.484  1.00  0.00     0.064 A 
ATOM     79  C   UNL     1      -3.442 -16.779  11.598  1.00  0.00     0.173 A 
ATOM     80  C   UNL     1      -2.535 -15.059  10.209  1.00  0.00     0.173 A 
ATOM     81  F   UNL     1      -3.920 -17.229  12.767  1.00  0.00    -0.203 F 
ATOM     82  C   UNL     1      -3.489 -17.638  10.495  1.00  0.00     0.198 A 
ATOM     83  C   UNL     1      -2.572 -15.921   9.111  1.00  0.00     0.198 A 
ATOM     84  F   UNL     1      -2.141 -13.799   9.976  1.00  0.00    -0.203 F 
ATOM     85  F   UNL     1      -4.002 -18.869  10.629  1.00  0.00    -0.200 F 
ATOM     86  C   UNL     1      -3.067 -17.204   9.250  1.00  0.00     0.200 A 
ATOM     87  F   UNL     1      -2.188 -15.478   7.905  1.00  0.00    -0.200 F 
ATOM     88  F   UNL     1      -3.174 -18.004   8.180  1.00  0.00    -0.200 F 
ENDBRANCH  54  78
BRANCH  66  89
ATOM     89  C   UNL     1      -4.208 -13.395  17.293  1.00  0.00     0.064 A 
ATOM     90  C   UNL     1      -2.846 -13.239  16.980  1.00  0.00     0.173 A 
ATOM     91  C   UNL     1      -4.527 -13.727  18.616  1.00  0.00     0.173 A 
ATOM     92  F   UNL     1      -2.456 -12.821  15.770  1.00  0.00    -0.203 F 
ATOM     93  C   UNL     1      -1.853 -13.456  17.935  1.00  0.00     0.198 A 
ATOM     94  C   UNL     1      -3.537 -13.906  19.578  1.00  0.00     0.198 A 
ATOM     95  F   UNL     1      -5.812 -13.836  18.990  1.00  0.00    -0.203 F 
ATOM     96  F   UNL     1      -0.560 -13.318  17.604  1.00  0.00    -0.200 F 
ATOM     97  C   UNL     1      -2.200 -13.783  19.234  1.00  0.00     0.200 A 
ATOM     98  F   UNL     1      -3.880 -14.173  20.845  1.00  0.00    -0.200 F 
ATOM     99  F   UNL     1      -1.249 -13.955  20.163  1.00  0.00    -0.200 F 
ENDBRANCH  66  89
ENDBRANCH  40  41
ENDBRANCH  32  35
ENDBRANCH  30  31
ENDBRANCH  29  30
ENDBRANCH   1  29
TORSDOF 16
