REMARK SMILES CC[N@@H+](Cc1cccc(C)n1)Cc1csc(C(=O)NCCCCNC(=O)c2ccc(-c3c4nc(c(-c5c(F)c(F)c(F)c(F)c5F)c5ccc([nH]5)c(-c5c(F)c(F)c(F)c(F)c5F)c5nc(c(-c6c(F)c(F)c(F)c(F)c6F)c6ccc3[nH]6)C=C5)C=C4)cc2)n1
REMARK SMILES IDX 20 1 19 2 17 3 18 4 16 6 13 7 14 8 90 9 15 10 12 11 3 12
REMARK SMILES IDX 2 14 1 15 4 16 5 17 6 18 11 19 7 20 9 21 8 22 10 23 21 24
REMARK SMILES IDX 22 25 23 26 24 27 25 28 26 30 27 31 28 32 89 33 29 34 88 35
REMARK SMILES IDX 30 36 31 37 32 38 82 39 33 40 87 41 81 42 83 43 34 44 86 45
REMARK SMILES IDX 80 46 79 47 35 49 67 50 47 51 66 52 48 53 51 54 65 55 84 56
REMARK SMILES IDX 49 57 50 58 64 60 85 61 52 62 36 63 37 64 45 65 38 66 39 67
REMARK SMILES IDX 43 68 46 69 40 70 41 71 44 72 42 73 68 74 69 75 77 76 70 77
REMARK SMILES IDX 71 78 75 79 78 80 72 81 73 82 76 83 74 84 53 85 54 86 62 87
REMARK SMILES IDX 55 88 56 89 60 90 63 91 57 92 58 93 61 94 59 95
REMARK H PARENT 19 5 3 13 24 29 83 48 51 59
REMARK Flexibility Score: inf
ROOT
ATOM      1  C   UNL     1       6.974  -1.040   3.757  1.00  0.00     0.116 C 
ENDROOT
BRANCH   1   2
ATOM      2  N   UNL     1       6.859  -2.485   3.854  1.00  0.00    -0.350 N 
ATOM      3  C   UNL     1       5.937  -3.319   3.243  1.00  0.00     0.280 C 
ATOM      4  O   UNL     1       6.174  -4.530   3.295  1.00  0.00    -0.267 OA
ATOM      5  H   UNL     1       7.523  -2.930   4.429  1.00  0.00     0.163 HD
BRANCH   3   6
ATOM      6  C   UNL     1       4.792  -2.737   2.552  1.00  0.00     0.181 A 
ATOM      7  C   UNL     1       3.197  -1.277   2.020  1.00  0.00     0.106 A 
ATOM      8  C   UNL     1       3.110  -2.127   0.932  1.00  0.00     0.097 A 
ATOM      9  N   UNL     1       4.175  -1.638   2.938  1.00  0.00    -0.230 NA
ATOM     10  S   UNL     1       4.191  -3.447   1.113  1.00  0.00    -0.117 S 
BRANCH   7  11
ATOM     11  C   UNL     1       2.454  -0.000   2.275  1.00  0.00     0.320 C 
BRANCH  11  12
ATOM     12  N   UNL     1       1.004  -0.105   2.241  1.00  0.00    -0.325 N 
ATOM     13  H   UNL     1       0.868   0.897   2.374  1.00  0.00     0.348 HD
BRANCH  12  14
ATOM     14  C   UNL     1       0.269  -0.109   0.991  1.00  0.00     0.259 C 
ATOM     15  C   UNL     1       0.863   0.744  -0.127  1.00  0.00     0.071 C 
ENDBRANCH  12  14
BRANCH  12  16
ATOM     16  C   UNL     1       0.353  -0.720   3.406  1.00  0.00     0.319 C 
BRANCH  16  17
ATOM     17  C   UNL     1       0.490  -2.213   3.668  1.00  0.00     0.095 A 
ATOM     18  C   UNL     1       0.406  -3.170   2.662  1.00  0.00     0.030 A 
ATOM     19  N   UNL     1       0.579  -2.578   4.976  1.00  0.00    -0.252 NA
ATOM     20  C   UNL     1       0.480  -4.521   2.988  1.00  0.00     0.004 A 
ATOM     21  C   UNL     1       0.634  -3.898   5.285  1.00  0.00     0.038 A 
ATOM     22  C   UNL     1       0.589  -4.894   4.319  1.00  0.00     0.023 A 
ATOM     23  C   UNL     1       0.655  -4.259   6.739  1.00  0.00     0.067 C 
ENDBRANCH  16  17
ENDBRANCH  12  16
ENDBRANCH  11  12
ENDBRANCH   7  11
ENDBRANCH   3   6
ENDBRANCH   1   2
BRANCH   1  24
ATOM     24  C   UNL     1       6.992  -0.369   5.128  1.00  0.00     0.023 C 
BRANCH  24  25
ATOM     25  C   UNL     1       8.283  -0.580   5.926  1.00  0.00     0.023 C 
BRANCH  25  26
ATOM     26  C   UNL     1       9.571  -0.166   5.217  1.00  0.00     0.116 C 
BRANCH  26  27
ATOM     27  N   UNL     1       9.578   1.223   4.788  1.00  0.00    -0.352 N 
ATOM     28  C   UNL     1      10.640   2.091   4.705  1.00  0.00     0.251 C 
ATOM     29  H   UNL     1       8.704   1.592   4.522  1.00  0.00     0.163 HD
ATOM     30  O   UNL     1      10.463   3.267   4.406  1.00  0.00    -0.269 OA
BRANCH  28  31
ATOM     31  C   UNL     1      12.002   1.610   5.019  1.00  0.00     0.039 A 
ATOM     32  C   UNL     1      12.775   2.337   5.928  1.00  0.00     0.014 A 
ATOM     33  C   UNL     1      12.507   0.445   4.435  1.00  0.00     0.014 A 
ATOM     34  C   UNL     1      14.030   1.858   6.307  1.00  0.00     0.010 A 
ATOM     35  C   UNL     1      13.739  -0.056   4.848  1.00  0.00     0.010 A 
ATOM     36  C   UNL     1      14.506   0.641   5.795  1.00  0.00    -0.014 A 
BRANCH  36  37
ATOM     37  C   UNL     1      15.796   0.071   6.252  1.00  0.00     0.031 A 
ATOM     38  C   UNL     1      16.963  -0.011   5.313  1.00  0.00     0.074 A 
ATOM     39  C   UNL     1      15.890  -0.439   7.495  1.00  0.00     0.049 A 
ATOM     40  N   UNL     1      18.142  -0.546   5.504  1.00  0.00    -0.248 NA
ATOM     41  C   UNL     1      16.771   0.562   3.972  1.00  0.00     0.031 C 
ATOM     42  C   UNL     1      14.810  -0.462   8.483  1.00  0.00     0.029 A 
ATOM     43  N   UNL     1      16.939  -1.049   8.134  1.00  0.00    -0.354 N 
ATOM     44  C   UNL     1      18.824  -0.393   4.305  1.00  0.00     0.074 A 
ATOM     45  C   UNL     1      17.919   0.258   3.382  1.00  0.00     0.031 C 
ATOM     46  C   UNL     1      15.257  -1.047   9.607  1.00  0.00     0.029 A 
ATOM     47  C   UNL     1      16.642  -1.461   9.409  1.00  0.00     0.049 A 
ATOM     48  H   UNL     1      17.822  -1.180   7.717  1.00  0.00     0.167 HD
ATOM     49  C   UNL     1      20.096  -0.750   4.008  1.00  0.00     0.037 A 
ATOM     50  C   UNL     1      17.403  -2.104  10.315  1.00  0.00     0.037 A 
ATOM     51  C   UNL     1      21.008  -1.363   4.936  1.00  0.00     0.049 A 
ATOM     52  C   UNL     1      18.822  -2.458   9.969  1.00  0.00     0.074 A 
ATOM     53  C   UNL     1      22.337  -1.702   4.746  1.00  0.00     0.029 A 
ATOM     54  N   UNL     1      20.684  -1.728   6.234  1.00  0.00    -0.354 N 
ATOM     55  N   UNL     1      19.474  -2.255   8.852  1.00  0.00    -0.248 NA
ATOM     56  C   UNL     1      19.611  -3.125  11.014  1.00  0.00     0.031 C 
ATOM     57  C   UNL     1      22.810  -2.293   5.923  1.00  0.00     0.029 A 
ATOM     58  C   UNL     1      21.784  -2.296   6.854  1.00  0.00     0.049 A 
ATOM     59  H   UNL     1      19.802  -1.601   6.653  1.00  0.00     0.167 HD
ATOM     60  C   UNL     1      20.754  -2.749   9.063  1.00  0.00     0.074 A 
ATOM     61  C   UNL     1      20.790  -3.252  10.421  1.00  0.00     0.031 C 
ATOM     62  C   UNL     1      21.804  -2.783   8.208  1.00  0.00     0.037 A 
BRANCH  49  63
ATOM     63  C   UNL     1      20.581  -0.478   2.617  1.00  0.00     0.064 A 
ATOM     64  C   UNL     1      20.897   0.821   2.194  1.00  0.00     0.173 A 
ATOM     65  C   UNL     1      20.768  -1.531   1.710  1.00  0.00     0.173 A 
ATOM     66  F   UNL     1      20.722   1.862   3.022  1.00  0.00    -0.203 F 
ATOM     67  C   UNL     1      21.364   1.059   0.904  1.00  0.00     0.198 A 
ATOM     68  C   UNL     1      21.255  -1.292   0.428  1.00  0.00     0.198 A 
ATOM     69  F   UNL     1      20.482  -2.792   2.068  1.00  0.00    -0.203 F 
ATOM     70  F   UNL     1      21.625   2.313   0.509  1.00  0.00    -0.200 F 
ATOM     71  C   UNL     1      21.548   0.003   0.025  1.00  0.00     0.200 A 
ATOM     72  F   UNL     1      21.440  -2.314  -0.419  1.00  0.00    -0.200 F 
ATOM     73  F   UNL     1      22.002   0.233  -1.215  1.00  0.00    -0.200 F 
ENDBRANCH  49  63
BRANCH  50  74
ATOM     74  C   UNL     1      16.843  -2.429  11.650  1.00  0.00     0.064 A 
ATOM     75  C   UNL     1      17.241  -1.711  12.786  1.00  0.00     0.173 A 
ATOM     76  C   UNL     1      15.905  -3.457  11.817  1.00  0.00     0.173 A 
ATOM     77  F   UNL     1      18.152  -0.734  12.674  1.00  0.00    -0.203 F 
ATOM     78  C   UNL     1      16.731  -2.019  14.045  1.00  0.00     0.198 A 
ATOM     79  C   UNL     1      15.381  -3.751  13.074  1.00  0.00     0.198 A 
ATOM     80  F   UNL     1      15.493  -4.169  10.759  1.00  0.00    -0.203 F 
ATOM     81  F   UNL     1      17.153  -1.341  15.120  1.00  0.00    -0.200 F 
ATOM     82  C   UNL     1      15.798  -3.036  14.187  1.00  0.00     0.200 A 
ATOM     83  F   UNL     1      14.473  -4.728  13.207  1.00  0.00    -0.200 F 
ATOM     84  F   UNL     1      15.307  -3.331  15.398  1.00  0.00    -0.200 F 
ENDBRANCH  50  74
BRANCH  62  85
ATOM     85  C   UNL     1      23.086  -3.360   8.724  1.00  0.00     0.064 A 
ATOM     86  C   UNL     1      23.259  -4.744   8.863  1.00  0.00     0.173 A 
ATOM     87  C   UNL     1      24.163  -2.522   9.046  1.00  0.00     0.173 A 
ATOM     88  F   UNL     1      22.250  -5.582   8.582  1.00  0.00    -0.203 F 
ATOM     89  C   UNL     1      24.464  -5.269   9.323  1.00  0.00     0.198 A 
ATOM     90  C   UNL     1      25.372  -3.051   9.487  1.00  0.00     0.198 A 
ATOM     91  F   UNL     1      24.044  -1.192   8.926  1.00  0.00    -0.203 F 
ATOM     92  F   UNL     1      24.599  -6.593   9.483  1.00  0.00    -0.200 F 
ATOM     93  C   UNL     1      25.520  -4.423   9.629  1.00  0.00     0.200 A 
ATOM     94  F   UNL     1      26.394  -2.234   9.776  1.00  0.00    -0.200 F 
ATOM     95  F   UNL     1      26.680  -4.931  10.069  1.00  0.00    -0.200 F 
ENDBRANCH  62  85
ENDBRANCH  36  37
ENDBRANCH  28  31
ENDBRANCH  26  27
ENDBRANCH  25  26
ENDBRANCH  24  25
ENDBRANCH   1  24
TORSDOF 16
