REMARK SMILES Cc1cc(F)cc(N[C@@](C)(C(=O)NCCCCNC(=O)c2ccc(-c3c4nc(c(-c5c(F)c(F)c(F)c(F)c5F)c5ccc([nH]5)c(-c5c(F)c(F)c(F)c(F)c5F)c5nc(c(-c6c(F)c(F)c(F)c(F)c6F)c6ccc3[nH]6)C=C5)C=C4)cc2)c2ccc(O)cc2)c1
REMARK SMILES IDX 15 1 14 2 13 3 11 4 12 5 9 7 10 8 8 9 7 11 1 12 2 13 3 14
REMARK SMILES IDX 91 15 4 16 5 17 6 18 84 19 85 20 90 21 86 22 89 23 87 24
REMARK SMILES IDX 88 25 16 27 17 28 18 29 19 30 20 32 21 33 22 34 83 35 23 36
REMARK SMILES IDX 82 37 24 38 25 39 26 40 76 41 27 42 81 43 75 44 77 45 28 46
REMARK SMILES IDX 80 47 74 48 73 49 29 51 61 52 41 53 60 54 42 55 45 56 59 57
REMARK SMILES IDX 78 58 43 59 44 60 58 62 79 63 46 64 30 65 31 66 39 67 32 68
REMARK SMILES IDX 33 69 37 70 40 71 34 72 35 73 38 74 36 75 62 76 63 77 71 78
REMARK SMILES IDX 64 79 65 80 69 81 72 82 66 83 67 84 70 85 68 86 47 87 48 88
REMARK SMILES IDX 56 89 49 90 50 91 54 92 57 93 51 94 52 95 55 96 53 97
REMARK H PARENT 13 6 8 10 88 26 18 31 77 50 45 61
REMARK Flexibility Score: inf
ROOT
ATOM      1  C   UNL     1       2.663  -5.037   1.227  1.00  0.00     0.023 C 
ENDROOT
BRANCH   1   2
ATOM      2  C   UNL     1       1.495  -5.674   0.471  1.00  0.00     0.116 C 
BRANCH   2   3
ATOM      3  N   UNL     1       0.262  -5.602   1.228  1.00  0.00    -0.354 N 
ATOM      4  C   UNL     1      -0.828  -4.773   1.139  1.00  0.00     0.250 C 
ATOM      5  O   UNL     1      -1.568  -4.824   2.129  1.00  0.00    -0.272 OA
ATOM      6  H   UNL     1       0.193  -6.276   1.942  1.00  0.00     0.163 HD
BRANCH   4   7
ATOM      7  C   UNL     1      -1.099  -3.849  -0.129  1.00  0.00     0.139 C 
ATOM      8  C   UNL     1      -1.120  -4.723  -1.409  1.00  0.00     0.051 C 
BRANCH   7   9
ATOM      9  N   UNL     1       0.045  -2.893  -0.232  1.00  0.00    -0.368 N 
ATOM     10  H   UNL     1       0.801  -3.232  -0.764  1.00  0.00     0.161 HD
BRANCH   9  11
ATOM     11  C   UNL     1       0.242  -1.623   0.278  1.00  0.00     0.038 A 
ATOM     12  C   UNL     1       2.869   1.131  -0.243  1.00  0.00     0.044 C 
ATOM     13  C   UNL     1       1.605   0.432   0.158  1.00  0.00    -0.046 A 
ATOM     14  C   UNL     1       0.560   1.155   0.730  1.00  0.00     0.042 A 
ATOM     15  C   UNL     1       1.420  -0.940  -0.090  1.00  0.00     0.029 A 
ATOM     16  C   UNL     1      -0.564   0.478   1.176  1.00  0.00     0.125 A 
ATOM     17  F   UNL     1      -1.566   1.173   1.733  1.00  0.00    -0.207 F 
ATOM     18  C   UNL     1      -0.692  -0.901   1.019  1.00  0.00     0.065 A 
ENDBRANCH   9  11
ENDBRANCH   7   9
BRANCH   7  19
ATOM     19  C   UNL     1      -2.497  -3.169  -0.159  1.00  0.00    -0.013 A 
ATOM     20  C   UNL     1      -2.721  -2.001  -0.920  1.00  0.00     0.010 A 
ATOM     21  C   UNL     1      -3.610  -3.705   0.517  1.00  0.00     0.010 A 
ATOM     22  C   UNL     1      -3.922  -1.292  -0.828  1.00  0.00     0.046 A 
ATOM     23  C   UNL     1      -4.823  -3.013   0.592  1.00  0.00     0.046 A 
ATOM     24  C   UNL     1      -4.951  -1.788  -0.045  1.00  0.00     0.115 A 
BRANCH  24  25
ATOM     25  O   UNL     1      -6.082  -1.041   0.082  1.00  0.00    -0.508 OA
ATOM     26  H   UNL     1      -6.150  -0.215  -0.357  1.00  0.00     0.293 HD
ENDBRANCH  24  25
ENDBRANCH   7  19
ENDBRANCH   4   7
ENDBRANCH   2   3
ENDBRANCH   1   2
BRANCH   1  27
ATOM     27  C   UNL     1       3.108  -5.778   2.494  1.00  0.00     0.023 C 
BRANCH  27  28
ATOM     28  C   UNL     1       3.541  -7.211   2.242  1.00  0.00     0.116 C 
BRANCH  28  29
ATOM     29  N   UNL     1       4.686  -7.309   1.333  1.00  0.00    -0.352 N 
ATOM     30  C   UNL     1       5.436  -8.427   1.056  1.00  0.00     0.251 C 
ATOM     31  H   UNL     1       4.947  -6.481   0.869  1.00  0.00     0.163 HD
ATOM     32  O   UNL     1       6.547  -8.341   0.520  1.00  0.00    -0.269 OA
BRANCH  30  33
ATOM     33  C   UNL     1       4.872  -9.738   1.384  1.00  0.00     0.039 A 
ATOM     34  C   UNL     1       5.623 -10.761   1.978  1.00  0.00     0.014 A 
ATOM     35  C   UNL     1       3.525  -9.913   1.089  1.00  0.00     0.014 A 
ATOM     36  C   UNL     1       4.991 -11.956   2.321  1.00  0.00     0.010 A 
ATOM     37  C   UNL     1       2.871 -10.997   1.589  1.00  0.00     0.010 A 
ATOM     38  C   UNL     1       3.613 -12.054   2.122  1.00  0.00    -0.014 A 
BRANCH  38  39
ATOM     39  C   UNL     1       2.815 -13.253   2.302  1.00  0.00     0.031 A 
ATOM     40  C   UNL     1       2.490 -13.763   3.636  1.00  0.00     0.074 A 
ATOM     41  C   UNL     1       2.214 -13.685   1.171  1.00  0.00     0.049 A 
ATOM     42  N   UNL     1       2.127 -14.973   3.876  1.00  0.00    -0.248 NA
ATOM     43  C   UNL     1       2.556 -12.934   4.833  1.00  0.00     0.031 C 
ATOM     44  C   UNL     1       1.077 -14.568   0.988  1.00  0.00     0.029 A 
ATOM     45  N   UNL     1       2.633 -13.397  -0.140  1.00  0.00    -0.354 N 
ATOM     46  C   UNL     1       1.588 -14.994   5.146  1.00  0.00     0.074 A 
ATOM     47  C   UNL     1       2.008 -13.748   5.744  1.00  0.00     0.031 C 
ATOM     48  C   UNL     1       1.072 -14.998  -0.289  1.00  0.00     0.029 A 
ATOM     49  C   UNL     1       2.298 -14.516  -0.913  1.00  0.00     0.049 A 
ATOM     50  H   UNL     1       3.073 -12.574  -0.452  1.00  0.00     0.167 HD
ATOM     51  C   UNL     1       0.686 -15.976   5.452  1.00  0.00     0.037 A 
ATOM     52  C   UNL     1       3.315 -15.296  -1.388  1.00  0.00     0.037 A 
ATOM     53  C   UNL     1       0.504 -16.855   4.293  1.00  0.00     0.049 A 
ATOM     54  C   UNL     1       3.279 -16.663  -0.761  1.00  0.00     0.074 A 
ATOM     55  C   UNL     1      -0.461 -16.860   3.298  1.00  0.00     0.029 A 
ATOM     56  N   UNL     1       1.563 -17.627   3.823  1.00  0.00    -0.354 N 
ATOM     57  N   UNL     1       2.823 -16.901   0.438  1.00  0.00    -0.248 NA
ATOM     58  C   UNL     1       3.691 -17.869  -1.467  1.00  0.00     0.031 C 
ATOM     59  C   UNL     1       0.061 -17.569   2.188  1.00  0.00     0.029 A 
ATOM     60  C   UNL     1       1.333 -18.011   2.514  1.00  0.00     0.049 A 
ATOM     61  H   UNL     1       2.362 -17.866   4.347  1.00  0.00     0.167 HD
ATOM     62  C   UNL     1       2.807 -18.252   0.647  1.00  0.00     0.074 A 
ATOM     63  C   UNL     1       3.380 -18.814  -0.564  1.00  0.00     0.031 C 
ATOM     64  C   UNL     1       2.290 -18.819   1.776  1.00  0.00     0.037 A 
BRANCH  51  65
ATOM     65  C   UNL     1      -0.293 -15.950   6.615  1.00  0.00     0.064 A 
ATOM     66  C   UNL     1      -1.507 -16.677   6.545  1.00  0.00     0.173 A 
ATOM     67  C   UNL     1      -0.134 -15.209   7.801  1.00  0.00     0.173 A 
ATOM     68  F   UNL     1      -1.763 -17.524   5.540  1.00  0.00    -0.203 F 
ATOM     69  C   UNL     1      -2.514 -16.572   7.511  1.00  0.00     0.198 A 
ATOM     70  C   UNL     1      -1.154 -15.079   8.754  1.00  0.00     0.198 A 
ATOM     71  F   UNL     1       1.031 -14.632   8.114  1.00  0.00    -0.203 F 
ATOM     72  F   UNL     1      -3.648 -17.272   7.367  1.00  0.00    -0.200 F 
ATOM     73  C   UNL     1      -2.349 -15.749   8.602  1.00  0.00     0.200 A 
ATOM     74  F   UNL     1      -0.963 -14.298   9.828  1.00  0.00    -0.200 F 
ATOM     75  F   UNL     1      -3.322 -15.626   9.515  1.00  0.00    -0.200 F 
ENDBRANCH  51  65
BRANCH  52  76
ATOM     76  C   UNL     1       4.549 -14.497  -1.677  1.00  0.00     0.064 A 
ATOM     77  C   UNL     1       4.450 -13.487  -2.660  1.00  0.00     0.173 A 
ATOM     78  C   UNL     1       5.598 -14.388  -0.752  1.00  0.00     0.173 A 
ATOM     79  F   UNL     1       3.467 -13.540  -3.574  1.00  0.00    -0.203 F 
ATOM     80  C   UNL     1       5.255 -12.350  -2.619  1.00  0.00     0.198 A 
ATOM     81  C   UNL     1       6.419 -13.254  -0.731  1.00  0.00     0.198 A 
ATOM     82  F   UNL     1       5.761 -15.315   0.202  1.00  0.00    -0.203 F 
ATOM     83  F   UNL     1       5.032 -11.344  -3.478  1.00  0.00    -0.200 F 
ATOM     84  C   UNL     1       6.218 -12.220  -1.634  1.00  0.00     0.200 A 
ATOM     85  F   UNL     1       7.355 -13.126   0.221  1.00  0.00    -0.200 F 
ATOM     86  F   UNL     1       6.927 -11.087  -1.537  1.00  0.00    -0.200 F 
ENDBRANCH  52  76
BRANCH  64  87
ATOM     87  C   UNL     1       2.515 -20.247   2.193  1.00  0.00     0.064 A 
ATOM     88  C   UNL     1       3.660 -20.978   1.837  1.00  0.00     0.173 A 
ATOM     89  C   UNL     1       1.635 -20.886   3.097  1.00  0.00     0.173 A 
ATOM     90  F   UNL     1       4.642 -20.427   1.109  1.00  0.00    -0.203 F 
ATOM     91  C   UNL     1       3.858 -22.289   2.267  1.00  0.00     0.198 A 
ATOM     92  C   UNL     1       1.871 -22.170   3.579  1.00  0.00     0.198 A 
ATOM     93  F   UNL     1       0.536 -20.275   3.563  1.00  0.00    -0.203 F 
ATOM     94  F   UNL     1       4.934 -22.967   1.845  1.00  0.00    -0.200 F 
ATOM     95  C   UNL     1       2.968 -22.883   3.142  1.00  0.00     0.200 A 
ATOM     96  F   UNL     1       1.037 -22.705   4.481  1.00  0.00    -0.200 F 
ATOM     97  F   UNL     1       3.181 -24.129   3.581  1.00  0.00    -0.200 F 
ENDBRANCH  64  87
ENDBRANCH  38  39
ENDBRANCH  30  33
ENDBRANCH  28  29
ENDBRANCH  27  28
ENDBRANCH   1  27
TORSDOF 15
