REMARK SMILES COc1cc2c(cc1OC)[C@]13CCN4C(=O)C(=O)[C@@H](C[C@@H]41)[C@H]1[C@@H]3N2C(=O)C[C@H]1OCC(=O)NCCCCNC(=O)c1ccc(-c2c3nc(c(-c4c(F)c(F)c(F)c(F)c4F)c4ccc([nH]4)c(-c4c(F)c(F)c(F)c(F)c4F)c4nc(c(-c5c(F)c(F)c(F)c(F)c5F)c5ccc2[nH]5)C=C4)C=C3)cc1
REMARK SMILES IDX 35 1 34 2 33 3 31 4 32 5 30 7 29 8 28 9 3 10 4 11 8 12 5 13
REMARK SMILES IDX 7 14 6 15 24 16 11 17 23 18 25 19 12 20 21 21 22 22 26 23
REMARK SMILES IDX 27 24 13 25 14 26 20 27 19 28 15 29 17 30 16 31 18 32 2 33
REMARK SMILES IDX 1 34 9 35 10 36 36 37 37 38 38 39 39 40 40 42 41 43 42 44
REMARK SMILES IDX 103 45 43 46 102 47 44 48 45 49 46 50 96 51 47 52 101 53
REMARK SMILES IDX 95 54 97 55 48 56 100 57 94 58 93 59 49 61 81 62 61 63 80 64
REMARK SMILES IDX 62 65 65 66 79 67 98 68 63 69 64 70 78 72 99 73 66 74 50 75
REMARK SMILES IDX 51 76 59 77 52 78 53 79 57 80 60 81 54 82 55 83 58 84 56 85
REMARK SMILES IDX 82 86 83 87 91 88 84 89 85 90 89 91 92 92 86 93 87 94 90 95
REMARK SMILES IDX 88 96 67 97 68 98 76 99 69 100 70 101 74 102 77 103 71 104
REMARK SMILES IDX 72 105 75 106 73 107
REMARK H PARENT 33 6 38 41 97 60 65 71
REMARK Flexibility Score: inf
ROOT
ATOM      1  C   UNL     1      -5.103   3.643   8.652  1.00  0.00     0.023 C 
ENDROOT
BRANCH   1   2
ATOM      2  C   UNL     1      -5.964   2.752   7.754  1.00  0.00     0.116 C 
BRANCH   2   3
ATOM      3  N   UNL     1      -6.087   3.248   6.396  1.00  0.00    -0.354 N 
ATOM      4  C   UNL     1      -5.476   2.800   5.259  1.00  0.00     0.246 C 
ATOM      5  O   UNL     1      -5.783   3.315   4.184  1.00  0.00    -0.272 OA
ATOM      6  H   UNL     1      -6.696   4.012   6.277  1.00  0.00     0.163 HD
BRANCH   4   7
ATOM      7  C   UNL     1      -4.462   1.659   5.347  1.00  0.00     0.260 C 
BRANCH   7   8
ATOM      8  O   UNL     1      -3.443   1.848   6.309  1.00  0.00    -0.367 OA
BRANCH   8   9
ATOM      9  C   UNL     1      -2.320   2.667   5.979  1.00  0.00     0.134 C 
ATOM     10  C   UNL     1       1.852   2.300   1.498  1.00  0.00     0.162 A 
ATOM     11  C   UNL     1       0.906   2.952   2.283  1.00  0.00     0.077 A 
ATOM     12  C   UNL     1       2.878   1.568   2.095  1.00  0.00     0.161 A 
ATOM     13  C   UNL     1       0.911   2.730   3.657  1.00  0.00     0.052 A 
ATOM     14  C   UNL     1       2.821   1.335   3.476  1.00  0.00     0.057 A 
ATOM     15  C   UNL     1       1.775   1.834   4.273  1.00  0.00    -0.010 A 
ATOM     16  N   UNL     1       0.017   3.239   4.585  1.00  0.00    -0.307 N 
ATOM     17  C   UNL     1       1.449   1.640   5.816  1.00  0.00     0.041 C 
ATOM     18  C   UNL     1       0.232   2.601   5.887  1.00  0.00     0.110 C 
ATOM     19  C   UNL     1      -1.044   4.050   4.245  1.00  0.00     0.229 C 
ATOM     20  C   UNL     1       2.885   1.597   6.404  1.00  0.00     0.038 C 
ATOM     21  C   UNL     1       1.020   0.302   6.666  1.00  0.00     0.099 C 
ATOM     22  C   UNL     1      -1.057   1.806   6.130  1.00  0.00     0.054 C 
ATOM     23  O   UNL     1      -0.989   4.962   3.423  1.00  0.00    -0.274 OA
ATOM     24  C   UNL     1      -2.382   3.617   4.795  1.00  0.00     0.133 C 
ATOM     25  C   UNL     1       3.215   0.013   6.255  1.00  0.00     0.121 C 
ATOM     26  N   UNL     1       1.883  -0.570   6.020  1.00  0.00    -0.332 N 
ATOM     27  C   UNL     1      -0.351  -0.357   6.749  1.00  0.00     0.038 C 
ATOM     28  C   UNL     1      -1.047   0.296   5.606  1.00  0.00     0.076 C 
ATOM     29  C   UNL     1       1.333  -0.981   4.760  1.00  0.00     0.290 C 
ATOM     30  C   UNL     1      -0.185  -0.297   4.415  1.00  0.00     0.223 C 
ATOM     31  O   UNL     1       1.934  -1.657   3.959  1.00  0.00    -0.266 OA
ATOM     32  O   UNL     1      -0.597  -0.242   3.263  1.00  0.00    -0.288 OA
BRANCH  10  33
ATOM     33  O   UNL     1       1.737   2.418   0.136  1.00  0.00    -0.493 OA
ATOM     34  C   UNL     1       1.288   1.171  -0.408  1.00  0.00     0.278 C 
ENDBRANCH  10  33
BRANCH  12  35
ATOM     35  O   UNL     1       3.861   1.084   1.271  1.00  0.00    -0.493 OA
ATOM     36  C   UNL     1       5.110   0.773   1.875  1.00  0.00     0.278 C 
ENDBRANCH  12  35
ENDBRANCH   8   9
ENDBRANCH   7   8
ENDBRANCH   4   7
ENDBRANCH   2   3
ENDBRANCH   1   2
BRANCH   1  37
ATOM     37  C   UNL     1      -5.493   5.123   8.723  1.00  0.00     0.023 C 
BRANCH  37  38
ATOM     38  C   UNL     1      -6.979   5.423   8.865  1.00  0.00     0.116 C 
BRANCH  38  39
ATOM     39  N   UNL     1      -7.617   4.798  10.010  1.00  0.00    -0.352 N 
ATOM     40  C   UNL     1      -8.826   5.126  10.583  1.00  0.00     0.251 C 
ATOM     41  H   UNL     1      -7.127   4.052  10.425  1.00  0.00     0.163 HD
ATOM     42  O   UNL     1      -9.213   4.549  11.593  1.00  0.00    -0.269 OA
BRANCH  40  43
ATOM     43  C   UNL     1      -9.623   6.237  10.010  1.00  0.00     0.039 A 
ATOM     44  C   UNL     1      -9.883   6.308   8.640  1.00  0.00     0.014 A 
ATOM     45  C   UNL     1     -10.061   7.256  10.861  1.00  0.00     0.014 A 
ATOM     46  C   UNL     1     -10.421   7.473   8.101  1.00  0.00     0.010 A 
ATOM     47  C   UNL     1     -10.665   8.397  10.325  1.00  0.00     0.010 A 
ATOM     48  C   UNL     1     -10.793   8.539   8.935  1.00  0.00    -0.014 A 
BRANCH  48  49
ATOM     49  C   UNL     1     -11.262   9.811   8.328  1.00  0.00     0.031 A 
ATOM     50  C   UNL     1     -10.407  11.047   8.400  1.00  0.00     0.074 A 
ATOM     51  C   UNL     1     -12.415   9.833   7.634  1.00  0.00     0.049 A 
ATOM     52  N   UNL     1     -10.630  12.238   7.902  1.00  0.00    -0.248 NA
ATOM     53  C   UNL     1      -9.131  10.933   9.124  1.00  0.00     0.031 C 
ATOM     54  C   UNL     1     -13.312   8.691   7.458  1.00  0.00     0.029 A 
ATOM     55  N   UNL     1     -13.008  10.840   6.915  1.00  0.00    -0.354 N 
ATOM     56  C   UNL     1      -9.536  13.013   8.262  1.00  0.00     0.074 A 
ATOM     57  C   UNL     1      -8.657  12.168   9.041  1.00  0.00     0.031 C 
ATOM     58  C   UNL     1     -14.305   9.041   6.626  1.00  0.00     0.029 A 
ATOM     59  C   UNL     1     -14.142  10.443   6.252  1.00  0.00     0.049 A 
ATOM     60  H   UNL     1     -12.654  11.758   6.879  1.00  0.00     0.167 HD
ATOM     61  C   UNL     1      -9.280  14.309   7.962  1.00  0.00     0.037 A 
ATOM     62  C   UNL     1     -14.956  11.131   5.431  1.00  0.00     0.037 A 
ATOM     63  C   UNL     1     -10.139  15.148   7.169  1.00  0.00     0.049 A 
ATOM     64  C   UNL     1     -14.676  12.579   5.153  1.00  0.00     0.074 A 
ATOM     65  C   UNL     1      -9.969  16.478   6.825  1.00  0.00     0.029 A 
ATOM     66  N   UNL     1     -11.325  14.732   6.586  1.00  0.00    -0.354 N 
ATOM     67  N   UNL     1     -13.663  13.313   5.542  1.00  0.00    -0.248 NA
ATOM     68  C   UNL     1     -15.666  13.300   4.340  1.00  0.00     0.031 C 
ATOM     69  C   UNL     1     -11.066  16.873   6.051  1.00  0.00     0.029 A 
ATOM     70  C   UNL     1     -11.904  15.782   5.892  1.00  0.00     0.049 A 
ATOM     71  H   UNL     1     -11.702  13.825   6.656  1.00  0.00     0.167 HD
ATOM     72  C   UNL     1     -13.890  14.579   5.023  1.00  0.00     0.074 A 
ATOM     73  C   UNL     1     -15.129  14.511   4.275  1.00  0.00     0.031 C 
ATOM     74  C   UNL     1     -13.142  15.699   5.162  1.00  0.00     0.037 A 
BRANCH  61  75
ATOM     75  C   UNL     1      -8.017  14.907   8.501  1.00  0.00     0.064 A 
ATOM     76  C   UNL     1      -6.770  14.622   7.926  1.00  0.00     0.173 A 
ATOM     77  C   UNL     1      -8.058  15.806   9.577  1.00  0.00     0.173 A 
ATOM     78  F   UNL     1      -6.680  13.755   6.907  1.00  0.00    -0.203 F 
ATOM     79  C   UNL     1      -5.606  15.207   8.418  1.00  0.00     0.198 A 
ATOM     80  C   UNL     1      -6.894  16.404  10.053  1.00  0.00     0.198 A 
ATOM     81  F   UNL     1      -9.227  16.111  10.159  1.00  0.00    -0.203 F 
ATOM     82  F   UNL     1      -4.421  14.897   7.875  1.00  0.00    -0.200 F 
ATOM     83  C   UNL     1      -5.670  16.102   9.477  1.00  0.00     0.200 A 
ATOM     84  F   UNL     1      -6.957  17.272  11.073  1.00  0.00    -0.200 F 
ATOM     85  F   UNL     1      -4.549  16.667   9.946  1.00  0.00    -0.200 F 
ENDBRANCH  61  75
BRANCH  62  86
ATOM     86  C   UNL     1     -16.104  10.440   4.796  1.00  0.00     0.064 A 
ATOM     87  C   UNL     1     -16.068  10.103   3.436  1.00  0.00     0.173 A 
ATOM     88  C   UNL     1     -17.234  10.069   5.536  1.00  0.00     0.173 A 
ATOM     89  F   UNL     1     -15.013  10.457   2.687  1.00  0.00    -0.203 F 
ATOM     90  C   UNL     1     -17.122   9.415   2.841  1.00  0.00     0.198 A 
ATOM     91  C   UNL     1     -18.279   9.365   4.944  1.00  0.00     0.198 A 
ATOM     92  F   UNL     1     -17.311  10.372   6.840  1.00  0.00    -0.203 F 
ATOM     93  F   UNL     1     -17.072   9.117   1.535  1.00  0.00    -0.200 F 
ATOM     94  C   UNL     1     -18.223   9.039   3.596  1.00  0.00     0.200 A 
ATOM     95  F   UNL     1     -19.337   8.995   5.679  1.00  0.00    -0.200 F 
ATOM     96  F   UNL     1     -19.230   8.364   3.026  1.00  0.00    -0.200 F 
ENDBRANCH  62  86
BRANCH  74  97
ATOM     97  C   UNL     1     -13.643  16.944   4.499  1.00  0.00     0.064 A 
ATOM     98  C   UNL     1     -14.678  17.700   5.066  1.00  0.00     0.173 A 
ATOM     99  C   UNL     1     -13.052  17.411   3.317  1.00  0.00     0.173 A 
ATOM    100  F   UNL     1     -15.281  17.282   6.189  1.00  0.00    -0.203 F 
ATOM    101  C   UNL     1     -15.113  18.877   4.465  1.00  0.00     0.198 A 
ATOM    102  C   UNL     1     -13.478  18.598   2.728  1.00  0.00     0.198 A 
ATOM    103  F   UNL     1     -12.056  16.722   2.741  1.00  0.00    -0.203 F 
ATOM    104  F   UNL     1     -16.121  19.572   5.009  1.00  0.00    -0.200 F 
ATOM    105  C   UNL     1     -14.509  19.328   3.300  1.00  0.00     0.200 A 
ATOM    106  F   UNL     1     -12.891  19.037   1.605  1.00  0.00    -0.200 F 
ATOM    107  F   UNL     1     -14.925  20.465   2.726  1.00  0.00    -0.200 F 
ENDBRANCH  74  97
ENDBRANCH  48  49
ENDBRANCH  40  43
ENDBRANCH  38  39
ENDBRANCH  37  38
ENDBRANCH   1  37
TORSDOF 15
