REMARK SMILES C/C(=N/OCc1ccccc1Nc1c(Cl)cccc1Cl)C(=O)NCCCCNC(=O)c1ccc(-c2c3nc(c(-c4c(F)c(F)c(F)c(F)c4F)c4ccc([nH]4)c(-c4c(F)c(F)c(F)c(F)c4F)c4nc(c(-c5c(F)c(F)c(F)c(F)c5F)c5ccc2[nH]5)C=C4)C=C3)cc1
REMARK SMILES IDX 24 1 23 2 21 3 22 4 2 6 1 7 3 8 4 9 5 10 6 11 7 12 11 13
REMARK SMILES IDX 8 14 10 15 9 16 12 17 13 19 14 20 19 21 15 22 16 23 18 24
REMARK SMILES IDX 20 25 17 26 25 27 26 28 27 29 28 30 29 31 30 33 31 34 32 35
REMARK SMILES IDX 93 36 33 37 92 38 34 39 35 40 36 41 86 42 37 43 91 44 85 45
REMARK SMILES IDX 87 46 38 47 90 48 84 49 83 50 39 52 71 53 51 54 70 55 52 56
REMARK SMILES IDX 55 57 69 58 88 59 53 60 54 61 68 63 89 64 56 65 40 66 41 67
REMARK SMILES IDX 49 68 42 69 43 70 47 71 50 72 44 73 45 74 48 75 46 76 72 77
REMARK SMILES IDX 73 78 81 79 74 80 75 81 79 82 82 83 76 84 77 85 80 86 78 87
REMARK SMILES IDX 57 88 58 89 66 90 59 91 60 92 64 93 67 94 61 95 62 96 65 97
REMARK SMILES IDX 63 98
REMARK H PARENT 23 5 12 18 28 32 87 51 55 62
REMARK Flexibility Score: inf
ROOT
ATOM      1  C   UNL     1       0.057   4.490   0.300  1.00  0.00     0.116 C 
ENDROOT
BRANCH   1   2
ATOM      2  N   UNL     1       0.442   3.404   1.159  1.00  0.00    -0.351 N 
ATOM      3  C   UNL     1       0.468   2.049   0.956  1.00  0.00     0.268 C 
ATOM      4  O   UNL     1       0.718   1.352   1.942  1.00  0.00    -0.268 OA
ATOM      5  H   UNL     1       0.742   3.683   2.054  1.00  0.00     0.163 HD
BRANCH   3   6
ATOM      6  C   UNL     1       0.331   1.318  -0.378  1.00  0.00     0.141 C 
ATOM      7  C   UNL     1       1.133   0.031  -0.431  1.00  0.00     0.077 C 
ATOM      8  N   UNL     1      -0.371   1.575  -1.444  1.00  0.00    -0.086 NA
BRANCH   8   9
ATOM      9  O   UNL     1      -1.112   2.744  -1.423  1.00  0.00    -0.390 OA
BRANCH   9  10
ATOM     10  C   UNL     1      -1.614   3.074  -2.732  1.00  0.00     0.302 C 
BRANCH  10  11
ATOM     11  C   UNL     1      -0.626   2.930  -3.875  1.00  0.00     0.016 A 
ATOM     12  C   UNL     1      -0.731   1.748  -4.641  1.00  0.00     0.009 A 
ATOM     13  C   UNL     1       0.368   3.882  -4.201  1.00  0.00     0.045 A 
ATOM     14  C   UNL     1       0.113   1.504  -5.719  1.00  0.00     0.001 A 
ATOM     15  C   UNL     1       1.211   3.605  -5.294  1.00  0.00     0.026 A 
ATOM     16  C   UNL     1       1.089   2.434  -6.044  1.00  0.00     0.002 A 
BRANCH  13  17
ATOM     17  N   UNL     1       0.481   5.114  -3.512  1.00  0.00    -0.353 N 
ATOM     18  H   UNL     1      -0.066   5.196  -2.697  1.00  0.00     0.167 HD
BRANCH  17  19
ATOM     19  C   UNL     1       1.275   6.248  -3.832  1.00  0.00     0.076 A 
ATOM     20  C   UNL     1       2.338   6.641  -2.988  1.00  0.00     0.066 A 
ATOM     21  C   UNL     1       1.107   6.981  -5.026  1.00  0.00     0.066 A 
ATOM     22  Cl  UNL     1       2.682   5.800  -1.518  1.00  0.00    -0.082 Cl
ATOM     23  C   UNL     1       3.185   7.708  -3.315  1.00  0.00     0.023 A 
ATOM     24  C   UNL     1       1.963   8.044  -5.355  1.00  0.00     0.023 A 
ATOM     25  Cl  UNL     1      -0.197   6.665  -6.121  1.00  0.00    -0.082 Cl
ATOM     26  C   UNL     1       3.002   8.406  -4.502  1.00  0.00     0.003 A 
ENDBRANCH  17  19
ENDBRANCH  13  17
ENDBRANCH  10  11
ENDBRANCH   9  10
ENDBRANCH   8   9
ENDBRANCH   3   6
ENDBRANCH   1   2
BRANCH   1  27
ATOM     27  C   UNL     1      -1.444   4.775   0.427  1.00  0.00     0.023 C 
BRANCH  27  28
ATOM     28  C   UNL     1      -1.781   5.932   1.361  1.00  0.00     0.023 C 
BRANCH  28  29
ATOM     29  C   UNL     1      -1.321   7.288   0.843  1.00  0.00     0.116 C 
BRANCH  29  30
ATOM     30  N   UNL     1      -1.909   7.660  -0.435  1.00  0.00    -0.352 N 
ATOM     31  C   UNL     1      -2.137   8.924  -0.927  1.00  0.00     0.251 C 
ATOM     32  H   UNL     1      -2.177   6.915  -1.019  1.00  0.00     0.163 HD
ATOM     33  O   UNL     1      -2.720   9.087  -1.987  1.00  0.00    -0.269 OA
BRANCH  31  34
ATOM     34  C   UNL     1      -1.711  10.089  -0.124  1.00  0.00     0.039 A 
ATOM     35  C   UNL     1      -2.626  11.121   0.092  1.00  0.00     0.014 A 
ATOM     36  C   UNL     1      -0.435  10.144   0.443  1.00  0.00     0.014 A 
ATOM     37  C   UNL     1      -2.274  12.189   0.915  1.00  0.00     0.010 A 
ATOM     38  C   UNL     1      -0.119  11.161   1.335  1.00  0.00     0.010 A 
ATOM     39  C   UNL     1      -1.026  12.206   1.561  1.00  0.00    -0.014 A 
BRANCH  39  40
ATOM     40  C   UNL     1      -0.639  13.343   2.431  1.00  0.00     0.031 A 
ATOM     41  C   UNL     1       0.511  14.228   2.035  1.00  0.00     0.074 A 
ATOM     42  C   UNL     1      -1.299  13.561   3.584  1.00  0.00     0.049 A 
ATOM     43  N   UNL     1       1.004  15.272   2.651  1.00  0.00    -0.248 NA
ATOM     44  C   UNL     1       1.224  13.875   0.796  1.00  0.00     0.031 C 
ATOM     45  C   UNL     1      -2.389  12.734   4.106  1.00  0.00     0.029 A 
ATOM     46  N   UNL     1      -1.151  14.548   4.525  1.00  0.00    -0.354 N 
ATOM     47  C   UNL     1       2.084  15.688   1.883  1.00  0.00     0.074 A 
ATOM     48  C   UNL     1       2.221  14.745   0.796  1.00  0.00     0.031 C 
ATOM     49  C   UNL     1      -2.834  13.268   5.255  1.00  0.00     0.029 A 
ATOM     50  C   UNL     1      -2.046  14.458   5.562  1.00  0.00     0.049 A 
ATOM     51  H   UNL     1      -0.468  15.254   4.462  1.00  0.00     0.167 HD
ATOM     52  C   UNL     1       2.870  16.778   2.049  1.00  0.00     0.037 A 
ATOM     53  C   UNL     1      -2.217  15.257   6.633  1.00  0.00     0.037 A 
ATOM     54  C   UNL     1       2.709  17.731   3.113  1.00  0.00     0.049 A 
ATOM     55  C   UNL     1      -1.348  16.479   6.777  1.00  0.00     0.074 A 
ATOM     56  C   UNL     1       3.415  18.898   3.343  1.00  0.00     0.029 A 
ATOM     57  N   UNL     1       1.768  17.626   4.127  1.00  0.00    -0.354 N 
ATOM     58  N   UNL     1      -0.381  16.906   6.002  1.00  0.00    -0.248 NA
ATOM     59  C   UNL     1      -1.611  17.340   7.938  1.00  0.00     0.031 C 
ATOM     60  C   UNL     1       2.929  19.479   4.519  1.00  0.00     0.029 A 
ATOM     61  C   UNL     1       1.884  18.702   4.993  1.00  0.00     0.049 A 
ATOM     62  H   UNL     1       1.114  16.895   4.218  1.00  0.00     0.167 HD
ATOM     63  C   UNL     1       0.056  18.100   6.560  1.00  0.00     0.074 A 
ATOM     64  C   UNL     1      -0.765  18.338   7.729  1.00  0.00     0.031 C 
ATOM     65  C   UNL     1       1.048  18.926   6.144  1.00  0.00     0.037 A 
BRANCH  52  66
ATOM     66  C   UNL     1       3.965  17.000   1.046  1.00  0.00     0.064 A 
ATOM     67  C   UNL     1       3.685  17.348  -0.285  1.00  0.00     0.173 A 
ATOM     68  C   UNL     1       5.311  16.884   1.422  1.00  0.00     0.173 A 
ATOM     69  F   UNL     1       2.414  17.455  -0.702  1.00  0.00    -0.203 F 
ATOM     70  C   UNL     1       4.710  17.540  -1.208  1.00  0.00     0.198 A 
ATOM     71  C   UNL     1       6.335  17.109   0.505  1.00  0.00     0.198 A 
ATOM     72  F   UNL     1       5.636  16.555   2.682  1.00  0.00    -0.203 F 
ATOM     73  F   UNL     1       4.415  17.814  -2.486  1.00  0.00    -0.200 F 
ATOM     74  C   UNL     1       6.033  17.428  -0.811  1.00  0.00     0.200 A 
ATOM     75  F   UNL     1       7.614  17.011   0.893  1.00  0.00    -0.200 F 
ATOM     76  F   UNL     1       7.019  17.617  -1.699  1.00  0.00    -0.200 F 
ENDBRANCH  52  66
BRANCH  53  77
ATOM     77  C   UNL     1      -3.282  14.958   7.626  1.00  0.00     0.064 A 
ATOM     78  C   UNL     1      -4.407  15.786   7.747  1.00  0.00     0.173 A 
ATOM     79  C   UNL     1      -3.190  13.854   8.485  1.00  0.00     0.173 A 
ATOM     80  F   UNL     1      -4.532  16.865   6.960  1.00  0.00    -0.203 F 
ATOM     81  C   UNL     1      -5.384  15.538   8.709  1.00  0.00     0.198 A 
ATOM     82  C   UNL     1      -4.182  13.590   9.427  1.00  0.00     0.198 A 
ATOM     83  F   UNL     1      -2.137  13.026   8.405  1.00  0.00    -0.203 F 
ATOM     84  F   UNL     1      -6.421  16.377   8.839  1.00  0.00    -0.200 F 
ATOM     85  C   UNL     1      -5.273  14.438   9.546  1.00  0.00     0.200 A 
ATOM     86  F   UNL     1      -4.078  12.518  10.224  1.00  0.00    -0.200 F 
ATOM     87  F   UNL     1      -6.211  14.201  10.473  1.00  0.00    -0.200 F 
ENDBRANCH  53  77
BRANCH  65  88
ATOM     88  C   UNL     1       1.265  20.186   6.933  1.00  0.00     0.064 A 
ATOM     89  C   UNL     1       1.801  20.164   8.229  1.00  0.00     0.173 A 
ATOM     90  C   UNL     1       0.949  21.433   6.373  1.00  0.00     0.173 A 
ATOM     91  F   UNL     1       2.108  18.995   8.813  1.00  0.00    -0.203 F 
ATOM     92  C   UNL     1       1.973  21.341   8.951  1.00  0.00     0.198 A 
ATOM     93  C   UNL     1       1.155  22.611   7.085  1.00  0.00     0.198 A 
ATOM     94  F   UNL     1       0.444  21.511   5.133  1.00  0.00    -0.203 F 
ATOM     95  F   UNL     1       2.428  21.291  10.211  1.00  0.00    -0.200 F 
ATOM     96  C   UNL     1       1.656  22.563   8.377  1.00  0.00     0.200 A 
ATOM     97  F   UNL     1       0.863  23.792   6.523  1.00  0.00    -0.200 F 
ATOM     98  F   UNL     1       1.824  23.696   9.074  1.00  0.00    -0.200 F 
ENDBRANCH  65  88
ENDBRANCH  39  40
ENDBRANCH  31  34
ENDBRANCH  29  30
ENDBRANCH  28  29
ENDBRANCH  27  28
ENDBRANCH   1  27
TORSDOF 16
