REMARK SMILES CC(C)c1s/c(=N/C(=O)CCC(=O)NC2CCCCCCC2)[nH]c1C(=O)NCCCCNC(=O)c1ccc(-c2c3nc(c(-c4c(F)c(F)c(F)c(F)c4F)c4ccc([nH]4)c(-c4c(F)c(F)c(F)c(F)c4F)c4nc(c(-c5c(F)c(F)c(F)c(F)c5F)c5ccc2[nH]5)C=C4)C=C3)cc1
REMARK SMILES IDX 4 1 5 2 6 3 7 4 23 5 24 6 2 8 1 9 3 10 25 11 26 12 27 13
REMARK SMILES IDX 28 15 29 16 30 17 31 18 32 19 33 20 34 22 35 23 36 24 97 25
REMARK SMILES IDX 37 26 96 27 38 28 39 29 40 30 90 31 41 32 95 33 89 34 91 35
REMARK SMILES IDX 42 36 94 37 88 38 87 39 43 41 75 42 55 43 74 44 56 45 59 46
REMARK SMILES IDX 73 47 92 48 57 49 58 50 72 52 93 53 60 54 44 55 45 56 53 57
REMARK SMILES IDX 46 58 47 59 51 60 54 61 48 62 49 63 52 64 50 65 76 66 77 67
REMARK SMILES IDX 85 68 78 69 79 70 83 71 86 72 80 73 81 74 84 75 82 76 61 77
REMARK SMILES IDX 62 78 70 79 63 80 64 81 68 82 71 83 65 84 66 85 69 86 67 87
REMARK SMILES IDX 8 88 9 89 10 90 11 91 12 92 13 93 14 94 15 96 16 97 17 98
REMARK SMILES IDX 18 99 22 101 21 102 20 103 19 104
REMARK H PARENT 23 7 27 14 32 21 91 40 59 51 14 95
REMARK Flexibility Score: 80.00
ROOT
ATOM      1  C   UNL     1      -1.109   1.164  -2.126  1.00  0.00     0.040 A 
ATOM      2  S   UNL     1      -2.099   2.453  -2.896  1.00  0.00    -0.101 S 
ATOM      3  C   UNL     1      -3.536   1.429  -2.910  1.00  0.00     0.190 A 
ATOM      4  N   UNL     1      -4.649   1.983  -3.217  1.00  0.00    -0.185 NA
ATOM      5  N   UNL     1      -3.139   0.189  -2.508  1.00  0.00    -0.326 N 
ATOM      6  C   UNL     1      -1.827   0.016  -2.018  1.00  0.00     0.120 A 
ATOM      7  H   UNL     1      -3.759  -0.575  -2.559  1.00  0.00     0.169 HD
ENDROOT
BRANCH   1   8
ATOM      8  C   UNL     1       0.253   1.643  -1.691  1.00  0.00     0.026 C 
ATOM      9  C   UNL     1       0.608   1.307  -0.245  1.00  0.00     0.013 C 
ATOM     10  C   UNL     1       1.311   1.312  -2.750  1.00  0.00     0.013 C 
ENDBRANCH   1   8
BRANCH   6  11
ATOM     11  C   UNL     1      -1.635  -1.345  -1.383  1.00  0.00     0.268 C 
ATOM     12  O   UNL     1      -2.673  -1.987  -1.154  1.00  0.00    -0.268 OA
ATOM     13  N   UNL     1      -0.503  -1.991  -1.038  1.00  0.00    -0.351 N 
ATOM     14  H   UNL     1      -0.680  -2.732  -0.414  1.00  0.00     0.163 HD
BRANCH  13  15
ATOM     15  C   UNL     1       0.907  -1.875  -1.350  1.00  0.00     0.116 C 
BRANCH  15  16
ATOM     16  C   UNL     1       1.782  -1.865  -0.088  1.00  0.00     0.023 C 
BRANCH  16  17
ATOM     17  C   UNL     1       2.927  -2.874  -0.089  1.00  0.00     0.023 C 
BRANCH  17  18
ATOM     18  C   UNL     1       3.881  -2.792  -1.274  1.00  0.00     0.116 C 
BRANCH  18  19
ATOM     19  N   UNL     1       4.687  -1.583  -1.322  1.00  0.00    -0.352 N 
ATOM     20  C   UNL     1       6.032  -1.458  -1.621  1.00  0.00     0.251 C 
ATOM     21  H   UNL     1       4.214  -0.745  -1.115  1.00  0.00     0.163 HD
ATOM     22  O   UNL     1       6.581  -0.372  -1.583  1.00  0.00    -0.269 OA
BRANCH  20  23
ATOM     23  C   UNL     1       6.816  -2.681  -1.927  1.00  0.00     0.039 A 
ATOM     24  C   UNL     1       7.993  -2.920  -1.214  1.00  0.00     0.014 A 
ATOM     25  C   UNL     1       6.341  -3.627  -2.837  1.00  0.00     0.014 A 
ATOM     26  C   UNL     1       8.629  -4.160  -1.327  1.00  0.00     0.010 A 
ATOM     27  C   UNL     1       6.923  -4.891  -2.879  1.00  0.00     0.010 A 
ATOM     28  C   UNL     1       8.063  -5.179  -2.111  1.00  0.00    -0.014 A 
BRANCH  28  29
ATOM     29  C   UNL     1       8.623  -6.558  -2.121  1.00  0.00     0.031 A 
ATOM     30  C   UNL     1       9.116  -7.164  -3.405  1.00  0.00     0.074 A 
ATOM     31  C   UNL     1       8.600  -7.300  -0.995  1.00  0.00     0.049 A 
ATOM     32  N   UNL     1       9.536  -8.382  -3.640  1.00  0.00    -0.248 NA
ATOM     33  C   UNL     1       9.102  -6.297  -4.593  1.00  0.00     0.031 C 
ATOM     34  C   UNL     1       8.088  -6.857   0.304  1.00  0.00     0.029 A 
ATOM     35  N   UNL     1       9.006  -8.592  -0.764  1.00  0.00    -0.354 N 
ATOM     36  C   UNL     1       9.810  -8.432  -5.000  1.00  0.00     0.074 A 
ATOM     37  C   UNL     1       9.458  -7.141  -5.550  1.00  0.00     0.031 C 
ATOM     38  C   UNL     1       8.235  -7.848   1.198  1.00  0.00     0.029 A 
ATOM     39  C   UNL     1       8.813  -9.010   0.531  1.00  0.00     0.049 A 
ATOM     40  H   UNL     1       9.397  -9.166  -1.462  1.00  0.00     0.167 HD
ATOM     41  C   UNL     1      10.333  -9.452  -5.722  1.00  0.00     0.037 A 
ATOM     42  C   UNL     1       9.070 -10.197   1.115  1.00  0.00     0.037 A 
ATOM     43  C   UNL     1      10.725 -10.720  -5.168  1.00  0.00     0.049 A 
ATOM     44  C   UNL     1       9.674 -11.305   0.295  1.00  0.00     0.074 A 
ATOM     45  C   UNL     1      11.329 -11.790  -5.805  1.00  0.00     0.029 A 
ATOM     46  N   UNL     1      10.555 -11.088  -3.842  1.00  0.00    -0.354 N 
ATOM     47  N   UNL     1       9.994 -11.314  -0.976  1.00  0.00    -0.248 NA
ATOM     48  C   UNL     1       9.959 -12.567   0.994  1.00  0.00     0.031 C 
ATOM     49  C   UNL     1      11.492 -12.820  -4.873  1.00  0.00     0.029 A 
ATOM     50  C   UNL     1      11.030 -12.375  -3.645  1.00  0.00     0.049 A 
ATOM     51  H   UNL     1      10.155 -10.520  -3.144  1.00  0.00     0.167 HD
ATOM     52  C   UNL     1      10.545 -12.565  -1.221  1.00  0.00     0.074 A 
ATOM     53  C   UNL     1      10.528 -13.284   0.035  1.00  0.00     0.031 C 
ATOM     54  C   UNL     1      11.023 -13.071  -2.384  1.00  0.00     0.037 A 
BRANCH  41  55
ATOM     55  C   UNL     1      10.527  -9.230  -7.194  1.00  0.00     0.064 A 
ATOM     56  C   UNL     1      11.507  -8.352  -7.682  1.00  0.00     0.173 A 
ATOM     57  C   UNL     1       9.749  -9.930  -8.129  1.00  0.00     0.173 A 
ATOM     58  F   UNL     1      12.268  -7.650  -6.829  1.00  0.00    -0.203 F 
ATOM     59  C   UNL     1      11.680  -8.160  -9.050  1.00  0.00     0.198 A 
ATOM     60  C   UNL     1       9.946  -9.759  -9.497  1.00  0.00     0.198 A 
ATOM     61  F   UNL     1       8.803 -10.787  -7.716  1.00  0.00    -0.203 F 
ATOM     62  F   UNL     1      12.587  -7.277  -9.490  1.00  0.00    -0.200 F 
ATOM     63  C   UNL     1      10.905  -8.868  -9.956  1.00  0.00     0.200 A 
ATOM     64  F   UNL     1       9.205 -10.453 -10.371  1.00  0.00    -0.200 F 
ATOM     65  F   UNL     1      11.078  -8.687 -11.272  1.00  0.00    -0.200 F 
ENDBRANCH  41  55
BRANCH  42  66
ATOM     66  C   UNL     1       8.787 -10.395   2.561  1.00  0.00     0.064 A 
ATOM     67  C   UNL     1       9.834 -10.527   3.485  1.00  0.00     0.173 A 
ATOM     68  C   UNL     1       7.475 -10.472   3.048  1.00  0.00     0.173 A 
ATOM     69  F   UNL     1      11.107 -10.481   3.064  1.00  0.00    -0.203 F 
ATOM     70  C   UNL     1       9.579 -10.752   4.836  1.00  0.00     0.198 A 
ATOM     71  C   UNL     1       7.221 -10.670   4.404  1.00  0.00     0.198 A 
ATOM     72  F   UNL     1       6.437 -10.347   2.207  1.00  0.00    -0.203 F 
ATOM     73  F   UNL     1      10.599 -10.923   5.688  1.00  0.00    -0.200 F 
ATOM     74  C   UNL     1       8.273 -10.819   5.296  1.00  0.00     0.200 A 
ATOM     75  F   UNL     1       5.957 -10.721   4.847  1.00  0.00    -0.200 F 
ATOM     76  F   UNL     1       8.028 -11.035   6.595  1.00  0.00    -0.200 F 
ENDBRANCH  42  66
BRANCH  54  77
ATOM     77  C   UNL     1      11.606 -14.453  -2.348  1.00  0.00     0.064 A 
ATOM     78  C   UNL     1      10.797 -15.591  -2.220  1.00  0.00     0.173 A 
ATOM     79  C   UNL     1      12.989 -14.640  -2.490  1.00  0.00     0.173 A 
ATOM     80  F   UNL     1       9.471 -15.462  -2.067  1.00  0.00    -0.203 F 
ATOM     81  C   UNL     1      11.355 -16.866  -2.215  1.00  0.00     0.198 A 
ATOM     82  C   UNL     1      13.540 -15.918  -2.512  1.00  0.00     0.198 A 
ATOM     83  F   UNL     1      13.805 -13.584  -2.621  1.00  0.00    -0.203 F 
ATOM     84  F   UNL     1      10.568 -17.939  -2.049  1.00  0.00    -0.200 F 
ATOM     85  C   UNL     1      12.724 -17.030  -2.368  1.00  0.00     0.200 A 
ATOM     86  F   UNL     1      14.861 -16.074  -2.673  1.00  0.00    -0.200 F 
ATOM     87  F   UNL     1      13.257 -18.259  -2.372  1.00  0.00    -0.200 F 
ENDBRANCH  54  77
ENDBRANCH  28  29
ENDBRANCH  20  23
ENDBRANCH  18  19
ENDBRANCH  17  18
ENDBRANCH  16  17
ENDBRANCH  15  16
ENDBRANCH  13  15
ENDBRANCH   6  11
BRANCH   4  88
ATOM     88  C   UNL     1      -5.788   1.235  -3.187  1.00  0.00     0.248 C 
ATOM     89  O   UNL     1      -5.843   0.035  -3.447  1.00  0.00    -0.273 OA
BRANCH  88  90
ATOM     90  C   UNL     1      -7.024   2.025  -2.794  1.00  0.00     0.112 C 
BRANCH  90  91
ATOM     91  C   UNL     1      -7.257   2.147  -1.294  1.00  0.00     0.110 C 
BRANCH  91  92
ATOM     92  C   UNL     1      -6.164   2.865  -0.542  1.00  0.00     0.220 C 
ATOM     93  O   UNL     1      -6.043   4.088  -0.663  1.00  0.00    -0.275 OA
ATOM     94  N   UNL     1      -5.349   2.248   0.352  1.00  0.00    -0.353 N 
ATOM     95  H   UNL     1      -5.012   2.881   1.027  1.00  0.00     0.163 HD
BRANCH  94  96
ATOM     96  C   UNL     1      -4.832   0.882   0.585  1.00  0.00     0.082 C 
BRANCH  96  97
ATOM     97  C   UNL     1      -4.608   0.676   2.095  1.00  0.00     0.025 C 
BRANCH  97  98
ATOM     98  C   UNL     1      -3.727  -0.515   2.484  1.00  0.00     0.002 C 
BRANCH  98  99
ATOM     99  C   UNL     1      -4.214  -1.937   2.190  1.00  0.00     0.000 CG0
ATOM    100  G   UNL     1      -5.692  -2.217   2.465  1.00  0.00     0.000 G0
ENDBRANCH  98  99
ENDBRANCH  97  98
ENDBRANCH  96  97
BRANCH  96 101
ATOM    101  C   UNL     1      -5.558  -0.277  -0.092  1.00  0.00     0.025 C 
BRANCH 101 102
ATOM    102  C   UNL     1      -6.804  -0.814   0.604  1.00  0.00     0.002 C 
BRANCH 102 103
ATOM    103  C   UNL     1      -6.593  -2.188   1.230  1.00  0.00     0.000 C 
BRANCH 103 104
ATOM    104  C   UNL     1      -5.692  -2.217   2.465  1.00  0.00     0.000 CG0
ATOM    105  G   UNL     1      -4.214  -1.937   2.190  1.00  0.00     0.000 G0
ENDBRANCH 103 104
ENDBRANCH 102 103
ENDBRANCH 101 102
ENDBRANCH  96 101
ENDBRANCH  94  96
ENDBRANCH  91  92
ENDBRANCH  90  91
ENDBRANCH  88  90
ENDBRANCH   4  88
TORSDOF 17
