REMARK SMILES O=C(NCCCCNC(=O)c1sccc1S(=O)(=O)Nc1ccc(Cn2cncn2)cc1)c1ccc(-c2c3nc(c(-c4c(F)c(F)c(F)c(F)c4F)c4ccc([nH]4)c(-c4c(F)c(F)c(F)c(F)c4F)c4nc(c(-c5c(F)c(F)c(F)c(F)c5F)c5ccc2[nH]5)C=C4)C=C3)cc1
REMARK SMILES IDX 7 1 6 2 5 3 4 4 3 5 1 6 2 7 32 9 33 10 94 11 34 12 93 13
REMARK SMILES IDX 35 14 36 15 37 16 87 17 38 18 92 19 86 20 88 21 39 22 91 23
REMARK SMILES IDX 85 24 84 25 40 27 72 28 52 29 71 30 53 31 56 32 70 33 89 34
REMARK SMILES IDX 54 35 55 36 69 38 90 39 57 40 41 41 42 42 50 43 43 44 44 45
REMARK SMILES IDX 48 46 51 47 45 48 46 49 49 50 47 51 73 52 74 53 82 54 75 55
REMARK SMILES IDX 76 56 80 57 83 58 77 59 78 60 81 61 79 62 58 63 59 64 67 65
REMARK SMILES IDX 60 66 61 67 65 68 68 69 62 70 63 71 66 72 64 73 8 74 9 75
REMARK SMILES IDX 10 77 11 78 12 79 15 80 13 81 14 82 16 83 17 84 18 85 19 86
REMARK SMILES IDX 20 88 21 89 31 90 22 91 30 92 23 93 24 94 25 95 26 96 29 97
REMARK SMILES IDX 27 98 28 99
REMARK H PARENT 3 8 88 26 56 37 8 76 19 87
REMARK Flexibility Score: inf
ROOT
ATOM      1  C   UNL     1       4.478   2.115   3.851  1.00  0.00     0.116 C 
ENDROOT
BRANCH   1   2
ATOM      2  C   UNL     1       3.938   2.706   2.549  1.00  0.00     0.023 C 
BRANCH   2   3
ATOM      3  C   UNL     1       4.595   2.177   1.266  1.00  0.00     0.023 C 
BRANCH   3   4
ATOM      4  C   UNL     1       4.417   0.681   1.010  1.00  0.00     0.116 C 
BRANCH   4   5
ATOM      5  N   UNL     1       3.052   0.215   0.926  1.00  0.00    -0.352 N 
ATOM      6  O   UNL     1       1.080  -0.432   0.167  1.00  0.00    -0.269 OA
ATOM      7  C   UNL     1       2.088   0.245  -0.042  1.00  0.00     0.251 C 
ATOM      8  H   UNL     1       2.748  -0.224   1.753  1.00  0.00     0.163 HD
BRANCH   7   9
ATOM      9  C   UNL     1       2.143   1.077  -1.272  1.00  0.00     0.039 A 
ATOM     10  C   UNL     1       3.300   1.592  -1.856  1.00  0.00     0.014 A 
ATOM     11  C   UNL     1       0.904   1.340  -1.887  1.00  0.00     0.014 A 
ATOM     12  C   UNL     1       3.214   2.407  -2.984  1.00  0.00     0.010 A 
ATOM     13  C   UNL     1       0.814   2.133  -3.028  1.00  0.00     0.010 A 
ATOM     14  C   UNL     1       1.972   2.684  -3.568  1.00  0.00    -0.014 A 
BRANCH  14  15
ATOM     15  C   UNL     1       1.960   3.398  -4.846  1.00  0.00     0.031 A 
ATOM     16  C   UNL     1       2.618   2.681  -5.978  1.00  0.00     0.074 A 
ATOM     17  C   UNL     1       1.286   4.538  -5.096  1.00  0.00     0.049 A 
ATOM     18  N   UNL     1       3.608   3.077  -6.711  1.00  0.00    -0.248 NA
ATOM     19  C   UNL     1       2.143   1.326  -6.294  1.00  0.00     0.031 C 
ATOM     20  C   UNL     1       0.317   5.218  -4.239  1.00  0.00     0.029 A 
ATOM     21  N   UNL     1       1.266   5.281  -6.245  1.00  0.00    -0.354 N 
ATOM     22  C   UNL     1       3.792   2.092  -7.682  1.00  0.00     0.074 A 
ATOM     23  C   UNL     1       2.937   0.994  -7.313  1.00  0.00     0.031 C 
ATOM     24  C   UNL     1      -0.340   6.151  -4.966  1.00  0.00     0.029 A 
ATOM     25  C   UNL     1       0.247   6.221  -6.295  1.00  0.00     0.049 A 
ATOM     26  H   UNL     1       1.918   5.159  -6.972  1.00  0.00     0.167 HD
ATOM     27  C   UNL     1       4.500   2.333  -8.820  1.00  0.00     0.037 A 
ATOM     28  C   UNL     1      -0.122   6.965  -7.367  1.00  0.00     0.037 A 
ATOM     29  C   UNL     1       5.368   3.471  -8.671  1.00  0.00     0.049 A 
ATOM     30  C   UNL     1       1.000   6.973  -8.334  1.00  0.00     0.074 A 
ATOM     31  C   UNL     1       6.408   3.803  -7.824  1.00  0.00     0.029 A 
ATOM     32  N   UNL     1       5.030   4.639  -9.305  1.00  0.00    -0.354 N 
ATOM     33  N   UNL     1       2.117   7.620  -8.168  1.00  0.00    -0.248 NA
ATOM     34  C   UNL     1       1.012   5.964  -9.382  1.00  0.00     0.031 C 
ATOM     35  C   UNL     1       6.302   5.213  -7.637  1.00  0.00     0.029 A 
ATOM     36  C   UNL     1       5.226   5.653  -8.407  1.00  0.00     0.049 A 
ATOM     37  H   UNL     1       4.707   4.731 -10.230  1.00  0.00     0.167 HD
ATOM     38  C   UNL     1       3.074   6.819  -8.766  1.00  0.00     0.074 A 
ATOM     39  C   UNL     1       2.325   5.893  -9.607  1.00  0.00     0.031 C 
ATOM     40  C   UNL     1       4.356   6.798  -8.302  1.00  0.00     0.037 A 
BRANCH  27  41
ATOM     41  C   UNL     1       4.161   1.762 -10.182  1.00  0.00     0.064 A 
ATOM     42  C   UNL     1       5.016   2.038 -11.272  1.00  0.00     0.173 A 
ATOM     43  C   UNL     1       2.893   1.248 -10.526  1.00  0.00     0.173 A 
ATOM     44  F   UNL     1       6.247   2.532 -11.070  1.00  0.00    -0.203 F 
ATOM     45  C   UNL     1       4.590   1.919 -12.598  1.00  0.00     0.198 A 
ATOM     46  C   UNL     1       2.492   1.077 -11.851  1.00  0.00     0.198 A 
ATOM     47  F   UNL     1       1.953   0.995  -9.609  1.00  0.00    -0.203 F 
ATOM     48  F   UNL     1       5.386   2.337 -13.591  1.00  0.00    -0.200 F 
ATOM     49  C   UNL     1       3.323   1.450 -12.886  1.00  0.00     0.200 A 
ATOM     50  F   UNL     1       1.255   0.630 -12.112  1.00  0.00    -0.200 F 
ATOM     51  F   UNL     1       2.885   1.405 -14.151  1.00  0.00    -0.200 F 
ENDBRANCH  27  41
BRANCH  28  52
ATOM     52  C   UNL     1      -1.452   7.508  -7.726  1.00  0.00     0.064 A 
ATOM     53  C   UNL     1      -1.583   8.534  -8.678  1.00  0.00     0.173 A 
ATOM     54  C   UNL     1      -2.636   6.843  -7.356  1.00  0.00     0.173 A 
ATOM     55  F   UNL     1      -0.501   9.193  -9.117  1.00  0.00    -0.203 F 
ATOM     56  C   UNL     1      -2.819   8.852  -9.250  1.00  0.00     0.198 A 
ATOM     57  C   UNL     1      -3.871   7.169  -7.919  1.00  0.00     0.198 A 
ATOM     58  F   UNL     1      -2.604   5.800  -6.515  1.00  0.00    -0.203 F 
ATOM     59  F   UNL     1      -2.892   9.788 -10.207  1.00  0.00    -0.200 F 
ATOM     60  C   UNL     1      -3.960   8.161  -8.877  1.00  0.00     0.200 A 
ATOM     61  F   UNL     1      -4.962   6.471  -7.574  1.00  0.00    -0.200 F 
ATOM     62  F   UNL     1      -5.133   8.421  -9.471  1.00  0.00    -0.200 F 
ENDBRANCH  28  52
BRANCH  40  63
ATOM     63  C   UNL     1       4.798   7.912  -7.401  1.00  0.00     0.064 A 
ATOM     64  C   UNL     1       4.215   8.202  -6.155  1.00  0.00     0.173 A 
ATOM     65  C   UNL     1       5.939   8.640  -7.768  1.00  0.00     0.173 A 
ATOM     66  F   UNL     1       3.192   7.476  -5.683  1.00  0.00    -0.203 F 
ATOM     67  C   UNL     1       4.720   9.218  -5.346  1.00  0.00     0.198 A 
ATOM     68  C   UNL     1       6.466   9.624  -6.938  1.00  0.00     0.198 A 
ATOM     69  F   UNL     1       6.571   8.366  -8.920  1.00  0.00    -0.203 F 
ATOM     70  F   UNL     1       4.134   9.494  -4.171  1.00  0.00    -0.200 F 
ATOM     71  C   UNL     1       5.848   9.923  -5.734  1.00  0.00     0.200 A 
ATOM     72  F   UNL     1       7.587  10.266  -7.293  1.00  0.00    -0.200 F 
ATOM     73  F   UNL     1       6.356  10.872  -4.936  1.00  0.00    -0.200 F 
ENDBRANCH  40  63
ENDBRANCH  14  15
ENDBRANCH   7   9
ENDBRANCH   4   5
ENDBRANCH   3   4
ENDBRANCH   2   3
ENDBRANCH   1   2
BRANCH   1  74
ATOM     74  N   UNL     1       5.856   2.494   4.068  1.00  0.00    -0.351 N 
ATOM     75  C   UNL     1       6.555   2.661   5.231  1.00  0.00     0.262 C 
ATOM     76  H   UNL     1       6.374   2.659   3.247  1.00  0.00     0.163 HD
ATOM     77  O   UNL     1       7.658   3.204   5.117  1.00  0.00    -0.268 OA
BRANCH  75  78
ATOM     78  C   UNL     1       5.981   2.296   6.506  1.00  0.00     0.112 A 
ATOM     79  S   UNL     1       6.059   3.560   7.694  1.00  0.00    -0.137 S 
ATOM     80  C   UNL     1       5.426   1.148   7.048  1.00  0.00     0.111 A 
ATOM     81  C   UNL     1       5.262   2.631   8.869  1.00  0.00     0.067 A 
ATOM     82  C   UNL     1       4.969   1.376   8.400  1.00  0.00     0.035 A 
BRANCH  80  83
ATOM     83  S   UNL     1       5.186  -0.438   6.380  1.00  0.00     0.263 S 
ATOM     84  O   UNL     1       5.571  -1.309   7.462  1.00  0.00    -0.201 OA
ATOM     85  O   UNL     1       3.798  -0.379   5.943  1.00  0.00    -0.201 OA
BRANCH  83  86
ATOM     86  N   UNL     1       6.028  -0.933   5.040  1.00  0.00    -0.280 N 
ATOM     87  H   UNL     1       5.614  -1.634   4.487  1.00  0.00     0.180 HD
BRANCH  86  88
ATOM     88  C   UNL     1       7.279  -0.444   4.622  1.00  0.00     0.049 A 
ATOM     89  C   UNL     1       7.434  -0.261   3.248  1.00  0.00     0.027 A 
ATOM     90  C   UNL     1       8.295  -0.077   5.491  1.00  0.00     0.027 A 
ATOM     91  C   UNL     1       8.481   0.509   2.759  1.00  0.00     0.008 A 
ATOM     92  C   UNL     1       9.373   0.665   4.998  1.00  0.00     0.008 A 
ATOM     93  C   UNL     1       9.428   1.036   3.643  1.00  0.00    -0.026 A 
BRANCH  93  94
ATOM     94  C   UNL     1      10.406   2.090   3.182  1.00  0.00     0.181 C 
BRANCH  94  95
ATOM     95  N   UNL     1      11.318   1.593   2.173  1.00  0.00    -0.249 N 
ATOM     96  C   UNL     1      11.152   1.611   0.822  1.00  0.00     0.220 A 
ATOM     97  N   UNL     1      12.522   1.092   2.505  1.00  0.00    -0.160 NA
ATOM     98  N   UNL     1      12.210   1.093   0.243  1.00  0.00    -0.224 NA
ATOM     99  C   UNL     1      13.020   0.794   1.302  1.00  0.00     0.246 A 
ENDBRANCH  94  95
ENDBRANCH  93  94
ENDBRANCH  86  88
ENDBRANCH  83  86
ENDBRANCH  80  83
ENDBRANCH  75  78
ENDBRANCH   1  74
TORSDOF 16
