REMARK SMILES O=C(NCCCCNC(=O)c1nccnc1C(=O)Nc1n[nH]c2ncccc12)c1ccc(-c2c3nc(c(-c4c(F)c(F)c(F)c(F)c4F)c4ccc([nH]4)c(-c4c(F)c(F)c(F)c(F)c4F)c4nc(c(-c5c(F)c(F)c(F)c(F)c5F)c5ccc2[nH]5)C=C4)C=C3)cc1
REMARK SMILES IDX 5 1 4 2 3 3 1 4 2 5 29 7 30 8 91 9 31 10 90 11 32 12 33 13
REMARK SMILES IDX 34 14 84 15 35 16 89 17 83 18 85 19 36 20 88 21 82 22 81 23
REMARK SMILES IDX 37 25 69 26 49 27 68 28 50 29 53 30 67 31 86 32 51 33 52 34
REMARK SMILES IDX 66 36 87 37 54 38 38 39 39 40 47 41 40 42 41 43 45 44 48 45
REMARK SMILES IDX 42 46 43 47 46 48 44 49 70 50 71 51 79 52 72 53 73 54 77 55
REMARK SMILES IDX 80 56 74 57 75 58 78 59 76 60 55 61 56 62 64 63 57 64 58 65
REMARK SMILES IDX 62 66 65 67 59 68 60 69 63 70 61 71 6 72 7 73 8 74 9 75
REMARK SMILES IDX 10 77 11 78 12 79 16 80 13 81 15 82 14 83 17 84 18 85 19 86
REMARK SMILES IDX 20 88 21 89 28 90 22 91 23 92 27 93 24 95 26 96 25 97
REMARK H PARENT 3 6 85 24 53 35 8 76 19 87 22 94
REMARK Flexibility Score: inf
ROOT
ATOM      1  C   UNL     1       5.240  -1.976  -1.038  1.00  0.00     0.023 C 
ENDROOT
BRANCH   1   2
ATOM      2  C   UNL     1       4.483  -0.892  -0.281  1.00  0.00     0.116 C 
BRANCH   2   3
ATOM      3  N   UNL     1       3.033  -0.852  -0.424  1.00  0.00    -0.352 N 
ATOM      4  O   UNL     1       0.976  -0.012   0.098  1.00  0.00    -0.269 OA
ATOM      5  C   UNL     1       2.173  -0.087   0.342  1.00  0.00     0.251 C 
ATOM      6  H   UNL     1       2.633  -1.415  -1.125  1.00  0.00     0.163 HD
BRANCH   5   7
ATOM      7  C   UNL     1       2.750   0.540   1.548  1.00  0.00     0.039 A 
ATOM      8  C   UNL     1       3.850   1.386   1.422  1.00  0.00     0.014 A 
ATOM      9  C   UNL     1       2.376   0.026   2.791  1.00  0.00     0.014 A 
ATOM     10  C   UNL     1       4.715   1.518   2.498  1.00  0.00     0.010 A 
ATOM     11  C   UNL     1       3.168   0.294   3.907  1.00  0.00     0.010 A 
ATOM     12  C   UNL     1       4.374   0.997   3.760  1.00  0.00    -0.014 A 
BRANCH  12  13
ATOM     13  C   UNL     1       5.252   1.279   4.923  1.00  0.00     0.031 A 
ATOM     14  C   UNL     1       5.867   0.180   5.747  1.00  0.00     0.074 A 
ATOM     15  C   UNL     1       5.484   2.569   5.230  1.00  0.00     0.049 A 
ATOM     16  N   UNL     1       6.615   0.275   6.819  1.00  0.00    -0.248 NA
ATOM     17  C   UNL     1       5.600  -1.204   5.328  1.00  0.00     0.031 C 
ATOM     18  C   UNL     1       4.932   3.717   4.503  1.00  0.00     0.029 A 
ATOM     19  N   UNL     1       6.247   3.139   6.213  1.00  0.00    -0.354 N 
ATOM     20  C   UNL     1       6.884  -1.028   7.219  1.00  0.00     0.074 A 
ATOM     21  C   UNL     1       6.194  -1.899   6.289  1.00  0.00     0.031 C 
ATOM     22  C   UNL     1       5.424   4.847   5.021  1.00  0.00     0.029 A 
ATOM     23  C   UNL     1       6.235   4.511   6.182  1.00  0.00     0.049 A 
ATOM     24  H   UNL     1       6.753   2.617   6.877  1.00  0.00     0.167 HD
ATOM     25  C   UNL     1       7.638  -1.451   8.265  1.00  0.00     0.037 A 
ATOM     26  C   UNL     1       6.781   5.409   7.018  1.00  0.00     0.037 A 
ATOM     27  C   UNL     1       8.316  -0.565   9.180  1.00  0.00     0.049 A 
ATOM     28  C   UNL     1       7.557   4.909   8.198  1.00  0.00     0.074 A 
ATOM     29  C   UNL     1       9.132  -0.887  10.251  1.00  0.00     0.029 A 
ATOM     30  N   UNL     1       8.245   0.823   9.142  1.00  0.00    -0.354 N 
ATOM     31  N   UNL     1       7.832   3.676   8.547  1.00  0.00    -0.248 NA
ATOM     32  C   UNL     1       8.097   5.929   9.103  1.00  0.00     0.031 C 
ATOM     33  C   UNL     1       9.488   0.297  10.906  1.00  0.00     0.029 A 
ATOM     34  C   UNL     1       8.970   1.366  10.193  1.00  0.00     0.049 A 
ATOM     35  H   UNL     1       7.752   1.344   8.468  1.00  0.00     0.167 HD
ATOM     36  C   UNL     1       8.605   3.770   9.694  1.00  0.00     0.074 A 
ATOM     37  C   UNL     1       8.772   5.184   9.966  1.00  0.00     0.031 C 
ATOM     38  C   UNL     1       9.130   2.776  10.451  1.00  0.00     0.037 A 
BRANCH  25  39
ATOM     39  C   UNL     1       7.742  -2.935   8.505  1.00  0.00     0.064 A 
ATOM     40  C   UNL     1       8.401  -3.793   7.610  1.00  0.00     0.173 A 
ATOM     41  C   UNL     1       7.205  -3.505   9.672  1.00  0.00     0.173 A 
ATOM     42  F   UNL     1       8.933  -3.308   6.478  1.00  0.00    -0.203 F 
ATOM     43  C   UNL     1       8.481  -5.163   7.853  1.00  0.00     0.198 A 
ATOM     44  C   UNL     1       7.322  -4.869   9.930  1.00  0.00     0.198 A 
ATOM     45  F   UNL     1       6.575  -2.736  10.573  1.00  0.00    -0.203 F 
ATOM     46  F   UNL     1       9.061  -5.968   6.951  1.00  0.00    -0.200 F 
ATOM     47  C   UNL     1       7.948  -5.699   9.015  1.00  0.00     0.200 A 
ATOM     48  F   UNL     1       6.824  -5.380  11.065  1.00  0.00    -0.200 F 
ATOM     49  F   UNL     1       8.030  -7.016   9.248  1.00  0.00    -0.200 F 
ENDBRANCH  25  39
BRANCH  26  50
ATOM     50  C   UNL     1       6.597   6.862   6.766  1.00  0.00     0.064 A 
ATOM     51  C   UNL     1       7.689   7.677   6.444  1.00  0.00     0.173 A 
ATOM     52  C   UNL     1       5.330   7.462   6.831  1.00  0.00     0.173 A 
ATOM     53  F   UNL     1       8.921   7.151   6.378  1.00  0.00    -0.203 F 
ATOM     54  C   UNL     1       7.526   9.043   6.228  1.00  0.00     0.198 A 
ATOM     55  C   UNL     1       5.162   8.819   6.573  1.00  0.00     0.198 A 
ATOM     56  F   UNL     1       4.248   6.723   7.119  1.00  0.00    -0.203 F 
ATOM     57  F   UNL     1       8.596   9.810   5.979  1.00  0.00    -0.200 F 
ATOM     58  C   UNL     1       6.263   9.612   6.285  1.00  0.00     0.200 A 
ATOM     59  F   UNL     1       3.936   9.358   6.601  1.00  0.00    -0.200 F 
ATOM     60  F   UNL     1       6.106  10.925   6.070  1.00  0.00    -0.200 F 
ENDBRANCH  26  50
BRANCH  38  61
ATOM     61  C   UNL     1       9.985   3.190  11.617  1.00  0.00     0.064 A 
ATOM     62  C   UNL     1       9.452   3.846  12.737  1.00  0.00     0.173 A 
ATOM     63  C   UNL     1      11.362   2.918  11.613  1.00  0.00     0.173 A 
ATOM     64  F   UNL     1       8.145   4.146  12.786  1.00  0.00    -0.203 F 
ATOM     65  C   UNL     1      10.271   4.253  13.787  1.00  0.00     0.198 A 
ATOM     66  C   UNL     1      12.171   3.286  12.684  1.00  0.00     0.198 A 
ATOM     67  F   UNL     1      11.925   2.289  10.570  1.00  0.00    -0.203 F 
ATOM     68  F   UNL     1       9.752   4.945  14.810  1.00  0.00    -0.200 F 
ATOM     69  C   UNL     1      11.628   3.965  13.763  1.00  0.00     0.200 A 
ATOM     70  F   UNL     1      13.477   2.989  12.667  1.00  0.00    -0.200 F 
ATOM     71  F   UNL     1      12.414   4.353  14.776  1.00  0.00    -0.200 F 
ENDBRANCH  38  61
ENDBRANCH  12  13
ENDBRANCH   5   7
ENDBRANCH   2   3
ENDBRANCH   1   2
BRANCH   1  72
ATOM     72  C   UNL     1       5.058  -2.207  -2.731  1.00  0.00     0.023 C 
BRANCH  72  73
ATOM     73  C   UNL     1       5.503  -0.983  -4.505  1.00  0.00     0.116 C 
BRANCH  73  74
ATOM     74  N   UNL     1       6.882  -0.464  -5.149  1.00  0.00    -0.351 N 
ATOM     75  C   UNL     1       7.543  -0.893  -6.285  1.00  0.00     0.272 C 
ATOM     76  H   UNL     1       7.322   0.269  -4.662  1.00  0.00     0.163 HD
ATOM     77  O   UNL     1       8.669  -0.503  -6.565  1.00  0.00    -0.267 OA
BRANCH  75  78
ATOM     78  C   UNL     1       6.821  -1.830  -7.163  1.00  0.00     0.159 A 
ATOM     79  N   UNL     1       5.781  -1.235  -7.837  1.00  0.00    -0.247 NA
ATOM     80  C   UNL     1       7.065  -3.197  -7.202  1.00  0.00     0.159 A 
ATOM     81  C   UNL     1       5.010  -2.054  -8.574  1.00  0.00     0.132 A 
ATOM     82  N   UNL     1       6.250  -4.011  -7.949  1.00  0.00    -0.247 NA
ATOM     83  C   UNL     1       5.241  -3.413  -8.630  1.00  0.00     0.132 A 
BRANCH  80  84
ATOM     84  C   UNL     1       8.199  -3.916  -6.545  1.00  0.00     0.277 C 
ATOM     85  O   UNL     1       8.841  -4.717  -7.233  1.00  0.00    -0.267 OA
ATOM     86  N   UNL     1       8.603  -3.727  -5.242  1.00  0.00    -0.303 N 
ATOM     87  H   UNL     1       9.452  -4.166  -5.006  1.00  0.00     0.172 HD
BRANCH  86  88
ATOM     88  C   UNL     1       8.017  -3.029  -4.221  1.00  0.00     0.164 A 
ATOM     89  N   UNL     1       8.822  -2.468  -3.301  1.00  0.00    -0.155 NA
ATOM     90  C   UNL     1       6.655  -2.701  -4.056  1.00  0.00     0.063 A 
ATOM     91  N   UNL     1       8.173  -1.422  -2.713  1.00  0.00    -0.259 N 
ATOM     92  C   UNL     1       6.840  -1.338  -3.003  1.00  0.00     0.157 A 
ATOM     93  C   UNL     1       5.018  -3.070  -4.681  1.00  0.00     0.017 A 
ATOM     94  H   UNL     1       8.630  -0.777  -2.125  1.00  0.00     0.192 HD
ATOM     95  N   UNL     1       5.565  -0.219  -2.634  1.00  0.00    -0.237 NA
ATOM     96  C   UNL     1       3.637  -2.004  -4.315  1.00  0.00     0.021 A 
ATOM     97  C   UNL     1       3.943  -0.625  -3.273  1.00  0.00     0.113 A 
ENDBRANCH  86  88
ENDBRANCH  80  84
ENDBRANCH  75  78
ENDBRANCH  73  74
ENDBRANCH  72  73
ENDBRANCH   1  72
TORSDOF 13
