REMARK SMILES O=C(NCCCCNC(=O)[C@H]1CCC[N@@H+]1Cc1ccccc1[N+](=O)[O-])c1ccc(-c2c3nc(c(-c4c(F)c(F)c(F)c(F)c4F)c4ccc([nH]4)c(-c4c(F)c(F)c(F)c(F)c4F)c4nc(c(-c5c(F)c(F)c(F)c(F)c5F)c5ccc2[nH]5)C=C4)C=C3)cc1
REMARK SMILES IDX 6 1 5 2 4 3 3 4 1 5 2 6 26 8 27 9 88 10 28 11 87 12 29 13
REMARK SMILES IDX 30 14 31 15 81 16 32 17 86 18 80 19 82 20 33 21 85 22 79 23
REMARK SMILES IDX 78 24 34 26 66 27 46 28 65 29 47 30 50 31 64 32 83 33 48 34
REMARK SMILES IDX 49 35 63 37 84 38 51 39 35 40 36 41 44 42 37 43 38 44 42 45
REMARK SMILES IDX 45 46 39 47 40 48 43 49 41 50 67 51 68 52 76 53 69 54 70 55
REMARK SMILES IDX 74 56 77 57 71 58 72 59 75 60 73 61 52 62 53 63 61 64 54 65
REMARK SMILES IDX 55 66 59 67 62 68 56 69 57 70 60 71 58 72 7 73 8 74 9 75
REMARK SMILES IDX 10 77 11 78 12 79 15 80 13 81 14 82 16 84 17 85 18 86 22 87
REMARK SMILES IDX 19 88 21 89 20 90 23 91 24 92 25 93
REMARK H PARENT 3 7 82 25 50 36 8 76 15 83
REMARK Flexibility Score: inf
ROOT
ATOM      1  C   UNL     1       5.457  -9.264  -4.786  1.00  0.00     0.023 C 
ENDROOT
BRANCH   1   2
ATOM      2  C   UNL     1       5.014  -9.586  -6.205  1.00  0.00     0.023 C 
BRANCH   2   3
ATOM      3  C   UNL     1       5.982 -10.444  -6.999  1.00  0.00     0.116 C 
BRANCH   3   4
ATOM      4  N   UNL     1       6.331 -11.714  -6.375  1.00  0.00    -0.352 N 
ATOM      5  O   UNL     1       6.877 -13.918  -6.366  1.00  0.00    -0.269 OA
ATOM      6  C   UNL     1       6.645 -12.903  -7.002  1.00  0.00     0.251 C 
ATOM      7  H   UNL     1       6.344 -11.725  -5.390  1.00  0.00     0.163 HD
BRANCH   6   8
ATOM      8  C   UNL     1       6.633 -12.927  -8.479  1.00  0.00     0.039 A 
ATOM      9  C   UNL     1       7.306 -11.936  -9.193  1.00  0.00     0.014 A 
ATOM     10  C   UNL     1       5.832 -13.863  -9.137  1.00  0.00     0.014 A 
ATOM     11  C   UNL     1       7.015 -11.752 -10.535  1.00  0.00     0.010 A 
ATOM     12  C   UNL     1       5.630 -13.742 -10.513  1.00  0.00     0.010 A 
ATOM     13  C   UNL     1       6.174 -12.652 -11.211  1.00  0.00    -0.014 A 
BRANCH  13  14
ATOM     14  C   UNL     1       5.905 -12.437 -12.654  1.00  0.00     0.031 A 
ATOM     15  C   UNL     1       4.519 -12.139 -13.154  1.00  0.00     0.074 A 
ATOM     16  C   UNL     1       6.946 -12.461 -13.508  1.00  0.00     0.049 A 
ATOM     17  N   UNL     1       4.116 -11.912 -14.380  1.00  0.00    -0.248 NA
ATOM     18  C   UNL     1       3.441 -12.099 -12.154  1.00  0.00     0.031 C 
ATOM     19  C   UNL     1       8.334 -12.735 -13.130  1.00  0.00     0.029 A 
ATOM     20  N   UNL     1       7.008 -12.223 -14.855  1.00  0.00    -0.354 N 
ATOM     21  C   UNL     1       2.740 -11.743 -14.305  1.00  0.00     0.074 A 
ATOM     22  C   UNL     1       2.372 -11.902 -12.914  1.00  0.00     0.031 C 
ATOM     23  C   UNL     1       9.120 -12.583 -14.204  1.00  0.00     0.029 A 
ATOM     24  C   UNL     1       8.284 -12.277 -15.358  1.00  0.00     0.049 A 
ATOM     25  H   UNL     1       6.216 -12.032 -15.408  1.00  0.00     0.167 HD
ATOM     26  C   UNL     1       1.868 -11.479 -15.309  1.00  0.00     0.037 A 
ATOM     27  C   UNL     1       8.732 -12.111 -16.615  1.00  0.00     0.037 A 
ATOM     28  C   UNL     1       2.251 -11.287 -16.685  1.00  0.00     0.049 A 
ATOM     29  C   UNL     1       7.744 -11.819 -17.704  1.00  0.00     0.074 A 
ATOM     30  C   UNL     1       1.449 -10.976 -17.770  1.00  0.00     0.029 A 
ATOM     31  N   UNL     1       3.550 -11.384 -17.164  1.00  0.00    -0.354 N 
ATOM     32  N   UNL     1       6.447 -11.654 -17.619  1.00  0.00    -0.248 NA
ATOM     33  C   UNL     1       8.282 -11.701 -19.064  1.00  0.00     0.031 C 
ATOM     34  C   UNL     1       2.257 -10.926 -18.912  1.00  0.00     0.029 A 
ATOM     35  C   UNL     1       3.569 -11.159 -18.532  1.00  0.00     0.049 A 
ATOM     36  H   UNL     1       4.341 -11.584 -16.613  1.00  0.00     0.167 HD
ATOM     37  C   UNL     1       6.012 -11.398 -18.910  1.00  0.00     0.074 A 
ATOM     38  C   UNL     1       7.189 -11.411 -19.756  1.00  0.00     0.031 C 
ATOM     39  C   UNL     1       4.752 -11.174 -19.355  1.00  0.00     0.037 A 
BRANCH  26  40
ATOM     40  C   UNL     1       0.407 -11.415 -14.964  1.00  0.00     0.064 A 
ATOM     41  C   UNL     1      -0.141 -10.343 -14.245  1.00  0.00     0.173 A 
ATOM     42  C   UNL     1      -0.465 -12.428 -15.395  1.00  0.00     0.173 A 
ATOM     43  F   UNL     1       0.649  -9.354 -13.800  1.00  0.00    -0.203 F 
ATOM     44  C   UNL     1      -1.502 -10.300 -13.946  1.00  0.00     0.198 A 
ATOM     45  C   UNL     1      -1.828 -12.369 -15.117  1.00  0.00     0.198 A 
ATOM     46  F   UNL     1       0.005 -13.473 -16.092  1.00  0.00    -0.203 F 
ATOM     47  F   UNL     1      -1.995  -9.288 -13.219  1.00  0.00    -0.200 F 
ATOM     48  C   UNL     1      -2.345 -11.310 -14.387  1.00  0.00     0.200 A 
ATOM     49  F   UNL     1      -2.642 -13.340 -15.554  1.00  0.00    -0.200 F 
ATOM     50  F   UNL     1      -3.653 -11.265 -14.102  1.00  0.00    -0.200 F 
ENDBRANCH  26  40
BRANCH  27  51
ATOM     51  C   UNL     1      10.186 -12.210 -16.889  1.00  0.00     0.064 A 
ATOM     52  C   UNL     1      10.933 -11.071 -17.218  1.00  0.00     0.173 A 
ATOM     53  C   UNL     1      10.867 -13.432 -16.779  1.00  0.00     0.173 A 
ATOM     54  F   UNL     1      10.322  -9.885 -17.348  1.00  0.00    -0.203 F 
ATOM     55  C   UNL     1      12.307 -11.152 -17.431  1.00  0.00     0.198 A 
ATOM     56  C   UNL     1      12.245 -13.506 -16.965  1.00  0.00     0.198 A 
ATOM     57  F   UNL     1      10.196 -14.547 -16.457  1.00  0.00    -0.203 F 
ATOM     58  F   UNL     1      12.995 -10.053 -17.770  1.00  0.00    -0.200 F 
ATOM     59  C   UNL     1      12.963 -12.367 -17.295  1.00  0.00     0.200 A 
ATOM     60  F   UNL     1      12.877 -14.677 -16.812  1.00  0.00    -0.200 F 
ATOM     61  F   UNL     1      14.287 -12.439 -17.483  1.00  0.00    -0.200 F 
ENDBRANCH  27  51
BRANCH  39  62
ATOM     62  C   UNL     1       4.593 -10.894 -20.819  1.00  0.00     0.064 A 
ATOM     63  C   UNL     1       4.722 -11.908 -21.779  1.00  0.00     0.173 A 
ATOM     64  C   UNL     1       4.295  -9.598 -21.264  1.00  0.00     0.173 A 
ATOM     65  F   UNL     1       5.025 -13.159 -21.402  1.00  0.00    -0.203 F 
ATOM     66  C   UNL     1       4.587 -11.627 -23.136  1.00  0.00     0.198 A 
ATOM     67  C   UNL     1       4.134  -9.326 -22.619  1.00  0.00     0.198 A 
ATOM     68  F   UNL     1       4.158  -8.595 -20.383  1.00  0.00    -0.203 F 
ATOM     69  F   UNL     1       4.765 -12.600 -24.040  1.00  0.00    -0.200 F 
ATOM     70  C   UNL     1       4.288 -10.339 -23.554  1.00  0.00     0.200 A 
ATOM     71  F   UNL     1       3.837  -8.083 -23.021  1.00  0.00    -0.200 F 
ATOM     72  F   UNL     1       4.160 -10.070 -24.860  1.00  0.00    -0.200 F 
ENDBRANCH  39  62
ENDBRANCH  13  14
ENDBRANCH   6   8
ENDBRANCH   3   4
ENDBRANCH   2   3
ENDBRANCH   1   2
BRANCH   1  73
ATOM     73  C   UNL     1       6.756  -8.470  -4.642  1.00  0.00     0.116 C 
BRANCH  73  74
ATOM     74  N   UNL     1       6.522  -7.042  -4.664  1.00  0.00    -0.351 N 
ATOM     75  C   UNL     1       6.359  -6.121  -3.682  1.00  0.00     0.278 C 
ATOM     76  H   UNL     1       6.470  -6.664  -5.572  1.00  0.00     0.163 HD
ATOM     77  O   UNL     1       6.261  -4.950  -4.083  1.00  0.00    -0.268 OA
BRANCH  75  78
ATOM     78  C   UNL     1       6.237  -6.384  -2.159  1.00  0.00     0.274 C 
ATOM     79  C   UNL     1       4.807  -6.085  -1.717  1.00  0.00     0.081 C 
ATOM     80  N   UNL     1       6.517  -7.751  -1.674  1.00  0.00    -0.321 N 
ATOM     81  C   UNL     1       4.125  -7.436  -1.656  1.00  0.00     0.068 C 
ATOM     82  C   UNL     1       5.242  -8.457  -1.570  1.00  0.00     0.263 C 
ATOM     83  H   UNL     1       7.117  -8.221  -2.352  1.00  0.00     0.349 HD
BRANCH  80  84
ATOM     84  C   UNL     1       7.338  -7.816  -0.443  1.00  0.00     0.307 C 
BRANCH  84  85
ATOM     85  C   UNL     1       6.686  -7.359   0.856  1.00  0.00     0.084 A 
ATOM     86  C   UNL     1       6.765  -5.998   1.206  1.00  0.00     0.017 A 
ATOM     87  C   UNL     1       5.936  -8.192   1.716  1.00  0.00     0.278 A 
ATOM     88  C   UNL     1       6.057  -5.483   2.298  1.00  0.00     0.001 A 
ATOM     89  C   UNL     1       5.196  -7.674   2.791  1.00  0.00     0.086 A 
ATOM     90  C   UNL     1       5.250  -6.313   3.071  1.00  0.00     0.007 A 
BRANCH  87  91
ATOM     91  N   UNL     1       5.902  -9.644   1.556  1.00  0.00     0.063 N 
ATOM     92  O   UNL     1       4.788 -10.188   1.569  1.00  0.00    -0.258 OA
ATOM     93  O   UNL     1       6.984 -10.233   1.445  1.00  0.00    -0.258 OA
ENDBRANCH  87  91
ENDBRANCH  84  85
ENDBRANCH  80  84
ENDBRANCH  75  78
ENDBRANCH  73  74
ENDBRANCH   1  73
TORSDOF 14
