REMARK SMILES O=C(NCCCCNC(=O)[C@H]1Cc2[nH]cnc2CN1C(=O)c1ccncc1Cl)c1ccc(-c2c3nc(c(-c4c(F)c(F)c(F)c(F)c4F)c4ccc([nH]4)c(-c4c(F)c(F)c(F)c(F)c4F)c4nc(c(-c5c(F)c(F)c(F)c(F)c5F)c5ccc2[nH]5)C=C4)C=C3)cc1
REMARK SMILES IDX 5 1 4 2 3 3 1 4 2 5 29 7 30 8 91 9 31 10 90 11 32 12 33 13
REMARK SMILES IDX 34 14 84 15 35 16 89 17 83 18 85 19 36 20 88 21 82 22 81 23
REMARK SMILES IDX 37 25 69 26 49 27 68 28 50 29 53 30 67 31 86 32 51 33 52 34
REMARK SMILES IDX 66 36 87 37 54 38 38 39 39 40 47 41 40 42 41 43 45 44 48 45
REMARK SMILES IDX 42 46 43 47 46 48 44 49 70 50 71 51 79 52 72 53 73 54 77 55
REMARK SMILES IDX 80 56 74 57 75 58 78 59 76 60 55 61 56 62 64 63 57 64 58 65
REMARK SMILES IDX 62 66 65 67 59 68 60 69 63 70 61 71 6 72 7 73 8 74 9 75
REMARK SMILES IDX 10 77 11 78 12 79 19 80 13 81 18 82 14 83 17 84 15 85 16 87
REMARK SMILES IDX 20 88 21 89 22 90 23 91 27 92 24 93 26 94 28 95 25 96
REMARK H PARENT 3 6 85 24 53 35 8 76 14 86
REMARK Flexibility Score: inf
ROOT
ATOM      1  C   UNL     1       4.617   1.407   2.037  1.00  0.00     0.023 C 
ENDROOT
BRANCH   1   2
ATOM      2  C   UNL     1       4.456   0.244   1.058  1.00  0.00     0.116 C 
BRANCH   2   3
ATOM      3  N   UNL     1       3.088  -0.190   0.865  1.00  0.00    -0.352 N 
ATOM      4  O   UNL     1       1.073  -0.520   0.022  1.00  0.00    -0.269 OA
ATOM      5  C   UNL     1       2.069   0.210   0.048  1.00  0.00     0.251 C 
ATOM      6  H   UNL     1       2.837  -0.938   1.454  1.00  0.00     0.163 HD
BRANCH   5   7
ATOM      7  C   UNL     1       2.045   1.475  -0.735  1.00  0.00     0.039 A 
ATOM      8  C   UNL     1       3.147   2.286  -1.002  1.00  0.00     0.014 A 
ATOM      9  C   UNL     1       0.782   1.882  -1.211  1.00  0.00     0.014 A 
ATOM     10  C   UNL     1       2.979   3.507  -1.648  1.00  0.00     0.010 A 
ATOM     11  C   UNL     1       0.610   3.095  -1.871  1.00  0.00     0.010 A 
ATOM     12  C   UNL     1       1.709   3.922  -2.063  1.00  0.00    -0.014 A 
BRANCH  12  13
ATOM     13  C   UNL     1       1.631   5.139  -2.865  1.00  0.00     0.031 A 
ATOM     14  C   UNL     1       2.344   5.043  -4.168  1.00  0.00     0.074 A 
ATOM     15  C   UNL     1       0.931   6.245  -2.547  1.00  0.00     0.049 A 
ATOM     16  N   UNL     1       3.401   5.689  -4.537  1.00  0.00    -0.248 NA
ATOM     17  C   UNL     1       1.900   4.021  -5.128  1.00  0.00     0.031 C 
ATOM     18  C   UNL     1      -0.045   6.424  -1.473  1.00  0.00     0.029 A 
ATOM     19  N   UNL     1       0.900   7.447  -3.196  1.00  0.00    -0.354 N 
ATOM     20  C   UNL     1       3.669   5.281  -5.841  1.00  0.00     0.074 A 
ATOM     21  C   UNL     1       2.799   4.164  -6.104  1.00  0.00     0.031 C 
ATOM     22  C   UNL     1      -0.719   7.582  -1.672  1.00  0.00     0.029 A 
ATOM     23  C   UNL     1      -0.132   8.288  -2.800  1.00  0.00     0.049 A 
ATOM     24  H   UNL     1       1.556   7.696  -3.887  1.00  0.00     0.167 HD
ATOM     25  C   UNL     1       4.444   6.035  -6.668  1.00  0.00     0.037 A 
ATOM     26  C   UNL     1      -0.501   9.454  -3.390  1.00  0.00     0.037 A 
ATOM     27  C   UNL     1       5.235   6.981  -5.924  1.00  0.00     0.049 A 
ATOM     28  C   UNL     1       0.647   9.940  -4.192  1.00  0.00     0.074 A 
ATOM     29  C   UNL     1       6.212   6.888  -4.952  1.00  0.00     0.029 A 
ATOM     30  N   UNL     1       4.816   8.287  -5.902  1.00  0.00    -0.354 N 
ATOM     31  N   UNL     1       1.748  10.410  -3.682  1.00  0.00    -0.248 NA
ATOM     32  C   UNL     1       0.728   9.530  -5.585  1.00  0.00     0.031 C 
ATOM     33  C   UNL     1       5.977   7.996  -4.084  1.00  0.00     0.029 A 
ATOM     34  C   UNL     1       4.913   8.728  -4.610  1.00  0.00     0.049 A 
ATOM     35  H   UNL     1       4.503   8.811  -6.675  1.00  0.00     0.167 HD
ATOM     36  C   UNL     1       2.745   9.929  -4.513  1.00  0.00     0.074 A 
ATOM     37  C   UNL     1       2.055   9.495  -5.724  1.00  0.00     0.031 C 
ATOM     38  C   UNL     1       3.993   9.671  -4.025  1.00  0.00     0.037 A 
BRANCH  25  39
ATOM     39  C   UNL     1       4.211   6.189  -8.152  1.00  0.00     0.064 A 
ATOM     40  C   UNL     1       5.139   6.926  -8.917  1.00  0.00     0.173 A 
ATOM     41  C   UNL     1       2.972   5.937  -8.778  1.00  0.00     0.173 A 
ATOM     42  F   UNL     1       6.345   7.237  -8.417  1.00  0.00    -0.203 F 
ATOM     43  C   UNL     1       4.811   7.455 -10.168  1.00  0.00     0.198 A 
ATOM     44  C   UNL     1       2.668   6.421 -10.050  1.00  0.00     0.198 A 
ATOM     45  F   UNL     1       1.966   5.320  -8.148  1.00  0.00    -0.203 F 
ATOM     46  F   UNL     1       5.673   8.269 -10.793  1.00  0.00    -0.200 F 
ATOM     47  C   UNL     1       3.572   7.210 -10.729  1.00  0.00     0.200 A 
ATOM     48  F   UNL     1       1.454   6.189 -10.569  1.00  0.00    -0.200 F 
ATOM     49  F   UNL     1       3.228   7.774 -11.894  1.00  0.00    -0.200 F 
ENDBRANCH  25  39
BRANCH  26  50
ATOM     50  C   UNL     1      -1.849  10.053  -3.537  1.00  0.00     0.064 A 
ATOM     51  C   UNL     1      -2.008  11.399  -3.913  1.00  0.00     0.173 A 
ATOM     52  C   UNL     1      -2.997   9.243  -3.614  1.00  0.00     0.173 A 
ATOM     53  F   UNL     1      -0.957  12.231  -3.910  1.00  0.00    -0.203 F 
ATOM     54  C   UNL     1      -3.232  11.893  -4.377  1.00  0.00     0.198 A 
ATOM     55  C   UNL     1      -4.219   9.738  -4.071  1.00  0.00     0.198 A 
ATOM     56  F   UNL     1      -2.929   7.931  -3.348  1.00  0.00    -0.203 F 
ATOM     57  F   UNL     1      -3.326  13.163  -4.796  1.00  0.00    -0.200 F 
ATOM     58  C   UNL     1      -4.333  11.058  -4.468  1.00  0.00     0.200 A 
ATOM     59  F   UNL     1      -5.267   8.911  -4.190  1.00  0.00    -0.200 F 
ATOM     60  F   UNL     1      -5.487  11.511  -4.977  1.00  0.00    -0.200 F 
ENDBRANCH  26  50
BRANCH  38  61
ATOM     61  C   UNL     1       4.347  10.230  -2.677  1.00  0.00     0.064 A 
ATOM     62  C   UNL     1       3.671   9.923  -1.482  1.00  0.00     0.173 A 
ATOM     63  C   UNL     1       5.495  11.030  -2.582  1.00  0.00     0.173 A 
ATOM     64  F   UNL     1       2.630   9.080  -1.470  1.00  0.00    -0.203 F 
ATOM     65  C   UNL     1       4.096  10.446  -0.261  1.00  0.00     0.198 A 
ATOM     66  C   UNL     1       5.940  11.513  -1.356  1.00  0.00     0.198 A 
ATOM     67  F   UNL     1       6.212  11.311  -3.681  1.00  0.00    -0.203 F 
ATOM     68  F   UNL     1       3.421  10.161   0.863  1.00  0.00    -0.200 F 
ATOM     69  C   UNL     1       5.232  11.235  -0.199  1.00  0.00     0.200 A 
ATOM     70  F   UNL     1       7.070  12.232  -1.295  1.00  0.00    -0.200 F 
ATOM     71  F   UNL     1       5.662  11.706   0.980  1.00  0.00    -0.200 F 
ENDBRANCH  38  61
ENDBRANCH  12  13
ENDBRANCH   5   7
ENDBRANCH   2   3
ENDBRANCH   1   2
BRANCH   1  72
ATOM     72  C   UNL     1       4.101   1.138   3.460  1.00  0.00     0.023 C 
BRANCH  72  73
ATOM     73  C   UNL     1       4.614  -0.152   4.097  1.00  0.00     0.116 C 
BRANCH  73  74
ATOM     74  N   UNL     1       6.059  -0.130   4.211  1.00  0.00    -0.354 N 
ATOM     75  C   UNL     1       6.863  -0.453   5.256  1.00  0.00     0.243 C 
ATOM     76  H   UNL     1       6.533   0.167   3.401  1.00  0.00     0.163 HD
ATOM     77  O   UNL     1       8.051  -0.130   5.162  1.00  0.00    -0.273 OA
BRANCH  75  78
ATOM     78  C   UNL     1       6.323  -1.075   6.554  1.00  0.00     0.181 C 
ATOM     79  C   UNL     1       5.669   0.144   7.311  1.00  0.00     0.091 C 
ATOM     80  N   UNL     1       5.471  -2.332   6.497  1.00  0.00    -0.320 N 
ATOM     81  C   UNL     1       4.679  -0.310   8.303  1.00  0.00     0.042 A 
ATOM     82  C   UNL     1       4.876  -2.765   7.789  1.00  0.00     0.178 C 
ATOM     83  N   UNL     1       3.895   0.443   9.127  1.00  0.00    -0.348 N 
ATOM     84  C   UNL     1       4.310  -1.610   8.519  1.00  0.00     0.081 A 
ATOM     85  C   UNL     1       3.116  -0.434   9.836  1.00  0.00     0.197 A 
ATOM     86  H   UNL     1       3.890   1.425   9.200  1.00  0.00     0.167 HD
ATOM     87  N   UNL     1       3.350  -1.683   9.491  1.00  0.00    -0.240 NA
BRANCH  80  88
ATOM     88  C   UNL     1       5.620  -3.421   5.614  1.00  0.00     0.256 C 
ATOM     89  O   UNL     1       5.115  -4.526   5.820  1.00  0.00    -0.269 OA
BRANCH  88  90
ATOM     90  C   UNL     1       6.251  -3.289   4.297  1.00  0.00     0.061 A 
ATOM     91  C   UNL     1       5.397  -3.372   3.188  1.00  0.00     0.035 A 
ATOM     92  C   UNL     1       7.623  -3.197   4.106  1.00  0.00     0.072 A 
ATOM     93  C   UNL     1       5.940  -3.208   1.928  1.00  0.00     0.112 A 
ATOM     94  C   UNL     1       8.062  -2.999   2.806  1.00  0.00     0.132 A 
ATOM     95  Cl  UNL     1       8.765  -3.355   5.381  1.00  0.00    -0.082 Cl
ATOM     96  N   UNL     1       7.249  -2.970   1.717  1.00  0.00    -0.263 NA
ENDBRANCH  88  90
ENDBRANCH  80  88
ENDBRANCH  75  78
ENDBRANCH  73  74
ENDBRANCH  72  73
ENDBRANCH   1  72
TORSDOF 13
