REMARK SMILES C[C@@H]1CN(C(=O)C[NH+]2CCC(CC(=O)NCCCCNC(=O)c3ccc(-c4c5nc(c(-c6c(F)c(F)c(F)c(F)c6F)c6ccc([nH]6)c(-c6c(F)c(F)c(F)c(F)c6F)c6nc(c(-c7c(F)c(F)c(F)c(F)c7F)c7ccc4[nH]7)C=C6)C=C5)cc3)CC2)C[C@@H](C)O1
REMARK SMILES IDX 17 1 16 2 15 3 13 4 14 5 12 7 11 8 8 9 9 10 87 11 10 13
REMARK SMILES IDX 86 14 7 15 5 16 1 17 2 18 3 19 91 20 4 21 89 22 88 23 90 24
REMARK SMILES IDX 6 25 18 26 19 27 20 28 21 29 22 31 23 32 24 33 85 34 25 35
REMARK SMILES IDX 84 36 26 37 27 38 28 39 78 40 29 41 83 42 77 43 79 44 30 45
REMARK SMILES IDX 82 46 76 47 75 48 31 50 63 51 43 52 62 53 44 54 47 55 61 56
REMARK SMILES IDX 80 57 45 58 46 59 60 61 81 62 48 63 32 64 33 65 41 66 34 67
REMARK SMILES IDX 35 68 39 69 42 70 36 71 37 72 40 73 38 74 64 75 65 76 73 77
REMARK SMILES IDX 66 78 67 79 71 80 74 81 68 82 69 83 72 84 70 85 49 86 50 87
REMARK SMILES IDX 58 88 51 89 52 90 56 91 59 92 53 93 54 94 57 95 55 96
REMARK H PARENT 15 6 8 12 20 30 79 49 47 60
REMARK Flexibility Score: inf
ROOT
ATOM      1  C   UNL     1       3.663   0.060  -3.734  1.00  0.00     0.023 C 
ENDROOT
BRANCH   1   2
ATOM      2  C   UNL     1       3.728  -0.958  -4.884  1.00  0.00     0.116 C 
BRANCH   2   3
ATOM      3  N   UNL     1       4.655  -2.050  -4.611  1.00  0.00    -0.356 N 
ATOM      4  C   UNL     1       4.436  -3.363  -4.296  1.00  0.00     0.220 C 
ATOM      5  O   UNL     1       5.422  -4.080  -4.109  1.00  0.00    -0.275 OA
ATOM      6  H   UNL     1       5.605  -1.799  -4.663  1.00  0.00     0.163 HD
BRANCH   4   7
ATOM      7  C   UNL     1       3.026  -3.936  -4.152  1.00  0.00     0.104 C 
BRANCH   7   8
ATOM      8  C   UNL     1       2.473  -3.890  -2.705  1.00  0.00     0.009 C 
ATOM      9  N   UNL     1       0.283  -2.567  -1.101  1.00  0.00    -0.327 N 
ATOM     10  C   UNL     1       0.294  -4.025  -1.340  1.00  0.00     0.262 C 
ATOM     11  C   UNL     1       1.664  -2.111  -1.007  1.00  0.00     0.262 C 
ATOM     12  H   UNL     1      -0.143  -2.322  -0.207  1.00  0.00     0.348 HD
ATOM     13  C   UNL     1       1.048  -4.460  -2.616  1.00  0.00     0.066 C 
ATOM     14  C   UNL     1       2.500  -2.457  -2.214  1.00  0.00     0.066 C 
BRANCH   9  15
ATOM     15  C   UNL     1      -0.608  -1.868  -2.064  1.00  0.00     0.363 C 
BRANCH  15  16
ATOM     16  C   UNL     1      -0.198  -0.453  -2.507  1.00  0.00     0.277 C 
ATOM     17  C   UNL     1       1.146   0.682   1.210  1.00  0.00     0.040 C 
ATOM     18  C   UNL     1      -0.073   1.424   0.669  1.00  0.00     0.135 C 
ATOM     19  C   UNL     1      -0.934   0.590  -0.313  1.00  0.00     0.151 C 
ATOM     20  O   UNL     1       0.309   2.710   0.143  1.00  0.00    -0.372 OA
ATOM     21  N   UNL     1      -0.415   0.629  -1.676  1.00  0.00    -0.333 N 
ATOM     22  C   UNL     1       0.861   2.659  -1.189  1.00  0.00     0.135 C 
ATOM     23  C   UNL     1      -0.127   1.986  -2.148  1.00  0.00     0.151 C 
ATOM     24  C   UNL     1       1.178   4.086  -1.623  1.00  0.00     0.040 C 
ATOM     25  O   UNL     1       0.296  -0.299  -3.632  1.00  0.00    -0.268 OA
ENDBRANCH  15  16
ENDBRANCH   9  15
ENDBRANCH   7   8
ENDBRANCH   4   7
ENDBRANCH   2   3
ENDBRANCH   1   2
BRANCH   1  26
ATOM     26  C   UNL     1       4.750   1.116  -3.700  1.00  0.00     0.023 C 
BRANCH  26  27
ATOM     27  C   UNL     1       4.641   2.142  -4.806  1.00  0.00     0.116 C 
BRANCH  27  28
ATOM     28  N   UNL     1       3.381   2.876  -4.808  1.00  0.00    -0.352 N 
ATOM     29  C   UNL     1       3.180   4.219  -5.042  1.00  0.00     0.251 C 
ATOM     30  H   UNL     1       2.573   2.346  -4.619  1.00  0.00     0.163 HD
ATOM     31  O   UNL     1       2.075   4.724  -4.961  1.00  0.00    -0.269 OA
BRANCH  29  32
ATOM     32  C   UNL     1       4.360   5.047  -5.360  1.00  0.00     0.039 A 
ATOM     33  C   UNL     1       4.606   6.200  -4.614  1.00  0.00     0.014 A 
ATOM     34  C   UNL     1       5.265   4.614  -6.331  1.00  0.00     0.014 A 
ATOM     35  C   UNL     1       5.808   6.885  -4.797  1.00  0.00     0.010 A 
ATOM     36  C   UNL     1       6.501   5.230  -6.432  1.00  0.00     0.010 A 
ATOM     37  C   UNL     1       6.778   6.382  -5.680  1.00  0.00    -0.014 A 
BRANCH  37  38
ATOM     38  C   UNL     1       8.076   7.063  -5.889  1.00  0.00     0.031 A 
ATOM     39  C   UNL     1       8.412   7.585  -7.259  1.00  0.00     0.074 A 
ATOM     40  C   UNL     1       8.976   7.131  -4.890  1.00  0.00     0.049 A 
ATOM     41  N   UNL     1       9.535   8.084  -7.706  1.00  0.00    -0.248 NA
ATOM     42  C   UNL     1       7.351   7.489  -8.277  1.00  0.00     0.031 C 
ATOM     43  C   UNL     1       8.783   6.611  -3.535  1.00  0.00     0.029 A 
ATOM     44  N   UNL     1      10.244   7.653  -4.867  1.00  0.00    -0.354 N 
ATOM     45  C   UNL     1       9.323   8.328  -9.056  1.00  0.00     0.074 A 
ATOM     46  C   UNL     1       7.991   7.866  -9.372  1.00  0.00     0.031 C 
ATOM     47  C   UNL     1       9.884   6.862  -2.807  1.00  0.00     0.029 A 
ATOM     48  C   UNL     1      10.873   7.523  -3.653  1.00  0.00     0.049 A 
ATOM     49  H   UNL     1      10.664   8.081  -5.648  1.00  0.00     0.167 HD
ATOM     50  C   UNL     1      10.156   8.916  -9.946  1.00  0.00     0.037 A 
ATOM     51  C   UNL     1      12.111   7.893  -3.274  1.00  0.00     0.037 A 
ATOM     52  C   UNL     1      11.459   9.421  -9.611  1.00  0.00     0.049 A 
ATOM     53  C   UNL     1      13.008   8.569  -4.277  1.00  0.00     0.074 A 
ATOM     54  C   UNL     1      12.358  10.094 -10.417  1.00  0.00     0.029 A 
ATOM     55  N   UNL     1      12.042   9.315  -8.356  1.00  0.00    -0.354 N 
ATOM     56  N   UNL     1      12.777   8.851  -5.537  1.00  0.00    -0.248 NA
ATOM     57  C   UNL     1      14.335   8.985  -3.804  1.00  0.00     0.031 C 
ATOM     58  C   UNL     1      13.501  10.366  -9.659  1.00  0.00     0.029 A 
ATOM     59  C   UNL     1      13.296   9.902  -8.370  1.00  0.00     0.049 A 
ATOM     60  H   UNL     1      11.627   8.886  -7.574  1.00  0.00     0.167 HD
ATOM     61  C   UNL     1      13.913   9.503  -5.997  1.00  0.00     0.074 A 
ATOM     62  C   UNL     1      14.828   9.586  -4.877  1.00  0.00     0.031 C 
ATOM     63  C   UNL     1      14.178   9.988  -7.235  1.00  0.00     0.037 A 
BRANCH  50  64
ATOM     64  C   UNL     1       9.671   9.057 -11.359  1.00  0.00     0.064 A 
ATOM     65  C   UNL     1       8.632   9.939 -11.695  1.00  0.00     0.173 A 
ATOM     66  C   UNL     1      10.267   8.321 -12.393  1.00  0.00     0.173 A 
ATOM     67  F   UNL     1       8.017  10.653 -10.740  1.00  0.00    -0.203 F 
ATOM     68  C   UNL     1       8.187  10.054 -13.009  1.00  0.00     0.198 A 
ATOM     69  C   UNL     1       9.840   8.463 -13.711  1.00  0.00     0.198 A 
ATOM     70  F   UNL     1      11.265   7.465 -12.127  1.00  0.00    -0.203 F 
ATOM     71  F   UNL     1       7.156  10.861 -13.296  1.00  0.00    -0.200 F 
ATOM     72  C   UNL     1       8.796   9.323 -14.017  1.00  0.00     0.200 A 
ATOM     73  F   UNL     1      10.437   7.763 -14.686  1.00  0.00    -0.200 F 
ATOM     74  F   UNL     1       8.371   9.440 -15.282  1.00  0.00    -0.200 F 
ENDBRANCH  50  64
BRANCH  51  75
ATOM     75  C   UNL     1      12.565   7.664  -1.878  1.00  0.00     0.064 A 
ATOM     76  C   UNL     1      12.756   8.741  -1.000  1.00  0.00     0.173 A 
ATOM     77  C   UNL     1      12.829   6.375  -1.394  1.00  0.00     0.173 A 
ATOM     78  F   UNL     1      12.536   9.995  -1.423  1.00  0.00    -0.203 F 
ATOM     79  C   UNL     1      13.216   8.540   0.299  1.00  0.00     0.198 A 
ATOM     80  C   UNL     1      13.263   6.172  -0.085  1.00  0.00     0.198 A 
ATOM     81  F   UNL     1      12.657   5.310  -2.191  1.00  0.00    -0.203 F 
ATOM     82  F   UNL     1      13.436   9.591   1.100  1.00  0.00    -0.200 F 
ATOM     83  C   UNL     1      13.465   7.255   0.758  1.00  0.00     0.200 A 
ATOM     84  F   UNL     1      13.489   4.928   0.359  1.00  0.00    -0.200 F 
ATOM     85  F   UNL     1      13.907   7.061   2.007  1.00  0.00    -0.200 F 
ENDBRANCH  51  75
BRANCH  63  86
ATOM     86  C   UNL     1      15.489  10.690  -7.432  1.00  0.00     0.064 A 
ATOM     87  C   UNL     1      16.699   9.986  -7.483  1.00  0.00     0.173 A 
ATOM     88  C   UNL     1      15.524  12.079  -7.623  1.00  0.00     0.173 A 
ATOM     89  F   UNL     1      16.717   8.658  -7.293  1.00  0.00    -0.203 F 
ATOM     90  C   UNL     1      17.903  10.651  -7.697  1.00  0.00     0.198 A 
ATOM     91  C   UNL     1      16.726  12.737  -7.865  1.00  0.00     0.198 A 
ATOM     92  F   UNL     1      14.390  12.796  -7.590  1.00  0.00    -0.203 F 
ATOM     93  F   UNL     1      19.054   9.965  -7.700  1.00  0.00    -0.200 F 
ATOM     94  C   UNL     1      17.914  12.024  -7.895  1.00  0.00     0.200 A 
ATOM     95  F   UNL     1      16.733  14.062  -8.071  1.00  0.00    -0.200 F 
ATOM     96  F   UNL     1      19.073  12.661  -8.110  1.00  0.00    -0.200 F 
ENDBRANCH  63  86
ENDBRANCH  37  38
ENDBRANCH  29  32
ENDBRANCH  27  28
ENDBRANCH  26  27
ENDBRANCH   1  26
TORSDOF 14
