REMARK SMILES Cc1cc(C)c(C(=O)N2CCC(CC(=O)NCCCCNC(=O)c3ccc(-c4c5nc(c(-c6c(F)c(F)c(F)c(F)c6F)c6ccc([nH]6)c(-c6c(F)c(F)c(F)c(F)c6F)c6nc(c(-c7c(F)c(F)c(F)c(F)c7F)c7ccc4[nH]7)C=C6)C=C5)cc3)CC2)c(C)c1
REMARK SMILES IDX 18 1 17 2 16 3 14 4 15 5 13 7 12 8 7 9 8 10 9 11 10 12 88 13
REMARK SMILES IDX 11 14 87 15 6 16 1 17 2 18 3 19 91 20 4 21 89 22 5 23 90 24
REMARK SMILES IDX 19 25 20 26 21 27 22 28 23 30 24 31 25 32 86 33 26 34 85 35
REMARK SMILES IDX 27 36 28 37 29 38 79 39 30 40 84 41 78 42 80 43 31 44 83 45
REMARK SMILES IDX 77 46 76 47 32 49 64 50 44 51 63 52 45 53 48 54 62 55 81 56
REMARK SMILES IDX 46 57 47 58 61 60 82 61 49 62 33 63 34 64 42 65 35 66 36 67
REMARK SMILES IDX 40 68 43 69 37 70 38 71 41 72 39 73 65 74 66 75 74 76 67 77
REMARK SMILES IDX 68 78 72 79 75 80 69 81 70 82 73 83 71 84 50 85 51 86 59 87
REMARK SMILES IDX 52 88 53 89 57 90 60 91 54 92 55 93 58 94 56 95
REMARK H PARENT 16 6 21 29 80 48 48 59
REMARK Flexibility Score: inf
ROOT
ATOM      1  C   UNL     1      -2.723  -6.944  -3.024  1.00  0.00     0.023 C 
ENDROOT
BRANCH   1   2
ATOM      2  C   UNL     1      -3.282  -7.883  -1.933  1.00  0.00     0.116 C 
BRANCH   2   3
ATOM      3  N   UNL     1      -2.222  -8.582  -1.213  1.00  0.00    -0.356 N 
ATOM      4  C   UNL     1      -1.710  -8.432   0.046  1.00  0.00     0.220 C 
ATOM      5  O   UNL     1      -0.760  -9.158   0.356  1.00  0.00    -0.275 OA
ATOM      6  H   UNL     1      -1.793  -9.299  -1.734  1.00  0.00     0.163 HD
BRANCH   4   7
ATOM      7  C   UNL     1      -2.245  -7.398   1.049  1.00  0.00     0.103 C 
BRANCH   7   8
ATOM      8  C   UNL     1      -1.551  -6.024   0.914  1.00  0.00     0.002 C 
ATOM      9  C   UNL     1      -1.591  -1.823   0.006  1.00  0.00     0.254 C 
ATOM     10  O   UNL     1      -2.493  -1.543  -0.790  1.00  0.00    -0.269 OA
ATOM     11  N   UNL     1      -1.413  -3.146   0.394  1.00  0.00    -0.339 N 
ATOM     12  C   UNL     1      -1.419  -4.079  -0.702  1.00  0.00     0.120 C 
ATOM     13  C   UNL     1      -1.106  -3.653   1.738  1.00  0.00     0.120 C 
ATOM     14  C   UNL     1      -2.050  -5.385  -0.359  1.00  0.00     0.026 C 
ATOM     15  C   UNL     1      -1.798  -5.011   2.045  1.00  0.00     0.026 C 
BRANCH   9  16
ATOM     16  C   UNL     1      -0.584  -0.753   0.319  1.00  0.00     0.045 A 
ATOM     17  C   UNL     1       2.175   2.593   0.121  1.00  0.00     0.044 C 
ATOM     18  C   UNL     1       1.225   1.442   0.252  1.00  0.00    -0.051 A 
ATOM     19  C   UNL     1      -0.148   1.660   0.339  1.00  0.00     0.007 A 
ATOM     20  C   UNL     1       1.694   0.133   0.245  1.00  0.00     0.007 A 
ATOM     21  C   UNL     1      -1.060   0.587   0.391  1.00  0.00    -0.038 A 
ATOM     22  C   UNL     1       0.818  -0.972   0.240  1.00  0.00    -0.038 A 
ATOM     23  C   UNL     1      -2.525   0.954   0.395  1.00  0.00     0.045 C 
ATOM     24  C   UNL     1       1.498  -2.302   0.083  1.00  0.00     0.045 C 
ENDBRANCH   9  16
ENDBRANCH   7   8
ENDBRANCH   4   7
ENDBRANCH   2   3
ENDBRANCH   1   2
BRANCH   1  25
ATOM     25  C   UNL     1      -2.718  -7.463  -4.446  1.00  0.00     0.023 C 
BRANCH  25  26
ATOM     26  C   UNL     1      -4.089  -7.671  -5.049  1.00  0.00     0.116 C 
BRANCH  26  27
ATOM     27  N   UNL     1      -4.878  -6.451  -5.184  1.00  0.00    -0.352 N 
ATOM     28  C   UNL     1      -5.604  -6.024  -6.275  1.00  0.00     0.251 C 
ATOM     29  H   UNL     1      -4.894  -5.859  -4.398  1.00  0.00     0.163 HD
ATOM     30  O   UNL     1      -6.187  -4.946  -6.271  1.00  0.00    -0.269 OA
BRANCH  28  31
ATOM     31  C   UNL     1      -5.615  -6.873  -7.483  1.00  0.00     0.039 A 
ATOM     32  C   UNL     1      -5.214  -6.323  -8.701  1.00  0.00     0.014 A 
ATOM     33  C   UNL     1      -5.869  -8.241  -7.365  1.00  0.00     0.014 A 
ATOM     34  C   UNL     1      -4.952  -7.170  -9.779  1.00  0.00     0.010 A 
ATOM     35  C   UNL     1      -5.499  -9.087  -8.399  1.00  0.00     0.010 A 
ATOM     36  C   UNL     1      -5.029  -8.562  -9.614  1.00  0.00    -0.014 A 
BRANCH  36  37
ATOM     37  C   UNL     1      -4.628  -9.505 -10.685  1.00  0.00     0.031 A 
ATOM     38  C   UNL     1      -5.639 -10.478 -11.223  1.00  0.00     0.074 A 
ATOM     39  C   UNL     1      -3.344  -9.565 -11.089  1.00  0.00     0.049 A 
ATOM     40  N   UNL     1      -5.467 -11.492 -12.031  1.00  0.00    -0.248 NA
ATOM     41  C   UNL     1      -7.023 -10.315 -10.749  1.00  0.00     0.031 C 
ATOM     42  C   UNL     1      -2.258  -8.712 -10.601  1.00  0.00     0.029 A 
ATOM     43  N   UNL     1      -2.729 -10.396 -11.992  1.00  0.00    -0.354 N 
ATOM     44  C   UNL     1      -6.709 -12.101 -12.134  1.00  0.00     0.074 A 
ATOM     45  C   UNL     1      -7.612 -11.383 -11.263  1.00  0.00     0.031 C 
ATOM     46  C   UNL     1      -1.117  -9.050 -11.225  1.00  0.00     0.029 A 
ATOM     47  C   UNL     1      -1.379 -10.171 -12.122  1.00  0.00     0.049 A 
ATOM     48  H   UNL     1      -3.209 -11.090 -12.499  1.00  0.00     0.167 HD
ATOM     49  C   UNL     1      -7.071 -13.150 -12.909  1.00  0.00     0.037 A 
ATOM     50  C   UNL     1      -0.458 -10.808 -12.869  1.00  0.00     0.037 A 
ATOM     51  C   UNL     1      -6.182 -13.824 -13.814  1.00  0.00     0.049 A 
ATOM     52  C   UNL     1      -0.887 -11.968 -13.726  1.00  0.00     0.074 A 
ATOM     53  C   UNL     1      -6.471 -14.831 -14.717  1.00  0.00     0.029 A 
ATOM     54  N   UNL     1      -4.827 -13.552 -13.933  1.00  0.00    -0.354 N 
ATOM     55  N   UNL     1      -2.079 -12.492 -13.871  1.00  0.00    -0.248 NA
ATOM     56  C   UNL     1       0.160 -12.630 -14.518  1.00  0.00     0.031 C 
ATOM     57  C   UNL     1      -5.282 -15.196 -15.356  1.00  0.00     0.029 A 
ATOM     58  C   UNL     1      -4.260 -14.392 -14.876  1.00  0.00     0.049 A 
ATOM     59  H   UNL     1      -4.341 -12.864 -13.423  1.00  0.00     0.167 HD
ATOM     60  C   UNL     1      -1.932 -13.533 -14.777  1.00  0.00     0.074 A 
ATOM     61  C   UNL     1      -0.537 -13.555 -15.164  1.00  0.00     0.031 C 
ATOM     62  C   UNL     1      -2.867 -14.396 -15.243  1.00  0.00     0.037 A 
BRANCH  49  63
ATOM     63  C   UNL     1      -8.492 -13.618 -12.819  1.00  0.00     0.064 A 
ATOM     64  C   UNL     1      -9.552 -12.850 -13.325  1.00  0.00     0.173 A 
ATOM     65  C   UNL     1      -8.798 -14.857 -12.237  1.00  0.00     0.173 A 
ATOM     66  F   UNL     1      -9.314 -11.650 -13.875  1.00  0.00    -0.203 F 
ATOM     67  C   UNL     1     -10.868 -13.292 -13.224  1.00  0.00     0.198 A 
ATOM     68  C   UNL     1     -10.113 -15.309 -12.165  1.00  0.00     0.198 A 
ATOM     69  F   UNL     1      -7.821 -15.630 -11.740  1.00  0.00    -0.203 F 
ATOM     70  F   UNL     1     -11.868 -12.517 -13.666  1.00  0.00    -0.200 F 
ATOM     71  C   UNL     1     -11.147 -14.523 -12.651  1.00  0.00     0.200 A 
ATOM     72  F   UNL     1     -10.380 -16.504 -11.619  1.00  0.00    -0.200 F 
ATOM     73  F   UNL     1     -12.414 -14.949 -12.558  1.00  0.00    -0.200 F 
ENDBRANCH  49  63
BRANCH  50  74
ATOM     74  C   UNL     1       0.958 -10.357 -12.851  1.00  0.00     0.064 A 
ATOM     75  C   UNL     1       1.522  -9.723 -13.967  1.00  0.00     0.173 A 
ATOM     76  C   UNL     1       1.776 -10.551 -11.729  1.00  0.00     0.173 A 
ATOM     77  F   UNL     1       0.787  -9.536 -15.073  1.00  0.00    -0.203 F 
ATOM     78  C   UNL     1       2.855  -9.314 -13.967  1.00  0.00     0.198 A 
ATOM     79  C   UNL     1       3.101 -10.120 -11.720  1.00  0.00     0.198 A 
ATOM     80  F   UNL     1       1.284 -11.151 -10.635  1.00  0.00    -0.203 F 
ATOM     81  F   UNL     1       3.379  -8.747 -15.061  1.00  0.00    -0.200 F 
ATOM     82  C   UNL     1       3.641  -9.508 -12.841  1.00  0.00     0.200 A 
ATOM     83  F   UNL     1       3.855 -10.299 -10.627  1.00  0.00    -0.200 F 
ATOM     84  F   UNL     1       4.921  -9.112 -12.840  1.00  0.00    -0.200 F 
ENDBRANCH  50  74
BRANCH  62  85
ATOM     85  C   UNL     1      -2.415 -15.432 -16.227  1.00  0.00     0.064 A 
ATOM     86  C   UNL     1      -1.671 -16.547 -15.819  1.00  0.00     0.173 A 
ATOM     87  C   UNL     1      -2.784 -15.341 -17.578  1.00  0.00     0.173 A 
ATOM     88  F   UNL     1      -1.282 -16.668 -14.540  1.00  0.00    -0.203 F 
ATOM     89  C   UNL     1      -1.301 -17.531 -16.731  1.00  0.00     0.198 A 
ATOM     90  C   UNL     1      -2.434 -16.339 -18.482  1.00  0.00     0.198 A 
ATOM     91  F   UNL     1      -3.501 -14.295 -18.014  1.00  0.00    -0.203 F 
ATOM     92  F   UNL     1      -0.562 -18.573 -16.326  1.00  0.00    -0.200 F 
ATOM     93  C   UNL     1      -1.690 -17.431 -18.059  1.00  0.00     0.200 A 
ATOM     94  F   UNL     1      -2.821 -16.248 -19.761  1.00  0.00    -0.200 F 
ATOM     95  F   UNL     1      -1.344 -18.386 -18.933  1.00  0.00    -0.200 F 
ENDBRANCH  62  85
ENDBRANCH  36  37
ENDBRANCH  28  31
ENDBRANCH  26  27
ENDBRANCH  25  26
ENDBRANCH   1  25
TORSDOF 13
