REMARK SMILES Cc1coc2c(C)c3oc(=O)c(CC(=O)NCC(=O)N[C@H](C(=O)NCCCCNC(=O)c4ccc(-c5c6nc(c(-c7c(F)c(F)c(F)c(F)c7F)c7ccc([nH]7)c(-c7c(F)c(F)c(F)c(F)c7F)c7nc(c(-c8c(F)c(F)c(F)c(F)c8F)c8ccc5[nH]8)C=C7)C=C6)cc4)C(C)C)c(C)c3cc12
REMARK SMILES IDX 25 1 24 2 22 3 23 4 21 6 20 7 18 8 19 9 17 11 16 12 14 13
REMARK SMILES IDX 15 14 13 16 12 17 1 18 2 19 3 20 102 21 4 22 5 23 101 24
REMARK SMILES IDX 6 25 100 26 7 27 8 28 98 29 9 30 99 31 10 32 11 33 95 34
REMARK SMILES IDX 96 35 97 36 26 37 27 38 28 39 29 40 30 41 31 43 32 44 33 45
REMARK SMILES IDX 94 46 34 47 93 48 35 49 36 50 37 51 87 52 38 53 92 54 86 55
REMARK SMILES IDX 88 56 39 57 91 58 85 59 84 60 40 62 72 63 52 64 71 65 53 66
REMARK SMILES IDX 56 67 70 68 89 69 54 70 55 71 69 73 90 74 57 75 41 76 42 77
REMARK SMILES IDX 50 78 43 79 44 80 48 81 51 82 45 83 46 84 49 85 47 86 73 87
REMARK SMILES IDX 74 88 82 89 75 90 76 91 80 92 83 93 77 94 78 95 81 96 79 97
REMARK SMILES IDX 58 98 59 99 67 100 60 101 61 102 65 103 68 104 62 105 63 106
REMARK SMILES IDX 66 107 64 108
REMARK H PARENT 24 5 20 10 16 15 29 42 88 61 56 72
REMARK Flexibility Score: inf
ROOT
ATOM      1  C   UNL     1      -4.641  -3.622  -1.375  1.00  0.00     0.116 C 
ENDROOT
BRANCH   1   2
ATOM      2  N   UNL     1      -5.116  -2.271  -1.181  1.00  0.00    -0.354 N 
ATOM      3  C   UNL     1      -4.564  -1.042  -1.331  1.00  0.00     0.242 C 
ATOM      4  O   UNL     1      -5.297  -0.116  -0.946  1.00  0.00    -0.273 OA
ATOM      5  H   UNL     1      -6.050  -2.235  -0.870  1.00  0.00     0.163 HD
BRANCH   3   6
ATOM      6  C   UNL     1      -3.173  -0.704  -1.995  1.00  0.00     0.173 C 
BRANCH   6   7
ATOM      7  N   UNL     1      -2.911   0.662  -1.491  1.00  0.00    -0.343 N 
ATOM      8  C   UNL     1      -2.307   1.785  -1.935  1.00  0.00     0.240 C 
ATOM      9  O   UNL     1      -2.488   2.792  -1.235  1.00  0.00    -0.273 OA
ATOM     10  H   UNL     1      -3.276   0.786  -0.586  1.00  0.00     0.164 HD
BRANCH   8  11
ATOM     11  C   UNL     1      -1.550   1.950  -3.263  1.00  0.00     0.216 C 
BRANCH  11  12
ATOM     12  N   UNL     1      -0.832   0.857  -3.888  1.00  0.00    -0.347 N 
ATOM     13  C   UNL     1      -0.927   0.178  -5.050  1.00  0.00     0.225 C 
ATOM     14  O   UNL     1       0.029  -0.573  -5.293  1.00  0.00    -0.275 OA
ATOM     15  H   UNL     1      -0.093   0.529  -3.326  1.00  0.00     0.164 HD
BRANCH  13  16
ATOM     16  C   UNL     1      -2.052   0.280  -6.081  1.00  0.00     0.143 C 
BRANCH  16  17
ATOM     17  C   UNL     1      -3.490   0.285  -5.617  1.00  0.00     0.051 A 
ATOM     18  C   UNL     1      -8.823  -3.677  -3.156  1.00  0.00     0.048 C 
ATOM     19  C   UNL     1      -8.797  -2.209  -3.355  1.00  0.00    -0.005 A 
ATOM     20  C   UNL     1      -9.797  -1.320  -3.017  1.00  0.00     0.199 A 
ATOM     21  C   UNL     1      -7.748  -1.410  -3.909  1.00  0.00     0.024 A 
ATOM     22  O   UNL     1      -9.416  -0.043  -3.261  1.00  0.00    -0.464 OA
ATOM     23  C   UNL     1      -8.158  -0.090  -3.780  1.00  0.00     0.140 A 
ATOM     24  C   UNL     1      -6.484  -1.665  -4.483  1.00  0.00     0.024 A 
ATOM     25  C   UNL     1      -7.387   1.020  -4.125  1.00  0.00     0.036 A 
ATOM     26  C   UNL     1      -5.658  -0.596  -4.884  1.00  0.00     0.022 A 
ATOM     27  C   UNL     1      -7.870   2.424  -3.933  1.00  0.00     0.052 C 
ATOM     28  C   UNL     1      -6.127   0.704  -4.674  1.00  0.00     0.145 A 
ATOM     29  C   UNL     1      -4.299  -0.791  -5.455  1.00  0.00    -0.029 A 
ATOM     30  O   UNL     1      -5.319   1.803  -5.018  1.00  0.00    -0.422 OA
ATOM     31  C   UNL     1      -3.912  -2.211  -5.793  1.00  0.00     0.046 C 
ATOM     32  C   UNL     1      -4.048   1.660  -5.519  1.00  0.00     0.340 A 
ATOM     33  O   UNL     1      -3.407   2.641  -5.883  1.00  0.00    -0.246 OA
ENDBRANCH  16  17
ENDBRANCH  13  16
ENDBRANCH  11  12
ENDBRANCH   8  11
ENDBRANCH   6   7
BRANCH   6  34
ATOM     34  C   UNL     1      -2.026  -1.708  -1.726  1.00  0.00     0.015 C 
ATOM     35  C   UNL     1      -1.677  -2.510  -2.990  1.00  0.00     0.010 C 
ATOM     36  C   UNL     1      -0.741  -1.109  -1.151  1.00  0.00     0.010 C 
ENDBRANCH   6  34
ENDBRANCH   3   6
ENDBRANCH   1   2
BRANCH   1  37
ATOM     37  C   UNL     1      -4.028  -4.210  -0.096  1.00  0.00     0.023 C 
BRANCH  37  38
ATOM     38  C   UNL     1      -4.856  -5.325   0.551  1.00  0.00     0.023 C 
BRANCH  38  39
ATOM     39  C   UNL     1      -4.983  -6.569  -0.314  1.00  0.00     0.116 C 
BRANCH  39  40
ATOM     40  N   UNL     1      -3.716  -7.262  -0.546  1.00  0.00    -0.352 N 
ATOM     41  C   UNL     1      -3.549  -8.402  -1.308  1.00  0.00     0.251 C 
ATOM     42  H   UNL     1      -2.913  -6.882  -0.123  1.00  0.00     0.163 HD
ATOM     43  O   UNL     1      -2.554  -9.112  -1.232  1.00  0.00    -0.269 OA
BRANCH  41  44
ATOM     44  C   UNL     1      -4.621  -8.710  -2.261  1.00  0.00     0.039 A 
ATOM     45  C   UNL     1      -5.354  -9.896  -2.187  1.00  0.00     0.014 A 
ATOM     46  C   UNL     1      -4.980  -7.673  -3.119  1.00  0.00     0.014 A 
ATOM     47  C   UNL     1      -6.511 -10.006  -2.952  1.00  0.00     0.010 A 
ATOM     48  C   UNL     1      -6.196  -7.725  -3.744  1.00  0.00     0.010 A 
ATOM     49  C   UNL     1      -6.934  -8.908  -3.718  1.00  0.00    -0.014 A 
BRANCH  49  50
ATOM     50  C   UNL     1      -8.177  -8.956  -4.476  1.00  0.00     0.031 A 
ATOM     51  C   UNL     1      -9.418  -9.283  -3.710  1.00  0.00     0.074 A 
ATOM     52  C   UNL     1      -8.227  -8.523  -5.755  1.00  0.00     0.049 A 
ATOM     53  N   UNL     1     -10.222 -10.280  -3.887  1.00  0.00    -0.248 NA
ATOM     54  C   UNL     1      -9.774  -8.437  -2.558  1.00  0.00     0.031 C 
ATOM     55  C   UNL     1      -7.179  -7.888  -6.567  1.00  0.00     0.029 A 
ATOM     56  N   UNL     1      -9.302  -8.475  -6.580  1.00  0.00    -0.354 N 
ATOM     57  C   UNL     1     -11.264 -10.121  -2.973  1.00  0.00     0.074 A 
ATOM     58  C   UNL     1     -10.880  -9.036  -2.107  1.00  0.00     0.031 C 
ATOM     59  C   UNL     1      -7.734  -7.303  -7.650  1.00  0.00     0.029 A 
ATOM     60  C   UNL     1      -9.128  -7.689  -7.709  1.00  0.00     0.049 A 
ATOM     61  H   UNL     1     -10.138  -8.960  -6.393  1.00  0.00     0.167 HD
ATOM     62  C   UNL     1     -12.447 -10.788  -3.107  1.00  0.00     0.037 A 
ATOM     63  C   UNL     1     -10.089  -7.357  -8.603  1.00  0.00     0.037 A 
ATOM     64  C   UNL     1     -12.327 -11.895  -4.017  1.00  0.00     0.049 A 
ATOM     65  C   UNL     1     -11.179  -8.358  -8.455  1.00  0.00     0.074 A 
ATOM     66  C   UNL     1     -11.588 -13.062  -4.021  1.00  0.00     0.029 A 
ATOM     67  N   UNL     1     -12.742 -11.723  -5.315  1.00  0.00    -0.354 N 
ATOM     68  N   UNL     1     -11.037  -9.623  -8.747  1.00  0.00    -0.248 NA
ATOM     69  C   UNL     1     -12.250  -8.046  -7.520  1.00  0.00     0.031 C 
ATOM     70  C   UNL     1     -11.156 -13.213  -5.372  1.00  0.00     0.029 A 
ATOM     71  C   UNL     1     -11.721 -12.175  -6.114  1.00  0.00     0.049 A 
ATOM     72  H   UNL     1     -13.602 -11.348  -5.614  1.00  0.00     0.167 HD
ATOM     73  C   UNL     1     -11.713 -10.299  -7.742  1.00  0.00     0.074 A 
ATOM     74  C   UNL     1     -12.489  -9.273  -7.047  1.00  0.00     0.031 C 
ATOM     75  C   UNL     1     -11.365 -11.568  -7.375  1.00  0.00     0.037 A 
BRANCH  62  76
ATOM     76  C   UNL     1     -13.789 -10.277  -2.651  1.00  0.00     0.064 A 
ATOM     77  C   UNL     1     -14.901 -11.144  -2.629  1.00  0.00     0.173 A 
ATOM     78  C   UNL     1     -14.082  -8.905  -2.517  1.00  0.00     0.173 A 
ATOM     79  F   UNL     1     -14.738 -12.468  -2.771  1.00  0.00    -0.203 F 
ATOM     80  C   UNL     1     -16.211 -10.663  -2.546  1.00  0.00     0.198 A 
ATOM     81  C   UNL     1     -15.388  -8.432  -2.384  1.00  0.00     0.198 A 
ATOM     82  F   UNL     1     -13.132  -7.967  -2.622  1.00  0.00    -0.203 F 
ATOM     83  F   UNL     1     -17.242 -11.514  -2.645  1.00  0.00    -0.200 F 
ATOM     84  C   UNL     1     -16.453  -9.307  -2.429  1.00  0.00     0.200 A 
ATOM     85  F   UNL     1     -15.603  -7.112  -2.292  1.00  0.00    -0.200 F 
ATOM     86  F   UNL     1     -17.708  -8.838  -2.408  1.00  0.00    -0.200 F 
ENDBRANCH  62  76
BRANCH  63  87
ATOM     87  C   UNL     1     -10.287  -6.032  -9.235  1.00  0.00     0.064 A 
ATOM     88  C   UNL     1     -11.126  -5.886 -10.350  1.00  0.00     0.173 A 
ATOM     89  C   UNL     1      -9.886  -4.845  -8.589  1.00  0.00     0.173 A 
ATOM     90  F   UNL     1     -11.583  -6.970 -10.992  1.00  0.00    -0.203 F 
ATOM     91  C   UNL     1     -11.565  -4.628 -10.775  1.00  0.00     0.198 A 
ATOM     92  C   UNL     1     -10.321  -3.590  -9.018  1.00  0.00     0.198 A 
ATOM     93  F   UNL     1      -9.143  -4.883  -7.473  1.00  0.00    -0.203 F 
ATOM     94  F   UNL     1     -12.417  -4.530 -11.805  1.00  0.00    -0.200 F 
ATOM     95  C   UNL     1     -11.172  -3.482 -10.101  1.00  0.00     0.200 A 
ATOM     96  F   UNL     1      -9.961  -2.494  -8.334  1.00  0.00    -0.200 F 
ATOM     97  F   UNL     1     -11.646  -2.283 -10.467  1.00  0.00    -0.200 F 
ENDBRANCH  63  87
BRANCH  75  98
ATOM     98  C   UNL     1     -10.350 -12.300  -8.211  1.00  0.00     0.064 A 
ATOM     99  C   UNL     1      -9.012 -11.891  -8.356  1.00  0.00     0.173 A 
ATOM    100  C   UNL     1     -10.694 -13.551  -8.737  1.00  0.00     0.173 A 
ATOM    101  F   UNL     1      -8.572 -10.760  -7.794  1.00  0.00    -0.203 F 
ATOM    102  C   UNL     1      -8.077 -12.679  -9.026  1.00  0.00     0.198 A 
ATOM    103  C   UNL     1      -9.751 -14.353  -9.376  1.00  0.00     0.198 A 
ATOM    104  F   UNL     1     -11.940 -14.025  -8.578  1.00  0.00    -0.203 F 
ATOM    105  F   UNL     1      -6.808 -12.261  -9.148  1.00  0.00    -0.200 F 
ATOM    106  C   UNL     1      -8.446 -13.914  -9.528  1.00  0.00     0.200 A 
ATOM    107  F   UNL     1     -10.102 -15.570  -9.814  1.00  0.00    -0.200 F 
ATOM    108  F   UNL     1      -7.538 -14.695 -10.132  1.00  0.00    -0.200 F 
ENDBRANCH  75  98
ENDBRANCH  49  50
ENDBRANCH  41  44
ENDBRANCH  39  40
ENDBRANCH  38  39
ENDBRANCH  37  38
ENDBRANCH   1  37
TORSDOF 17
