REMARK SMILES CC(=O)Nc1ccc(/C=C2/CCc3oc(C(=O)NCCCCNC(=O)c4ccc(-c5c6nc(c(-c7c(F)c(F)c(F)c(F)c7F)c7ccc([nH]7)c(-c7c(F)c(F)c(F)c(F)c7F)c7nc(c(-c8c(F)c(F)c(F)c(F)c8F)c8ccc5[nH]8)C=C7)C=C6)cc4)c(C)c3C2=O)cc1
REMARK SMILES IDX 20 1 19 2 18 3 16 4 17 5 15 7 9 8 10 9 11 10 92 11 12 12
REMARK SMILES IDX 91 13 93 14 13 15 89 16 14 17 90 18 8 19 5 20 6 21 95 22
REMARK SMILES IDX 7 23 94 24 4 25 1 26 2 27 3 28 21 30 22 31 23 32 24 33 25 35
REMARK SMILES IDX 26 36 27 37 88 38 28 39 87 40 29 41 30 42 31 43 81 44 32 45
REMARK SMILES IDX 86 46 80 47 82 48 33 49 85 50 79 51 78 52 34 54 66 55 46 56
REMARK SMILES IDX 65 57 47 58 50 59 64 60 83 61 48 62 49 63 63 65 84 66 51 67
REMARK SMILES IDX 35 68 36 69 44 70 37 71 38 72 42 73 45 74 39 75 40 76 43 77
REMARK SMILES IDX 41 78 67 79 68 80 76 81 69 82 70 83 74 84 77 85 71 86 72 87
REMARK SMILES IDX 75 88 73 89 52 90 53 91 61 92 54 93 55 94 59 95 62 96 56 97
REMARK SMILES IDX 57 98 60 99 58 100
REMARK H PARENT 18 6 4 29 23 34 82 53 50 64
REMARK Flexibility Score: inf
ROOT
ATOM      1  C   UNL     1       3.218   9.245  10.087  1.00  0.00     0.023 C 
ENDROOT
BRANCH   1   2
ATOM      2  C   UNL     1       2.201   8.177   9.670  1.00  0.00     0.116 C 
BRANCH   2   3
ATOM      3  N   UNL     1       1.072   8.723   8.933  1.00  0.00    -0.349 N 
ATOM      4  C   UNL     1       0.742   8.705   7.591  1.00  0.00     0.287 C 
ATOM      5  O   UNL     1      -0.329   9.247   7.303  1.00  0.00    -0.266 OA
ATOM      6  H   UNL     1       0.418   9.196   9.497  1.00  0.00     0.163 HD
BRANCH   4   7
ATOM      7  C   UNL     1       1.607   8.089   6.594  1.00  0.00     0.195 A 
ATOM      8  C   UNL     1       4.275   4.661   2.897  1.00  0.00     0.016 C 
ATOM      9  C   UNL     1       4.240   5.817   3.589  1.00  0.00     0.001 C 
ATOM     10  C   UNL     1       5.272   6.113   4.674  1.00  0.00     0.048 C 
ATOM     11  C   UNL     1       3.179   6.888   3.464  1.00  0.00     0.192 C 
ATOM     12  C   UNL     1       4.607   6.193   6.059  1.00  0.00     0.081 C 
ATOM     13  C   UNL     1       2.672   7.277   4.770  1.00  0.00     0.067 A 
ATOM     14  O   UNL     1       2.848   7.407   2.417  1.00  0.00    -0.289 OA
ATOM     15  C   UNL     1       3.354   6.961   5.916  1.00  0.00     0.116 A 
ATOM     16  C   UNL     1       1.510   7.994   5.198  1.00  0.00     0.012 A 
ATOM     17  O   UNL     1       2.746   7.451   7.003  1.00  0.00    -0.455 OA
ATOM     18  C   UNL     1       0.431   8.497   4.303  1.00  0.00     0.049 C 
BRANCH   8  19
ATOM     19  C   UNL     1       3.365   4.044   1.909  1.00  0.00    -0.025 A 
ATOM     20  C   UNL     1       1.703   2.663   0.067  1.00  0.00     0.041 A 
ATOM     21  C   UNL     1       1.356   3.928   0.532  1.00  0.00     0.027 A 
ATOM     22  C   UNL     1       2.902   2.099   0.491  1.00  0.00     0.027 A 
ATOM     23  C   UNL     1       2.158   4.589   1.469  1.00  0.00     0.010 A 
ATOM     24  C   UNL     1       3.726   2.787   1.393  1.00  0.00     0.010 A 
BRANCH  20  25
ATOM     25  N   UNL     1       0.834   2.059  -0.850  1.00  0.00    -0.326 N 
ATOM     26  C   UNL     1       1.006  -0.299  -0.093  1.00  0.00     0.114 C 
ATOM     27  C   UNL     1       0.565   0.742  -1.086  1.00  0.00     0.221 C 
ATOM     28  O   UNL     1      -0.112   0.433  -2.068  1.00  0.00    -0.275 OA
ATOM     29  H   UNL     1       0.333   2.688  -1.418  1.00  0.00     0.169 HD
ENDBRANCH  20  25
ENDBRANCH   8  19
ENDBRANCH   4   7
ENDBRANCH   2   3
ENDBRANCH   1   2
BRANCH   1  30
ATOM     30  C   UNL     1       2.785  10.167  11.238  1.00  0.00     0.023 C 
BRANCH  30  31
ATOM     31  C   UNL     1       2.469   9.460  12.552  1.00  0.00     0.116 C 
BRANCH  31  32
ATOM     32  N   UNL     1       3.604   8.727  13.122  1.00  0.00    -0.352 N 
ATOM     33  C   UNL     1       3.616   7.885  14.224  1.00  0.00     0.251 C 
ATOM     34  H   UNL     1       4.468   8.848  12.665  1.00  0.00     0.163 HD
ATOM     35  O   UNL     1       4.652   7.647  14.833  1.00  0.00    -0.269 OA
BRANCH  33  36
ATOM     36  C   UNL     1       2.350   7.259  14.646  1.00  0.00     0.039 A 
ATOM     37  C   UNL     1       1.996   7.091  15.988  1.00  0.00     0.014 A 
ATOM     38  C   UNL     1       1.483   6.870  13.634  1.00  0.00     0.014 A 
ATOM     39  C   UNL     1       0.722   6.604  16.287  1.00  0.00     0.010 A 
ATOM     40  C   UNL     1       0.174   6.616  13.925  1.00  0.00     0.010 A 
ATOM     41  C   UNL     1      -0.190   6.386  15.243  1.00  0.00    -0.014 A 
BRANCH  41  42
ATOM     42  C   UNL     1      -1.574   5.999  15.484  1.00  0.00     0.031 A 
ATOM     43  C   UNL     1      -2.327   6.924  16.370  1.00  0.00     0.074 A 
ATOM     44  C   UNL     1      -2.190   5.033  14.764  1.00  0.00     0.049 A 
ATOM     45  N   UNL     1      -2.814   6.674  17.539  1.00  0.00    -0.248 NA
ATOM     46  C   UNL     1      -2.445   8.335  15.965  1.00  0.00     0.031 C 
ATOM     47  C   UNL     1      -1.666   4.265  13.625  1.00  0.00     0.029 A 
ATOM     48  N   UNL     1      -3.478   4.603  14.832  1.00  0.00    -0.354 N 
ATOM     49  C   UNL     1      -3.475   7.834  17.935  1.00  0.00     0.074 A 
ATOM     50  C   UNL     1      -3.054   8.867  17.026  1.00  0.00     0.031 C 
ATOM     51  C   UNL     1      -2.682   3.655  12.976  1.00  0.00     0.029 A 
ATOM     52  C   UNL     1      -3.895   3.835  13.748  1.00  0.00     0.049 A 
ATOM     53  H   UNL     1      -4.070   4.819  15.588  1.00  0.00     0.167 HD
ATOM     54  C   UNL     1      -4.512   7.775  18.817  1.00  0.00     0.037 A 
ATOM     55  C   UNL     1      -5.156   3.399  13.501  1.00  0.00     0.037 A 
ATOM     56  C   UNL     1      -4.514   6.516  19.523  1.00  0.00     0.049 A 
ATOM     57  C   UNL     1      -5.900   3.479  14.782  1.00  0.00     0.074 A 
ATOM     58  C   UNL     1      -3.616   5.859  20.344  1.00  0.00     0.029 A 
ATOM     59  N   UNL     1      -5.406   5.554  19.117  1.00  0.00    -0.354 N 
ATOM     60  N   UNL     1      -5.650   2.724  15.814  1.00  0.00    -0.248 NA
ATOM     61  C   UNL     1      -6.610   4.716  15.067  1.00  0.00     0.031 C 
ATOM     62  C   UNL     1      -3.720   4.482  19.979  1.00  0.00     0.029 A 
ATOM     63  C   UNL     1      -4.724   4.370  19.017  1.00  0.00     0.049 A 
ATOM     64  H   UNL     1      -6.364   5.691  18.931  1.00  0.00     0.167 HD
ATOM     65  C   UNL     1      -5.761   3.574  16.903  1.00  0.00     0.074 A 
ATOM     66  C   UNL     1      -6.441   4.762  16.391  1.00  0.00     0.031 C 
ATOM     67  C   UNL     1      -5.031   3.356  18.036  1.00  0.00     0.037 A 
BRANCH  54  68
ATOM     68  C   UNL     1      -5.737   8.661  18.758  1.00  0.00     0.064 A 
ATOM     69  C   UNL     1      -6.706   8.549  19.777  1.00  0.00     0.173 A 
ATOM     70  C   UNL     1      -6.151   9.373  17.610  1.00  0.00     0.173 A 
ATOM     71  F   UNL     1      -6.430   7.888  20.912  1.00  0.00    -0.203 F 
ATOM     72  C   UNL     1      -8.011   9.022  19.615  1.00  0.00     0.198 A 
ATOM     73  C   UNL     1      -7.438   9.892  17.475  1.00  0.00     0.198 A 
ATOM     74  F   UNL     1      -5.378   9.502  16.527  1.00  0.00    -0.203 F 
ATOM     75  F   UNL     1      -8.932   8.765  20.554  1.00  0.00    -0.200 F 
ATOM     76  C   UNL     1      -8.379   9.684  18.460  1.00  0.00     0.200 A 
ATOM     77  F   UNL     1      -7.778  10.518  16.339  1.00  0.00    -0.200 F 
ATOM     78  F   UNL     1      -9.645  10.077  18.271  1.00  0.00    -0.200 F 
ENDBRANCH  54  68
BRANCH  55  79
ATOM     79  C   UNL     1      -5.851   3.205  12.207  1.00  0.00     0.064 A 
ATOM     80  C   UNL     1      -7.060   2.490  12.142  1.00  0.00     0.173 A 
ATOM     81  C   UNL     1      -5.518   3.973  11.075  1.00  0.00     0.173 A 
ATOM     82  F   UNL     1      -7.468   1.760  13.191  1.00  0.00    -0.203 F 
ATOM     83  C   UNL     1      -7.908   2.577  11.034  1.00  0.00     0.198 A 
ATOM     84  C   UNL     1      -6.364   4.055   9.966  1.00  0.00     0.198 A 
ATOM     85  F   UNL     1      -4.418   4.739  11.064  1.00  0.00    -0.203 F 
ATOM     86  F   UNL     1      -9.088   1.942  11.043  1.00  0.00    -0.200 F 
ATOM     87  C   UNL     1      -7.567   3.373   9.954  1.00  0.00     0.200 A 
ATOM     88  F   UNL     1      -6.039   4.856   8.941  1.00  0.00    -0.200 F 
ATOM     89  F   UNL     1      -8.413   3.518   8.924  1.00  0.00    -0.200 F 
ENDBRANCH  55  79
BRANCH  67  90
ATOM     90  C   UNL     1      -4.322   2.034  18.163  1.00  0.00     0.064 A 
ATOM     91  C   UNL     1      -3.321   1.579  17.286  1.00  0.00     0.173 A 
ATOM     92  C   UNL     1      -4.597   1.240  19.284  1.00  0.00     0.173 A 
ATOM     93  F   UNL     1      -2.920   2.322  16.248  1.00  0.00    -0.203 F 
ATOM     94  C   UNL     1      -2.672   0.361  17.491  1.00  0.00     0.198 A 
ATOM     95  C   UNL     1      -3.921   0.044  19.509  1.00  0.00     0.198 A 
ATOM     96  F   UNL     1      -5.502   1.646  20.188  1.00  0.00    -0.203 F 
ATOM     97  F   UNL     1      -1.739  -0.059  16.623  1.00  0.00    -0.200 F 
ATOM     98  C   UNL     1      -2.971  -0.403  18.605  1.00  0.00     0.200 A 
ATOM     99  F   UNL     1      -4.179  -0.668  20.615  1.00  0.00    -0.200 F 
ATOM    100  F   UNL     1      -2.327  -1.559  18.821  1.00  0.00    -0.200 F 
ENDBRANCH  67  90
ENDBRANCH  41  42
ENDBRANCH  33  36
ENDBRANCH  31  32
ENDBRANCH  30  31
ENDBRANCH   1  30
TORSDOF 13
