REMARK SMILES CCc1nn2c(nnc3c(=O)n([C@H](C(=O)NCCCCNC(=O)c4ccc(-c5c6nc(c(-c7c(F)c(F)c(F)c(F)c7F)c7ccc([nH]7)c(-c7c(F)c(F)c(F)c(F)c7F)c7nc(c(-c8c(F)c(F)c(F)c(F)c8F)c8ccc5[nH]8)C=C7)C=C6)cc4)C(C)C)ccc32)c1-c1ccc(Cl)cc1
REMARK SMILES IDX 18 1 17 2 16 3 14 4 15 5 13 7 12 8 3 9 4 10 93 11 5 12 6 13
REMARK SMILES IDX 92 14 7 15 9 16 91 17 8 18 10 19 90 20 11 21 2 22 1 23 94 24
REMARK SMILES IDX 95 25 100 26 96 27 99 28 97 29 98 30 87 31 88 32 89 33 19 34
REMARK SMILES IDX 20 35 21 36 22 37 23 39 24 40 25 41 86 42 26 43 85 44 27 45
REMARK SMILES IDX 28 46 29 47 79 48 30 49 84 50 78 51 80 52 31 53 83 54 77 55
REMARK SMILES IDX 76 56 32 58 64 59 44 60 63 61 45 62 48 63 62 64 81 65 46 66
REMARK SMILES IDX 47 67 61 69 82 70 49 71 33 72 34 73 42 74 35 75 36 76 40 77
REMARK SMILES IDX 43 78 37 79 38 80 41 81 39 82 65 83 66 84 74 85 67 86 68 87
REMARK SMILES IDX 72 88 75 89 69 90 70 91 73 92 71 93 50 94 51 95 59 96 52 97
REMARK SMILES IDX 53 98 57 99 60 100 54 101 55 102 58 103 56 104
REMARK H PARENT 16 6 21 38 80 57 48 68
REMARK Flexibility Score: inf
ROOT
ATOM      1  C   UNL     1       4.843   5.133   6.417  1.00  0.00     0.023 C 
ENDROOT
BRANCH   1   2
ATOM      2  C   UNL     1       3.451   4.961   7.029  1.00  0.00     0.116 C 
BRANCH   2   3
ATOM      3  N   UNL     1       3.074   3.572   7.152  1.00  0.00    -0.354 N 
ATOM      4  C   UNL     1       3.134   2.708   8.206  1.00  0.00     0.243 C 
ATOM      5  O   UNL     1       2.612   1.602   8.014  1.00  0.00    -0.273 OA
ATOM      6  H   UNL     1       2.708   3.178   6.328  1.00  0.00     0.163 HD
BRANCH   4   7
ATOM      7  C   UNL     1       3.637   3.107   9.630  1.00  0.00     0.182 C 
BRANCH   7   8
ATOM      8  N   UNL     1       4.979   3.736   9.575  1.00  0.00    -0.301 N 
ATOM      9  C   UNL     1      10.701   6.370   9.059  1.00  0.00     0.073 A 
ATOM     10  N   UNL     1       9.376   6.495   9.244  1.00  0.00    -0.170 NA
ATOM     11  C   UNL     1      11.077   5.017   8.872  1.00  0.00     0.052 A 
ATOM     12  N   UNL     1       8.887   5.222   9.179  1.00  0.00    -0.210 N 
ATOM     13  C   UNL     1       9.898   4.309   8.914  1.00  0.00     0.186 A 
ATOM     14  C   UNL     1       7.576   4.758   9.337  1.00  0.00     0.102 A 
ATOM     15  N   UNL     1       9.620   2.982   8.779  1.00  0.00    -0.129 NA
ATOM     16  C   UNL     1       7.404   3.432   9.181  1.00  0.00     0.177 A 
ATOM     17  C   UNL     1       6.450   5.610   9.655  1.00  0.00     0.049 A 
ATOM     18  N   UNL     1       8.441   2.567   8.892  1.00  0.00    -0.141 NA
ATOM     19  C   UNL     1       6.032   2.845   9.294  1.00  0.00     0.281 A 
ATOM     20  C   UNL     1       5.220   5.089   9.771  1.00  0.00     0.092 A 
ATOM     21  O   UNL     1       5.864   1.640   9.115  1.00  0.00    -0.267 OA
BRANCH   9  22
ATOM     22  C   UNL     1      11.584   7.582   9.100  1.00  0.00     0.055 C 
ATOM     23  C   UNL     1      12.539   7.703   7.918  1.00  0.00     0.011 C 
ENDBRANCH   9  22
BRANCH  11  24
ATOM     24  C   UNL     1      12.362   4.379   8.688  1.00  0.00    -0.013 A 
ATOM     25  C   UNL     1      13.340   4.466   9.686  1.00  0.00     0.010 A 
ATOM     26  C   UNL     1      12.624   3.651   7.520  1.00  0.00     0.010 A 
ATOM     27  C   UNL     1      14.572   3.830   9.513  1.00  0.00     0.021 A 
ATOM     28  C   UNL     1      13.855   3.016   7.349  1.00  0.00     0.021 A 
ATOM     29  C   UNL     1      14.823   3.109   8.346  1.00  0.00     0.041 A 
ATOM     30  Cl  UNL     1      16.340   2.326   8.136  1.00  0.00    -0.084 Cl
ENDBRANCH  11  24
ENDBRANCH   7   8
BRANCH   7  31
ATOM     31  C   UNL     1       2.513   3.800  10.454  1.00  0.00     0.015 C 
ATOM     32  C   UNL     1       1.266   2.893  10.531  1.00  0.00     0.010 C 
ATOM     33  C   UNL     1       2.936   4.096  11.901  1.00  0.00     0.010 C 
ENDBRANCH   7  31
ENDBRANCH   4   7
ENDBRANCH   2   3
ENDBRANCH   1   2
BRANCH   1  34
ATOM     34  C   UNL     1       4.935   4.890   4.905  1.00  0.00     0.023 C 
BRANCH  34  35
ATOM     35  C   UNL     1       4.164   5.893   4.059  1.00  0.00     0.116 C 
BRANCH  35  36
ATOM     36  N   UNL     1       4.638   7.261   4.245  1.00  0.00    -0.352 N 
ATOM     37  C   UNL     1       4.102   8.423   3.729  1.00  0.00     0.251 C 
ATOM     38  H   UNL     1       5.439   7.368   4.808  1.00  0.00     0.163 HD
ATOM     39  O   UNL     1       4.772   9.437   3.623  1.00  0.00    -0.269 OA
BRANCH  37  40
ATOM     40  C   UNL     1       2.685   8.429   3.330  1.00  0.00     0.039 A 
ATOM     41  C   UNL     1       2.273   9.071   2.158  1.00  0.00     0.014 A 
ATOM     42  C   UNL     1       1.764   7.798   4.168  1.00  0.00     0.014 A 
ATOM     43  C   UNL     1       0.928   9.027   1.806  1.00  0.00     0.010 A 
ATOM     44  C   UNL     1       0.461   7.659   3.767  1.00  0.00     0.010 A 
ATOM     45  C   UNL     1       0.033   8.316   2.617  1.00  0.00    -0.014 A 
BRANCH  45  46
ATOM     46  C   UNL     1      -1.360   8.157   2.227  1.00  0.00     0.031 A 
ATOM     47  C   UNL     1      -1.559   7.361   0.986  1.00  0.00     0.074 A 
ATOM     48  C   UNL     1      -2.368   8.492   3.060  1.00  0.00     0.049 A 
ATOM     49  N   UNL     1      -2.065   7.757  -0.135  1.00  0.00    -0.248 NA
ATOM     50  C   UNL     1      -1.015   5.992   0.942  1.00  0.00     0.031 C 
ATOM     51  C   UNL     1      -2.267   8.982   4.441  1.00  0.00     0.029 A 
ATOM     52  N   UNL     1      -3.711   8.360   2.890  1.00  0.00    -0.354 N 
ATOM     53  C   UNL     1      -2.082   6.637  -0.962  1.00  0.00     0.074 A 
ATOM     54  C   UNL     1      -1.268   5.638  -0.320  1.00  0.00     0.031 C 
ATOM     55  C   UNL     1      -3.470   8.883   5.047  1.00  0.00     0.029 A 
ATOM     56  C   UNL     1      -4.453   8.476   4.061  1.00  0.00     0.049 A 
ATOM     57  H   UNL     1      -4.123   8.196   2.011  1.00  0.00     0.167 HD
ATOM     58  C   UNL     1      -2.980   6.527  -1.978  1.00  0.00     0.037 A 
ATOM     59  C   UNL     1      -5.775   8.207   4.204  1.00  0.00     0.037 A 
ATOM     60  C   UNL     1      -3.599   7.793  -2.265  1.00  0.00     0.049 A 
ATOM     61  C   UNL     1      -6.368   8.257   2.846  1.00  0.00     0.074 A 
ATOM     62  C   UNL     1      -3.169   9.010  -2.748  1.00  0.00     0.029 A 
ATOM     63  N   UNL     1      -4.808   8.020  -1.659  1.00  0.00    -0.354 N 
ATOM     64  N   UNL     1      -6.451   9.340   2.125  1.00  0.00    -0.248 NA
ATOM     65  C   UNL     1      -6.505   7.007   2.116  1.00  0.00     0.031 C 
ATOM     66  C   UNL     1      -3.946   9.985  -2.054  1.00  0.00     0.029 A 
ATOM     67  C   UNL     1      -4.855   9.319  -1.229  1.00  0.00     0.049 A 
ATOM     68  H   UNL     1      -5.527   7.356  -1.551  1.00  0.00     0.167 HD
ATOM     69  C   UNL     1      -6.212   8.914   0.828  1.00  0.00     0.074 A 
ATOM     70  C   UNL     1      -6.386   7.465   0.868  1.00  0.00     0.031 C 
ATOM     71  C   UNL     1      -5.611   9.746  -0.072  1.00  0.00     0.037 A 
BRANCH  58  72
ATOM     72  C   UNL     1      -3.600   5.225  -2.421  1.00  0.00     0.064 A 
ATOM     73  C   UNL     1      -4.332   5.174  -3.623  1.00  0.00     0.173 A 
ATOM     74  C   UNL     1      -3.751   4.110  -1.567  1.00  0.00     0.173 A 
ATOM     75  F   UNL     1      -4.306   6.206  -4.480  1.00  0.00    -0.203 F 
ATOM     76  C   UNL     1      -5.173   4.099  -3.929  1.00  0.00     0.198 A 
ATOM     77  C   UNL     1      -4.544   3.015  -1.902  1.00  0.00     0.198 A 
ATOM     78  F   UNL     1      -3.236   4.091  -0.331  1.00  0.00    -0.203 F 
ATOM     79  F   UNL     1      -5.934   4.141  -5.031  1.00  0.00    -0.200 F 
ATOM     80  C   UNL     1      -5.274   3.018  -3.071  1.00  0.00     0.200 A 
ATOM     81  F   UNL     1      -4.655   1.995  -1.039  1.00  0.00    -0.200 F 
ATOM     82  F   UNL     1      -6.111   2.009  -3.341  1.00  0.00    -0.200 F 
ENDBRANCH  58  72
BRANCH  59  83
ATOM     83  C   UNL     1      -6.477   7.558   5.342  1.00  0.00     0.064 A 
ATOM     84  C   UNL     1      -7.883   7.518   5.381  1.00  0.00     0.173 A 
ATOM     85  C   UNL     1      -5.806   6.695   6.230  1.00  0.00     0.173 A 
ATOM     86  F   UNL     1      -8.603   8.284   4.548  1.00  0.00    -0.203 F 
ATOM     87  C   UNL     1      -8.572   6.625   6.209  1.00  0.00     0.198 A 
ATOM     88  C   UNL     1      -6.496   5.811   7.062  1.00  0.00     0.198 A 
ATOM     89  F   UNL     1      -4.468   6.617   6.236  1.00  0.00    -0.203 F 
ATOM     90  F   UNL     1      -9.910   6.557   6.153  1.00  0.00    -0.200 F 
ATOM     91  C   UNL     1      -7.877   5.760   7.036  1.00  0.00     0.200 A 
ATOM     92  F   UNL     1      -5.810   4.957   7.835  1.00  0.00    -0.200 F 
ATOM     93  F   UNL     1      -8.532   4.851   7.771  1.00  0.00    -0.200 F 
ENDBRANCH  59  83
BRANCH  71  94
ATOM     94  C   UNL     1      -5.555  11.212   0.266  1.00  0.00     0.064 A 
ATOM     95  C   UNL     1      -4.821  11.758   1.334  1.00  0.00     0.173 A 
ATOM     96  C   UNL     1      -6.165  12.110  -0.620  1.00  0.00     0.173 A 
ATOM     97  F   UNL     1      -4.140  10.975   2.178  1.00  0.00    -0.203 F 
ATOM     98  C   UNL     1      -4.729  13.138   1.517  1.00  0.00     0.198 A 
ATOM     99  C   UNL     1      -6.040  13.486  -0.458  1.00  0.00     0.198 A 
ATOM    100  F   UNL     1      -6.841  11.646  -1.683  1.00  0.00    -0.203 F 
ATOM    101  F   UNL     1      -4.029  13.635   2.548  1.00  0.00    -0.200 F 
ATOM    102  C   UNL     1      -5.329  14.000   0.614  1.00  0.00     0.200 A 
ATOM    103  F   UNL     1      -6.583  14.314  -1.360  1.00  0.00    -0.200 F 
ATOM    104  F   UNL     1      -5.201  15.326   0.761  1.00  0.00    -0.200 F 
ENDBRANCH  71  94
ENDBRANCH  45  46
ENDBRANCH  37  40
ENDBRANCH  35  36
ENDBRANCH  34  35
ENDBRANCH   1  34
TORSDOF 15
