REMARK SMILES COc1cccc(-c2c(C(=O)NCCCCNC(=O)c3ccc(-c4c5nc(c(-c6c(F)c(F)c(F)c(F)c6F)c6ccc([nH]6)c(-c6c(F)c(F)c(F)c(F)c6F)c6nc(c(-c7c(F)c(F)c(F)c(F)c7F)c7ccc4[nH]7)C=C6)C=C5)cc3)nnn2-c2ccc(OC(F)(F)F)cc2)c1
REMARK SMILES IDX 14 1 13 2 12 3 10 4 11 5 9 7 8 8 85 9 83 10 84 11 7 12 3 13
REMARK SMILES IDX 4 14 97 15 5 16 6 17 2 18 1 19 86 20 87 21 96 22 88 23 95 24
REMARK SMILES IDX 89 25 90 26 91 27 92 28 93 29 94 30 15 31 16 32 17 33 18 34
REMARK SMILES IDX 19 36 20 37 21 38 82 39 22 40 81 41 23 42 24 43 25 44 75 45
REMARK SMILES IDX 26 46 80 47 74 48 76 49 27 50 79 51 73 52 72 53 28 55 60 56
REMARK SMILES IDX 40 57 59 58 41 59 44 60 58 61 77 62 42 63 43 64 57 66 78 67
REMARK SMILES IDX 45 68 29 69 30 70 38 71 31 72 32 73 36 74 39 75 33 76 34 77
REMARK SMILES IDX 37 78 35 79 61 80 62 81 70 82 63 83 64 84 68 85 71 86 65 87
REMARK SMILES IDX 66 88 69 89 67 90 46 91 47 92 55 93 48 94 49 95 53 96 56 97
REMARK SMILES IDX 50 98 51 99 54 100 52 101
REMARK H PARENT 12 6 17 35 76 54 44 65
REMARK Flexibility Score: inf
ROOT
ATOM      1  C   UNL     1       1.349   4.579  -0.159  1.00  0.00     0.023 C 
ENDROOT
BRANCH   1   2
ATOM      2  C   UNL     1       1.966   4.807  -1.531  1.00  0.00     0.116 C 
BRANCH   2   3
ATOM      3  N   UNL     1       3.163   5.596  -1.625  1.00  0.00    -0.351 N 
ATOM      4  C   UNL     1       4.402   5.292  -2.163  1.00  0.00     0.274 C 
ATOM      5  O   UNL     1       5.199   6.236  -2.164  1.00  0.00    -0.267 OA
ATOM      6  H   UNL     1       3.090   6.501  -1.244  1.00  0.00     0.163 HD
BRANCH   4   7
ATOM      7  C   UNL     1       4.826   3.967  -2.667  1.00  0.00     0.178 A 
ATOM      8  C   UNL     1       4.197   2.844  -3.220  1.00  0.00     0.108 A 
ATOM      9  N   UNL     1       5.248   1.958  -3.467  1.00  0.00    -0.212 N 
ATOM     10  N   UNL     1       6.182   3.676  -2.576  1.00  0.00    -0.124 NA
ATOM     11  N   UNL     1       6.394   2.427  -2.950  1.00  0.00    -0.061 NA
BRANCH   8  12
ATOM     12  C   UNL     1       2.804   2.404  -3.344  1.00  0.00     0.006 A 
ATOM     13  C   UNL     1       0.982   1.082  -2.399  1.00  0.00     0.119 A 
ATOM     14  C   UNL     1       0.111   1.667  -3.317  1.00  0.00     0.046 A 
ATOM     15  C   UNL     1       2.329   1.431  -2.431  1.00  0.00     0.056 A 
ATOM     16  C   UNL     1       0.574   2.607  -4.244  1.00  0.00     0.005 A 
ATOM     17  C   UNL     1       1.921   2.979  -4.261  1.00  0.00     0.011 A 
BRANCH  13  18
ATOM     18  O   UNL     1       0.428   0.171  -1.545  1.00  0.00    -0.497 OA
ATOM     19  C   UNL     1       1.003   0.096  -0.243  1.00  0.00     0.278 C 
ENDBRANCH  13  18
ENDBRANCH   8  12
BRANCH   9  20
ATOM     20  C   UNL     1       5.162   0.670  -4.050  1.00  0.00     0.067 A 
ATOM     21  C   UNL     1       5.826  -0.408  -3.463  1.00  0.00     0.032 A 
ATOM     22  C   UNL     1       4.323   0.464  -5.151  1.00  0.00     0.032 A 
ATOM     23  C   UNL     1       5.562  -1.701  -3.929  1.00  0.00     0.049 A 
ATOM     24  C   UNL     1       4.087  -0.825  -5.625  1.00  0.00     0.049 A 
ATOM     25  C   UNL     1       4.683  -1.919  -5.000  1.00  0.00     0.129 A 
BRANCH  25  26
ATOM     26  O   UNL     1       4.488  -3.231  -5.329  1.00  0.00    -0.406 OA
BRANCH  26  27
ATOM     27  C   UNL     1       3.582  -3.510  -6.385  1.00  0.00     0.573 C 
ATOM     28  F   UNL     1       2.344  -3.047  -6.104  1.00  0.00    -0.132 F 
ATOM     29  F   UNL     1       4.010  -2.970  -7.546  1.00  0.00    -0.132 F 
ATOM     30  F   UNL     1       3.501  -4.848  -6.548  1.00  0.00    -0.132 F 
ENDBRANCH  26  27
ENDBRANCH  25  26
ENDBRANCH   9  20
ENDBRANCH   4   7
ENDBRANCH   2   3
ENDBRANCH   1   2
BRANCH   1  31
ATOM     31  C   UNL     1       0.399   5.639   0.384  1.00  0.00     0.023 C 
BRANCH  31  32
ATOM     32  C   UNL     1      -0.730   6.039  -0.553  1.00  0.00     0.116 C 
BRANCH  32  33
ATOM     33  N   UNL     1      -1.658   4.963  -0.920  1.00  0.00    -0.352 N 
ATOM     34  C   UNL     1      -2.787   5.078  -1.728  1.00  0.00     0.251 C 
ATOM     35  H   UNL     1      -1.462   4.068  -0.559  1.00  0.00     0.163 HD
ATOM     36  O   UNL     1      -3.686   4.256  -1.717  1.00  0.00    -0.269 OA
BRANCH  34  37
ATOM     37  C   UNL     1      -2.843   6.238  -2.637  1.00  0.00     0.039 A 
ATOM     38  C   UNL     1      -3.962   7.065  -2.760  1.00  0.00     0.014 A 
ATOM     39  C   UNL     1      -1.655   6.540  -3.286  1.00  0.00     0.014 A 
ATOM     40  C   UNL     1      -3.829   8.258  -3.474  1.00  0.00     0.010 A 
ATOM     41  C   UNL     1      -1.466   7.806  -3.757  1.00  0.00     0.010 A 
ATOM     42  C   UNL     1      -2.562   8.634  -3.949  1.00  0.00    -0.014 A 
BRANCH  42  43
ATOM     43  C   UNL     1      -2.319   9.915  -4.605  1.00  0.00     0.031 A 
ATOM     44  C   UNL     1      -2.792  11.116  -3.861  1.00  0.00     0.074 A 
ATOM     45  C   UNL     1      -1.528  10.017  -5.699  1.00  0.00     0.049 A 
ATOM     46  N   UNL     1      -3.697  11.963  -4.226  1.00  0.00    -0.248 NA
ATOM     47  C   UNL     1      -2.277  11.349  -2.502  1.00  0.00     0.031 C 
ATOM     48  C   UNL     1      -0.739   8.975  -6.375  1.00  0.00     0.029 A 
ATOM     49  N   UNL     1      -1.184  11.131  -6.396  1.00  0.00    -0.354 N 
ATOM     50  C   UNL     1      -3.755  12.933  -3.227  1.00  0.00     0.074 A 
ATOM     51  C   UNL     1      -2.970  12.428  -2.130  1.00  0.00     0.031 C 
ATOM     52  C   UNL     1       0.162   9.543  -7.205  1.00  0.00     0.029 A 
ATOM     53  C   UNL     1      -0.122  10.961  -7.276  1.00  0.00     0.049 A 
ATOM     54  H   UNL     1      -1.651  11.991  -6.287  1.00  0.00     0.167 HD
ATOM     55  C   UNL     1      -4.282  14.166  -3.472  1.00  0.00     0.037 A 
ATOM     56  C   UNL     1       0.486  11.926  -8.007  1.00  0.00     0.037 A 
ATOM     57  C   UNL     1      -5.064  14.160  -4.682  1.00  0.00     0.049 A 
ATOM     58  C   UNL     1      -0.461  13.065  -8.085  1.00  0.00     0.074 A 
ATOM     59  C   UNL     1      -6.212  13.508  -5.088  1.00  0.00     0.029 A 
ATOM     60  N   UNL     1      -4.470  14.615  -5.833  1.00  0.00    -0.354 N 
ATOM     61  N   UNL     1      -1.603  13.011  -8.714  1.00  0.00    -0.248 NA
ATOM     62  C   UNL     1      -0.358  14.089  -7.057  1.00  0.00     0.031 C 
ATOM     63  C   UNL     1      -5.977  13.171  -6.454  1.00  0.00     0.029 A 
ATOM     64  C   UNL     1      -4.739  13.702  -6.820  1.00  0.00     0.049 A 
ATOM     65  H   UNL     1      -3.948  15.444  -5.931  1.00  0.00     0.167 HD
ATOM     66  C   UNL     1      -2.491  13.689  -7.892  1.00  0.00     0.074 A 
ATOM     67  C   UNL     1      -1.652  14.393  -6.923  1.00  0.00     0.031 C 
ATOM     68  C   UNL     1      -3.823  13.387  -7.892  1.00  0.00     0.037 A 
BRANCH  55  69
ATOM     69  C   UNL     1      -3.822  15.453  -2.833  1.00  0.00     0.064 A 
ATOM     70  C   UNL     1      -4.536  16.643  -3.091  1.00  0.00     0.173 A 
ATOM     71  C   UNL     1      -2.553  15.625  -2.240  1.00  0.00     0.173 A 
ATOM     72  F   UNL     1      -5.751  16.602  -3.658  1.00  0.00    -0.203 F 
ATOM     73  C   UNL     1      -3.980  17.905  -2.862  1.00  0.00     0.198 A 
ATOM     74  C   UNL     1      -2.023  16.886  -1.966  1.00  0.00     0.198 A 
ATOM     75  F   UNL     1      -1.730  14.597  -2.009  1.00  0.00    -0.203 F 
ATOM     76  F   UNL     1      -4.643  19.004  -3.247  1.00  0.00    -0.200 F 
ATOM     77  C   UNL     1      -2.720  18.025  -2.309  1.00  0.00     0.200 A 
ATOM     78  F   UNL     1      -0.792  16.982  -1.443  1.00  0.00    -0.200 F 
ATOM     79  F   UNL     1      -2.156  19.229  -2.152  1.00  0.00    -0.200 F 
ENDBRANCH  55  69
BRANCH  56  80
ATOM     80  C   UNL     1       1.926  12.053  -8.331  1.00  0.00     0.064 A 
ATOM     81  C   UNL     1       2.367  12.904  -9.356  1.00  0.00     0.173 A 
ATOM     82  C   UNL     1       2.913  11.564  -7.453  1.00  0.00     0.173 A 
ATOM     83  F   UNL     1       1.484  13.446 -10.207  1.00  0.00    -0.203 F 
ATOM     84  C   UNL     1       3.713  13.268  -9.478  1.00  0.00     0.198 A 
ATOM     85  C   UNL     1       4.255  11.926  -7.576  1.00  0.00     0.198 A 
ATOM     86  F   UNL     1       2.578  10.804  -6.400  1.00  0.00    -0.203 F 
ATOM     87  F   UNL     1       4.088  14.133 -10.432  1.00  0.00    -0.200 F 
ATOM     88  C   UNL     1       4.653  12.789  -8.581  1.00  0.00     0.200 A 
ATOM     89  F   UNL     1       5.148  11.488  -6.677  1.00  0.00    -0.200 F 
ATOM     90  F   UNL     1       5.930  13.191  -8.657  1.00  0.00    -0.200 F 
ENDBRANCH  56  80
BRANCH  68  91
ATOM     91  C   UNL     1      -4.339  12.468  -8.966  1.00  0.00     0.064 A 
ATOM     92  C   UNL     1      -3.981  11.113  -9.084  1.00  0.00     0.173 A 
ATOM     93  C   UNL     1      -5.367  12.934  -9.796  1.00  0.00     0.173 A 
ATOM     94  F   UNL     1      -3.076  10.565  -8.267  1.00  0.00    -0.203 F 
ATOM     95  C   UNL     1      -4.603  10.275 -10.009  1.00  0.00     0.198 A 
ATOM     96  C   UNL     1      -6.010  12.087 -10.695  1.00  0.00     0.198 A 
ATOM     97  F   UNL     1      -5.789  14.203  -9.691  1.00  0.00    -0.203 F 
ATOM     98  F   UNL     1      -4.242   8.986 -10.099  1.00  0.00    -0.200 F 
ATOM     99  C   UNL     1      -5.624  10.761 -10.807  1.00  0.00     0.200 A 
ATOM    100  F   UNL     1      -7.031  12.551 -11.429  1.00  0.00    -0.200 F 
ATOM    101  F   UNL     1      -6.257   9.946 -11.662  1.00  0.00    -0.200 F 
ENDBRANCH  68  91
ENDBRANCH  42  43
ENDBRANCH  34  37
ENDBRANCH  32  33
ENDBRANCH  31  32
ENDBRANCH   1  31
TORSDOF 16
