REMARK SMILES C[C@@H]1CCCN(C(=O)CSc2nnc3c4ccccc4n(CC(=O)NCCCCNC(=O)c4ccc(-c5c6nc(c(-c7c(F)c(F)c(F)c(F)c7F)c7ccc([nH]7)c(-c7c(F)c(F)c(F)c(F)c7F)c7nc(c(-c8c(F)c(F)c(F)c(F)c8F)c8ccc5[nH]8)C=C7)C=C6)cc4)c3n2)C1
REMARK SMILES IDX 26 1 25 2 23 3 24 4 22 6 21 7 11 8 12 9 97 10 13 11 96 12
REMARK SMILES IDX 14 13 15 14 20 15 16 16 19 17 17 18 18 19 10 20 9 21 7 22
REMARK SMILES IDX 8 23 6 24 1 25 2 26 3 27 98 28 4 29 5 30 27 31 28 32 29 33
REMARK SMILES IDX 30 34 31 35 32 37 33 38 34 39 95 40 35 41 94 42 36 43 37 44
REMARK SMILES IDX 38 45 88 46 39 47 93 48 87 49 89 50 40 51 92 52 86 53 85 54
REMARK SMILES IDX 41 56 73 57 53 58 72 59 54 60 57 61 71 62 90 63 55 64 56 65
REMARK SMILES IDX 70 67 91 68 58 69 42 70 43 71 51 72 44 73 45 74 49 75 52 76
REMARK SMILES IDX 46 77 47 78 50 79 48 80 74 81 75 82 83 83 76 84 77 85 81 86
REMARK SMILES IDX 84 87 78 88 79 89 82 90 80 91 59 92 60 93 68 94 61 95 62 96
REMARK SMILES IDX 66 97 69 98 63 99 64 100 67 101 65 102
REMARK H PARENT 25 5 30 36 89 55 57 66
REMARK Flexibility Score: inf
ROOT
ATOM      1  C   UNL     1       5.926   3.287   4.858  1.00  0.00     0.116 C 
ENDROOT
BRANCH   1   2
ATOM      2  N   UNL     1       5.376   3.482   6.181  1.00  0.00    -0.355 N 
ATOM      3  C   UNL     1       4.067   3.714   6.492  1.00  0.00     0.240 C 
ATOM      4  O   UNL     1       3.756   3.852   7.677  1.00  0.00    -0.273 OA
ATOM      5  H   UNL     1       6.009   3.442   6.933  1.00  0.00     0.163 HD
BRANCH   3   6
ATOM      6  C   UNL     1       3.031   3.742   5.378  1.00  0.00     0.224 C 
BRANCH   6   7
ATOM      7  N   UNL     1       3.263   4.803   4.402  1.00  0.00    -0.314 N 
ATOM      8  C   UNL     1       3.889   3.624   1.081  1.00  0.00     0.211 A 
ATOM      9  N   UNL     1       4.207   4.811   0.508  1.00  0.00    -0.122 NA
ATOM     10  N   UNL     1       3.527   3.447   2.376  1.00  0.00    -0.201 NA
ATOM     11  N   UNL     1       4.161   5.957   1.208  1.00  0.00    -0.144 NA
ATOM     12  C   UNL     1       3.499   4.620   3.053  1.00  0.00     0.165 A 
ATOM     13  C   UNL     1       3.814   5.859   2.519  1.00  0.00     0.138 A 
ATOM     14  C   UNL     1       3.706   6.832   3.558  1.00  0.00     0.030 A 
ATOM     15  C   UNL     1       3.360   6.146   4.729  1.00  0.00     0.053 A 
ATOM     16  C   UNL     1       3.872   8.233   3.634  1.00  0.00     0.013 A 
ATOM     17  C   UNL     1       3.188   6.801   5.962  1.00  0.00     0.027 A 
ATOM     18  C   UNL     1       3.676   8.895   4.855  1.00  0.00     0.001 A 
ATOM     19  C   UNL     1       3.343   8.186   6.003  1.00  0.00     0.002 A 
BRANCH   8  20
ATOM     20  S   UNL     1       4.320   2.138   0.188  1.00  0.00    -0.074 SA
BRANCH  20  21
ATOM     21  C   UNL     1       3.198   2.167  -1.258  1.00  0.00     0.178 C 
BRANCH  21  22
ATOM     22  C   UNL     1       1.720   2.224  -0.896  1.00  0.00     0.233 C 
ATOM     23  O   UNL     1       1.050   3.185  -1.285  1.00  0.00    -0.274 OA
BRANCH  22  24
ATOM     24  N   UNL     1       1.139   1.163  -0.207  1.00  0.00    -0.342 N 
ATOM     25  C   UNL     1      -2.509   0.058   0.075  1.00  0.00     0.009 C 
ATOM     26  C   UNL     1      -1.040   0.008  -0.335  1.00  0.00     0.005 C 
ATOM     27  C   UNL     1      -0.374  -1.274   0.184  1.00  0.00     0.007 C 
ATOM     28  C   UNL     1      -0.275   1.237   0.176  1.00  0.00     0.122 C 
ATOM     29  C   UNL     1       1.100  -1.306  -0.205  1.00  0.00     0.022 C 
ATOM     30  C   UNL     1       1.829  -0.044   0.243  1.00  0.00     0.119 C 
ENDBRANCH  22  24
ENDBRANCH  21  22
ENDBRANCH  20  21
ENDBRANCH   8  20
ENDBRANCH   6   7
ENDBRANCH   3   6
ENDBRANCH   1   2
BRANCH   1  31
ATOM     31  C   UNL     1       6.884   4.407   4.471  1.00  0.00     0.023 C 
BRANCH  31  32
ATOM     32  C   UNL     1       8.146   4.366   5.329  1.00  0.00     0.023 C 
BRANCH  32  33
ATOM     33  C   UNL     1       8.871   3.023   5.246  1.00  0.00     0.116 C 
BRANCH  33  34
ATOM     34  N   UNL     1       9.412   2.757   3.925  1.00  0.00    -0.352 N 
ATOM     35  C   UNL     1      10.681   2.565   3.439  1.00  0.00     0.251 C 
ATOM     36  H   UNL     1       8.719   2.702   3.228  1.00  0.00     0.163 HD
ATOM     37  O   UNL     1      10.784   2.318   2.234  1.00  0.00    -0.269 OA
BRANCH  35  38
ATOM     38  C   UNL     1      11.952   2.782   4.201  1.00  0.00     0.039 A 
ATOM     39  C   UNL     1      11.991   3.328   5.444  1.00  0.00     0.014 A 
ATOM     40  C   UNL     1      13.050   3.185   3.403  1.00  0.00     0.014 A 
ATOM     41  C   UNL     1      12.813   4.581   5.500  1.00  0.00     0.010 A 
ATOM     42  C   UNL     1      14.103   3.944   3.884  1.00  0.00     0.010 A 
ATOM     43  C   UNL     1      13.575   5.151   4.220  1.00  0.00    -0.014 A 
BRANCH  43  44
ATOM     44  C   UNL     1      14.713   6.436   3.573  1.00  0.00     0.031 A 
ATOM     45  C   UNL     1      15.710   5.898   5.080  1.00  0.00     0.074 A 
ATOM     46  C   UNL     1      14.825   7.565   2.179  1.00  0.00     0.049 A 
ATOM     47  N   UNL     1      15.435   6.234   6.356  1.00  0.00    -0.248 NA
ATOM     48  C   UNL     1      16.516   4.411   5.625  1.00  0.00     0.031 C 
ATOM     49  C   UNL     1      14.238   8.169   0.569  1.00  0.00     0.029 A 
ATOM     50  N   UNL     1      15.696   8.801   1.875  1.00  0.00    -0.354 N 
ATOM     51  C   UNL     1      16.639   5.961   7.080  1.00  0.00     0.074 A 
ATOM     52  C   UNL     1      17.162   4.702   6.781  1.00  0.00     0.031 C 
ATOM     53  C   UNL     1      15.159   8.871  -0.334  1.00  0.00     0.029 A 
ATOM     54  C   UNL     1      16.217   9.258   0.497  1.00  0.00     0.049 A 
ATOM     55  H   UNL     1      15.948   9.360   2.646  1.00  0.00     0.167 HD
ATOM     56  C   UNL     1      17.487   6.981   7.293  1.00  0.00     0.037 A 
ATOM     57  C   UNL     1      17.375   9.960   0.111  1.00  0.00     0.037 A 
ATOM     58  C   UNL     1      16.750   8.161   7.028  1.00  0.00     0.049 A 
ATOM     59  C   UNL     1      17.866  10.120   1.496  1.00  0.00     0.074 A 
ATOM     60  C   UNL     1      15.561   8.624   7.544  1.00  0.00     0.029 A 
ATOM     61  N   UNL     1      16.795   8.520   5.723  1.00  0.00    -0.354 N 
ATOM     62  N   UNL     1      17.233  10.884   2.365  1.00  0.00    -0.248 NA
ATOM     63  C   UNL     1      18.468   8.865   1.968  1.00  0.00     0.031 C 
ATOM     64  C   UNL     1      14.910   9.322   6.504  1.00  0.00     0.029 A 
ATOM     65  C   UNL     1      15.746   9.313   5.401  1.00  0.00     0.049 A 
ATOM     66  H   UNL     1      17.498   8.242   5.093  1.00  0.00     0.167 HD
ATOM     67  C   UNL     1      16.977  10.043   3.450  1.00  0.00     0.074 A 
ATOM     68  C   UNL     1      17.863   8.805   3.163  1.00  0.00     0.031 C 
ATOM     69  C   UNL     1      15.772  10.048   4.179  1.00  0.00     0.037 A 
BRANCH  56  70
ATOM     70  C   UNL     1      18.971   6.912   7.291  1.00  0.00     0.064 A 
ATOM     71  C   UNL     1      19.540   7.903   8.082  1.00  0.00     0.173 A 
ATOM     72  C   UNL     1      19.850   6.091   6.536  1.00  0.00     0.173 A 
ATOM     73  F   UNL     1      18.750   8.701   8.815  1.00  0.00    -0.203 F 
ATOM     74  C   UNL     1      20.904   8.090   8.133  1.00  0.00     0.198 A 
ATOM     75  C   UNL     1      21.231   6.263   6.615  1.00  0.00     0.198 A 
ATOM     76  F   UNL     1      19.415   5.137   5.696  1.00  0.00    -0.203 F 
ATOM     77  F   UNL     1      21.387   9.076   8.896  1.00  0.00    -0.200 F 
ATOM     78  C   UNL     1      21.751   7.272   7.407  1.00  0.00     0.200 A 
ATOM     79  F   UNL     1      22.055   5.466   5.915  1.00  0.00    -0.200 F 
ATOM     80  F   UNL     1      23.073   7.464   7.472  1.00  0.00    -0.200 F 
ENDBRANCH  56  70
BRANCH  57  81
ATOM     81  C   UNL     1      18.275   9.599  -1.131  1.00  0.00     0.064 A 
ATOM     82  C   UNL     1      19.260  10.382  -1.807  1.00  0.00     0.173 A 
ATOM     83  C   UNL     1      18.278   8.245  -1.540  1.00  0.00     0.173 A 
ATOM     84  F   UNL     1      19.337  11.708  -1.617  1.00  0.00    -0.203 F 
ATOM     85  C   UNL     1      20.204   9.814  -2.721  1.00  0.00     0.198 A 
ATOM     86  C   UNL     1      19.214   7.681  -2.425  1.00  0.00     0.198 A 
ATOM     87  F   UNL     1      17.374   7.403  -1.027  1.00  0.00    -0.203 F 
ATOM     88  F   UNL     1      21.150  10.576  -3.299  1.00  0.00    -0.200 F 
ATOM     89  C   UNL     1      20.197   8.457  -2.997  1.00  0.00     0.200 A 
ATOM     90  F   UNL     1      19.182   6.362  -2.669  1.00  0.00    -0.200 F 
ATOM     91  F   UNL     1      21.133   7.899  -3.782  1.00  0.00    -0.200 F 
ENDBRANCH  57  81
BRANCH  69  92
ATOM     92  C   UNL     1      14.517  10.957   3.948  1.00  0.00     0.064 A 
ATOM     93  C   UNL     1      13.360  10.744   3.136  1.00  0.00     0.173 A 
ATOM     94  C   UNL     1      14.397  12.051   4.800  1.00  0.00     0.173 A 
ATOM     95  F   UNL     1      13.168   9.621   2.451  1.00  0.00    -0.203 F 
ATOM     96  C   UNL     1      12.297  11.653   3.028  1.00  0.00     0.198 A 
ATOM     97  C   UNL     1      13.297  12.918   4.764  1.00  0.00     0.198 A 
ATOM     98  F   UNL     1      15.330  12.246   5.740  1.00  0.00    -0.203 F 
ATOM     99  F   UNL     1      11.315  11.455   2.130  1.00  0.00    -0.200 F 
ATOM    100  C   UNL     1      12.269  12.748   3.852  1.00  0.00     0.200 A 
ATOM    101  F   UNL     1      13.244  13.935   5.630  1.00  0.00    -0.200 F 
ATOM    102  F   UNL     1      11.251  13.616   3.789  1.00  0.00    -0.200 F 
ENDBRANCH  69  92
ENDBRANCH  43  44
ENDBRANCH  35  38
ENDBRANCH  33  34
ENDBRANCH  32  33
ENDBRANCH  31  32
ENDBRANCH   1  31
TORSDOF 16
