REMARK SMILES CCN1C(=O)N/C(=C/c2cc(Cl)c(OCc3cccc(C(=O)NCCCCNC(=O)c4ccc(-c5c6nc(c(-c7c(F)c(F)c(F)c(F)c7F)c7ccc([nH]7)c(-c7c(F)c(F)c(F)c(F)c7F)c7nc(c(-c8c(F)c(F)c(F)c(F)c8F)c8ccc5[nH]8)C=C7)C=C6)cc4)c3)c(OC)c2)C1=O
REMARK SMILES IDX 24 1 23 2 21 3 22 4 20 6 16 7 17 8 94 9 18 10 19 11 15 12
REMARK SMILES IDX 14 13 13 14 9 15 10 16 98 17 11 18 95 19 12 20 8 21 3 22
REMARK SMILES IDX 4 23 99 24 5 25 6 26 7 27 100 28 2 30 1 31 96 32 97 33 25 34
REMARK SMILES IDX 26 35 27 36 28 37 29 38 30 40 31 41 32 42 93 43 33 44 92 45
REMARK SMILES IDX 34 46 35 47 36 48 86 49 37 50 91 51 85 52 87 53 38 54 90 55
REMARK SMILES IDX 84 56 83 57 39 59 71 60 51 61 70 62 52 63 55 64 69 65 88 66
REMARK SMILES IDX 53 67 54 68 68 70 89 71 56 72 40 73 41 74 49 75 42 76 43 77
REMARK SMILES IDX 47 78 50 79 44 80 45 81 48 82 46 83 72 84 73 85 81 86 74 87
REMARK SMILES IDX 75 88 79 89 82 90 76 91 77 92 80 93 78 94 57 95 58 96 66 97
REMARK SMILES IDX 59 98 60 99 64 100 67 101 61 102 62 103 65 104 63 105
REMARK H PARENT 23 5 6 29 28 39 87 58 55 69
REMARK Flexibility Score: inf
ROOT
ATOM      1  C   UNL     1      -5.618   8.066   2.864  1.00  0.00     0.116 C 
ENDROOT
BRANCH   1   2
ATOM      2  N   UNL     1      -5.648   6.892   3.717  1.00  0.00    -0.352 N 
ATOM      3  C   UNL     1      -4.647   6.224   4.388  1.00  0.00     0.251 C 
ATOM      4  O   UNL     1      -4.969   5.242   5.059  1.00  0.00    -0.269 OA
ATOM      5  H   UNL     1      -6.544   6.504   3.838  1.00  0.00     0.163 HD
BRANCH   3   6
ATOM      6  C   UNL     1      -3.204   6.597   4.289  1.00  0.00     0.040 A 
ATOM      7  C   UNL     1      -1.415   8.102   3.584  1.00  0.00    -0.010 A 
ATOM      8  C   UNL     1      -0.482   7.106   3.884  1.00  0.00     0.007 A 
ATOM      9  C   UNL     1      -2.752   7.869   3.929  1.00  0.00     0.021 A 
ATOM     10  C   UNL     1      -0.894   5.871   4.384  1.00  0.00     0.001 A 
ATOM     11  C   UNL     1      -2.253   5.602   4.542  1.00  0.00     0.014 A 
BRANCH   7  12
ATOM     12  C   UNL     1      -1.048   9.382   2.857  1.00  0.00     0.265 C 
BRANCH  12  13
ATOM     13  O   UNL     1      -1.281   9.378   1.433  1.00  0.00    -0.483 OA
BRANCH  13  14
ATOM     14  C   UNL     1      -0.621   8.510   0.596  1.00  0.00     0.180 A 
ATOM     15  C   UNL     1       0.449   6.575  -1.183  1.00  0.00    -0.018 A 
ATOM     16  C   UNL     1       1.184   7.024  -0.088  1.00  0.00     0.033 A 
ATOM     17  C   UNL     1      -0.782   7.166  -1.457  1.00  0.00     0.058 A 
ATOM     18  C   UNL     1       0.682   8.021   0.759  1.00  0.00     0.087 A 
ATOM     19  C   UNL     1      -1.313   8.140  -0.588  1.00  0.00     0.162 A 
ATOM     20  Cl  UNL     1       1.862   8.711   1.823  1.00  0.00    -0.080 Cl
BRANCH  15  21
ATOM     21  C   UNL     1       1.026   5.554  -2.060  1.00  0.00     0.040 C 
ATOM     22  N   UNL     1       0.988   2.228  -0.700  1.00  0.00    -0.259 N 
ATOM     23  C   UNL     1       1.734   2.090  -1.851  1.00  0.00     0.328 C 
ATOM     24  C   UNL     1       0.575   3.533  -0.544  1.00  0.00     0.278 C 
ATOM     25  O   UNL     1       2.292   1.098  -2.289  1.00  0.00    -0.248 OA
ATOM     26  N   UNL     1       1.776   3.325  -2.480  1.00  0.00    -0.303 N 
ATOM     27  C   UNL     1       1.113   4.258  -1.741  1.00  0.00     0.109 C 
ATOM     28  O   UNL     1      -0.092   4.006   0.361  1.00  0.00    -0.267 OA
ATOM     29  H   UNL     1       2.223   3.503  -3.340  1.00  0.00     0.172 HD
BRANCH  22  30
ATOM     30  C   UNL     1       0.646   1.210   0.277  1.00  0.00     0.127 C 
ATOM     31  C   UNL     1       1.108  -0.205  -0.015  1.00  0.00     0.028 C 
ENDBRANCH  22  30
ENDBRANCH  15  21
BRANCH  19  32
ATOM     32  O   UNL     1      -2.513   8.771  -0.848  1.00  0.00    -0.493 OA
ATOM     33  C   UNL     1      -2.878   8.870  -2.228  1.00  0.00     0.278 C 
ENDBRANCH  19  32
ENDBRANCH  13  14
ENDBRANCH  12  13
ENDBRANCH   7  12
ENDBRANCH   3   6
ENDBRANCH   1   2
BRANCH   1  34
ATOM     34  C   UNL     1      -6.416   7.944   1.577  1.00  0.00     0.023 C 
BRANCH  34  35
ATOM     35  C   UNL     1      -7.919   7.806   1.733  1.00  0.00     0.023 C 
BRANCH  35  36
ATOM     36  C   UNL     1      -8.581   8.832   2.640  1.00  0.00     0.116 C 
BRANCH  36  37
ATOM     37  N   UNL     1      -8.324  10.215   2.256  1.00  0.00    -0.352 N 
ATOM     38  C   UNL     1      -9.220  11.237   2.040  1.00  0.00     0.251 C 
ATOM     39  H   UNL     1      -7.376  10.450   2.133  1.00  0.00     0.163 HD
ATOM     40  O   UNL     1      -8.841  12.328   1.629  1.00  0.00    -0.269 OA
BRANCH  38  41
ATOM     41  C   UNL     1     -10.657  10.989   2.266  1.00  0.00     0.039 A 
ATOM     42  C   UNL     1     -11.567  11.318   1.259  1.00  0.00     0.014 A 
ATOM     43  C   UNL     1     -11.091  10.363   3.437  1.00  0.00     0.014 A 
ATOM     44  C   UNL     1     -12.901  10.931   1.389  1.00  0.00     0.010 A 
ATOM     45  C   UNL     1     -12.395   9.891   3.517  1.00  0.00     0.010 A 
ATOM     46  C   UNL     1     -13.315  10.169   2.494  1.00  0.00    -0.014 A 
BRANCH  46  47
ATOM     47  C   UNL     1     -14.702   9.650   2.599  1.00  0.00     0.031 A 
ATOM     48  C   UNL     1     -15.577  10.076   3.745  1.00  0.00     0.074 A 
ATOM     49  C   UNL     1     -15.150   8.748   1.703  1.00  0.00     0.049 A 
ATOM     50  N   UNL     1     -16.790   9.688   4.050  1.00  0.00    -0.248 NA
ATOM     51  C   UNL     1     -15.003  11.044   4.694  1.00  0.00     0.031 C 
ATOM     52  C   UNL     1     -14.379   8.217   0.577  1.00  0.00     0.029 A 
ATOM     53  N   UNL     1     -16.362   8.110   1.602  1.00  0.00    -0.354 N 
ATOM     54  C   UNL     1     -17.113  10.351   5.226  1.00  0.00     0.074 A 
ATOM     55  C   UNL     1     -15.950  11.116   5.616  1.00  0.00     0.031 C 
ATOM     56  C   UNL     1     -15.145   7.360  -0.117  1.00  0.00     0.029 A 
ATOM     57  C   UNL     1     -16.444   7.245   0.538  1.00  0.00     0.049 A 
ATOM     58  H   UNL     1     -17.102   8.258   2.234  1.00  0.00     0.167 HD
ATOM     59  C   UNL     1     -18.284  10.343   5.906  1.00  0.00     0.037 A 
ATOM     60  C   UNL     1     -17.451   6.443   0.141  1.00  0.00     0.037 A 
ATOM     61  C   UNL     1     -19.447   9.598   5.500  1.00  0.00     0.049 A 
ATOM     62  C   UNL     1     -18.736   6.441   0.928  1.00  0.00     0.074 A 
ATOM     63  C   UNL     1     -20.701   9.575   6.083  1.00  0.00     0.029 A 
ATOM     64  N   UNL     1     -19.495   8.741   4.410  1.00  0.00    -0.354 N 
ATOM     65  N   UNL     1     -19.058   7.135   1.992  1.00  0.00    -0.248 NA
ATOM     66  C   UNL     1     -19.801   5.546   0.452  1.00  0.00     0.031 C 
ATOM     67  C   UNL     1     -21.489   8.655   5.384  1.00  0.00     0.029 A 
ATOM     68  C   UNL     1     -20.749   8.159   4.323  1.00  0.00     0.049 A 
ATOM     69  H   UNL     1     -18.748   8.571   3.791  1.00  0.00     0.167 HD
ATOM     70  C   UNL     1     -20.370   6.789   2.291  1.00  0.00     0.074 A 
ATOM     71  C   UNL     1     -20.789   5.836   1.286  1.00  0.00     0.031 C 
ATOM     72  C   UNL     1     -21.156   7.222   3.307  1.00  0.00     0.037 A 
BRANCH  59  73
ATOM     73  C   UNL     1     -18.369  11.165   7.160  1.00  0.00     0.064 A 
ATOM     74  C   UNL     1     -18.352  12.568   7.127  1.00  0.00     0.173 A 
ATOM     75  C   UNL     1     -18.518  10.541   8.408  1.00  0.00     0.173 A 
ATOM     76  F   UNL     1     -18.200  13.214   5.961  1.00  0.00    -0.203 F 
ATOM     77  C   UNL     1     -18.453  13.314   8.297  1.00  0.00     0.198 A 
ATOM     78  C   UNL     1     -18.654  11.292   9.573  1.00  0.00     0.198 A 
ATOM     79  F   UNL     1     -18.546   9.203   8.498  1.00  0.00    -0.203 F 
ATOM     80  F   UNL     1     -18.383  14.652   8.245  1.00  0.00    -0.200 F 
ATOM     81  C   UNL     1     -18.613  12.677   9.518  1.00  0.00     0.200 A 
ATOM     82  F   UNL     1     -18.826  10.674  10.750  1.00  0.00    -0.200 F 
ATOM     83  F   UNL     1     -18.724  13.397  10.643  1.00  0.00    -0.200 F 
ENDBRANCH  59  73
BRANCH  60  84
ATOM     84  C   UNL     1     -17.300   5.587  -1.067  1.00  0.00     0.064 A 
ATOM     85  C   UNL     1     -18.072   5.818  -2.215  1.00  0.00     0.173 A 
ATOM     86  C   UNL     1     -16.408   4.505  -1.092  1.00  0.00     0.173 A 
ATOM     87  F   UNL     1     -18.956   6.828  -2.235  1.00  0.00    -0.203 F 
ATOM     88  C   UNL     1     -17.981   4.983  -3.327  1.00  0.00     0.198 A 
ATOM     89  C   UNL     1     -16.292   3.691  -2.218  1.00  0.00     0.198 A 
ATOM     90  F   UNL     1     -15.641   4.241  -0.024  1.00  0.00    -0.203 F 
ATOM     91  F   UNL     1     -18.776   5.192  -4.386  1.00  0.00    -0.200 F 
ATOM     92  C   UNL     1     -17.088   3.923  -3.329  1.00  0.00     0.200 A 
ATOM     93  F   UNL     1     -15.416   2.678  -2.222  1.00  0.00    -0.200 F 
ATOM     94  F   UNL     1     -17.002   3.119  -4.397  1.00  0.00    -0.200 F 
ENDBRANCH  60  84
BRANCH  72  95
ATOM     95  C   UNL     1     -22.567   6.709   3.357  1.00  0.00     0.064 A 
ATOM     96  C   UNL     1     -22.861   5.375   3.676  1.00  0.00     0.173 A 
ATOM     97  C   UNL     1     -23.644   7.579   3.121  1.00  0.00     0.173 A 
ATOM     98  F   UNL     1     -21.869   4.499   3.897  1.00  0.00    -0.203 F 
ATOM     99  C   UNL     1     -24.177   4.925   3.727  1.00  0.00     0.198 A 
ATOM    100  C   UNL     1     -24.959   7.134   3.210  1.00  0.00     0.198 A 
ATOM    101  F   UNL     1     -23.420   8.867   2.821  1.00  0.00    -0.203 F 
ATOM    102  F   UNL     1     -24.432   3.633   3.979  1.00  0.00    -0.200 F 
ATOM    103  C   UNL     1     -25.225   5.806   3.503  1.00  0.00     0.200 A 
ATOM    104  F   UNL     1     -25.970   7.992   3.012  1.00  0.00    -0.200 F 
ATOM    105  F   UNL     1     -26.492   5.372   3.564  1.00  0.00    -0.200 F 
ENDBRANCH  72  95
ENDBRANCH  46  47
ENDBRANCH  38  41
ENDBRANCH  36  37
ENDBRANCH  35  36
ENDBRANCH  34  35
ENDBRANCH   1  34
TORSDOF 17
