REMARK SMILES Cc1ncccc1OC1(C(=O)NCCCCNC(=O)c2ccc(-c3c4nc(c(-c5c(F)c(F)c(F)c(F)c5F)c5ccc([nH]5)c(-c5c(F)c(F)c(F)c(F)c5F)c5nc(c(-c6c(F)c(F)c(F)c(F)c6F)c6ccc3[nH]6)C=C5)C=C4)cc2)CCN(C(=O)c2ccc(O)nn2)CC1
REMARK SMILES IDX 14 1 13 2 12 3 10 4 11 5 9 7 83 8 96 9 84 10 95 11 85 12
REMARK SMILES IDX 86 13 87 14 8 15 7 16 1 17 2 18 3 19 4 20 6 21 5 22 88 23
REMARK SMILES IDX 89 24 94 25 90 26 93 27 91 28 92 29 15 31 16 32 17 33 18 34
REMARK SMILES IDX 19 36 20 37 21 38 82 39 22 40 81 41 23 42 24 43 25 44 75 45
REMARK SMILES IDX 26 46 80 47 74 48 76 49 27 50 79 51 73 52 72 53 28 55 60 56
REMARK SMILES IDX 40 57 59 58 41 59 44 60 58 61 77 62 42 63 43 64 57 66 78 67
REMARK SMILES IDX 45 68 29 69 30 70 38 71 31 72 32 73 36 74 39 75 33 76 34 77
REMARK SMILES IDX 37 78 35 79 61 80 62 81 70 82 63 83 64 84 68 85 71 86 65 87
REMARK SMILES IDX 66 88 69 89 67 90 46 91 47 92 55 93 48 94 49 95 53 96 56 97
REMARK SMILES IDX 50 98 51 99 54 100 52 101
REMARK H PARENT 12 6 92 30 17 35 76 54 44 65
REMARK Flexibility Score: inf
ROOT
ATOM      1  C   UNL     1       5.828  -3.450   1.427  1.00  0.00     0.023 C 
ENDROOT
BRANCH   1   2
ATOM      2  C   UNL     1       5.015  -3.408   0.137  1.00  0.00     0.116 C 
BRANCH   2   3
ATOM      3  N   UNL     1       3.733  -4.071   0.256  1.00  0.00    -0.353 N 
ATOM      4  C   UNL     1       2.450  -3.590   0.195  1.00  0.00     0.264 C 
ATOM      5  O   UNL     1       1.569  -4.456   0.243  1.00  0.00    -0.270 OA
ATOM      6  H   UNL     1       3.793  -5.042   0.407  1.00  0.00     0.163 HD
BRANCH   4   7
ATOM      7  C   UNL     1       2.121  -2.047   0.076  1.00  0.00     0.190 C 
ATOM      8  C   UNL     1       2.586  -1.395   1.373  1.00  0.00     0.080 C 
ATOM      9  C   UNL     1       2.662  -1.578  -1.268  1.00  0.00     0.080 C 
ATOM     10  C   UNL     1       3.753  -0.429   1.294  1.00  0.00     0.124 C 
ATOM     11  C   UNL     1       3.676  -0.451  -1.271  1.00  0.00     0.124 C 
ATOM     12  N   UNL     1       4.154   0.097  -0.001  1.00  0.00    -0.337 N 
ATOM     13  C   UNL     1       5.090   1.153   0.036  1.00  0.00     0.274 C 
ATOM     14  O   UNL     1       5.643   1.520   1.071  1.00  0.00    -0.267 OA
BRANCH   7  15
ATOM     15  O   UNL     1       0.671  -2.064   0.020  1.00  0.00    -0.475 OA
BRANCH  15  16
ATOM     16  C   UNL     1      -0.265  -1.078   0.009  1.00  0.00     0.142 A 
ATOM     17  C   UNL     1       0.977   1.193  -0.042  1.00  0.00     0.071 C 
ATOM     18  C   UNL     1      -0.221   0.319  -0.007  1.00  0.00     0.079 A 
ATOM     19  N   UNL     1      -1.351   1.094   0.000  1.00  0.00    -0.258 NA
ATOM     20  C   UNL     1      -2.553   0.498   0.020  1.00  0.00     0.111 A 
ATOM     21  C   UNL     1      -1.551  -1.646   0.021  1.00  0.00     0.050 A 
ATOM     22  C   UNL     1      -2.704  -0.866   0.027  1.00  0.00     0.024 A 
ENDBRANCH  15  16
ENDBRANCH   7  15
BRANCH  13  23
ATOM     23  C   UNL     1       5.477   1.805  -1.237  1.00  0.00     0.151 A 
ATOM     24  C   UNL     1       6.791   1.742  -1.667  1.00  0.00     0.042 A 
ATOM     25  N   UNL     1       4.482   2.366  -1.969  1.00  0.00    -0.142 NA
ATOM     26  C   UNL     1       7.077   2.249  -2.927  1.00  0.00     0.072 A 
ATOM     27  N   UNL     1       4.768   2.865  -3.200  1.00  0.00    -0.112 NA
ATOM     28  C   UNL     1       6.035   2.792  -3.648  1.00  0.00     0.230 A 
BRANCH  28  29
ATOM     29  O   UNL     1       6.241   3.276  -4.899  1.00  0.00    -0.492 OA
ATOM     30  H   UNL     1       7.100   3.257  -5.274  1.00  0.00     0.295 HD
ENDBRANCH  28  29
ENDBRANCH  13  23
ENDBRANCH   4   7
ENDBRANCH   2   3
ENDBRANCH   1   2
BRANCH   1  31
ATOM     31  C   UNL     1       6.654  -4.720   1.623  1.00  0.00     0.023 C 
BRANCH  31  32
ATOM     32  C   UNL     1       7.686  -5.009   0.536  1.00  0.00     0.116 C 
BRANCH  32  33
ATOM     33  N   UNL     1       8.653  -3.940   0.333  1.00  0.00    -0.352 N 
ATOM     34  C   UNL     1      10.002  -4.037   0.076  1.00  0.00     0.251 C 
ATOM     35  H   UNL     1       8.295  -3.025   0.388  1.00  0.00     0.163 HD
ATOM     36  O   UNL     1      10.694  -3.027  -0.005  1.00  0.00    -0.269 OA
BRANCH  34  37
ATOM     37  C   UNL     1      10.622  -5.372  -0.056  1.00  0.00     0.039 A 
ATOM     38  C   UNL     1      11.764  -5.665   0.695  1.00  0.00     0.014 A 
ATOM     39  C   UNL     1      10.047  -6.348  -0.875  1.00  0.00     0.014 A 
ATOM     40  C   UNL     1      12.279  -6.963   0.691  1.00  0.00     0.010 A 
ATOM     41  C   UNL     1      10.517  -7.656  -0.820  1.00  0.00     0.010 A 
ATOM     42  C   UNL     1      11.632  -7.979  -0.030  1.00  0.00    -0.014 A 
BRANCH  42  43
ATOM     43  C   UNL     1      12.091  -9.390   0.036  1.00  0.00     0.031 A 
ATOM     44  C   UNL     1      12.593 -10.078  -1.202  1.00  0.00     0.074 A 
ATOM     45  C   UNL     1      11.976 -10.077   1.190  1.00  0.00     0.049 A 
ATOM     46  N   UNL     1      12.943 -11.328  -1.372  1.00  0.00    -0.248 NA
ATOM     47  C   UNL     1      12.683  -9.259  -2.420  1.00  0.00     0.031 C 
ATOM     48  C   UNL     1      11.455  -9.540   2.448  1.00  0.00     0.029 A 
ATOM     49  N   UNL     1      12.277 -11.384   1.488  1.00  0.00    -0.354 N 
ATOM     50  C   UNL     1      13.273 -11.448  -2.715  1.00  0.00     0.074 A 
ATOM     51  C   UNL     1      13.034 -10.159  -3.326  1.00  0.00     0.031 C 
ATOM     52  C   UNL     1      11.489 -10.500   3.385  1.00  0.00     0.029 A 
ATOM     53  C   UNL     1      12.000 -11.730   2.788  1.00  0.00     0.049 A 
ATOM     54  H   UNL     1      12.655 -12.012   0.832  1.00  0.00     0.167 HD
ATOM     55  C   UNL     1      13.755 -12.529  -3.373  1.00  0.00     0.037 A 
ATOM     56  C   UNL     1      12.137 -12.909   3.425  1.00  0.00     0.037 A 
ATOM     57  C   UNL     1      14.025 -13.800  -2.756  1.00  0.00     0.049 A 
ATOM     58  C   UNL     1      12.686 -14.092   2.673  1.00  0.00     0.074 A 
ATOM     59  C   UNL     1      14.575 -14.936  -3.323  1.00  0.00     0.029 A 
ATOM     60  N   UNL     1      13.765 -14.102  -1.427  1.00  0.00    -0.354 N 
ATOM     61  N   UNL     1      13.059 -14.174   1.419  1.00  0.00    -0.248 NA
ATOM     62  C   UNL     1      12.838 -15.344   3.427  1.00  0.00     0.031 C 
ATOM     63  C   UNL     1      14.612 -15.939  -2.348  1.00  0.00     0.029 A 
ATOM     64  C   UNL     1      14.128 -15.413  -1.161  1.00  0.00     0.049 A 
ATOM     65  H   UNL     1      13.380 -13.478  -0.770  1.00  0.00     0.167 HD
ATOM     66  C   UNL     1      13.518 -15.472   1.242  1.00  0.00     0.074 A 
ATOM     67  C   UNL     1      13.387 -16.140   2.520  1.00  0.00     0.031 C 
ATOM     68  C   UNL     1      14.005 -16.058   0.121  1.00  0.00     0.037 A 
BRANCH  55  69
ATOM     69  C   UNL     1      14.031 -12.380  -4.841  1.00  0.00     0.064 A 
ATOM     70  C   UNL     1      15.094 -11.594  -5.312  1.00  0.00     0.173 A 
ATOM     71  C   UNL     1      13.246 -13.057  -5.786  1.00  0.00     0.173 A 
ATOM     72  F   UNL     1      15.866 -10.916  -4.450  1.00  0.00    -0.203 F 
ATOM     73  C   UNL     1      15.341 -11.468  -6.677  1.00  0.00     0.198 A 
ATOM     74  C   UNL     1      13.516 -12.953  -7.148  1.00  0.00     0.198 A 
ATOM     75  F   UNL     1      12.221 -13.826  -5.389  1.00  0.00    -0.203 F 
ATOM     76  F   UNL     1      16.330 -10.671  -7.105  1.00  0.00    -0.200 F 
ATOM     77  C   UNL     1      14.557 -12.152  -7.593  1.00  0.00     0.200 A 
ATOM     78  F   UNL     1      12.765 -13.624  -8.032  1.00  0.00    -0.200 F 
ATOM     79  F   UNL     1      14.801 -12.034  -8.905  1.00  0.00    -0.200 F 
ENDBRANCH  55  69
BRANCH  56  80
ATOM     80  C   UNL     1      11.777 -13.024   4.862  1.00  0.00     0.064 A 
ATOM     81  C   UNL     1      12.769 -13.189   5.839  1.00  0.00     0.173 A 
ATOM     82  C   UNL     1      10.442 -12.979   5.288  1.00  0.00     0.173 A 
ATOM     83  F   UNL     1      14.058 -13.260   5.478  1.00  0.00    -0.203 F 
ATOM     84  C   UNL     1      12.438 -13.324   7.186  1.00  0.00     0.198 A 
ATOM     85  C   UNL     1      10.114 -13.087   6.638  1.00  0.00     0.198 A 
ATOM     86  F   UNL     1       9.456 -12.818   4.393  1.00  0.00    -0.203 F 
ATOM     87  F   UNL     1      13.403 -13.525   8.093  1.00  0.00    -0.200 F 
ATOM     88  C   UNL     1      11.111 -13.268   7.585  1.00  0.00     0.200 A 
ATOM     89  F   UNL     1       8.832 -13.019   7.021  1.00  0.00    -0.200 F 
ATOM     90  F   UNL     1      10.793 -13.395   8.880  1.00  0.00    -0.200 F 
ENDBRANCH  56  80
BRANCH  68  91
ATOM     91  C   UNL     1      14.474 -17.479   0.233  1.00  0.00     0.064 A 
ATOM     92  C   UNL     1      13.571 -18.544   0.358  1.00  0.00     0.173 A 
ATOM     93  C   UNL     1      15.843 -17.780   0.168  1.00  0.00     0.173 A 
ATOM     94  F   UNL     1      12.253 -18.306   0.440  1.00  0.00    -0.203 F 
ATOM     95  C   UNL     1      14.023 -19.859   0.435  1.00  0.00     0.198 A 
ATOM     96  C   UNL     1      16.290 -19.097   0.216  1.00  0.00     0.198 A 
ATOM     97  F   UNL     1      16.746 -16.796   0.042  1.00  0.00    -0.203 F 
ATOM     98  F   UNL     1      13.146 -20.859   0.596  1.00  0.00    -0.200 F 
ATOM     99  C   UNL     1      15.380 -20.134   0.356  1.00  0.00     0.200 A 
ATOM    100  F   UNL     1      17.600 -19.362   0.127  1.00  0.00    -0.200 F 
ATOM    101  F   UNL     1      15.813 -21.401   0.420  1.00  0.00    -0.200 F 
ENDBRANCH  68  91
ENDBRANCH  42  43
ENDBRANCH  34  37
ENDBRANCH  32  33
ENDBRANCH  31  32
ENDBRANCH   1  31
TORSDOF 15
