REMARK SMILES O=C(NCCCCNC(=O)c1cc(S[C@H]2CCOC3(CCC3)C2)ccn1)c1ccc(-c2c3nc(c(-c4c(F)c(F)c(F)c(F)c4F)c4ccc([nH]4)c(-c4c(F)c(F)c(F)c(F)c4F)c4nc(c(-c5c(F)c(F)c(F)c(F)c5F)c5ccc2[nH]5)C=C4)C=C3)cc1
REMARK SMILES IDX 5 1 4 2 3 3 1 4 2 5 27 7 28 8 89 9 29 10 88 11 30 12 31 13
REMARK SMILES IDX 32 14 82 15 33 16 87 17 81 18 83 19 34 20 86 21 80 22 79 23
REMARK SMILES IDX 35 25 67 26 47 27 66 28 48 29 51 30 65 31 84 32 49 33 50 34
REMARK SMILES IDX 64 36 85 37 52 38 36 39 37 40 45 41 38 42 39 43 43 44 46 45
REMARK SMILES IDX 40 46 41 47 44 48 42 49 68 50 69 51 77 52 70 53 71 54 75 55
REMARK SMILES IDX 78 56 72 57 73 58 76 59 74 60 53 61 54 62 62 63 55 64 56 65
REMARK SMILES IDX 60 66 63 67 57 68 58 69 61 70 59 71 6 72 7 73 8 74 9 75
REMARK SMILES IDX 10 77 11 78 12 79 26 80 13 81 25 82 24 83 14 84 15 85 16 86
REMARK SMILES IDX 23 87 17 88 19 89 18 90 20 91 22 92 21 93
REMARK H PARENT 3 6 83 24 51 35 8 76
REMARK Flexibility Score: inf
ROOT
ATOM      1  C   UNL     1       3.096   8.396  11.988  1.00  0.00     0.023 C 
ENDROOT
BRANCH   1   2
ATOM      2  C   UNL     1       4.343   8.851  11.241  1.00  0.00     0.116 C 
BRANCH   2   3
ATOM      3  N   UNL     1       4.043   9.732  10.123  1.00  0.00    -0.352 N 
ATOM      4  O   UNL     1       4.024  11.662   8.955  1.00  0.00    -0.269 OA
ATOM      5  C   UNL     1       4.497  11.006   9.878  1.00  0.00     0.251 C 
ATOM      6  H   UNL     1       3.428   9.365   9.448  1.00  0.00     0.163 HD
BRANCH   5   7
ATOM      7  C   UNL     1       5.546  11.592  10.740  1.00  0.00     0.039 A 
ATOM      8  C   UNL     1       6.679  10.851  11.083  1.00  0.00     0.014 A 
ATOM      9  C   UNL     1       5.401  12.905  11.198  1.00  0.00     0.014 A 
ATOM     10  C   UNL     1       7.601  11.373  11.982  1.00  0.00     0.010 A 
ATOM     11  C   UNL     1       6.373  13.461  12.035  1.00  0.00     0.010 A 
ATOM     12  C   UNL     1       7.473  12.693  12.446  1.00  0.00    -0.014 A 
BRANCH  12  13
ATOM     13  C   UNL     1       8.566  13.280  13.260  1.00  0.00     0.031 A 
ATOM     14  C   UNL     1       8.355  13.681  14.691  1.00  0.00     0.074 A 
ATOM     15  C   UNL     1       9.771  13.440  12.678  1.00  0.00     0.049 A 
ATOM     16  N   UNL     1       9.211  14.207  15.531  1.00  0.00    -0.248 NA
ATOM     17  C   UNL     1       7.013  13.473  15.256  1.00  0.00     0.031 C 
ATOM     18  C   UNL     1      10.081  13.106  11.285  1.00  0.00     0.029 A 
ATOM     19  N   UNL     1      10.958  13.912  13.176  1.00  0.00    -0.354 N 
ATOM     20  C   UNL     1       8.512  14.410  16.713  1.00  0.00     0.074 A 
ATOM     21  C   UNL     1       7.154  13.964  16.482  1.00  0.00     0.031 C 
ATOM     22  C   UNL     1      11.376  13.354  11.049  1.00  0.00     0.029 A 
ATOM     23  C   UNL     1      11.973  13.923  12.251  1.00  0.00     0.049 A 
ATOM     24  H   UNL     1      11.071  14.214  14.106  1.00  0.00     0.167 HD
ATOM     25  C   UNL     1       8.972  14.918  17.882  1.00  0.00     0.037 A 
ATOM     26  C   UNL     1      13.238  14.370  12.348  1.00  0.00     0.037 A 
ATOM     27  C   UNL     1      10.333  15.334  18.109  1.00  0.00     0.049 A 
ATOM     28  C   UNL     1      13.705  14.947  13.652  1.00  0.00     0.074 A 
ATOM     29  C   UNL     1      10.910  15.789  19.282  1.00  0.00     0.029 A 
ATOM     30  N   UNL     1      11.326  15.357  17.141  1.00  0.00    -0.354 N 
ATOM     31  N   UNL     1      13.051  15.072  14.781  1.00  0.00    -0.248 NA
ATOM     32  C   UNL     1      15.083  15.452  13.695  1.00  0.00     0.031 C 
ATOM     33  C   UNL     1      12.238  16.137  19.012  1.00  0.00     0.029 A 
ATOM     34  C   UNL     1      12.502  15.855  17.682  1.00  0.00     0.049 A 
ATOM     35  H   UNL     1      11.213  15.063  16.209  1.00  0.00     0.167 HD
ATOM     36  C   UNL     1      13.937  15.664  15.669  1.00  0.00     0.074 A 
ATOM     37  C   UNL     1      15.186  15.842  14.958  1.00  0.00     0.031 C 
ATOM     38  C   UNL     1      13.731  16.035  16.956  1.00  0.00     0.037 A 
BRANCH  25  39
ATOM     39  C   UNL     1       8.005  15.073  19.020  1.00  0.00     0.064 A 
ATOM     40  C   UNL     1       7.562  13.972  19.765  1.00  0.00     0.173 A 
ATOM     41  C   UNL     1       7.604  16.353  19.435  1.00  0.00     0.173 A 
ATOM     42  F   UNL     1       7.912  12.728  19.406  1.00  0.00    -0.203 F 
ATOM     43  C   UNL     1       6.749  14.146  20.884  1.00  0.00     0.198 A 
ATOM     44  C   UNL     1       6.810  16.524  20.566  1.00  0.00     0.198 A 
ATOM     45  F   UNL     1       8.008  17.439  18.761  1.00  0.00    -0.203 F 
ATOM     46  F   UNL     1       6.324  13.078  21.573  1.00  0.00    -0.200 F 
ATOM     47  C   UNL     1       6.383  15.421  21.289  1.00  0.00     0.200 A 
ATOM     48  F   UNL     1       6.470  17.758  20.964  1.00  0.00    -0.200 F 
ATOM     49  F   UNL     1       5.620  15.587  22.378  1.00  0.00    -0.200 F 
ENDBRANCH  25  39
BRANCH  26  50
ATOM     50  C   UNL     1      14.135  14.320  11.165  1.00  0.00     0.064 A 
ATOM     51  C   UNL     1      15.257  13.483  11.140  1.00  0.00     0.173 A 
ATOM     52  C   UNL     1      13.889  15.118  10.037  1.00  0.00     0.173 A 
ATOM     53  F   UNL     1      15.544  12.716  12.202  1.00  0.00    -0.203 F 
ATOM     54  C   UNL     1      16.114  13.463  10.041  1.00  0.00     0.198 A 
ATOM     55  C   UNL     1      14.727  15.072   8.926  1.00  0.00     0.198 A 
ATOM     56  F   UNL     1      12.824  15.933  10.009  1.00  0.00    -0.203 F 
ATOM     57  F   UNL     1      17.209  12.692  10.063  1.00  0.00    -0.200 F 
ATOM     58  C   UNL     1      15.844  14.253   8.933  1.00  0.00     0.200 A 
ATOM     59  F   UNL     1      14.452  15.824   7.851  1.00  0.00    -0.200 F 
ATOM     60  F   UNL     1      16.667  14.231   7.876  1.00  0.00    -0.200 F 
ENDBRANCH  26  50
BRANCH  38  61
ATOM     61  C   UNL     1      14.887  16.668  17.671  1.00  0.00     0.064 A 
ATOM     62  C   UNL     1      15.306  17.972  17.367  1.00  0.00     0.173 A 
ATOM     63  C   UNL     1      15.570  15.975  18.680  1.00  0.00     0.173 A 
ATOM     64  F   UNL     1      14.697  18.667  16.394  1.00  0.00    -0.203 F 
ATOM     65  C   UNL     1      16.384  18.549  18.031  1.00  0.00     0.198 A 
ATOM     66  C   UNL     1      16.628  16.566  19.363  1.00  0.00     0.198 A 
ATOM     67  F   UNL     1      15.204  14.726  19.010  1.00  0.00    -0.203 F 
ATOM     68  F   UNL     1      16.800  19.776  17.690  1.00  0.00    -0.200 F 
ATOM     69  C   UNL     1      17.040  17.848  19.033  1.00  0.00     0.200 A 
ATOM     70  F   UNL     1      17.254  15.892  20.338  1.00  0.00    -0.200 F 
ATOM     71  F   UNL     1      18.076  18.407  19.674  1.00  0.00    -0.200 F 
ENDBRANCH  38  61
ENDBRANCH  12  13
ENDBRANCH   5   7
ENDBRANCH   2   3
ENDBRANCH   1   2
BRANCH   1  72
ATOM     72  C   UNL     1       2.122   7.551  11.172  1.00  0.00     0.023 C 
BRANCH  72  73
ATOM     73  C   UNL     1       2.724   6.311  10.521  1.00  0.00     0.116 C 
BRANCH  73  74
ATOM     74  N   UNL     1       3.273   5.374  11.490  1.00  0.00    -0.351 N 
ATOM     75  C   UNL     1       2.985   4.033  11.670  1.00  0.00     0.269 C 
ATOM     76  H   UNL     1       3.945   5.748  12.106  1.00  0.00     0.163 HD
ATOM     77  O   UNL     1       3.477   3.437  12.624  1.00  0.00    -0.268 OA
BRANCH  75  78
ATOM     78  C   UNL     1       2.138   3.322  10.669  1.00  0.00     0.129 A 
ATOM     79  C   UNL     1       2.475   3.432   9.329  1.00  0.00     0.049 A 
ATOM     80  N   UNL     1       1.069   2.632  11.119  1.00  0.00    -0.251 NA
ATOM     81  C   UNL     1       1.634   2.890   8.363  1.00  0.00     0.011 A 
ATOM     82  C   UNL     1       0.299   2.053  10.174  1.00  0.00     0.113 A 
ATOM     83  C   UNL     1       0.526   2.167   8.806  1.00  0.00     0.035 A 
BRANCH  81  84
ATOM     84  S   UNL     1       1.879   3.109   6.593  1.00  0.00    -0.122 SA
BRANCH  84  85
ATOM     85  C   UNL     1       3.192   4.391   6.524  1.00  0.00     0.057 C 
ATOM     86  C   UNL     1       4.574   3.754   6.709  1.00  0.00     0.043 C 
ATOM     87  C   UNL     1       3.204   5.199   5.218  1.00  0.00     0.050 C 
ATOM     88  C   UNL     1       5.589   4.873   6.869  1.00  0.00     0.162 C 
ATOM     89  C   UNL     1       4.265   6.303   5.367  1.00  0.00     0.069 C 
ATOM     90  O   UNL     1       5.549   5.721   5.727  1.00  0.00    -0.375 OA
ATOM     91  C   UNL     1       4.367   7.295   4.169  1.00  0.00     0.035 C 
ATOM     92  C   UNL     1       3.815   7.537   6.215  1.00  0.00     0.035 C 
ATOM     93  C   UNL     1       4.557   8.424   5.202  1.00  0.00     0.006 C 
ENDBRANCH  84  85
ENDBRANCH  81  84
ENDBRANCH  75  78
ENDBRANCH  73  74
ENDBRANCH  72  73
ENDBRANCH   1  72
TORSDOF 13
