REMARK SMILES COc1ccc(/C=N/NC(=O)c2cc(C)nc3ccccc23)c(C(=O)NCCCCNC(=O)c2ccc(-c3c4nc(c(-c5c(F)c(F)c(F)c(F)c5F)c5ccc([nH]5)c(-c5c(F)c(F)c(F)c(F)c5F)c5nc(c(-c6c(F)c(F)c(F)c(F)c6F)c6ccc3[nH]6)C=C5)C=C4)cc2)c1OC
REMARK SMILES IDX 28 1 27 2 26 3 24 4 25 5 23 7 3 8 4 9 97 10 5 11 6 12 2 13
REMARK SMILES IDX 1 14 98 15 99 16 7 17 8 18 9 19 10 20 11 22 12 23 13 24
REMARK SMILES IDX 22 25 14 26 17 27 21 28 15 29 16 30 18 31 20 32 19 33 29 34
REMARK SMILES IDX 30 35 31 36 32 37 33 39 34 40 35 41 96 42 36 43 95 44 37 45
REMARK SMILES IDX 38 46 39 47 89 48 40 49 94 50 88 51 90 52 41 53 93 54 87 55
REMARK SMILES IDX 86 56 42 58 74 59 54 60 73 61 55 62 58 63 72 64 91 65 56 66
REMARK SMILES IDX 57 67 71 69 92 70 59 71 43 72 44 73 52 74 45 75 46 76 50 77
REMARK SMILES IDX 53 78 47 79 48 80 51 81 49 82 75 83 76 84 84 85 77 86 78 87
REMARK SMILES IDX 82 88 85 89 79 90 80 91 83 92 81 93 60 94 61 95 69 96 62 97
REMARK SMILES IDX 63 98 67 99 70 100 64 101 65 102 68 103 66 104
REMARK H PARENT 26 6 9 21 31 38 90 57 58 68
REMARK Flexibility Score: inf
ROOT
ATOM      1  C   UNL     1       5.864  -1.708   1.640  1.00  0.00     0.023 C 
ENDROOT
BRANCH   1   2
ATOM      2  C   UNL     1       4.838  -2.333   0.717  1.00  0.00     0.116 C 
BRANCH   2   3
ATOM      3  N   UNL     1       4.991  -3.647   0.155  1.00  0.00    -0.352 N 
ATOM      4  C   UNL     1       3.994  -4.333  -0.538  1.00  0.00     0.255 C 
ATOM      5  O   UNL     1       4.345  -5.211  -1.324  1.00  0.00    -0.269 OA
ATOM      6  H   UNL     1       5.861  -4.095   0.269  1.00  0.00     0.163 HD
BRANCH   4   7
ATOM      7  C   UNL     1       2.530  -4.122  -0.250  1.00  0.00     0.094 A 
ATOM      8  C   UNL     1       0.704  -2.627   0.457  1.00  0.00     0.161 A 
ATOM      9  C   UNL     1      -0.014  -3.770   0.834  1.00  0.00     0.051 A 
ATOM     10  C   UNL     1       1.950  -2.796  -0.172  1.00  0.00     0.174 A 
ATOM     11  C   UNL     1       0.470  -5.067   0.587  1.00  0.00     0.015 A 
ATOM     12  C   UNL     1       1.755  -5.276   0.060  1.00  0.00     0.011 A 
BRANCH   8  13
ATOM     13  O   UNL     1       0.186  -1.474   0.988  1.00  0.00    -0.493 OA
ATOM     14  C   UNL     1      -0.151  -0.385   0.140  1.00  0.00     0.278 C 
ENDBRANCH   8  13
BRANCH  10  15
ATOM     15  O   UNL     1       2.621  -1.804  -0.854  1.00  0.00    -0.492 OA
ATOM     16  C   UNL     1       2.706  -0.480  -0.327  1.00  0.00     0.278 C 
ENDBRANCH  10  15
BRANCH  12  17
ATOM     17  C   UNL     1       2.219  -6.726  -0.143  1.00  0.00     0.142 C 
ATOM     18  N   UNL     1       1.388  -7.702   0.009  1.00  0.00    -0.180 NA
BRANCH  18  19
ATOM     19  N   UNL     1       1.522  -9.050  -0.131  1.00  0.00    -0.243 N 
ATOM     20  C   UNL     1       2.276 -10.159  -0.491  1.00  0.00     0.272 C 
ATOM     21  H   UNL     1       0.661  -9.420   0.173  1.00  0.00     0.194 HD
ATOM     22  O   UNL     1       1.599 -11.191  -0.333  1.00  0.00    -0.267 OA
BRANCH  20  23
ATOM     23  C   UNL     1       3.679 -10.377  -1.008  1.00  0.00     0.052 A 
ATOM     24  C   UNL     1       4.617  -9.346  -1.042  1.00  0.00     0.038 A 
ATOM     25  C   UNL     1       4.124 -11.727  -1.416  1.00  0.00     0.013 A 
ATOM     26  C   UNL     1       5.905  -9.611  -1.501  1.00  0.00     0.039 A 
ATOM     27  C   UNL     1       5.466 -11.843  -1.845  1.00  0.00     0.071 A 
ATOM     28  C   UNL     1       3.415 -12.981  -1.433  1.00  0.00     0.011 A 
ATOM     29  C   UNL     1       7.013  -8.608  -1.521  1.00  0.00     0.067 C 
ATOM     30  N   UNL     1       6.306 -10.826  -1.903  1.00  0.00    -0.253 NA
ATOM     31  C   UNL     1       6.037 -13.052  -2.219  1.00  0.00     0.029 A 
ATOM     32  C   UNL     1       4.005 -14.205  -1.804  1.00  0.00     0.001 A 
ATOM     33  C   UNL     1       5.329 -14.242  -2.194  1.00  0.00     0.002 A 
ENDBRANCH  20  23
ENDBRANCH  18  19
ENDBRANCH  12  17
ENDBRANCH   4   7
ENDBRANCH   2   3
ENDBRANCH   1   2
BRANCH   1  34
ATOM     34  C   UNL     1       7.268  -1.555   1.082  1.00  0.00     0.023 C 
BRANCH  34  35
ATOM     35  C   UNL     1       7.380  -0.870  -0.277  1.00  0.00     0.116 C 
BRANCH  35  36
ATOM     36  N   UNL     1       7.011   0.541  -0.266  1.00  0.00    -0.352 N 
ATOM     37  C   UNL     1       7.788   1.663  -0.481  1.00  0.00     0.251 C 
ATOM     38  H   UNL     1       6.062   0.722  -0.076  1.00  0.00     0.163 HD
ATOM     39  O   UNL     1       7.327   2.778  -0.313  1.00  0.00    -0.269 OA
BRANCH  37  40
ATOM     40  C   UNL     1       9.206   1.498  -0.879  1.00  0.00     0.039 A 
ATOM     41  C   UNL     1      10.190   2.226  -0.206  1.00  0.00     0.014 A 
ATOM     42  C   UNL     1       9.562   0.591  -1.876  1.00  0.00     0.014 A 
ATOM     43  C   UNL     1      11.537   1.963  -0.467  1.00  0.00     0.010 A 
ATOM     44  C   UNL     1      10.898   0.247  -2.048  1.00  0.00     0.010 A 
ATOM     45  C   UNL     1      11.902   0.929  -1.347  1.00  0.00    -0.014 A 
BRANCH  45  46
ATOM     46  C   UNL     1      13.326   0.549  -1.544  1.00  0.00     0.031 A 
ATOM     47  C   UNL     1      13.948   0.636  -2.910  1.00  0.00     0.074 A 
ATOM     48  C   UNL     1      14.043   0.076  -0.504  1.00  0.00     0.049 A 
ATOM     49  N   UNL     1      15.154   0.299  -3.293  1.00  0.00    -0.248 NA
ATOM     50  C   UNL     1      13.097   1.144  -3.998  1.00  0.00     0.031 C 
ATOM     51  C   UNL     1      13.540  -0.102   0.860  1.00  0.00     0.029 A 
ATOM     52  N   UNL     1      15.347  -0.348  -0.432  1.00  0.00    -0.354 N 
ATOM     53  C   UNL     1      15.202   0.554  -4.657  1.00  0.00     0.074 A 
ATOM     54  C   UNL     1      13.886   1.002  -5.052  1.00  0.00     0.031 C 
ATOM     55  C   UNL     1      14.531  -0.564   1.638  1.00  0.00     0.029 A 
ATOM     56  C   UNL     1      15.722  -0.772   0.821  1.00  0.00     0.049 A 
ATOM     57  H   UNL     1      15.957  -0.349  -1.205  1.00  0.00     0.167 HD
ATOM     58  C   UNL     1      16.257   0.455  -5.500  1.00  0.00     0.037 A 
ATOM     59  C   UNL     1      16.888  -1.287   1.258  1.00  0.00     0.037 A 
ATOM     60  C   UNL     1      17.567   0.011  -5.102  1.00  0.00     0.049 A 
ATOM     61  C   UNL     1      18.029  -1.437   0.285  1.00  0.00     0.074 A 
ATOM     62  C   UNL     1      18.712  -0.089  -5.873  1.00  0.00     0.029 A 
ATOM     63  N   UNL     1      17.905  -0.416  -3.826  1.00  0.00    -0.354 N 
ATOM     64  N   UNL     1      18.082  -1.124  -0.987  1.00  0.00    -0.248 NA
ATOM     65  C   UNL     1      19.278  -2.006   0.812  1.00  0.00     0.031 C 
ATOM     66  C   UNL     1      19.721  -0.648  -5.085  1.00  0.00     0.029 A 
ATOM     67  C   UNL     1      19.233  -0.813  -3.799  1.00  0.00     0.049 A 
ATOM     68  H   UNL     1      17.293  -0.434  -3.056  1.00  0.00     0.167 HD
ATOM     69  C   UNL     1      19.374  -1.422  -1.401  1.00  0.00     0.074 A 
ATOM     70  C   UNL     1      20.078  -1.920  -0.239  1.00  0.00     0.031 C 
ATOM     71  C   UNL     1      19.927  -1.296  -2.632  1.00  0.00     0.037 A 
BRANCH  58  72
ATOM     72  C   UNL     1      16.042   0.832  -6.938  1.00  0.00     0.064 A 
ATOM     73  C   UNL     1      15.787   2.158  -7.323  1.00  0.00     0.173 A 
ATOM     74  C   UNL     1      16.148  -0.134  -7.951  1.00  0.00     0.173 A 
ATOM     75  F   UNL     1      15.666   3.119  -6.396  1.00  0.00    -0.203 F 
ATOM     76  C   UNL     1      15.619   2.496  -8.663  1.00  0.00     0.198 A 
ATOM     77  C   UNL     1      16.019   0.215  -9.293  1.00  0.00     0.198 A 
ATOM     78  F   UNL     1      16.397  -1.415  -7.641  1.00  0.00    -0.203 F 
ATOM     79  F   UNL     1      15.324   3.759  -9.001  1.00  0.00    -0.200 F 
ATOM     80  C   UNL     1      15.746   1.528  -9.647  1.00  0.00     0.200 A 
ATOM     81  F   UNL     1      16.162  -0.719 -10.243  1.00  0.00    -0.200 F 
ATOM     82  F   UNL     1      15.600   1.858 -10.937  1.00  0.00    -0.200 F 
ENDBRANCH  58  72
BRANCH  59  83
ATOM     83  C   UNL     1      17.041  -1.710   2.678  1.00  0.00     0.064 A 
ATOM     84  C   UNL     1      17.960  -1.080   3.530  1.00  0.00     0.173 A 
ATOM     85  C   UNL     1      16.304  -2.784   3.201  1.00  0.00     0.173 A 
ATOM     86  F   UNL     1      18.702  -0.059   3.077  1.00  0.00    -0.203 F 
ATOM     87  C   UNL     1      18.167  -1.535   4.831  1.00  0.00     0.198 A 
ATOM     88  C   UNL     1      16.481  -3.210   4.516  1.00  0.00     0.198 A 
ATOM     89  F   UNL     1      15.405  -3.420   2.435  1.00  0.00    -0.203 F 
ATOM     90  F   UNL     1      19.107  -0.963   5.596  1.00  0.00    -0.200 F 
ATOM     91  C   UNL     1      17.424  -2.597   5.324  1.00  0.00     0.200 A 
ATOM     92  F   UNL     1      15.744  -4.222   4.994  1.00  0.00    -0.200 F 
ATOM     93  F   UNL     1      17.627  -3.036   6.574  1.00  0.00    -0.200 F 
ENDBRANCH  59  83
BRANCH  71  94
ATOM     94  C   UNL     1      21.382  -1.647  -2.780  1.00  0.00     0.064 A 
ATOM     95  C   UNL     1      21.846  -2.966  -2.658  1.00  0.00     0.173 A 
ATOM     96  C   UNL     1      22.321  -0.649  -3.087  1.00  0.00     0.173 A 
ATOM     97  F   UNL     1      20.994  -3.957  -2.356  1.00  0.00    -0.203 F 
ATOM     98  C   UNL     1      23.199  -3.265  -2.800  1.00  0.00     0.198 A 
ATOM     99  C   UNL     1      23.665  -0.959  -3.272  1.00  0.00     0.198 A 
ATOM    100  F   UNL     1      21.932   0.627  -3.226  1.00  0.00    -0.203 F 
ATOM    101  F   UNL     1      23.627  -4.521  -2.614  1.00  0.00    -0.200 F 
ATOM    102  C   UNL     1      24.105  -2.264  -3.115  1.00  0.00     0.200 A 
ATOM    103  F   UNL     1      24.534   0.007  -3.600  1.00  0.00    -0.200 F 
ATOM    104  F   UNL     1      25.404  -2.556  -3.262  1.00  0.00    -0.200 F 
ENDBRANCH  71  94
ENDBRANCH  45  46
ENDBRANCH  37  40
ENDBRANCH  35  36
ENDBRANCH  34  35
ENDBRANCH   1  34
TORSDOF 16
