REMARK SMILES C[NH2+][C@]1(C(=O)NCCCCNC(=O)c2ccc(-c3c4nc(c(-c5c(F)c(F)c(F)c(F)c5F)c5ccc([nH]5)c(-c5c(F)c(F)c(F)c(F)c5F)c5nc(c(-c6c(F)c(F)c(F)c(F)c6F)c6ccc3[nH]6)C=C5)C=C4)cc2)CCC[C@@H]1CC[N@H+]1CCC[C@H]([NH+](C)C)C1
REMARK SMILES IDX 7 1 6 2 4 3 5 4 3 6 77 7 80 8 78 9 79 10 2 11 1 12 81 15
REMARK SMILES IDX 82 16 83 17 84 18 91 19 85 21 87 22 86 23 88 24 89 25 90 26
REMARK SMILES IDX 8 28 9 29 10 30 11 31 12 32 13 34 14 35 15 36 76 37 16 38
REMARK SMILES IDX 75 39 17 40 18 41 19 42 69 43 20 44 74 45 68 46 70 47 21 48
REMARK SMILES IDX 73 49 67 50 66 51 22 53 54 54 34 55 53 56 35 57 38 58 52 59
REMARK SMILES IDX 71 60 36 61 37 62 51 64 72 65 39 66 23 67 24 68 32 69 25 70
REMARK SMILES IDX 26 71 30 72 33 73 27 74 28 75 31 76 29 77 55 78 56 79 64 80
REMARK SMILES IDX 57 81 58 82 62 83 65 84 59 85 60 86 63 87 61 88 40 89 41 90
REMARK SMILES IDX 49 91 42 92 43 93 47 94 50 95 44 96 45 97 48 98 46 99
REMARK H PARENT 6 5 2 13 2 14 83 20 88 27 11 33 70 52 38 63
REMARK Flexibility Score: inf
ROOT
ATOM      1  C   UNL     1       0.792   2.309  -1.416  1.00  0.00     0.116 C 
ENDROOT
BRANCH   1   2
ATOM      2  N   UNL     1       1.057   1.920  -0.047  1.00  0.00    -0.351 N 
ATOM      3  C   UNL     1       0.235   1.700   1.015  1.00  0.00     0.281 C 
ATOM      4  O   UNL     1       0.813   1.500   2.094  1.00  0.00    -0.268 OA
ATOM      5  H   UNL     1       2.012   1.790   0.154  1.00  0.00     0.163 HD
BRANCH   3   6
ATOM      6  C   UNL     1      -1.329   1.568   0.922  1.00  0.00     0.178 C 
ATOM      7  C   UNL     1      -2.078   2.637   0.113  1.00  0.00     0.079 C 
ATOM      8  C   UNL     1      -1.694   0.261   0.146  1.00  0.00     0.066 C 
ATOM      9  C   UNL     1      -3.407   1.992  -0.254  1.00  0.00     0.008 C 
ATOM     10  C   UNL     1      -3.132   0.491  -0.359  1.00  0.00     0.011 C 
BRANCH   6  11
ATOM     11  N   UNL     1      -1.871   1.435   2.317  1.00  0.00    -0.336 N 
ATOM     12  C   UNL     1      -2.093   2.685   3.026  1.00  0.00     0.331 C 
ATOM     13  H   UNL     1      -2.763   0.943   2.261  1.00  0.00     0.346 HD
ATOM     14  H   UNL     1      -1.158   0.936   2.848  1.00  0.00     0.346 HD
ENDBRANCH   6  11
BRANCH   8  15
ATOM     15  C   UNL     1      -1.553  -1.031   0.982  1.00  0.00     0.072 C 
BRANCH  15  16
ATOM     16  C   UNL     1      -1.316  -2.321   0.187  1.00  0.00     0.262 C 
BRANCH  16  17
ATOM     17  N   UNL     1      -0.098  -2.382  -0.642  1.00  0.00    -0.330 N 
ATOM     18  C   UNL     1       1.112  -1.869   0.009  1.00  0.00     0.262 C 
ATOM     19  C   UNL     1       0.140  -3.785  -1.049  1.00  0.00     0.327 C 
ATOM     20  H   UNL     1      -0.273  -1.774  -1.441  1.00  0.00     0.348 HD
ATOM     21  C   UNL     1       2.274  -1.829  -0.981  1.00  0.00     0.068 C 
ATOM     22  C   UNL     1       1.298  -3.958  -2.072  1.00  0.00     0.239 C 
ATOM     23  C   UNL     1       2.556  -3.195  -1.600  1.00  0.00     0.077 C 
BRANCH  22  24
ATOM     24  N   UNL     1       0.970  -3.730  -3.503  1.00  0.00    -0.333 N 
ATOM     25  C   UNL     1       0.010  -4.723  -3.997  1.00  0.00     0.332 C 
ATOM     26  C   UNL     1       0.485  -2.389  -3.814  1.00  0.00     0.332 C 
ATOM     27  H   UNL     1       1.863  -3.833  -3.985  1.00  0.00     0.348 HD
ENDBRANCH  22  24
ENDBRANCH  16  17
ENDBRANCH  15  16
ENDBRANCH   8  15
ENDBRANCH   3   6
ENDBRANCH   1   2
BRANCH   1  28
ATOM     28  C   UNL     1       0.811   3.834  -1.540  1.00  0.00     0.023 C 
BRANCH  28  29
ATOM     29  C   UNL     1       2.220   4.432  -1.593  1.00  0.00     0.023 C 
BRANCH  29  30
ATOM     30  C   UNL     1       3.009   4.085  -2.852  1.00  0.00     0.116 C 
BRANCH  30  31
ATOM     31  N   UNL     1       2.360   4.536  -4.074  1.00  0.00    -0.352 N 
ATOM     32  C   UNL     1       2.936   4.982  -5.237  1.00  0.00     0.251 C 
ATOM     33  H   UNL     1       1.375   4.518  -4.065  1.00  0.00     0.163 HD
ATOM     34  O   UNL     1       2.242   5.433  -6.142  1.00  0.00    -0.269 OA
BRANCH  32  35
ATOM     35  C   UNL     1       4.406   4.955  -5.373  1.00  0.00     0.039 A 
ATOM     36  C   UNL     1       5.059   6.109  -5.813  1.00  0.00     0.014 A 
ATOM     37  C   UNL     1       5.135   3.811  -5.041  1.00  0.00     0.014 A 
ATOM     38  C   UNL     1       6.453   6.136  -5.859  1.00  0.00     0.010 A 
ATOM     39  C   UNL     1       6.525   3.862  -5.021  1.00  0.00     0.010 A 
ATOM     40  C   UNL     1       7.197   5.024  -5.429  1.00  0.00    -0.014 A 
BRANCH  40  41
ATOM     41  C   UNL     1       8.679   5.063  -5.393  1.00  0.00     0.031 A 
ATOM     42  C   UNL     1       9.479   4.153  -6.281  1.00  0.00     0.074 A 
ATOM     43  C   UNL     1       9.300   5.868  -4.511  1.00  0.00     0.049 A 
ATOM     44  N   UNL     1      10.776   3.991  -6.347  1.00  0.00    -0.248 NA
ATOM     45  C   UNL     1       8.719   3.287  -7.196  1.00  0.00     0.031 C 
ATOM     46  C   UNL     1       8.630   6.757  -3.559  1.00  0.00     0.029 A 
ATOM     47  N   UNL     1      10.636   6.061  -4.260  1.00  0.00    -0.354 N 
ATOM     48  C   UNL     1      10.985   2.999  -7.294  1.00  0.00     0.074 A 
ATOM     49  C   UNL     1       9.681   2.558  -7.740  1.00  0.00     0.031 C 
ATOM     50  C   UNL     1       9.557   7.412  -2.843  1.00  0.00     0.029 A 
ATOM     51  C   UNL     1      10.883   6.966  -3.258  1.00  0.00     0.049 A 
ATOM     52  H   UNL     1      11.349   5.593  -4.752  1.00  0.00     0.167 HD
ATOM     53  C   UNL     1      12.159   2.516  -7.765  1.00  0.00     0.037 A 
ATOM     54  C   UNL     1      12.049   7.384  -2.729  1.00  0.00     0.037 A 
ATOM     55  C   UNL     1      13.453   2.979  -7.338  1.00  0.00     0.049 A 
ATOM     56  C   UNL     1      13.340   6.838  -3.277  1.00  0.00     0.074 A 
ATOM     57  C   UNL     1      14.700   2.604  -7.805  1.00  0.00     0.029 A 
ATOM     58  N   UNL     1      13.665   3.918  -6.339  1.00  0.00    -0.354 N 
ATOM     59  N   UNL     1      13.527   5.955  -4.228  1.00  0.00    -0.248 NA
ATOM     60  C   UNL     1      14.581   7.353  -2.684  1.00  0.00     0.031 C 
ATOM     61  C   UNL     1      15.668   3.281  -7.056  1.00  0.00     0.029 A 
ATOM     62  C   UNL     1      15.024   4.118  -6.159  1.00  0.00     0.049 A 
ATOM     63  H   UNL     1      12.954   4.375  -5.833  1.00  0.00     0.167 HD
ATOM     64  C   UNL     1      14.902   5.828  -4.366  1.00  0.00     0.074 A 
ATOM     65  C   UNL     1      15.503   6.737  -3.411  1.00  0.00     0.031 C 
ATOM     66  C   UNL     1      15.605   5.031  -5.208  1.00  0.00     0.037 A 
BRANCH  53  67
ATOM     67  C   UNL     1      12.098   1.430  -8.801  1.00  0.00     0.064 A 
ATOM     68  C   UNL     1      11.651   1.682 -10.107  1.00  0.00     0.173 A 
ATOM     69  C   UNL     1      12.529   0.131  -8.495  1.00  0.00     0.173 A 
ATOM     70  F   UNL     1      11.218   2.905 -10.448  1.00  0.00    -0.203 F 
ATOM     71  C   UNL     1      11.611   0.667 -11.059  1.00  0.00     0.198 A 
ATOM     72  C   UNL     1      12.517  -0.874  -9.459  1.00  0.00     0.198 A 
ATOM     73  F   UNL     1      12.972  -0.164  -7.263  1.00  0.00    -0.203 F 
ATOM     74  F   UNL     1      11.134   0.921 -12.286  1.00  0.00    -0.200 F 
ATOM     75  C   UNL     1      12.050  -0.607 -10.737  1.00  0.00     0.200 A 
ATOM     76  F   UNL     1      12.954  -2.103  -9.149  1.00  0.00    -0.200 F 
ATOM     77  F   UNL     1      12.019  -1.581 -11.657  1.00  0.00    -0.200 F 
ENDBRANCH  53  67
BRANCH  54  78
ATOM     78  C   UNL     1      12.049   8.391  -1.637  1.00  0.00     0.064 A 
ATOM     79  C   UNL     1      12.507   9.697  -1.861  1.00  0.00     0.173 A 
ATOM     80  C   UNL     1      11.590   8.073  -0.350  1.00  0.00     0.173 A 
ATOM     81  F   UNL     1      12.974  10.043  -3.070  1.00  0.00    -0.203 F 
ATOM     82  C   UNL     1      12.526  10.640  -0.836  1.00  0.00     0.198 A 
ATOM     83  C   UNL     1      11.582   9.025   0.667  1.00  0.00     0.198 A 
ATOM     84  F   UNL     1      11.134   6.840  -0.086  1.00  0.00    -0.203 F 
ATOM     85  F   UNL     1      13.011  11.867  -1.067  1.00  0.00    -0.200 F 
ATOM     86  C   UNL     1      12.058  10.305   0.426  1.00  0.00     0.200 A 
ATOM     87  F   UNL     1      11.116   8.702   1.881  1.00  0.00    -0.200 F 
ATOM     88  F   UNL     1      12.072  11.214   1.410  1.00  0.00    -0.200 F 
ENDBRANCH  54  78
BRANCH  66  89
ATOM     89  C   UNL     1      17.102   5.127  -5.158  1.00  0.00     0.064 A 
ATOM     90  C   UNL     1      17.837   4.615  -4.079  1.00  0.00     0.173 A 
ATOM     91  C   UNL     1      17.811   5.700  -6.225  1.00  0.00     0.173 A 
ATOM     92  F   UNL     1      17.205   4.071  -3.029  1.00  0.00    -0.203 F 
ATOM     93  C   UNL     1      19.227   4.696  -4.060  1.00  0.00     0.198 A 
ATOM     94  C   UNL     1      19.201   5.751  -6.216  1.00  0.00     0.198 A 
ATOM     95  F   UNL     1      17.154   6.198  -7.284  1.00  0.00    -0.203 F 
ATOM     96  F   UNL     1      19.907   4.242  -2.998  1.00  0.00    -0.200 F 
ATOM     97  C   UNL     1      19.908   5.256  -5.131  1.00  0.00     0.200 A 
ATOM     98  F   UNL     1      19.858   6.279  -7.258  1.00  0.00    -0.200 F 
ATOM     99  F   UNL     1      21.246   5.324  -5.114  1.00  0.00    -0.200 F 
ENDBRANCH  66  89
ENDBRANCH  40  41
ENDBRANCH  32  35
ENDBRANCH  30  31
ENDBRANCH  29  30
ENDBRANCH  28  29
ENDBRANCH   1  28
TORSDOF 16
