REMARK SMILES Cc1ccc(NC(=O)C[N@H+]2CCC[C@@H](C(=O)NCCCCNC(=O)c3ccc(-c4c5nc(c(-c6c(F)c(F)c(F)c(F)c6F)c6ccc([nH]6)c(-c6c(F)c(F)c(F)c(F)c6F)c6nc(c(-c7c(F)c(F)c(F)c(F)c7F)c7ccc4[nH]7)C=C6)C=C5)cc3)C2)cc1F
REMARK SMILES IDX 19 1 18 2 17 3 15 4 16 5 14 7 10 8 11 9 88 10 12 12 13 13
REMARK SMILES IDX 9 14 7 15 6 16 8 18 5 19 1 20 2 21 3 22 90 23 4 24 89 25
REMARK SMILES IDX 91 26 20 27 21 28 22 29 23 30 24 32 25 33 26 34 87 35 27 36
REMARK SMILES IDX 86 37 28 38 29 39 30 40 80 41 31 42 85 43 79 44 81 45 32 46
REMARK SMILES IDX 84 47 78 48 77 49 33 51 65 52 45 53 64 54 46 55 49 56 63 57
REMARK SMILES IDX 82 58 47 59 48 60 62 62 83 63 50 64 34 65 35 66 43 67 36 68
REMARK SMILES IDX 37 69 41 70 44 71 38 72 39 73 42 74 40 75 66 76 67 77 75 78
REMARK SMILES IDX 68 79 69 80 73 81 76 82 70 83 71 84 74 85 72 86 51 87 52 88
REMARK SMILES IDX 60 89 53 90 54 91 58 92 61 93 55 94 56 95 59 96 57 97
REMARK H PARENT 17 6 10 11 6 17 22 31 81 50 49 61
REMARK Flexibility Score: inf
ROOT
ATOM      1  C   UNL     1       1.387   1.818  -2.405  1.00  0.00     0.023 C 
ENDROOT
BRANCH   1   2
ATOM      2  C   UNL     1       0.175   0.938  -2.074  1.00  0.00     0.116 C 
BRANCH   2   3
ATOM      3  N   UNL     1      -0.721   0.766  -3.204  1.00  0.00    -0.356 N 
ATOM      4  C   UNL     1      -1.172  -0.380  -3.800  1.00  0.00     0.228 C 
ATOM      5  O   UNL     1      -1.987  -0.266  -4.716  1.00  0.00    -0.275 OA
ATOM      6  H   UNL     1      -1.055   1.602  -3.603  1.00  0.00     0.163 HD
BRANCH   4   7
ATOM      7  C   UNL     1      -0.693  -1.741  -3.306  1.00  0.00     0.133 C 
ATOM      8  N   UNL     1      -1.120  -3.499  -1.581  1.00  0.00    -0.326 N 
ATOM      9  C   UNL     1      -1.076  -4.538  -2.631  1.00  0.00     0.262 C 
ATOM     10  C   UNL     1      -1.579  -2.213  -2.139  1.00  0.00     0.276 C 
ATOM     11  H   UNL     1      -0.192  -3.282  -1.218  1.00  0.00     0.348 HD
ATOM     12  C   UNL     1      -0.260  -4.130  -3.858  1.00  0.00     0.062 C 
ATOM     13  C   UNL     1      -0.731  -2.792  -4.416  1.00  0.00     0.025 C 
BRANCH   8  14
ATOM     14  C   UNL     1      -1.902  -4.031  -0.424  1.00  0.00     0.363 C 
BRANCH  14  15
ATOM     15  C   UNL     1      -2.936  -3.105   0.212  1.00  0.00     0.279 C 
ATOM     16  N   UNL     1      -2.627  -1.968   0.898  1.00  0.00    -0.321 N 
ATOM     17  H   UNL     1      -3.416  -1.490   1.243  1.00  0.00     0.170 HD
ATOM     18  O   UNL     1      -4.142  -3.361   0.086  1.00  0.00    -0.268 OA
BRANCH  16  19
ATOM     19  C   UNL     1      -1.412  -1.342   1.211  1.00  0.00     0.044 A 
ATOM     20  C   UNL     1       2.218   0.946   1.655  1.00  0.00     0.047 C 
ATOM     21  C   UNL     1       0.955   0.146   1.590  1.00  0.00    -0.015 A 
ATOM     22  C   UNL     1      -0.292   0.767   1.654  1.00  0.00     0.008 A 
ATOM     23  C   UNL     1       0.991  -1.231   1.401  1.00  0.00     0.128 A 
ATOM     24  C   UNL     1      -1.467   0.034   1.466  1.00  0.00     0.026 A 
ATOM     25  C   UNL     1      -0.173  -1.974   1.232  1.00  0.00     0.065 A 
ATOM     26  F   UNL     1       2.168  -1.870   1.361  1.00  0.00    -0.207 F 
ENDBRANCH  16  19
ENDBRANCH  14  15
ENDBRANCH   8  14
ENDBRANCH   4   7
ENDBRANCH   2   3
ENDBRANCH   1   2
BRANCH   1  27
ATOM     27  C   UNL     1       1.120   3.326  -2.539  1.00  0.00     0.023 C 
BRANCH  27  28
ATOM     28  C   UNL     1       0.631   3.999  -1.264  1.00  0.00     0.116 C 
BRANCH  28  29
ATOM     29  N   UNL     1       1.648   4.029  -0.211  1.00  0.00    -0.352 N 
ATOM     30  C   UNL     1       1.703   4.833   0.916  1.00  0.00     0.251 C 
ATOM     31  H   UNL     1       2.392   3.394  -0.319  1.00  0.00     0.163 HD
ATOM     32  O   UNL     1       2.747   4.999   1.521  1.00  0.00    -0.269 OA
BRANCH  30  33
ATOM     33  C   UNL     1       0.453   5.433   1.415  1.00  0.00     0.039 A 
ATOM     34  C   UNL     1       0.400   6.698   2.019  1.00  0.00     0.014 A 
ATOM     35  C   UNL     1      -0.691   4.655   1.310  1.00  0.00     0.014 A 
ATOM     36  C   UNL     1      -0.832   7.202   2.445  1.00  0.00     0.010 A 
ATOM     37  C   UNL     1      -1.904   5.172   1.637  1.00  0.00     0.010 A 
ATOM     38  C   UNL     1      -1.974   6.429   2.233  1.00  0.00    -0.014 A 
BRANCH  38  39
ATOM     39  C   UNL     1      -3.343   6.822   2.508  1.00  0.00     0.031 A 
ATOM     40  C   UNL     1      -3.985   7.833   1.660  1.00  0.00     0.074 A 
ATOM     41  C   UNL     1      -4.022   5.988   3.324  1.00  0.00     0.049 A 
ATOM     42  N   UNL     1      -5.073   8.447   1.955  1.00  0.00    -0.248 NA
ATOM     43  C   UNL     1      -3.425   8.239   0.375  1.00  0.00     0.031 C 
ATOM     44  C   UNL     1      -5.451   5.810   3.514  1.00  0.00     0.029 A 
ATOM     45  N   UNL     1      -3.444   5.143   4.286  1.00  0.00    -0.354 N 
ATOM     46  C   UNL     1      -5.526   9.060   0.804  1.00  0.00     0.074 A 
ATOM     47  C   UNL     1      -4.407   9.010  -0.105  1.00  0.00     0.031 C 
ATOM     48  C   UNL     1      -5.647   5.215   4.708  1.00  0.00     0.029 A 
ATOM     49  C   UNL     1      -4.346   5.145   5.364  1.00  0.00     0.049 A 
ATOM     50  H   UNL     1      -2.592   4.654   4.220  1.00  0.00     0.167 HD
ATOM     51  C   UNL     1      -6.856   9.364   0.716  1.00  0.00     0.037 A 
ATOM     52  C   UNL     1      -3.990   5.828   6.495  1.00  0.00     0.037 A 
ATOM     53  C   UNL     1      -7.522   9.014   1.976  1.00  0.00     0.049 A 
ATOM     54  C   UNL     1      -4.909   6.999   6.733  1.00  0.00     0.074 A 
ATOM     55  C   UNL     1      -8.249   7.896   2.355  1.00  0.00     0.029 A 
ATOM     56  N   UNL     1      -7.151   9.660   3.154  1.00  0.00    -0.354 N 
ATOM     57  N   UNL     1      -5.508   7.668   5.783  1.00  0.00    -0.248 NA
ATOM     58  C   UNL     1      -5.285   7.444   8.068  1.00  0.00     0.031 C 
ATOM     59  C   UNL     1      -8.223   7.820   3.773  1.00  0.00     0.029 A 
ATOM     60  C   UNL     1      -7.505   8.902   4.256  1.00  0.00     0.049 A 
ATOM     61  H   UNL     1      -6.700  10.534   3.196  1.00  0.00     0.167 HD
ATOM     62  C   UNL     1      -6.378   8.563   6.346  1.00  0.00     0.074 A 
ATOM     63  C   UNL     1      -6.191   8.393   7.778  1.00  0.00     0.031 C 
ATOM     64  C   UNL     1      -7.212   9.356   5.609  1.00  0.00     0.037 A 
BRANCH  51  65
ATOM     65  C   UNL     1      -7.611   9.652  -0.574  1.00  0.00     0.064 A 
ATOM     66  C   UNL     1      -9.005   9.425  -0.654  1.00  0.00     0.173 A 
ATOM     67  C   UNL     1      -7.033  10.100  -1.778  1.00  0.00     0.173 A 
ATOM     68  F   UNL     1      -9.724   9.095   0.427  1.00  0.00    -0.203 F 
ATOM     69  C   UNL     1      -9.726   9.532  -1.849  1.00  0.00     0.198 A 
ATOM     70  C   UNL     1      -7.744  10.169  -2.983  1.00  0.00     0.198 A 
ATOM     71  F   UNL     1      -5.776  10.551  -1.828  1.00  0.00    -0.203 F 
ATOM     72  F   UNL     1     -11.045   9.290  -1.854  1.00  0.00    -0.200 F 
ATOM     73  C   UNL     1      -9.090   9.875  -3.022  1.00  0.00     0.200 A 
ATOM     74  F   UNL     1      -7.110  10.533  -4.108  1.00  0.00    -0.200 F 
ATOM     75  F   UNL     1      -9.772   9.952  -4.172  1.00  0.00    -0.200 F 
ENDBRANCH  51  65
BRANCH  52  76
ATOM     76  C   UNL     1      -2.503   5.807   6.708  1.00  0.00     0.064 A 
ATOM     77  C   UNL     1      -1.889   4.540   6.837  1.00  0.00     0.173 A 
ATOM     78  C   UNL     1      -1.682   6.875   6.317  1.00  0.00     0.173 A 
ATOM     79  F   UNL     1      -2.622   3.479   7.213  1.00  0.00    -0.203 F 
ATOM     80  C   UNL     1      -0.577   4.320   6.420  1.00  0.00     0.198 A 
ATOM     81  C   UNL     1      -0.354   6.654   5.931  1.00  0.00     0.198 A 
ATOM     82  F   UNL     1      -2.187   8.110   6.192  1.00  0.00    -0.203 F 
ATOM     83  F   UNL     1      -0.084   3.072   6.398  1.00  0.00    -0.200 F 
ATOM     84  C   UNL     1       0.179   5.372   5.935  1.00  0.00     0.200 A 
ATOM     85  F   UNL     1       0.387   7.673   5.469  1.00  0.00    -0.200 F 
ATOM     86  F   UNL     1       1.403   5.144   5.438  1.00  0.00    -0.200 F 
ENDBRANCH  52  76
BRANCH  64  87
ATOM     87  C   UNL     1      -7.928  10.578   6.131  1.00  0.00     0.064 A 
ATOM     88  C   UNL     1      -7.471  11.336   7.222  1.00  0.00     0.173 A 
ATOM     89  C   UNL     1      -9.025  11.129   5.425  1.00  0.00     0.173 A 
ATOM     90  F   UNL     1      -6.359  11.003   7.891  1.00  0.00    -0.203 F 
ATOM     91  C   UNL     1      -8.109  12.510   7.625  1.00  0.00     0.198 A 
ATOM     92  C   UNL     1      -9.611  12.340   5.785  1.00  0.00     0.198 A 
ATOM     93  F   UNL     1      -9.542  10.530   4.342  1.00  0.00    -0.203 F 
ATOM     94  F   UNL     1      -7.666  13.163   8.708  1.00  0.00    -0.200 F 
ATOM     95  C   UNL     1      -9.168  13.020   6.899  1.00  0.00     0.200 A 
ATOM     96  F   UNL     1     -10.592  12.854   5.030  1.00  0.00    -0.200 F 
ATOM     97  F   UNL     1      -9.741  14.176   7.257  1.00  0.00    -0.200 F 
ENDBRANCH  64  87
ENDBRANCH  38  39
ENDBRANCH  30  33
ENDBRANCH  28  29
ENDBRANCH  27  28
ENDBRANCH   1  27
TORSDOF 14
