REMARK SMILES O=C(NCCCCNC(=O)c1ccc(-n2cc(CSc3nc4ccccc4c(=O)n3-c3ccc(Br)cc3)nn2)cc1)c1ccc(-c2c3nc(c(-c4c(F)c(F)c(F)c(F)c4F)c4ccc([nH]4)c(-c4c(F)c(F)c(F)c(F)c4F)c4nc(c(-c5c(F)c(F)c(F)c(F)c5F)c5ccc2[nH]5)C=C4)C=C3)cc1
REMARK SMILES IDX 7 1 6 2 5 3 4 4 3 5 1 6 2 7 42 9 43 10 104 11 44 12 103 13
REMARK SMILES IDX 45 14 46 15 47 16 97 17 48 18 102 19 96 20 98 21 49 22
REMARK SMILES IDX 101 23 95 24 94 25 50 27 82 28 62 29 81 30 63 31 66 32 80 33
REMARK SMILES IDX 99 34 64 35 65 36 79 38 100 39 67 40 51 41 52 42 60 43 53 44
REMARK SMILES IDX 54 45 58 46 61 47 55 48 56 49 59 50 57 51 83 52 84 53 92 54
REMARK SMILES IDX 85 55 86 56 90 57 93 58 87 59 88 60 91 61 89 62 68 63 69 64
REMARK SMILES IDX 77 65 70 66 71 67 75 68 78 69 72 70 73 71 76 72 74 73 8 74
REMARK SMILES IDX 9 75 10 77 11 78 12 79 41 80 13 81 40 82 14 83 15 84 16 85
REMARK SMILES IDX 39 86 17 87 38 88 18 89 19 90 20 91 21 92 30 93 22 94 28 95
REMARK SMILES IDX 23 96 27 97 29 98 24 99 26 100 25 101 31 102 32 103 37 104
REMARK SMILES IDX 33 105 36 106 34 107 35 108
REMARK H PARENT 3 8 98 26 66 37 8 76
REMARK Flexibility Score: inf
ROOT
ATOM      1  C   UNL     1       4.843  -1.402  -4.118  1.00  0.00     0.116 C 
ENDROOT
BRANCH   1   2
ATOM      2  C   UNL     1       4.499  -2.222  -2.883  1.00  0.00     0.023 C 
BRANCH   2   3
ATOM      3  C   UNL     1       5.007  -1.660  -1.556  1.00  0.00     0.023 C 
BRANCH   3   4
ATOM      4  C   UNL     1       4.761  -0.165  -1.341  1.00  0.00     0.116 C 
BRANCH   4   5
ATOM      5  N   UNL     1       3.376   0.246  -1.439  1.00  0.00    -0.352 N 
ATOM      6  O   UNL     1       1.304   0.843  -0.947  1.00  0.00    -0.269 OA
ATOM      7  C   UNL     1       2.317   0.248  -0.574  1.00  0.00     0.251 C 
ATOM      8  H   UNL     1       3.145   0.606  -2.326  1.00  0.00     0.163 HD
BRANCH   7   9
ATOM      9  C   UNL     1       2.284  -0.478   0.722  1.00  0.00     0.039 A 
ATOM     10  C   UNL     1       3.386  -1.048   1.362  1.00  0.00     0.014 A 
ATOM     11  C   UNL     1       1.011  -0.642   1.298  1.00  0.00     0.014 A 
ATOM     12  C   UNL     1       3.214  -1.877   2.462  1.00  0.00     0.010 A 
ATOM     13  C   UNL     1       0.836  -1.438   2.419  1.00  0.00     0.010 A 
ATOM     14  C   UNL     1       1.935  -2.102   2.960  1.00  0.00    -0.014 A 
BRANCH  14  15
ATOM     15  C   UNL     1       1.792  -2.995   4.103  1.00  0.00     0.031 A 
ATOM     16  C   UNL     1       2.362  -2.504   5.395  1.00  0.00     0.074 A 
ATOM     17  C   UNL     1       1.040  -4.110   4.019  1.00  0.00     0.049 A 
ATOM     18  N   UNL     1       3.132  -3.119   6.238  1.00  0.00    -0.248 NA
ATOM     19  C   UNL     1       2.069  -1.108   5.767  1.00  0.00     0.031 C 
ATOM     20  C   UNL     1       0.200  -4.545   2.898  1.00  0.00     0.029 A 
ATOM     21  N   UNL     1       0.765  -5.030   4.982  1.00  0.00    -0.354 N 
ATOM     22  C   UNL     1       3.297  -2.247   7.316  1.00  0.00     0.074 A 
ATOM     23  C   UNL     1       2.709  -0.992   6.929  1.00  0.00     0.031 C 
ATOM     24  C   UNL     1      -0.663  -5.489   3.331  1.00  0.00     0.029 A 
ATOM     25  C   UNL     1      -0.353  -5.804   4.715  1.00  0.00     0.049 A 
ATOM     26  H   UNL     1       1.310  -5.136   5.795  1.00  0.00     0.167 HD
ATOM     27  C   UNL     1       3.738  -2.662   8.535  1.00  0.00     0.037 A 
ATOM     28  C   UNL     1      -1.037  -6.563   5.604  1.00  0.00     0.037 A 
ATOM     29  C   UNL     1       4.470  -3.893   8.459  1.00  0.00     0.049 A 
ATOM     30  C   UNL     1      -0.156  -6.792   6.777  1.00  0.00     0.074 A 
ATOM     31  C   UNL     1       5.642  -4.288   7.845  1.00  0.00     0.029 A 
ATOM     32  N   UNL     1       3.853  -5.056   8.841  1.00  0.00    -0.354 N 
ATOM     33  N   UNL     1       0.930  -7.513   6.746  1.00  0.00    -0.248 NA
ATOM     34  C   UNL     1      -0.254  -5.855   7.886  1.00  0.00     0.031 C 
ATOM     35  C   UNL     1       5.410  -5.636   7.441  1.00  0.00     0.029 A 
ATOM     36  C   UNL     1       4.126  -5.978   7.864  1.00  0.00     0.049 A 
ATOM     37  H   UNL     1       3.319  -5.200   9.656  1.00  0.00     0.167 HD
ATOM     38  C   UNL     1       1.820  -6.849   7.577  1.00  0.00     0.074 A 
ATOM     39  C   UNL     1       1.010  -5.886   8.316  1.00  0.00     0.031 C 
ATOM     40  C   UNL     1       3.169  -6.946   7.391  1.00  0.00     0.037 A 
BRANCH  27  41
ATOM     41  C   UNL     1       3.228  -2.104   9.840  1.00  0.00     0.064 A 
ATOM     42  C   UNL     1       3.882  -2.426  11.045  1.00  0.00     0.173 A 
ATOM     43  C   UNL     1       1.951  -1.518   9.976  1.00  0.00     0.173 A 
ATOM     44  F   UNL     1       5.089  -3.013  11.032  1.00  0.00    -0.203 F 
ATOM     45  C   UNL     1       3.272  -2.234  12.289  1.00  0.00     0.198 A 
ATOM     46  C   UNL     1       1.368  -1.279  11.218  1.00  0.00     0.198 A 
ATOM     47  F   UNL     1       1.176  -1.258   8.915  1.00  0.00    -0.203 F 
ATOM     48  F   UNL     1       3.881  -2.664  13.402  1.00  0.00    -0.200 F 
ATOM     49  C   UNL     1       2.014  -1.665  12.373  1.00  0.00     0.200 A 
ATOM     50  F   UNL     1       0.139  -0.746  11.279  1.00  0.00    -0.200 F 
ATOM     51  F   UNL     1       1.403  -1.537  13.558  1.00  0.00    -0.200 F 
ENDBRANCH  27  41
BRANCH  28  52
ATOM     52  C   UNL     1      -2.504  -6.771   5.647  1.00  0.00     0.064 A 
ATOM     53  C   UNL     1      -3.070  -7.837   6.362  1.00  0.00     0.173 A 
ATOM     54  C   UNL     1      -3.396  -5.781   5.187  1.00  0.00     0.173 A 
ATOM     55  F   UNL     1      -2.285  -8.790   6.885  1.00  0.00    -0.203 F 
ATOM     56  C   UNL     1      -4.447  -7.906   6.603  1.00  0.00     0.198 A 
ATOM     57  C   UNL     1      -4.769  -5.857   5.416  1.00  0.00     0.198 A 
ATOM     58  F   UNL     1      -2.944  -4.671   4.585  1.00  0.00    -0.203 F 
ATOM     59  F   UNL     1      -4.948  -8.910   7.335  1.00  0.00    -0.200 F 
ATOM     60  C   UNL     1      -5.294  -6.914   6.133  1.00  0.00     0.200 A 
ATOM     61  F   UNL     1      -5.569  -4.870   4.989  1.00  0.00    -0.200 F 
ATOM     62  F   UNL     1      -6.606  -6.955   6.405  1.00  0.00    -0.200 F 
ENDBRANCH  28  52
BRANCH  40  63
ATOM     63  C   UNL     1       3.663  -7.957   6.397  1.00  0.00     0.064 A 
ATOM     64  C   UNL     1       3.395  -7.877   5.019  1.00  0.00     0.173 A 
ATOM     65  C   UNL     1       4.560  -8.944   6.821  1.00  0.00     0.173 A 
ATOM     66  F   UNL     1       2.643  -6.889   4.522  1.00  0.00    -0.203 F 
ATOM     67  C   UNL     1       3.956  -8.777   4.117  1.00  0.00     0.198 A 
ATOM     68  C   UNL     1       5.149  -9.821   5.913  1.00  0.00     0.198 A 
ATOM     69  F   UNL     1       4.908  -9.025   8.115  1.00  0.00    -0.203 F 
ATOM     70  F   UNL     1       3.675  -8.681   2.808  1.00  0.00    -0.200 F 
ATOM     71  C   UNL     1       4.838  -9.745   4.564  1.00  0.00     0.200 A 
ATOM     72  F   UNL     1       6.045 -10.721   6.341  1.00  0.00    -0.200 F 
ATOM     73  F   UNL     1       5.415 -10.583   3.692  1.00  0.00    -0.200 F 
ENDBRANCH  40  63
ENDBRANCH  14  15
ENDBRANCH   7   9
ENDBRANCH   4   5
ENDBRANCH   3   4
ENDBRANCH   2   3
ENDBRANCH   1   2
BRANCH   1  74
ATOM     74  N   UNL     1       6.274  -1.257  -4.327  1.00  0.00    -0.352 N 
ATOM     75  C   UNL     1       7.026  -1.561  -5.443  1.00  0.00     0.251 C 
ATOM     76  H   UNL     1       6.777  -0.889  -3.565  1.00  0.00     0.163 HD
ATOM     77  O   UNL     1       8.233  -1.447  -5.430  1.00  0.00    -0.269 OA
BRANCH  75  78
ATOM     78  C   UNL     1       6.335  -2.087  -6.642  1.00  0.00     0.039 A 
ATOM     79  C   UNL     1       6.748  -3.326  -7.146  1.00  0.00     0.016 A 
ATOM     80  C   UNL     1       5.271  -1.390  -7.230  1.00  0.00     0.016 A 
ATOM     81  C   UNL     1       6.029  -3.927  -8.177  1.00  0.00     0.029 A 
ATOM     82  C   UNL     1       4.543  -1.989  -8.255  1.00  0.00     0.029 A 
ATOM     83  C   UNL     1       4.911  -3.270  -8.693  1.00  0.00     0.066 A 
BRANCH  83  84
ATOM     84  N   UNL     1       4.222  -3.854  -9.765  1.00  0.00    -0.220 N 
ATOM     85  C   UNL     1       4.299  -3.419 -11.060  1.00  0.00     0.141 A 
ATOM     86  N   UNL     1       3.136  -4.630  -9.605  1.00  0.00    -0.062 NA
ATOM     87  C   UNL     1       3.193  -3.918 -11.697  1.00  0.00     0.093 A 
ATOM     88  N   UNL     1       2.513  -4.696 -10.778  1.00  0.00    -0.134 NA
BRANCH  87  89
ATOM     89  C   UNL     1       2.510  -3.545 -12.961  1.00  0.00     0.138 C 
BRANCH  89  90
ATOM     90  S   UNL     1       3.245  -3.461 -14.587  1.00  0.00    -0.081 SA
BRANCH  90  91
ATOM     91  C   UNL     1       4.971  -3.251 -14.598  1.00  0.00     0.176 A 
ATOM     92  N   UNL     1       5.528  -3.974 -15.527  1.00  0.00    -0.223 NA
ATOM     93  N   UNL     1       5.720  -2.428 -13.768  1.00  0.00    -0.255 N 
ATOM     94  C   UNL     1       6.922  -4.000 -15.616  1.00  0.00     0.079 A 
ATOM     95  C   UNL     1       6.973  -2.968 -13.436  1.00  0.00     0.266 A 
ATOM     96  C   UNL     1       7.567  -4.476 -16.756  1.00  0.00     0.029 A 
ATOM     97  C   UNL     1       7.689  -3.646 -14.519  1.00  0.00     0.066 A 
ATOM     98  O   UNL     1       7.494  -2.961 -12.321  1.00  0.00    -0.268 OA
ATOM     99  C   UNL     1       8.957  -4.645 -16.760  1.00  0.00     0.002 A 
ATOM    100  C   UNL     1       9.069  -3.863 -14.480  1.00  0.00     0.016 A 
ATOM    101  C   UNL     1       9.703  -4.372 -15.611  1.00  0.00     0.001 A 
BRANCH  93 102
ATOM    102  C   UNL     1       5.314  -1.186 -13.125  1.00  0.00     0.051 A 
ATOM    103  C   UNL     1       6.240  -0.468 -12.334  1.00  0.00     0.028 A 
ATOM    104  C   UNL     1       4.027  -0.642 -13.187  1.00  0.00     0.028 A 
ATOM    105  C   UNL     1       5.850   0.557 -11.467  1.00  0.00     0.018 A 
ATOM    106  C   UNL     1       3.611   0.355 -12.290  1.00  0.00     0.018 A 
ATOM    107  C   UNL     1       4.516   0.919 -11.403  1.00  0.00     0.018 A 
ATOM    108  Br  UNL     1       3.940   2.167 -10.111  1.00  0.00    -0.051 Br
ENDBRANCH  93 102
ENDBRANCH  90  91
ENDBRANCH  89  90
ENDBRANCH  87  89
ENDBRANCH  83  84
ENDBRANCH  75  78
ENDBRANCH   1  74
TORSDOF 16
