REMARK SMILES C[C@@H](Sc1nnc(-c2ccc3c(c2)OCCCO3)n1C1CC1)C(=O)NCCCCNC(=O)c1ccc(-c2c3nc(c(-c4c(F)c(F)c(F)c(F)c4F)c4ccc([nH]4)c(-c4c(F)c(F)c(F)c(F)c4F)c4nc(c(-c5c(F)c(F)c(F)c(F)c5F)c5ccc2[nH]5)C=C4)C=C3)cc1
REMARK SMILES IDX 23 1 24 2 25 3 2 5 1 6 3 7 4 8 5 9 19 10 6 11 7 12 20 13
REMARK SMILES IDX 21 14 22 15 8 16 9 17 13 18 10 19 12 20 11 21 14 22 15 23
REMARK SMILES IDX 16 24 18 26 17 27 26 29 27 30 28 31 29 32 30 33 31 34 32 36
REMARK SMILES IDX 33 37 34 38 95 39 35 40 94 41 36 42 37 43 38 44 88 45 39 46
REMARK SMILES IDX 93 47 87 48 89 49 40 50 92 51 86 52 85 53 41 55 73 56 53 57
REMARK SMILES IDX 72 58 54 59 57 60 71 61 90 62 55 63 56 64 70 66 91 67 58 68
REMARK SMILES IDX 42 69 43 70 51 71 44 72 45 73 49 74 52 75 46 76 47 77 50 78
REMARK SMILES IDX 48 79 74 80 75 81 83 82 76 83 77 84 81 85 84 86 78 87 79 88
REMARK SMILES IDX 82 89 80 90 59 91 60 92 68 93 61 94 62 95 66 96 69 97 63 98
REMARK SMILES IDX 64 99 67 100 65 101
REMARK H PARENT 25 4 30 35 89 54 57 65
REMARK Flexibility Score: 80.00
ROOT
ATOM      1  C   UNL     1      -0.718   0.314  -1.495  1.00  0.00     0.233 C 
ATOM      2  O   UNL     1      -1.343   1.318  -1.852  1.00  0.00    -0.274 OA
ATOM      3  N   UNL     1      -1.453  -0.718  -0.977  1.00  0.00    -0.355 N 
ATOM      4  H   UNL     1      -2.408  -0.524  -0.838  1.00  0.00     0.163 HD
ENDROOT
BRANCH   1   5
ATOM      5  C   UNL     1       0.816   0.267  -1.595  1.00  0.00     0.141 C 
ATOM      6  C   UNL     1       1.452   0.207  -0.207  1.00  0.00     0.030 C 
BRANCH   5   7
ATOM      7  S   UNL     1       1.297  -1.053  -2.771  1.00  0.00    -0.073 SA
BRANCH   7   8
ATOM      8  C   UNL     1       3.014  -1.107  -2.622  1.00  0.00     0.192 A 
ATOM      9  N   UNL     1       3.791  -0.047  -2.602  1.00  0.00    -0.123 NA
ATOM     10  N   UNL     1       3.786  -2.242  -2.545  1.00  0.00    -0.299 N 
ATOM     11  N   UNL     1       5.097  -0.478  -2.558  1.00  0.00    -0.129 NA
ATOM     12  C   UNL     1       5.097  -1.798  -2.584  1.00  0.00     0.165 A 
BRANCH  10  13
ATOM     13  C   UNL     1       3.434  -3.650  -2.386  1.00  0.00     0.091 C 
ATOM     14  C   UNL     1       2.192  -4.168  -1.698  1.00  0.00     0.028 C 
ATOM     15  C   UNL     1       2.333  -4.328  -3.174  1.00  0.00     0.028 C 
ENDBRANCH  10  13
BRANCH  12  16
ATOM     16  C   UNL     1       6.268  -2.667  -2.622  1.00  0.00     0.023 A 
ATOM     17  C   UNL     1       7.143  -2.712  -1.532  1.00  0.00     0.016 A 
ATOM     18  C   UNL     1       6.462  -3.544  -3.700  1.00  0.00     0.062 A 
ATOM     19  C   UNL     1       8.162  -3.666  -1.493  1.00  0.00     0.051 A 
ATOM     20  C   UNL     1       7.493  -4.482  -3.668  1.00  0.00     0.161 A 
ATOM     21  C   UNL     1       8.336  -4.551  -2.558  1.00  0.00     0.161 A 
BRANCH  20  22
ATOM     22  O   UNL     1       7.521  -5.389  -4.692  1.00  0.00    -0.490 OA
BRANCH  22  23
ATOM     23  C   UNL     1       8.764  -5.378  -5.394  1.00  0.00     0.233 C 
BRANCH  23  24
ATOM     24  C   UNL     1       9.834  -6.186  -4.678  1.00  0.00     0.083 CG0
ATOM     25  G   UNL     1      10.279  -5.498  -3.397  1.00  0.00     0.000 G0
ENDBRANCH  23  24
ENDBRANCH  22  23
ENDBRANCH  20  22
BRANCH  21  26
ATOM     26  O   UNL     1       9.270  -5.535  -2.389  1.00  0.00    -0.490 OA
BRANCH  26  27
ATOM     27  C   UNL     1      10.279  -5.498  -3.397  1.00  0.00     0.233 CG0
ATOM     28  G   UNL     1       9.834  -6.186  -4.678  1.00  0.00     0.000 G0
ENDBRANCH  26  27
ENDBRANCH  21  26
ENDBRANCH  12  16
ENDBRANCH   7   8
ENDBRANCH   5   7
ENDBRANCH   1   5
BRANCH   3  29
ATOM     29  C   UNL     1      -1.037  -2.055  -0.602  1.00  0.00     0.116 C 
BRANCH  29  30
ATOM     30  C   UNL     1      -1.557  -2.486   0.762  1.00  0.00     0.023 C 
BRANCH  30  31
ATOM     31  C   UNL     1      -3.057  -2.775   0.829  1.00  0.00     0.023 C 
BRANCH  31  32
ATOM     32  C   UNL     1      -3.574  -3.795  -0.191  1.00  0.00     0.116 C 
BRANCH  32  33
ATOM     33  N   UNL     1      -2.841  -5.047  -0.213  1.00  0.00    -0.352 N 
ATOM     34  C   UNL     1      -2.905  -6.228   0.479  1.00  0.00     0.251 C 
ATOM     35  H   UNL     1      -2.125  -5.048  -0.888  1.00  0.00     0.163 HD
ATOM     36  O   UNL     1      -2.186  -7.130   0.073  1.00  0.00    -0.269 OA
BRANCH  34  37
ATOM     37  C   UNL     1      -3.743  -6.470   1.691  1.00  0.00     0.039 A 
ATOM     38  C   UNL     1      -4.619  -5.555   2.268  1.00  0.00     0.014 A 
ATOM     39  C   UNL     1      -3.591  -7.728   2.312  1.00  0.00     0.014 A 
ATOM     40  C   UNL     1      -5.269  -5.853   3.462  1.00  0.00     0.010 A 
ATOM     41  C   UNL     1      -4.258  -8.041   3.497  1.00  0.00     0.010 A 
ATOM     42  C   UNL     1      -5.077  -7.088   4.090  1.00  0.00    -0.014 A 
BRANCH  42  43
ATOM     43  C   UNL     1      -5.861  -7.348   5.298  1.00  0.00     0.031 A 
ATOM     44  C   UNL     1      -7.338  -7.326   5.108  1.00  0.00     0.074 A 
ATOM     45  C   UNL     1      -5.345  -7.672   6.501  1.00  0.00     0.049 A 
ATOM     46  N   UNL     1      -8.204  -6.557   5.684  1.00  0.00    -0.248 NA
ATOM     47  C   UNL     1      -7.916  -8.236   4.107  1.00  0.00     0.031 C 
ATOM     48  C   UNL     1      -3.963  -8.052   6.796  1.00  0.00     0.029 A 
ATOM     49  N   UNL     1      -5.979  -7.819   7.708  1.00  0.00    -0.354 N 
ATOM     50  C   UNL     1      -9.453  -6.992   5.248  1.00  0.00     0.074 A 
ATOM     51  C   UNL     1      -9.216  -7.949   4.199  1.00  0.00     0.031 C 
ATOM     52  C   UNL     1      -3.907  -8.588   8.035  1.00  0.00     0.029 A 
ATOM     53  C   UNL     1      -5.208  -8.452   8.671  1.00  0.00     0.049 A 
ATOM     54  H   UNL     1      -6.896  -7.504   7.875  1.00  0.00     0.167 HD
ATOM     55  C   UNL     1     -10.585  -6.697   5.944  1.00  0.00     0.037 A 
ATOM     56  C   UNL     1      -5.609  -8.877   9.893  1.00  0.00     0.037 A 
ATOM     57  C   UNL     1     -10.382  -5.635   6.888  1.00  0.00     0.049 A 
ATOM     58  C   UNL     1      -6.796  -8.095  10.310  1.00  0.00     0.074 A 
ATOM     59  C   UNL     1     -10.456  -4.261   6.904  1.00  0.00     0.029 A 
ATOM     60  N   UNL     1      -9.758  -6.022   8.037  1.00  0.00    -0.354 N 
ATOM     61  N   UNL     1      -6.773  -6.819  10.583  1.00  0.00    -0.248 NA
ATOM     62  C   UNL     1      -8.127  -8.691  10.215  1.00  0.00     0.031 C 
ATOM     63  C   UNL     1      -9.762  -3.828   8.074  1.00  0.00     0.029 A 
ATOM     64  C   UNL     1      -9.284  -4.949   8.741  1.00  0.00     0.049 A 
ATOM     65  H   UNL     1      -9.661  -6.959   8.325  1.00  0.00     0.167 HD
ATOM     66  C   UNL     1      -8.050  -6.390  10.295  1.00  0.00     0.074 A 
ATOM     67  C   UNL     1      -8.875  -7.587  10.259  1.00  0.00     0.031 C 
ATOM     68  C   UNL     1      -8.270  -5.165   9.745  1.00  0.00     0.037 A 
BRANCH  55  69
ATOM     69  C   UNL     1     -11.760  -7.635   6.104  1.00  0.00     0.064 A 
ATOM     70  C   UNL     1     -12.952  -7.162   6.692  1.00  0.00     0.173 A 
ATOM     71  C   UNL     1     -11.644  -9.038   6.006  1.00  0.00     0.173 A 
ATOM     72  F   UNL     1     -13.155  -5.848   6.866  1.00  0.00    -0.203 F 
ATOM     73  C   UNL     1     -13.927  -8.033   7.190  1.00  0.00     0.198 A 
ATOM     74  C   UNL     1     -12.643  -9.902   6.456  1.00  0.00     0.198 A 
ATOM     75  F   UNL     1     -10.518  -9.625   5.581  1.00  0.00    -0.203 F 
ATOM     76  F   UNL     1     -14.991  -7.541   7.839  1.00  0.00    -0.200 F 
ATOM     77  C   UNL     1     -13.771  -9.402   7.071  1.00  0.00     0.200 A 
ATOM     78  F   UNL     1     -12.462 -11.226   6.357  1.00  0.00    -0.200 F 
ATOM     79  F   UNL     1     -14.680 -10.238   7.590  1.00  0.00    -0.200 F 
ENDBRANCH  55  69
BRANCH  56  80
ATOM     80  C   UNL     1      -5.150 -10.061  10.658  1.00  0.00     0.064 A 
ATOM     81  C   UNL     1      -5.450 -10.196  12.025  1.00  0.00     0.173 A 
ATOM     82  C   UNL     1      -4.663 -11.210  10.008  1.00  0.00     0.173 A 
ATOM     83  F   UNL     1      -5.951  -9.161  12.714  1.00  0.00    -0.203 F 
ATOM     84  C   UNL     1      -5.319 -11.420  12.687  1.00  0.00     0.198 A 
ATOM     85  C   UNL     1      -4.518 -12.428  10.674  1.00  0.00     0.198 A 
ATOM     86  F   UNL     1      -4.411 -11.203   8.691  1.00  0.00    -0.203 F 
ATOM     87  F   UNL     1      -5.695 -11.529  13.969  1.00  0.00    -0.200 F 
ATOM     88  C   UNL     1      -4.865 -12.538  12.007  1.00  0.00     0.200 A 
ATOM     89  F   UNL     1      -4.104 -13.509   9.998  1.00  0.00    -0.200 F 
ATOM     90  F   UNL     1      -4.804 -13.726  12.623  1.00  0.00    -0.200 F 
ENDBRANCH  56  80
BRANCH  68  91
ATOM     91  C   UNL     1      -7.283  -4.082  10.016  1.00  0.00     0.064 A 
ATOM     92  C   UNL     1      -5.968  -4.075   9.527  1.00  0.00     0.173 A 
ATOM     93  C   UNL     1      -7.718  -2.964  10.741  1.00  0.00     0.173 A 
ATOM     94  F   UNL     1      -5.511  -5.080   8.768  1.00  0.00    -0.203 F 
ATOM     95  C   UNL     1      -5.118  -3.001   9.781  1.00  0.00     0.198 A 
ATOM     96  C   UNL     1      -6.878  -1.879  10.964  1.00  0.00     0.198 A 
ATOM     97  F   UNL     1      -8.978  -2.909  11.200  1.00  0.00    -0.203 F 
ATOM     98  F   UNL     1      -3.860  -3.014   9.316  1.00  0.00    -0.200 F 
ATOM     99  C   UNL     1      -5.576  -1.901  10.492  1.00  0.00     0.200 A 
ATOM    100  F   UNL     1      -7.337  -0.804  11.618  1.00  0.00    -0.200 F 
ATOM    101  F   UNL     1      -4.769  -0.851  10.702  1.00  0.00    -0.200 F 
ENDBRANCH  68  91
ENDBRANCH  42  43
ENDBRANCH  34  37
ENDBRANCH  32  33
ENDBRANCH  31  32
ENDBRANCH  30  31
ENDBRANCH  29  30
ENDBRANCH   3  29
TORSDOF 15
