REMARK SMILES C[NH2+]C[C@@H](C)C(=O)N1CCC([N@@H+]2CCC[C@@H]2C(=O)NCCCCNC(=O)c2ccc(-c3c4nc(c(-c5c(F)c(F)c(F)c(F)c5F)c5ccc([nH]5)c(-c5c(F)c(F)c(F)c(F)c5F)c5nc(c(-c6c(F)c(F)c(F)c(F)c6F)c6ccc3[nH]6)C=C5)C=C4)cc2)CC1
REMARK SMILES IDX 20 1 19 2 17 3 18 4 16 6 12 7 13 8 14 10 15 11 11 12 6 13
REMARK SMILES IDX 7 14 8 15 9 16 91 17 10 18 90 19 4 20 5 21 3 22 2 23 1 24
REMARK SMILES IDX 21 27 22 28 23 29 24 30 25 31 26 33 27 34 28 35 89 36 29 37
REMARK SMILES IDX 88 38 30 39 31 40 32 41 82 42 33 43 87 44 81 45 83 46 34 47
REMARK SMILES IDX 86 48 80 49 79 50 35 52 67 53 47 54 66 55 48 56 51 57 65 58
REMARK SMILES IDX 84 59 49 60 50 61 64 63 85 64 52 65 36 66 37 67 45 68 38 69
REMARK SMILES IDX 39 70 43 71 46 72 40 73 41 74 44 75 42 76 68 77 69 78 77 79
REMARK SMILES IDX 70 80 71 81 75 82 78 83 72 84 73 85 76 86 74 87 53 88 54 89
REMARK SMILES IDX 62 90 55 91 56 92 60 93 63 94 57 95 58 96 61 97 59 98
REMARK H PARENT 19 5 12 9 2 25 2 26 24 32 83 51 51 62
REMARK Flexibility Score: inf
ROOT
ATOM      1  C   UNL     1      -6.918   0.886   2.515  1.00  0.00     0.116 C 
ENDROOT
BRANCH   1   2
ATOM      2  N   UNL     1      -6.322   0.935   1.196  1.00  0.00    -0.351 N 
ATOM      3  C   UNL     1      -6.436   1.758   0.125  1.00  0.00     0.278 C 
ATOM      4  O   UNL     1      -5.803   1.394  -0.880  1.00  0.00    -0.268 OA
ATOM      5  H   UNL     1      -5.686   0.199   1.041  1.00  0.00     0.163 HD
BRANCH   3   6
ATOM      6  C   UNL     1      -7.262   3.062   0.044  1.00  0.00     0.274 C 
ATOM      7  N   UNL     1      -6.664   4.318   0.568  1.00  0.00    -0.322 N 
ATOM      8  C   UNL     1      -7.635   5.015   1.405  1.00  0.00     0.263 C 
ATOM      9  H   UNL     1      -6.470   4.813  -0.303  1.00  0.00     0.349 HD
ATOM     10  C   UNL     1      -8.668   3.969   1.777  1.00  0.00     0.068 C 
ATOM     11  C   UNL     1      -8.683   3.022   0.591  1.00  0.00     0.081 C 
BRANCH   7  12
ATOM     12  C   UNL     1      -5.247   4.479   0.909  1.00  0.00     0.188 C 
ATOM     13  C   UNL     1      -2.678   1.403   1.026  1.00  0.00     0.231 C 
ATOM     14  O   UNL     1      -3.524   0.525   1.222  1.00  0.00    -0.274 OA
ATOM     15  N   UNL     1      -2.959   2.745   1.218  1.00  0.00    -0.342 N 
ATOM     16  C   UNL     1      -3.575   3.184   2.449  1.00  0.00     0.125 C 
ATOM     17  C   UNL     1      -2.901   3.731   0.158  1.00  0.00     0.125 C 
ATOM     18  C   UNL     1      -4.916   3.874   2.279  1.00  0.00     0.086 C 
ATOM     19  C   UNL     1      -4.297   4.167  -0.261  1.00  0.00     0.086 C 
BRANCH  13  20
ATOM     20  C   UNL     1      -1.196   1.011   0.973  1.00  0.00     0.130 C 
ATOM     21  C   UNL     1      -0.615   1.227   2.372  1.00  0.00     0.024 C 
BRANCH  20  22
ATOM     22  C   UNL     1      -0.363   1.697  -0.111  1.00  0.00     0.273 C 
BRANCH  22  23
ATOM     23  N   UNL     1       1.063   1.339  -0.155  1.00  0.00    -0.348 N 
ATOM     24  C   UNL     1       1.304  -0.081  -0.368  1.00  0.00     0.330 C 
ATOM     25  H   UNL     1       1.502   1.858  -0.915  1.00  0.00     0.346 HD
ATOM     26  H   UNL     1       1.457   1.575   0.756  1.00  0.00     0.346 HD
ENDBRANCH  22  23
ENDBRANCH  20  22
ENDBRANCH  13  20
ENDBRANCH   7  12
ENDBRANCH   3   6
ENDBRANCH   1   2
BRANCH   1  27
ATOM     27  C   UNL     1      -7.098  -0.534   3.050  1.00  0.00     0.023 C 
BRANCH  27  28
ATOM     28  C   UNL     1      -5.827  -1.373   3.210  1.00  0.00     0.023 C 
BRANCH  28  29
ATOM     29  C   UNL     1      -4.653  -0.732   3.945  1.00  0.00     0.116 C 
BRANCH  29  30
ATOM     30  N   UNL     1      -4.942  -0.295   5.303  1.00  0.00    -0.352 N 
ATOM     31  C   UNL     1      -4.183  -0.444   6.443  1.00  0.00     0.251 C 
ATOM     32  H   UNL     1      -5.800   0.172   5.425  1.00  0.00     0.163 HD
ATOM     33  O   UNL     1      -4.559   0.030   7.510  1.00  0.00    -0.269 OA
BRANCH  31  34
ATOM     34  C   UNL     1      -2.930  -1.229   6.392  1.00  0.00     0.039 A 
ATOM     35  C   UNL     1      -2.787  -2.328   7.237  1.00  0.00     0.014 A 
ATOM     36  C   UNL     1      -1.929  -0.921   5.471  1.00  0.00     0.014 A 
ATOM     37  C   UNL     1      -1.691  -3.182   7.079  1.00  0.00     0.010 A 
ATOM     38  C   UNL     1      -0.874  -1.811   5.263  1.00  0.00     0.010 A 
ATOM     39  C   UNL     1      -0.758  -2.968   6.047  1.00  0.00    -0.014 A 
BRANCH  39  40
ATOM     40  C   UNL     1       0.275  -3.995   5.736  1.00  0.00     0.031 A 
ATOM     41  C   UNL     1       1.742  -3.696   5.857  1.00  0.00     0.074 A 
ATOM     42  C   UNL     1      -0.117  -5.201   5.275  1.00  0.00     0.049 A 
ATOM     43  N   UNL     1       2.767  -4.480   5.628  1.00  0.00    -0.248 NA
ATOM     44  C   UNL     1       2.112  -2.332   6.261  1.00  0.00     0.031 C 
ATOM     45  C   UNL     1      -1.504  -5.599   5.022  1.00  0.00     0.029 A 
ATOM     46  N   UNL     1       0.612  -6.314   4.932  1.00  0.00    -0.354 N 
ATOM     47  C   UNL     1       3.898  -3.705   5.849  1.00  0.00     0.074 A 
ATOM     48  C   UNL     1       3.434  -2.374   6.181  1.00  0.00     0.031 C 
ATOM     49  C   UNL     1      -1.528  -6.873   4.601  1.00  0.00     0.029 A 
ATOM     50  C   UNL     1      -0.160  -7.375   4.524  1.00  0.00     0.049 A 
ATOM     51  H   UNL     1       1.595  -6.348   4.974  1.00  0.00     0.167 HD
ATOM     52  C   UNL     1       5.201  -4.075   5.804  1.00  0.00     0.037 A 
ATOM     53  C   UNL     1       0.190  -8.617   4.136  1.00  0.00     0.037 A 
ATOM     54  C   UNL     1       5.666  -5.405   5.506  1.00  0.00     0.049 A 
ATOM     55  C   UNL     1       1.640  -9.011   4.128  1.00  0.00     0.074 A 
ATOM     56  C   UNL     1       6.962  -5.891   5.527  1.00  0.00     0.029 A 
ATOM     57  N   UNL     1       4.851  -6.462   5.129  1.00  0.00    -0.354 N 
ATOM     58  N   UNL     1       2.693  -8.296   4.441  1.00  0.00    -0.248 NA
ATOM     59  C   UNL     1       1.951 -10.390   3.723  1.00  0.00     0.031 C 
ATOM     60  C   UNL     1       6.937  -7.231   5.124  1.00  0.00     0.029 A 
ATOM     61  C   UNL     1       5.620  -7.592   4.893  1.00  0.00     0.049 A 
ATOM     62  H   UNL     1       3.872  -6.417   5.041  1.00  0.00     0.167 HD
ATOM     63  C   UNL     1       3.784  -9.141   4.294  1.00  0.00     0.074 A 
ATOM     64  C   UNL     1       3.267 -10.428   3.879  1.00  0.00     0.031 C 
ATOM     65  C   UNL     1       5.098  -8.870   4.485  1.00  0.00     0.037 A 
BRANCH  52  66
ATOM     66  C   UNL     1       6.230  -3.023   6.100  1.00  0.00     0.064 A 
ATOM     67  C   UNL     1       6.412  -2.521   7.397  1.00  0.00     0.173 A 
ATOM     68  C   UNL     1       7.078  -2.549   5.088  1.00  0.00     0.173 A 
ATOM     69  F   UNL     1       5.622  -2.937   8.399  1.00  0.00    -0.203 F 
ATOM     70  C   UNL     1       7.385  -1.561   7.665  1.00  0.00     0.198 A 
ATOM     71  C   UNL     1       8.069  -1.610   5.364  1.00  0.00     0.198 A 
ATOM     72  F   UNL     1       6.953  -3.003   3.832  1.00  0.00    -0.203 F 
ATOM     73  F   UNL     1       7.510  -1.063   8.902  1.00  0.00    -0.200 F 
ATOM     74  C   UNL     1       8.216  -1.112   6.650  1.00  0.00     0.200 A 
ATOM     75  F   UNL     1       8.880  -1.186   4.386  1.00  0.00    -0.200 F 
ATOM     76  F   UNL     1       9.157  -0.193   6.910  1.00  0.00    -0.200 F 
ENDBRANCH  52  66
BRANCH  53  77
ATOM     77  C   UNL     1      -0.862  -9.596   3.758  1.00  0.00     0.064 A 
ATOM     78  C   UNL     1      -1.163 -10.682   4.591  1.00  0.00     0.173 A 
ATOM     79  C   UNL     1      -1.582  -9.469   2.562  1.00  0.00     0.173 A 
ATOM     80  F   UNL     1      -0.484 -10.857   5.734  1.00  0.00    -0.203 F 
ATOM     81  C   UNL     1      -2.134 -11.615   4.233  1.00  0.00     0.198 A 
ATOM     82  C   UNL     1      -2.571 -10.388   2.218  1.00  0.00     0.198 A 
ATOM     83  F   UNL     1      -1.333  -8.444   1.734  1.00  0.00    -0.203 F 
ATOM     84  F   UNL     1      -2.373 -12.668   5.027  1.00  0.00    -0.200 F 
ATOM     85  C   UNL     1      -2.841 -11.464   3.050  1.00  0.00     0.200 A 
ATOM     86  F   UNL     1      -3.260 -10.233   1.079  1.00  0.00    -0.200 F 
ATOM     87  F   UNL     1      -3.776 -12.360   2.708  1.00  0.00    -0.200 F 
ENDBRANCH  53  77
BRANCH  65  88
ATOM     88  C   UNL     1       6.071  -9.993   4.274  1.00  0.00     0.064 A 
ATOM     89  C   UNL     1       6.384 -10.462   2.990  1.00  0.00     0.173 A 
ATOM     90  C   UNL     1       6.725 -10.582   5.367  1.00  0.00     0.173 A 
ATOM     91  F   UNL     1       5.772  -9.943   1.914  1.00  0.00    -0.203 F 
ATOM     92  C   UNL     1       7.301 -11.494   2.809  1.00  0.00     0.198 A 
ATOM     93  C   UNL     1       7.661 -11.596   5.180  1.00  0.00     0.198 A 
ATOM     94  F   UNL     1       6.464 -10.167   6.615  1.00  0.00    -0.203 F 
ATOM     95  F   UNL     1       7.553 -11.955   1.576  1.00  0.00    -0.200 F 
ATOM     96  C   UNL     1       7.943 -12.055   3.902  1.00  0.00     0.200 A 
ATOM     97  F   UNL     1       8.289 -12.130   6.237  1.00  0.00    -0.200 F 
ATOM     98  F   UNL     1       8.830 -13.044   3.725  1.00  0.00    -0.200 F 
ENDBRANCH  65  88
ENDBRANCH  39  40
ENDBRANCH  31  34
ENDBRANCH  29  30
ENDBRANCH  28  29
ENDBRANCH  27  28
ENDBRANCH   1  27
TORSDOF 15
