REMARK SMILES O=C(CCn1cc(/C=C2/[NH+]=C(S)N(c3ccccc3)C2=O)c(-c2ccc(Br)cc2)n1)NCCCCNC(=O)c1ccc(-c2c3nc(c(-c4c(F)c(F)c(F)c(F)c4F)c4ccc([nH]4)c(-c4c(F)c(F)c(F)c(F)c4F)c4nc(c(-c5c(F)c(F)c(F)c(F)c5F)c5ccc2[nH]5)C=C4)C=C3)cc1
REMARK SMILES IDX 32 1 31 2 1 3 2 4 3 6 4 7 5 8 6 9 30 10 7 11 22 12 8 13 9 14
REMARK SMILES IDX 10 15 20 16 11 17 13 19 21 20 12 21 14 23 15 24 19 25 16 26
REMARK SMILES IDX 18 27 17 28 23 29 24 30 29 31 25 32 28 33 26 34 27 35 33 36
REMARK SMILES IDX 34 37 35 38 36 39 37 40 38 42 39 43 40 44 101 45 41 46
REMARK SMILES IDX 100 47 42 48 43 49 44 50 94 51 45 52 99 53 93 54 95 55 46 56
REMARK SMILES IDX 98 57 92 58 91 59 47 61 79 62 59 63 78 64 60 65 63 66 77 67
REMARK SMILES IDX 96 68 61 69 62 70 76 72 97 73 64 74 48 75 49 76 57 77 50 78
REMARK SMILES IDX 51 79 55 80 58 81 52 82 53 83 56 84 54 85 80 86 81 87 89 88
REMARK SMILES IDX 82 89 83 90 87 91 90 92 84 93 85 94 88 95 86 96 65 97 66 98
REMARK SMILES IDX 74 99 67 100 68 101 72 102 75 103 69 104 70 105 73 106
REMARK SMILES IDX 71 107
REMARK H PARENT 31 5 10 18 12 22 36 41 95 60 63 71
REMARK Flexibility Score: inf
ROOT
ATOM      1  C   UNL     1       2.017   2.464  -0.199  1.00  0.00     0.116 C 
ENDROOT
BRANCH   1   2
ATOM      2  N   UNL     1       2.671   1.234   0.210  1.00  0.00    -0.356 N 
ATOM      3  O   UNL     1       0.954  -0.160  -0.409  1.00  0.00    -0.275 OA
ATOM      4  C   UNL     1       2.101  -0.002  -0.006  1.00  0.00     0.221 C 
ATOM      5  H   UNL     1       3.549   1.284   0.654  1.00  0.00     0.163 HD
BRANCH   4   6
ATOM      6  C   UNL     1       3.032  -1.170   0.216  1.00  0.00     0.123 C 
BRANCH   6   7
ATOM      7  C   UNL     1       3.743  -1.550  -1.083  1.00  0.00     0.154 C 
BRANCH   7   8
ATOM      8  N   UNL     1       4.845  -0.664  -1.432  1.00  0.00    -0.271 N 
ATOM      9  C   UNL     1       4.814   0.663  -1.808  1.00  0.00     0.117 A 
ATOM     10  N   UNL     1       6.093  -1.125  -1.262  1.00  0.00    -0.172 NA
ATOM     11  C   UNL     1       6.101   1.127  -1.634  1.00  0.00     0.025 A 
ATOM     12  C   UNL     1       6.858  -0.041  -1.380  1.00  0.00     0.100 A 
BRANCH  11  13
ATOM     13  C   UNL     1       6.624   2.451  -1.456  1.00  0.00     0.072 C 
ATOM     14  C   UNL     1       7.838   2.922  -1.844  1.00  0.00     0.217 C 
ATOM     15  N   UNL     1       8.521   3.884  -1.148  1.00  0.00    -0.228 N 
ATOM     16  C   UNL     1       8.730   2.488  -2.999  1.00  0.00     0.386 C 
ATOM     17  C   UNL     1       9.726   3.892  -1.666  1.00  0.00     0.321 C 
ATOM     18  H   UNL     1       8.181   4.447  -0.416  1.00  0.00     0.313 HD
ATOM     19  N   UNL     1       9.976   3.083  -2.782  1.00  0.00    -0.149 N 
ATOM     20  O   UNL     1       8.271   1.938  -3.984  1.00  0.00    -0.236 OA
BRANCH  17  21
ATOM     21  S   UNL     1      10.789   5.072  -0.962  1.00  0.00    -0.055 SA
ATOM     22  H   UNL     1      10.181   5.647   0.110  1.00  0.00     0.116 HD
ENDBRANCH  17  21
BRANCH  19  23
ATOM     23  C   UNL     1      11.132   3.028  -3.858  1.00  0.00     0.137 A 
ATOM     24  C   UNL     1      12.598   4.094  -3.800  1.00  0.00     0.052 A 
ATOM     25  C   UNL     1      10.786   2.186  -5.435  1.00  0.00     0.052 A 
ATOM     26  C   UNL     1      13.567   4.514  -5.308  1.00  0.00     0.004 A 
ATOM     27  C   UNL     1      11.899   2.315  -6.900  1.00  0.00     0.004 A 
ATOM     28  C   UNL     1      13.249   3.591  -6.907  1.00  0.00     0.000 A 
ENDBRANCH  19  23
ENDBRANCH  11  13
BRANCH  12  29
ATOM     29  C   UNL     1       8.295  -0.093  -1.301  1.00  0.00     0.003 A 
ATOM     30  C   UNL     1       8.996   0.642  -0.332  1.00  0.00     0.011 A 
ATOM     31  C   UNL     1       8.954  -0.641  -2.396  1.00  0.00     0.011 A 
ATOM     32  C   UNL     1      10.362   0.841  -0.479  1.00  0.00     0.016 A 
ATOM     33  C   UNL     1      10.335  -0.549  -2.465  1.00  0.00     0.016 A 
ATOM     34  C   UNL     1      11.036   0.194  -1.507  1.00  0.00     0.018 A 
ATOM     35  Br  UNL     1      12.918   0.376  -1.525  1.00  0.00    -0.051 Br
ENDBRANCH  12  29
ENDBRANCH   7   8
ENDBRANCH   6   7
ENDBRANCH   4   6
ENDBRANCH   1   2
BRANCH   1  36
ATOM     36  C   UNL     1       2.303   3.630   0.750  1.00  0.00     0.023 C 
BRANCH  36  37
ATOM     37  C   UNL     1       3.752   4.123   0.776  1.00  0.00     0.023 C 
BRANCH  37  38
ATOM     38  C   UNL     1       4.200   4.753  -0.525  1.00  0.00     0.116 C 
BRANCH  38  39
ATOM     39  N   UNL     1       3.641   6.058  -0.846  1.00  0.00    -0.352 N 
ATOM     40  C   UNL     1       4.281   7.030  -1.603  1.00  0.00     0.251 C 
ATOM     41  H   UNL     1       2.743   6.267  -0.500  1.00  0.00     0.163 HD
ATOM     42  O   UNL     1       3.955   8.209  -1.571  1.00  0.00    -0.269 OA
BRANCH  40  43
ATOM     43  C   UNL     1       5.264   6.564  -2.603  1.00  0.00     0.039 A 
ATOM     44  C   UNL     1       6.287   7.323  -3.153  1.00  0.00     0.014 A 
ATOM     45  C   UNL     1       4.974   5.346  -3.192  1.00  0.00     0.014 A 
ATOM     46  C   UNL     1       6.806   6.873  -4.391  1.00  0.00     0.010 A 
ATOM     47  C   UNL     1       5.893   4.748  -3.976  1.00  0.00     0.010 A 
ATOM     48  C   UNL     1       6.465   5.567  -4.900  1.00  0.00    -0.014 A 
BRANCH  48  49
ATOM     49  C   UNL     1       7.277   4.697  -5.808  1.00  0.00     0.031 A 
ATOM     50  C   UNL     1       8.736   5.094  -5.346  1.00  0.00     0.074 A 
ATOM     51  C   UNL     1       6.685   3.654  -6.619  1.00  0.00     0.049 A 
ATOM     52  N   UNL     1       9.697   5.541  -6.066  1.00  0.00    -0.248 NA
ATOM     53  C   UNL     1       9.201   5.493  -3.954  1.00  0.00     0.031 C 
ATOM     54  C   UNL     1       5.219   3.355  -6.924  1.00  0.00     0.029 A 
ATOM     55  N   UNL     1       7.212   2.613  -7.473  1.00  0.00    -0.354 N 
ATOM     56  C   UNL     1      10.850   5.200  -5.312  1.00  0.00     0.074 A 
ATOM     57  C   UNL     1      10.508   5.774  -4.075  1.00  0.00     0.031 C 
ATOM     58  C   UNL     1       5.011   2.167  -7.588  1.00  0.00     0.029 A 
ATOM     59  C   UNL     1       6.275   1.535  -7.927  1.00  0.00     0.049 A 
ATOM     60  H   UNL     1       8.157   2.612  -7.748  1.00  0.00     0.167 HD
ATOM     61  C   UNL     1      11.639   4.061  -5.752  1.00  0.00     0.037 A 
ATOM     62  C   UNL     1       6.453   0.441  -8.814  1.00  0.00     0.037 A 
ATOM     63  C   UNL     1      11.254   4.521  -7.323  1.00  0.00     0.049 A 
ATOM     64  C   UNL     1       7.718   0.676  -9.542  1.00  0.00     0.074 A 
ATOM     65  C   UNL     1      11.453   5.696  -8.051  1.00  0.00     0.029 A 
ATOM     66  N   UNL     1      10.115   3.957  -7.821  1.00  0.00    -0.354 N 
ATOM     67  N   UNL     1       7.841   1.678 -10.365  1.00  0.00    -0.248 NA
ATOM     68  C   UNL     1       8.879   0.222  -8.790  1.00  0.00     0.031 C 
ATOM     69  C   UNL     1      10.401   5.728  -8.999  1.00  0.00     0.029 A 
ATOM     70  C   UNL     1       9.865   4.451  -9.042  1.00  0.00     0.049 A 
ATOM     71  H   UNL     1       9.562   3.290  -7.354  1.00  0.00     0.167 HD
ATOM     72  C   UNL     1       8.897   2.360  -9.816  1.00  0.00     0.074 A 
ATOM     73  C   UNL     1       9.469   1.418  -8.829  1.00  0.00     0.031 C 
ATOM     74  C   UNL     1       8.963   3.727  -9.855  1.00  0.00     0.037 A 
BRANCH  61  75
ATOM     75  C   UNL     1      12.989   2.502  -5.169  1.00  0.00     0.064 A 
ATOM     76  C   UNL     1      14.571   2.333  -5.637  1.00  0.00     0.173 A 
ATOM     77  C   UNL     1      12.809   1.054  -4.762  1.00  0.00     0.173 A 
ATOM     78  F   UNL     1      15.353   3.395  -5.979  1.00  0.00    -0.203 F 
ATOM     79  C   UNL     1      15.292   1.182  -6.029  1.00  0.00     0.198 A 
ATOM     80  C   UNL     1      13.694  -0.089  -4.955  1.00  0.00     0.198 A 
ATOM     81  F   UNL     1      11.657   0.590  -4.274  1.00  0.00    -0.203 F 
ATOM     82  F   UNL     1      16.341   1.312  -6.860  1.00  0.00    -0.200 F 
ATOM     83  C   UNL     1      14.862  -0.041  -5.667  1.00  0.00     0.200 A 
ATOM     84  F   UNL     1      13.304  -1.289  -4.496  1.00  0.00    -0.200 F 
ATOM     85  F   UNL     1      15.557  -1.140  -5.988  1.00  0.00    -0.200 F 
ENDBRANCH  61  75
BRANCH  62  86
ATOM     86  C   UNL     1       5.943  -1.029  -8.889  1.00  0.00     0.064 A 
ATOM     87  C   UNL     1       6.154  -1.990  -9.946  1.00  0.00     0.173 A 
ATOM     88  C   UNL     1       5.526  -1.611  -7.689  1.00  0.00     0.173 A 
ATOM     89  F   UNL     1       6.651  -1.616 -11.137  1.00  0.00    -0.203 F 
ATOM     90  C   UNL     1       5.919  -3.389  -9.784  1.00  0.00     0.198 A 
ATOM     91  C   UNL     1       5.320  -2.994  -7.523  1.00  0.00     0.198 A 
ATOM     92  F   UNL     1       5.407  -0.839  -6.604  1.00  0.00    -0.203 F 
ATOM     93  F   UNL     1       6.133  -4.257 -10.790  1.00  0.00    -0.200 F 
ATOM     94  C   UNL     1       5.510  -3.885  -8.562  1.00  0.00     0.200 A 
ATOM     95  F   UNL     1       4.982  -3.459  -6.313  1.00  0.00    -0.200 F 
ATOM     96  F   UNL     1       5.335  -5.203  -8.368  1.00  0.00    -0.200 F 
ENDBRANCH  62  86
BRANCH  74  97
ATOM     97  C   UNL     1       8.077   4.574 -10.683  1.00  0.00     0.064 A 
ATOM     98  C   UNL     1       6.787   4.984 -10.314  1.00  0.00     0.173 A 
ATOM     99  C   UNL     1       8.714   5.287 -11.697  1.00  0.00     0.173 A 
ATOM    100  F   UNL     1       6.216   4.538  -9.193  1.00  0.00    -0.203 F 
ATOM    101  C   UNL     1       6.114   5.974 -11.020  1.00  0.00     0.198 A 
ATOM    102  C   UNL     1       8.076   6.328 -12.347  1.00  0.00     0.198 A 
ATOM    103  F   UNL     1      10.018   5.073 -11.940  1.00  0.00    -0.203 F 
ATOM    104  F   UNL     1       4.871   6.331 -10.662  1.00  0.00    -0.200 F 
ATOM    105  C   UNL     1       6.761   6.642 -12.043  1.00  0.00     0.200 A 
ATOM    106  F   UNL     1       8.767   7.074 -13.217  1.00  0.00    -0.200 F 
ATOM    107  F   UNL     1       6.139   7.627 -12.703  1.00  0.00    -0.200 F 
ENDBRANCH  74  97
ENDBRANCH  48  49
ENDBRANCH  40  43
ENDBRANCH  38  39
ENDBRANCH  37  38
ENDBRANCH  36  37
ENDBRANCH   1  36
TORSDOF 17
