REMARK SMILES O=C(NCCCCNC(=O)c1ccc2c(=O)n(CCC[NH+]3CCOCC3)c(=O)[nH]c2c1)c1ccc(-c2c3nc(c(-c4c(F)c(F)c(F)c(F)c4F)c4ccc([nH]4)c(-c4c(F)c(F)c(F)c(F)c4F)c4nc(c(-c5c(F)c(F)c(F)c(F)c5F)c5ccc2[nH]5)C=C4)C=C3)cc1
REMARK SMILES IDX 6 1 5 2 4 3 3 4 1 5 2 6 32 8 33 9 94 10 34 11 93 12 35 13
REMARK SMILES IDX 36 14 37 15 87 16 38 17 92 18 86 19 88 20 39 21 91 22 85 23
REMARK SMILES IDX 84 24 40 26 72 27 52 28 71 29 53 30 56 31 70 32 89 33 54 34
REMARK SMILES IDX 55 35 69 37 90 38 57 39 41 40 42 41 50 42 43 43 44 44 48 45
REMARK SMILES IDX 51 46 45 47 46 48 49 49 47 50 73 51 74 52 82 53 75 54 76 55
REMARK SMILES IDX 80 56 83 57 77 58 78 59 81 60 79 61 58 62 59 63 67 64 60 65
REMARK SMILES IDX 61 66 65 67 68 68 62 69 63 70 66 71 64 72 7 73 8 74 9 75
REMARK SMILES IDX 10 77 11 78 12 79 31 80 13 81 30 82 14 83 29 84 15 85 27 86
REMARK SMILES IDX 16 88 17 89 28 90 18 91 19 92 20 93 21 94 22 95 26 96 23 98
REMARK SMILES IDX 25 99 24 100
REMARK H PARENT 3 7 88 25 56 36 8 76 29 87 21 97
REMARK Flexibility Score: inf
ROOT
ATOM      1  C   UNL     1       4.541   2.028  -3.094  1.00  0.00     0.023 C 
ENDROOT
BRANCH   1   2
ATOM      2  C   UNL     1       4.902   0.715  -2.409  1.00  0.00     0.023 C 
BRANCH   2   3
ATOM      3  C   UNL     1       4.547   0.648  -0.932  1.00  0.00     0.116 C 
BRANCH   3   4
ATOM      4  N   UNL     1       3.118   0.721  -0.686  1.00  0.00    -0.352 N 
ATOM      5  O   UNL     1       1.123   0.022   0.104  1.00  0.00    -0.269 OA
ATOM      6  C   UNL     1       2.344  -0.086   0.114  1.00  0.00     0.251 C 
ATOM      7  H   UNL     1       2.640   1.444  -1.153  1.00  0.00     0.163 HD
BRANCH   6   8
ATOM      8  C   UNL     1       2.992  -1.110   0.963  1.00  0.00     0.039 A 
ATOM      9  C   UNL     1       2.436  -2.389   1.019  1.00  0.00     0.014 A 
ATOM     10  C   UNL     1       4.150  -0.816   1.689  1.00  0.00     0.014 A 
ATOM     11  C   UNL     1       3.065  -3.381   1.774  1.00  0.00     0.010 A 
ATOM     12  C   UNL     1       4.832  -1.831   2.350  1.00  0.00     0.010 A 
ATOM     13  C   UNL     1       4.281  -3.118   2.428  1.00  0.00    -0.014 A 
BRANCH  13  14
ATOM     14  C   UNL     1       4.946  -4.162   3.250  1.00  0.00     0.031 A 
ATOM     15  C   UNL     1       5.131  -3.944   4.729  1.00  0.00     0.074 A 
ATOM     16  C   UNL     1       5.385  -5.299   2.672  1.00  0.00     0.049 A 
ATOM     17  N   UNL     1       5.675  -4.737   5.618  1.00  0.00    -0.248 NA
ATOM     18  C   UNL     1       4.670  -2.660   5.284  1.00  0.00     0.031 C 
ATOM     19  C   UNL     1       5.307  -5.605   1.243  1.00  0.00     0.029 A 
ATOM     20  N   UNL     1       5.972  -6.415   3.217  1.00  0.00    -0.354 N 
ATOM     21  C   UNL     1       5.623  -4.045   6.822  1.00  0.00     0.074 A 
ATOM     22  C   UNL     1       5.067  -2.743   6.544  1.00  0.00     0.031 C 
ATOM     23  C   UNL     1       5.777  -6.845   1.032  1.00  0.00     0.029 A 
ATOM     24  C   UNL     1       6.226  -7.409   2.302  1.00  0.00     0.049 A 
ATOM     25  H   UNL     1       6.190  -6.495   4.174  1.00  0.00     0.167 HD
ATOM     26  C   UNL     1       5.965  -4.475   8.057  1.00  0.00     0.037 A 
ATOM     27  C   UNL     1       6.753  -8.638   2.471  1.00  0.00     0.037 A 
ATOM     28  C   UNL     1       6.471  -5.790   8.339  1.00  0.00     0.049 A 
ATOM     29  C   UNL     1       7.138  -9.086   3.857  1.00  0.00     0.074 A 
ATOM     30  C   UNL     1       6.794  -6.338   9.567  1.00  0.00     0.029 A 
ATOM     31  N   UNL     1       6.715  -6.763   7.383  1.00  0.00    -0.354 N 
ATOM     32  N   UNL     1       7.015  -8.447   4.994  1.00  0.00    -0.248 NA
ATOM     33  C   UNL     1       7.731 -10.426   3.987  1.00  0.00     0.031 C 
ATOM     34  C   UNL     1       7.282  -7.627   9.350  1.00  0.00     0.029 A 
ATOM     35  C   UNL     1       7.208  -7.902   7.994  1.00  0.00     0.049 A 
ATOM     36  H   UNL     1       6.562  -6.659   6.416  1.00  0.00     0.167 HD
ATOM     37  C   UNL     1       7.481  -9.314   5.973  1.00  0.00     0.074 A 
ATOM     38  C   UNL     1       7.883 -10.530   5.301  1.00  0.00     0.031 C 
ATOM     39  C   UNL     1       7.570  -9.117   7.310  1.00  0.00     0.037 A 
BRANCH  26  40
ATOM     40  C   UNL     1       5.770  -3.541   9.214  1.00  0.00     0.064 A 
ATOM     41  C   UNL     1       4.487  -3.228   9.688  1.00  0.00     0.173 A 
ATOM     42  C   UNL     1       6.873  -3.043   9.924  1.00  0.00     0.173 A 
ATOM     43  F   UNL     1       3.400  -3.671   9.038  1.00  0.00    -0.203 F 
ATOM     44  C   UNL     1       4.316  -2.447  10.827  1.00  0.00     0.198 A 
ATOM     45  C   UNL     1       6.698  -2.287  11.079  1.00  0.00     0.198 A 
ATOM     46  F   UNL     1       8.120  -3.319   9.515  1.00  0.00    -0.203 F 
ATOM     47  F   UNL     1       3.081  -2.141  11.248  1.00  0.00    -0.200 F 
ATOM     48  C   UNL     1       5.421  -1.990  11.530  1.00  0.00     0.200 A 
ATOM     49  F   UNL     1       7.766  -1.861  11.767  1.00  0.00    -0.200 F 
ATOM     50  F   UNL     1       5.254  -1.264  12.644  1.00  0.00    -0.200 F 
ENDBRANCH  26  40
BRANCH  27  51
ATOM     51  C   UNL     1       6.907  -9.549   1.304  1.00  0.00     0.064 A 
ATOM     52  C   UNL     1       6.139 -10.717   1.195  1.00  0.00     0.173 A 
ATOM     53  C   UNL     1       7.819  -9.274   0.274  1.00  0.00     0.173 A 
ATOM     54  F   UNL     1       5.265 -11.037   2.162  1.00  0.00    -0.203 F 
ATOM     55  C   UNL     1       6.290 -11.583   0.113  1.00  0.00     0.198 A 
ATOM     56  C   UNL     1       7.947 -10.124  -0.823  1.00  0.00     0.198 A 
ATOM     57  F   UNL     1       8.576  -8.168   0.325  1.00  0.00    -0.203 F 
ATOM     58  F   UNL     1       5.574 -12.715   0.058  1.00  0.00    -0.200 F 
ATOM     59  C   UNL     1       7.188 -11.282  -0.899  1.00  0.00     0.200 A 
ATOM     60  F   UNL     1       8.804  -9.820  -1.807  1.00  0.00    -0.200 F 
ATOM     61  F   UNL     1       7.327 -12.110  -1.943  1.00  0.00    -0.200 F 
ENDBRANCH  27  51
BRANCH  39  62
ATOM     62  C   UNL     1       8.085 -10.237   8.163  1.00  0.00     0.064 A 
ATOM     63  C   UNL     1       9.449 -10.556   8.202  1.00  0.00     0.173 A 
ATOM     64  C   UNL     1       7.226 -10.894   9.058  1.00  0.00     0.173 A 
ATOM     65  F   UNL     1      10.306  -9.960   7.361  1.00  0.00    -0.203 F 
ATOM     66  C   UNL     1       9.936 -11.488   9.114  1.00  0.00     0.198 A 
ATOM     67  C   UNL     1       7.721 -11.804   9.986  1.00  0.00     0.198 A 
ATOM     68  F   UNL     1       5.914 -10.613   9.066  1.00  0.00    -0.203 F 
ATOM     69  F   UNL     1      11.243 -11.785   9.130  1.00  0.00    -0.200 F 
ATOM     70  C   UNL     1       9.075 -12.098  10.015  1.00  0.00     0.200 A 
ATOM     71  F   UNL     1       6.892 -12.375  10.871  1.00  0.00    -0.200 F 
ATOM     72  F   UNL     1       9.554 -12.966  10.917  1.00  0.00    -0.200 F 
ENDBRANCH  39  62
ENDBRANCH  13  14
ENDBRANCH   6   8
ENDBRANCH   3   4
ENDBRANCH   2   3
ENDBRANCH   1   2
BRANCH   1  73
ATOM     73  C   UNL     1       5.027   3.277  -2.366  1.00  0.00     0.116 C 
BRANCH  73  74
ATOM     74  N   UNL     1       6.469   3.271  -2.142  1.00  0.00    -0.352 N 
ATOM     75  C   UNL     1       7.415   4.140  -2.631  1.00  0.00     0.251 C 
ATOM     76  H   UNL     1       6.809   2.549  -1.565  1.00  0.00     0.163 HD
ATOM     77  O   UNL     1       8.610   3.962  -2.464  1.00  0.00    -0.269 OA
BRANCH  75  78
ATOM     78  C   UNL     1       6.929   5.286  -3.408  1.00  0.00     0.041 A 
ATOM     79  C   UNL     1       6.113   6.234  -2.779  1.00  0.00     0.015 A 
ATOM     80  C   UNL     1       7.137   5.285  -4.790  1.00  0.00     0.040 A 
ATOM     81  C   UNL     1       5.407   7.134  -3.563  1.00  0.00     0.017 A 
ATOM     82  C   UNL     1       6.412   6.183  -5.561  1.00  0.00     0.056 A 
ATOM     83  C   UNL     1       5.542   7.077  -4.955  1.00  0.00     0.064 A 
ATOM     84  N   UNL     1       6.521   6.178  -6.945  1.00  0.00    -0.307 N 
ATOM     85  C   UNL     1       4.756   7.970  -5.810  1.00  0.00     0.264 A 
ATOM     86  C   UNL     1       5.735   6.931  -7.772  1.00  0.00     0.328 A 
ATOM     87  H   UNL     1       7.203   5.599  -7.354  1.00  0.00     0.171 HD
ATOM     88  O   UNL     1       4.195   8.895  -5.244  1.00  0.00    -0.268 OA
ATOM     89  N   UNL     1       4.753   7.719  -7.175  1.00  0.00    -0.260 N 
ATOM     90  O   UNL     1       5.955   6.888  -8.982  1.00  0.00    -0.248 OA
BRANCH  89  91
ATOM     91  C   UNL     1       3.963   8.557  -8.079  1.00  0.00     0.137 C 
BRANCH  91  92
ATOM     92  C   UNL     1       2.459   8.779  -7.838  1.00  0.00     0.083 C 
BRANCH  92  93
ATOM     93  C   UNL     1       1.896   9.630  -6.683  1.00  0.00     0.264 C 
BRANCH  93  94
ATOM     94  N   UNL     1       2.257  11.025  -6.424  1.00  0.00    -0.331 N 
ATOM     95  C   UNL     1       1.236  12.021  -6.769  1.00  0.00     0.291 C 
ATOM     96  C   UNL     1       3.578  11.525  -6.810  1.00  0.00     0.291 C 
ATOM     97  H   UNL     1       2.318  10.924  -5.411  1.00  0.00     0.348 HD
ATOM     98  C   UNL     1       1.330  12.478  -8.229  1.00  0.00     0.221 C 
ATOM     99  C   UNL     1       3.640  12.034  -8.261  1.00  0.00     0.221 C 
ATOM    100  O   UNL     1       2.628  13.014  -8.521  1.00  0.00    -0.370 OA
ENDBRANCH  93  94
ENDBRANCH  92  93
ENDBRANCH  91  92
ENDBRANCH  89  91
ENDBRANCH  75  78
ENDBRANCH  73  74
ENDBRANCH   1  73
TORSDOF 15
