REMARK SMILES CC[C@H]1CC[C@](C(=O)NCCCCNC(=O)c2ccc(-c3c4nc(c(-c5c(F)c(F)c(F)c(F)c5F)c5ccc([nH]5)c(-c5c(F)c(F)c(F)c(F)c5F)c5nc(c(-c6c(F)c(F)c(F)c(F)c6F)c6ccc3[nH]6)C=C5)C=C4)cc2)([C@H]2CCC[C@@H](S(C)(=O)=O)C2)CC1
REMARK SMILES IDX 11 1 10 2 9 3 7 4 8 5 6 7 3 8 91 9 4 10 90 11 5 12 2 13 1 14
REMARK SMILES IDX 80 15 81 16 89 17 82 18 84 19 83 20 85 21 86 22 87 23 88 24
REMARK SMILES IDX 12 25 13 26 14 27 15 28 16 30 17 31 18 32 79 33 19 34 78 35
REMARK SMILES IDX 20 36 21 37 22 38 72 39 23 40 77 41 71 42 73 43 24 44 76 45
REMARK SMILES IDX 70 46 69 47 25 49 57 50 37 51 56 52 38 53 41 54 55 55 74 56
REMARK SMILES IDX 39 57 40 58 54 60 75 61 42 62 26 63 27 64 35 65 28 66 29 67
REMARK SMILES IDX 33 68 36 69 30 70 31 71 34 72 32 73 58 74 59 75 67 76 60 77
REMARK SMILES IDX 61 78 65 79 68 80 62 81 63 82 66 83 64 84 43 85 44 86 52 87
REMARK SMILES IDX 45 88 46 89 50 90 53 91 47 92 48 93 51 94 49 95
REMARK H PARENT 9 6 14 29 73 48 41 59
REMARK Flexibility Score: inf
ROOT
ATOM      1  C   UNL     1      -1.594   9.110   4.651  1.00  0.00     0.023 C 
ENDROOT
BRANCH   1   2
ATOM      2  C   UNL     1      -0.190   8.535   4.507  1.00  0.00     0.116 C 
BRANCH   2   3
ATOM      3  N   UNL     1      -0.037   7.303   5.251  1.00  0.00    -0.356 N 
ATOM      4  C   UNL     1       0.908   6.416   4.820  1.00  0.00     0.226 C 
ATOM      5  O   UNL     1       2.100   6.704   4.907  1.00  0.00    -0.274 OA
ATOM      6  H   UNL     1      -0.595   7.110   6.039  1.00  0.00     0.163 HD
BRANCH   4   7
ATOM      7  C   UNL     1       0.412   5.088   4.230  1.00  0.00     0.052 C 
ATOM      8  C   UNL     1      -0.524   6.098   1.477  1.00  0.00    -0.011 C 
ATOM      9  C   UNL     1       0.948   6.011   1.896  1.00  0.00     0.005 C 
ATOM     10  C   UNL     1      -1.513   5.924   2.637  1.00  0.00     0.005 C 
ATOM     11  C   UNL     1       1.230   4.900   2.919  1.00  0.00     0.017 C 
ATOM     12  C   UNL     1      -1.081   5.037   3.799  1.00  0.00     0.017 C 
BRANCH   8  13
ATOM     13  C   UNL     1      -0.896   7.403   0.725  1.00  0.00    -0.000 C 
ATOM     14  C   UNL     1       0.165   7.978  -0.197  1.00  0.00     0.004 C 
ENDBRANCH   8  13
BRANCH   7  15
ATOM     15  C   UNL     1       0.671   3.901   5.262  1.00  0.00     0.006 C 
ATOM     16  C   UNL     1       2.124   3.641   5.704  1.00  0.00     0.005 C 
ATOM     17  C   UNL     1      -0.297   3.774   6.473  1.00  0.00     0.024 C 
ATOM     18  C   UNL     1       2.548   4.330   6.995  1.00  0.00     0.002 C 
ATOM     19  C   UNL     1       0.140   4.245   7.867  1.00  0.00     0.108 C 
ATOM     20  C   UNL     1       1.623   4.022   8.162  1.00  0.00     0.020 C 
BRANCH  19  21
ATOM     21  S   UNL     1      -0.415   5.878   8.405  1.00  0.00     0.150 S 
ATOM     22  C   UNL     1      -2.050   6.104   7.742  1.00  0.00     0.158 C 
ATOM     23  O   UNL     1      -0.575   5.824   9.847  1.00  0.00    -0.229 OA
ATOM     24  O   UNL     1       0.424   6.905   7.820  1.00  0.00    -0.229 OA
ENDBRANCH  19  21
ENDBRANCH   7  15
ENDBRANCH   4   7
ENDBRANCH   2   3
ENDBRANCH   1   2
BRANCH   1  25
ATOM     25  C   UNL     1      -1.612  10.549   5.148  1.00  0.00     0.023 C 
BRANCH  25  26
ATOM     26  C   UNL     1      -0.742  11.521   4.361  1.00  0.00     0.116 C 
BRANCH  26  27
ATOM     27  N   UNL     1      -1.033  11.579   2.936  1.00  0.00    -0.352 N 
ATOM     28  C   UNL     1      -0.947  12.680   2.110  1.00  0.00     0.251 C 
ATOM     29  H   UNL     1      -1.323  10.738   2.515  1.00  0.00     0.163 HD
ATOM     30  O   UNL     1      -1.257  12.617   0.930  1.00  0.00    -0.269 OA
BRANCH  28  31
ATOM     31  C   UNL     1      -0.529  13.966   2.709  1.00  0.00     0.039 A 
ATOM     32  C   UNL     1      -1.398  15.055   2.633  1.00  0.00     0.014 A 
ATOM     33  C   UNL     1       0.647  14.041   3.459  1.00  0.00     0.014 A 
ATOM     34  C   UNL     1      -1.135  16.194   3.396  1.00  0.00     0.010 A 
ATOM     35  C   UNL     1       0.863  15.143   4.279  1.00  0.00     0.010 A 
ATOM     36  C   UNL     1      -0.033  16.224   4.267  1.00  0.00    -0.014 A 
BRANCH  36  37
ATOM     37  C   UNL     1       0.189  17.362   5.195  1.00  0.00     0.031 A 
ATOM     38  C   UNL     1       1.435  18.193   5.075  1.00  0.00     0.074 A 
ATOM     39  C   UNL     1      -0.682  17.588   6.199  1.00  0.00     0.049 A 
ATOM     40  N   UNL     1       1.863  19.160   5.847  1.00  0.00    -0.248 NA
ATOM     41  C   UNL     1       2.340  17.872   3.960  1.00  0.00     0.031 C 
ATOM     42  C   UNL     1      -1.893  16.808   6.466  1.00  0.00     0.029 A 
ATOM     43  N   UNL     1      -0.672  18.532   7.197  1.00  0.00    -0.354 N 
ATOM     44  C   UNL     1       3.094  19.537   5.330  1.00  0.00     0.074 A 
ATOM     45  C   UNL     1       3.368  18.671   4.205  1.00  0.00     0.031 C 
ATOM     46  C   UNL     1      -2.517  17.316   7.541  1.00  0.00     0.029 A 
ATOM     47  C   UNL     1      -1.737  18.434   8.061  1.00  0.00     0.049 A 
ATOM     48  H   UNL     1       0.031  19.214   7.286  1.00  0.00     0.167 HD
ATOM     49  C   UNL     1       3.913  20.533   5.744  1.00  0.00     0.037 A 
ATOM     50  C   UNL     1      -2.044  19.162   9.152  1.00  0.00     0.037 A 
ATOM     51  C   UNL     1       3.612  21.431   6.826  1.00  0.00     0.049 A 
ATOM     52  C   UNL     1      -1.137  20.293   9.559  1.00  0.00     0.074 A 
ATOM     53  C   UNL     1       4.333  22.530   7.259  1.00  0.00     0.029 A 
ATOM     54  N   UNL     1       2.495  21.337   7.641  1.00  0.00    -0.354 N 
ATOM     55  N   UNL     1      -0.019  20.696   9.007  1.00  0.00    -0.248 NA
ATOM     56  C   UNL     1      -1.538  21.074  10.738  1.00  0.00     0.031 C 
ATOM     57  C   UNL     1       3.669  23.083   8.358  1.00  0.00     0.029 A 
ATOM     58  C   UNL     1       2.514  22.351   8.584  1.00  0.00     0.049 A 
ATOM     59  H   UNL     1       1.792  20.652   7.561  1.00  0.00     0.167 HD
ATOM     60  C   UNL     1       0.399  21.793   9.748  1.00  0.00     0.074 A 
ATOM     61  C   UNL     1      -0.593  22.002  10.782  1.00  0.00     0.031 C 
ATOM     62  C   UNL     1       1.506  22.557   9.589  1.00  0.00     0.037 A 
BRANCH  49  63
ATOM     63  C   UNL     1       5.208  20.721   5.013  1.00  0.00     0.064 A 
ATOM     64  C   UNL     1       5.247  21.255   3.717  1.00  0.00     0.173 A 
ATOM     65  C   UNL     1       6.427  20.420   5.639  1.00  0.00     0.173 A 
ATOM     66  F   UNL     1       4.107  21.547   3.072  1.00  0.00    -0.203 F 
ATOM     67  C   UNL     1       6.460  21.464   3.067  1.00  0.00     0.198 A 
ATOM     68  C   UNL     1       7.638  20.656   4.996  1.00  0.00     0.198 A 
ATOM     69  F   UNL     1       6.443  19.912   6.881  1.00  0.00    -0.203 F 
ATOM     70  F   UNL     1       6.472  21.943   1.815  1.00  0.00    -0.200 F 
ATOM     71  C   UNL     1       7.654  21.174   3.709  1.00  0.00     0.200 A 
ATOM     72  F   UNL     1       8.792  20.386   5.622  1.00  0.00    -0.200 F 
ATOM     73  F   UNL     1       8.821  21.390   3.087  1.00  0.00    -0.200 F 
ENDBRANCH  49  63
BRANCH  50  74
ATOM     74  C   UNL     1      -3.276  18.870   9.930  1.00  0.00     0.064 A 
ATOM     75  C   UNL     1      -4.356  19.764   9.927  1.00  0.00     0.173 A 
ATOM     76  C   UNL     1      -3.388  17.716  10.719  1.00  0.00     0.173 A 
ATOM     77  F   UNL     1      -4.288  20.893   9.206  1.00  0.00    -0.203 F 
ATOM     78  C   UNL     1      -5.487  19.532  10.708  1.00  0.00     0.198 A 
ATOM     79  C   UNL     1      -4.530  17.471  11.478  1.00  0.00     0.198 A 
ATOM     80  F   UNL     1      -2.385  16.826  10.753  1.00  0.00    -0.203 F 
ATOM     81  F   UNL     1      -6.479  20.432  10.730  1.00  0.00    -0.200 F 
ATOM     82  C   UNL     1      -5.574  18.384  11.481  1.00  0.00     0.200 A 
ATOM     83  F   UNL     1      -4.617  16.355  12.215  1.00  0.00    -0.200 F 
ATOM     84  F   UNL     1      -6.658  18.164  12.237  1.00  0.00    -0.200 F 
ENDBRANCH  50  74
BRANCH  62  85
ATOM     85  C   UNL     1       1.682  23.717  10.523  1.00  0.00     0.064 A 
ATOM     86  C   UNL     1       2.056  23.532  11.861  1.00  0.00     0.173 A 
ATOM     87  C   UNL     1       1.520  25.031  10.058  1.00  0.00     0.173 A 
ATOM     88  F   UNL     1       2.206  22.293  12.355  1.00  0.00    -0.203 F 
ATOM     89  C   UNL     1       2.242  24.621  12.707  1.00  0.00     0.198 A 
ATOM     90  C   UNL     1       1.734  26.118  10.899  1.00  0.00     0.198 A 
ATOM     91  F   UNL     1       1.169  25.259   8.783  1.00  0.00    -0.203 F 
ATOM     92  F   UNL     1       2.559  24.421  13.994  1.00  0.00    -0.200 F 
ATOM     93  C   UNL     1       2.088  25.913  12.224  1.00  0.00     0.200 A 
ATOM     94  F   UNL     1       1.596  27.365  10.428  1.00  0.00    -0.200 F 
ATOM     95  F   UNL     1       2.276  26.960  13.038  1.00  0.00    -0.200 F 
ENDBRANCH  62  85
ENDBRANCH  36  37
ENDBRANCH  28  31
ENDBRANCH  26  27
ENDBRANCH  25  26
ENDBRANCH   1  25
TORSDOF 14
