REMARK SMILES O=C(COc1ccc(/C=C2/SC(Nc3ccccc3Br)=[NH+]C2=O)cc1)NCCCCNC(=O)c1ccc(-c2c3nc(c(-c4c(F)c(F)c(F)c(F)c4F)c4ccc([nH]4)c(-c4c(F)c(F)c(F)c(F)c4F)c4nc(c(-c5c(F)c(F)c(F)c(F)c5F)c5ccc2[nH]5)C=C4)C=C3)cc1
REMARK SMILES IDX 27 1 26 2 1 3 2 4 3 6 4 7 5 8 6 9 25 10 7 11 24 12 8 13 9 14
REMARK SMILES IDX 10 15 11 16 22 17 12 18 21 19 23 20 13 21 14 24 15 25 19 26
REMARK SMILES IDX 16 27 18 28 20 29 17 30 28 31 29 32 30 33 31 34 32 35 33 37
REMARK SMILES IDX 34 38 35 39 96 40 36 41 95 42 37 43 38 44 39 45 89 46 40 47
REMARK SMILES IDX 94 48 88 49 90 50 41 51 93 52 87 53 86 54 42 56 74 57 54 58
REMARK SMILES IDX 73 59 55 60 58 61 72 62 91 63 56 64 57 65 71 67 92 68 59 69
REMARK SMILES IDX 43 70 44 71 52 72 45 73 46 74 50 75 53 76 47 77 48 78 51 79
REMARK SMILES IDX 49 80 75 81 76 82 84 83 77 84 78 85 82 86 85 87 79 88 80 89
REMARK SMILES IDX 83 90 81 91 60 92 61 93 69 94 62 95 63 96 67 97 70 98 64 99
REMARK SMILES IDX 65 100 68 101 66 102
REMARK H PARENT 26 5 21 22 13 23 31 36 90 55 58 66
REMARK Flexibility Score: inf
ROOT
ATOM      1  C   UNL     1       2.116  -1.899   1.584  1.00  0.00     0.116 C 
ENDROOT
BRANCH   1   2
ATOM      2  N   UNL     1       2.786  -0.880   0.801  1.00  0.00    -0.353 N 
ATOM      3  O   UNL     1       1.056  -0.557  -0.674  1.00  0.00    -0.271 OA
ATOM      4  C   UNL     1       2.146  -0.214  -0.224  1.00  0.00     0.257 C 
ATOM      5  H   UNL     1       3.723  -0.657   1.005  1.00  0.00     0.163 HD
BRANCH   4   6
ATOM      6  C   UNL     1       2.885   1.025  -0.752  1.00  0.00     0.329 C 
BRANCH   6   7
ATOM      7  O   UNL     1       3.755   1.726   0.128  1.00  0.00    -0.484 OA
BRANCH   7   8
ATOM      8  C   UNL     1       3.171   2.517   1.082  1.00  0.00     0.120 A 
ATOM      9  C   UNL     1       3.881   3.668   1.439  1.00  0.00     0.047 A 
ATOM     10  C   UNL     1       2.015   2.188   1.786  1.00  0.00     0.047 A 
ATOM     11  C   UNL     1       3.477   4.449   2.530  1.00  0.00     0.012 A 
ATOM     12  C   UNL     1       1.615   2.957   2.878  1.00  0.00     0.012 A 
ATOM     13  C   UNL     1       2.368   4.063   3.284  1.00  0.00    -0.024 A 
BRANCH  13  14
ATOM     14  C   UNL     1       2.035   4.715   4.553  1.00  0.00     0.032 C 
ATOM     15  C   UNL     1       2.222   4.119   5.742  1.00  0.00     0.110 C 
ATOM     16  S   UNL     1       1.667   4.774   7.241  1.00  0.00     0.006 SA
ATOM     17  C   UNL     1       2.876   2.792   6.007  1.00  0.00     0.346 C 
ATOM     18  C   UNL     1       2.210   3.327   8.067  1.00  0.00     0.322 C 
ATOM     19  N   UNL     1       2.767   2.430   7.324  1.00  0.00    -0.199 N 
ATOM     20  O   UNL     1       3.453   2.114   5.169  1.00  0.00    -0.240 OA
ATOM     21  N   UNL     1       1.983   3.256   9.410  1.00  0.00    -0.233 N 
ATOM     22  H   UNL     1       3.083   1.565   7.672  1.00  0.00     0.316 HD
ATOM     23  H   UNL     1       1.388   3.926   9.817  1.00  0.00     0.313 HD
BRANCH  21  24
ATOM     24  C   UNL     1       2.552   2.277  10.246  1.00  0.00     0.139 A 
ATOM     25  C   UNL     1       1.693   1.463  11.001  1.00  0.00     0.053 A 
ATOM     26  C   UNL     1       3.936   2.015  10.306  1.00  0.00     0.064 A 
ATOM     27  C   UNL     1       2.192   0.401  11.763  1.00  0.00     0.004 A 
ATOM     28  C   UNL     1       4.432   0.950  11.066  1.00  0.00     0.020 A 
ATOM     29  Br  UNL     1       5.229   3.150   9.486  1.00  0.00    -0.046 Br
ATOM     30  C   UNL     1       3.559   0.139  11.787  1.00  0.00     0.001 A 
ENDBRANCH  21  24
ENDBRANCH  13  14
ENDBRANCH   7   8
ENDBRANCH   6   7
ENDBRANCH   4   6
ENDBRANCH   1   2
BRANCH   1  31
ATOM     31  C   UNL     1       2.495  -3.321   1.183  1.00  0.00     0.023 C 
BRANCH  31  32
ATOM     32  C   UNL     1       3.974  -3.666   1.364  1.00  0.00     0.023 C 
BRANCH  32  33
ATOM     33  C   UNL     1       4.525  -3.477   2.775  1.00  0.00     0.116 C 
BRANCH  33  34
ATOM     34  N   UNL     1       3.909  -4.361   3.753  1.00  0.00    -0.352 N 
ATOM     35  C   UNL     1       4.497  -5.211   4.660  1.00  0.00     0.251 C 
ATOM     36  H   UNL     1       2.925  -4.348   3.768  1.00  0.00     0.163 HD
ATOM     37  O   UNL     1       3.806  -5.982   5.319  1.00  0.00    -0.269 OA
BRANCH  35  38
ATOM     38  C   UNL     1       5.970  -5.231   4.820  1.00  0.00     0.039 A 
ATOM     39  C   UNL     1       6.620  -6.465   4.900  1.00  0.00     0.014 A 
ATOM     40  C   UNL     1       6.709  -4.048   4.890  1.00  0.00     0.014 A 
ATOM     41  C   UNL     1       8.015  -6.513   4.973  1.00  0.00     0.010 A 
ATOM     42  C   UNL     1       8.102  -4.098   4.879  1.00  0.00     0.010 A 
ATOM     43  C   UNL     1       8.771  -5.331   4.918  1.00  0.00    -0.014 A 
BRANCH  43  44
ATOM     44  C   UNL     1      10.258  -5.368   4.886  1.00  0.00     0.031 A 
ATOM     45  C   UNL     1      11.059  -4.742   5.994  1.00  0.00     0.074 A 
ATOM     46  C   UNL     1      10.890  -5.913   3.828  1.00  0.00     0.049 A 
ATOM     47  N   UNL     1      12.359  -4.619   6.111  1.00  0.00    -0.248 NA
ATOM     48  C   UNL     1      10.300  -4.153   7.108  1.00  0.00     0.031 C 
ATOM     49  C   UNL     1      10.231  -6.512   2.667  1.00  0.00     0.029 A 
ATOM     50  N   UNL     1      12.229  -6.041   3.550  1.00  0.00    -0.354 N 
ATOM     51  C   UNL     1      12.569  -3.935   7.301  1.00  0.00     0.074 A 
ATOM     52  C   UNL     1      11.264  -3.615   7.840  1.00  0.00     0.031 C 
ATOM     53  C   UNL     1      11.164  -6.962   1.814  1.00  0.00     0.029 A 
ATOM     54  C   UNL     1      12.487  -6.644   2.343  1.00  0.00     0.049 A 
ATOM     55  H   UNL     1      12.938  -5.731   4.159  1.00  0.00     0.167 HD
ATOM     56  C   UNL     1      13.742  -3.623   7.904  1.00  0.00     0.037 A 
ATOM     57  C   UNL     1      13.655  -6.899   1.724  1.00  0.00     0.037 A 
ATOM     58  C   UNL     1      15.039  -3.948   7.369  1.00  0.00     0.049 A 
ATOM     59  C   UNL     1      14.945  -6.517   2.400  1.00  0.00     0.074 A 
ATOM     60  C   UNL     1      16.285  -3.717   7.927  1.00  0.00     0.029 A 
ATOM     61  N   UNL     1      15.259  -4.567   6.147  1.00  0.00    -0.354 N 
ATOM     62  N   UNL     1      15.132  -5.934   3.559  1.00  0.00    -0.248 NA
ATOM     63  C   UNL     1      16.188  -6.837   1.684  1.00  0.00     0.031 C 
ATOM     64  C   UNL     1      17.258  -4.141   7.017  1.00  0.00     0.029 A 
ATOM     65  C   UNL     1      16.621  -4.699   5.921  1.00  0.00     0.049 A 
ATOM     66  H   UNL     1      14.552  -4.867   5.530  1.00  0.00     0.167 HD
ATOM     67  C   UNL     1      16.508  -5.844   3.725  1.00  0.00     0.074 A 
ATOM     68  C   UNL     1      17.109  -6.449   2.554  1.00  0.00     0.031 C 
ATOM     69  C   UNL     1      17.209  -5.308   4.754  1.00  0.00     0.037 A 
BRANCH  56  70
ATOM     70  C   UNL     1      13.675  -2.889   9.214  1.00  0.00     0.064 A 
ATOM     71  C   UNL     1      13.177  -3.499  10.376  1.00  0.00     0.173 A 
ATOM     72  C   UNL     1      14.147  -1.571   9.319  1.00  0.00     0.173 A 
ATOM     73  F   UNL     1      12.707  -4.754  10.332  1.00  0.00    -0.203 F 
ATOM     74  C   UNL     1      13.120  -2.806  11.583  1.00  0.00     0.198 A 
ATOM     75  C   UNL     1      14.122  -0.894  10.535  1.00  0.00     0.198 A 
ATOM     76  F   UNL     1      14.643  -0.942   8.243  1.00  0.00    -0.203 F 
ATOM     77  F   UNL     1      12.588  -3.391  12.665  1.00  0.00    -0.200 F 
ATOM     78  C   UNL     1      13.599  -1.508  11.663  1.00  0.00     0.200 A 
ATOM     79  F   UNL     1      14.602   0.355  10.615  1.00  0.00    -0.200 F 
ATOM     80  F   UNL     1      13.552  -0.845  12.827  1.00  0.00    -0.200 F 
ENDBRANCH  56  70
BRANCH  57  81
ATOM     81  C   UNL     1      13.661  -7.562   0.392  1.00  0.00     0.064 A 
ATOM     82  C   UNL     1      14.162  -8.862   0.233  1.00  0.00     0.173 A 
ATOM     83  C   UNL     1      13.175  -6.908  -0.750  1.00  0.00     0.173 A 
ATOM     84  F   UNL     1      14.658  -9.522   1.290  1.00  0.00    -0.203 F 
ATOM     85  C   UNL     1      14.197  -9.473  -1.019  1.00  0.00     0.198 A 
ATOM     86  C   UNL     1      13.180  -7.532  -1.996  1.00  0.00     0.198 A 
ATOM     87  F   UNL     1      12.681  -5.665  -0.654  1.00  0.00    -0.203 F 
ATOM     88  F   UNL     1      14.729 -10.696  -1.150  1.00  0.00    -0.200 F 
ATOM     89  C   UNL     1      13.700  -8.810  -2.131  1.00  0.00     0.200 A 
ATOM     90  F   UNL     1      12.684  -6.895  -3.065  1.00  0.00    -0.200 F 
ATOM     91  F   UNL     1      13.731  -9.400  -3.334  1.00  0.00    -0.200 F 
ENDBRANCH  57  81
BRANCH  69  92
ATOM     92  C   UNL     1      18.708  -5.387   4.685  1.00  0.00     0.064 A 
ATOM     93  C   UNL     1      19.449  -4.629   3.765  1.00  0.00     0.173 A 
ATOM     94  C   UNL     1      19.416  -6.205   5.580  1.00  0.00     0.173 A 
ATOM     95  F   UNL     1      18.821  -3.842   2.878  1.00  0.00    -0.203 F 
ATOM     96  C   UNL     1      20.839  -4.710   3.725  1.00  0.00     0.198 A 
ATOM     97  C   UNL     1      20.807  -6.256   5.560  1.00  0.00     0.198 A 
ATOM     98  F   UNL     1      18.759  -6.945   6.485  1.00  0.00    -0.203 F 
ATOM     99  F   UNL     1      21.521  -4.018   2.802  1.00  0.00    -0.200 F 
ATOM    100  C   UNL     1      21.517  -5.516   4.627  1.00  0.00     0.200 A 
ATOM    101  F   UNL     1      21.461  -7.022   6.444  1.00  0.00    -0.200 F 
ATOM    102  F   UNL     1      22.855  -5.585   4.592  1.00  0.00    -0.200 F 
ENDBRANCH  69  92
ENDBRANCH  43  44
ENDBRANCH  35  38
ENDBRANCH  33  34
ENDBRANCH  32  33
ENDBRANCH  31  32
ENDBRANCH   1  31
TORSDOF 15
