REMARK SMILES O=C(NCCCCNC(=O)[C@H]1C[C@H]2CCCC[C@@H]2[N@@H+]1CCn1ccnc1)c1ccc(-c2c3nc(c(-c4c(F)c(F)c(F)c(F)c4F)c4ccc([nH]4)c(-c4c(F)c(F)c(F)c(F)c4F)c4nc(c(-c5c(F)c(F)c(F)c(F)c5F)c5ccc2[nH]5)C=C4)C=C3)cc1
REMARK SMILES IDX 6 1 5 2 4 3 3 4 1 5 2 6 27 8 28 9 89 10 29 11 88 12 30 13
REMARK SMILES IDX 31 14 32 15 82 16 33 17 87 18 81 19 83 20 34 21 86 22 80 23
REMARK SMILES IDX 79 24 35 26 67 27 47 28 66 29 48 30 51 31 65 32 84 33 49 34
REMARK SMILES IDX 50 35 64 37 85 38 52 39 36 40 37 41 45 42 38 43 39 44 43 45
REMARK SMILES IDX 46 46 40 47 41 48 44 49 42 50 68 51 69 52 77 53 70 54 71 55
REMARK SMILES IDX 75 56 78 57 72 58 73 59 76 60 74 61 53 62 54 63 62 64 55 65
REMARK SMILES IDX 56 66 60 67 63 68 57 69 58 70 61 71 59 72 7 73 8 74 9 75
REMARK SMILES IDX 10 77 11 78 12 79 19 80 13 81 18 82 14 84 17 85 15 86 16 87
REMARK SMILES IDX 20 88 21 89 22 90 23 91 26 92 24 93 25 94
REMARK H PARENT 3 7 83 25 51 36 8 76 19 83
REMARK Flexibility Score: inf
ROOT
ATOM      1  C   UNL     1       2.124   7.968   1.097  1.00  0.00     0.023 C 
ENDROOT
BRANCH   1   2
ATOM      2  C   UNL     1       0.736   7.476   1.490  1.00  0.00     0.023 C 
BRANCH   2   3
ATOM      3  C   UNL     1       0.281   7.857   2.902  1.00  0.00     0.116 C 
BRANCH   3   4
ATOM      4  N   UNL     1       0.360   9.275   3.202  1.00  0.00    -0.352 N 
ATOM      5  O   UNL     1      -0.137  11.386   3.613  1.00  0.00    -0.269 OA
ATOM      6  C   UNL     1      -0.484  10.339   3.054  1.00  0.00     0.251 C 
ATOM      7  H   UNL     1       1.221   9.528   3.606  1.00  0.00     0.163 HD
BRANCH   6   8
ATOM      8  C   UNL     1      -1.734  10.349   2.246  1.00  0.00     0.039 A 
ATOM      9  C   UNL     1      -2.275   9.254   1.575  1.00  0.00     0.014 A 
ATOM     10  C   UNL     1      -2.384  11.594   2.122  1.00  0.00     0.014 A 
ATOM     11  C   UNL     1      -3.378   9.411   0.741  1.00  0.00     0.010 A 
ATOM     12  C   UNL     1      -3.501  11.754   1.305  1.00  0.00     0.010 A 
ATOM     13  C   UNL     1      -3.979  10.665   0.587  1.00  0.00    -0.014 A 
BRANCH  13  14
ATOM     14  C   UNL     1      -5.194  10.739  -0.223  1.00  0.00     0.031 A 
ATOM     15  C   UNL     1      -6.324   9.897   0.274  1.00  0.00     0.074 A 
ATOM     16  C   UNL     1      -5.370  11.567  -1.271  1.00  0.00     0.049 A 
ATOM     17  N   UNL     1      -6.932   8.929  -0.333  1.00  0.00    -0.248 NA
ATOM     18  C   UNL     1      -6.773  10.109   1.659  1.00  0.00     0.031 C 
ATOM     19  C   UNL     1      -4.508  12.658  -1.729  1.00  0.00     0.029 A 
ATOM     20  N   UNL     1      -6.439  11.645  -2.117  1.00  0.00    -0.354 N 
ATOM     21  C   UNL     1      -7.937   8.497   0.532  1.00  0.00     0.074 A 
ATOM     22  C   UNL     1      -7.728   9.185   1.779  1.00  0.00     0.031 C 
ATOM     23  C   UNL     1      -5.183  13.414  -2.627  1.00  0.00     0.029 A 
ATOM     24  C   UNL     1      -6.460  12.781  -2.914  1.00  0.00     0.049 A 
ATOM     25  H   UNL     1      -7.137  10.952  -2.159  1.00  0.00     0.167 HD
ATOM     26  C   UNL     1      -8.976   7.729   0.102  1.00  0.00     0.037 A 
ATOM     27  C   UNL     1      -7.477  13.192  -3.712  1.00  0.00     0.037 A 
ATOM     28  C   UNL     1      -8.668   7.065  -1.135  1.00  0.00     0.049 A 
ATOM     29  C   UNL     1      -8.342  12.019  -3.982  1.00  0.00     0.074 A 
ATOM     30  C   UNL     1      -7.726   6.134  -1.526  1.00  0.00     0.029 A 
ATOM     31  N   UNL     1      -9.177   7.581  -2.299  1.00  0.00    -0.354 N 
ATOM     32  N   UNL     1      -7.986  11.000  -4.712  1.00  0.00    -0.248 NA
ATOM     33  C   UNL     1      -9.466  11.790  -3.088  1.00  0.00     0.031 C 
ATOM     34  C   UNL     1      -7.362   6.514  -2.850  1.00  0.00     0.029 A 
ATOM     35  C   UNL     1      -8.144   7.615  -3.199  1.00  0.00     0.049 A 
ATOM     36  H   UNL     1     -10.104   7.870  -2.458  1.00  0.00     0.167 HD
ATOM     37  C   UNL     1      -8.539   9.903  -4.071  1.00  0.00     0.074 A 
ATOM     38  C   UNL     1      -9.512  10.457  -3.134  1.00  0.00     0.031 C 
ATOM     39  C   UNL     1      -7.962   8.671  -4.164  1.00  0.00     0.037 A 
BRANCH  26  40
ATOM     40  C   UNL     1     -10.384   7.825   0.633  1.00  0.00     0.064 A 
ATOM     41  C   UNL     1     -11.349   6.880   0.228  1.00  0.00     0.173 A 
ATOM     42  C   UNL     1     -10.892   8.976   1.273  1.00  0.00     0.173 A 
ATOM     43  F   UNL     1     -10.981   5.758  -0.409  1.00  0.00    -0.203 F 
ATOM     44  C   UNL     1     -12.719   7.109   0.383  1.00  0.00     0.198 A 
ATOM     45  C   UNL     1     -12.257   9.178   1.471  1.00  0.00     0.198 A 
ATOM     46  F   UNL     1     -10.102   9.997   1.627  1.00  0.00    -0.203 F 
ATOM     47  F   UNL     1     -13.601   6.241  -0.130  1.00  0.00    -0.200 F 
ATOM     48  C   UNL     1     -13.172   8.261   0.998  1.00  0.00     0.200 A 
ATOM     49  F   UNL     1     -12.678  10.311   2.052  1.00  0.00    -0.200 F 
ATOM     50  F   UNL     1     -14.484   8.514   1.091  1.00  0.00    -0.200 F 
ENDBRANCH  26  40
BRANCH  27  51
ATOM     51  C   UNL     1      -7.928  14.573  -4.003  1.00  0.00     0.064 A 
ATOM     52  C   UNL     1      -8.769  14.850  -5.094  1.00  0.00     0.173 A 
ATOM     53  C   UNL     1      -7.790  15.593  -3.043  1.00  0.00     0.173 A 
ATOM     54  F   UNL     1      -8.993  13.915  -6.028  1.00  0.00    -0.203 F 
ATOM     55  C   UNL     1      -9.453  16.066  -5.203  1.00  0.00     0.198 A 
ATOM     56  C   UNL     1      -8.470  16.807  -3.154  1.00  0.00     0.198 A 
ATOM     57  F   UNL     1      -7.075  15.391  -1.927  1.00  0.00    -0.203 F 
ATOM     58  F   UNL     1     -10.298  16.271  -6.223  1.00  0.00    -0.200 F 
ATOM     59  C   UNL     1      -9.312  17.039  -4.226  1.00  0.00     0.200 A 
ATOM     60  F   UNL     1      -8.357  17.723  -2.182  1.00  0.00    -0.200 F 
ATOM     61  F   UNL     1     -10.017  18.176  -4.294  1.00  0.00    -0.200 F 
ENDBRANCH  27  51
BRANCH  39  62
ATOM     62  C   UNL     1      -6.876   8.476  -5.183  1.00  0.00     0.064 A 
ATOM     63  C   UNL     1      -5.643   9.151  -5.158  1.00  0.00     0.173 A 
ATOM     64  C   UNL     1      -7.033   7.452  -6.127  1.00  0.00     0.173 A 
ATOM     65  F   UNL     1      -5.378  10.073  -4.225  1.00  0.00    -0.203 F 
ATOM     66  C   UNL     1      -4.630   8.835  -6.063  1.00  0.00     0.198 A 
ATOM     67  C   UNL     1      -6.006   7.114  -7.003  1.00  0.00     0.198 A 
ATOM     68  F   UNL     1      -8.169   6.737  -6.160  1.00  0.00    -0.203 F 
ATOM     69  F   UNL     1      -3.462   9.495  -6.023  1.00  0.00    -0.200 F 
ATOM     70  C   UNL     1      -4.809   7.811  -6.978  1.00  0.00     0.200 A 
ATOM     71  F   UNL     1      -6.166   6.089  -7.852  1.00  0.00    -0.200 F 
ATOM     72  F   UNL     1      -3.817   7.473  -7.814  1.00  0.00    -0.200 F 
ENDBRANCH  39  62
ENDBRANCH  13  14
ENDBRANCH   6   8
ENDBRANCH   3   4
ENDBRANCH   2   3
ENDBRANCH   1   2
BRANCH   1  73
ATOM     73  C   UNL     1       3.241   7.642   2.075  1.00  0.00     0.116 C 
BRANCH  73  74
ATOM     74  N   UNL     1       3.745   6.288   2.029  1.00  0.00    -0.351 N 
ATOM     75  C   UNL     1       5.028   5.811   2.023  1.00  0.00     0.278 C 
ATOM     76  H   UNL     1       3.049   5.593   1.996  1.00  0.00     0.163 HD
ATOM     77  O   UNL     1       5.148   4.590   2.203  1.00  0.00    -0.268 OA
BRANCH  75  78
ATOM     78  C   UNL     1       6.307   6.677   1.784  1.00  0.00     0.274 C 
ATOM     79  C   UNL     1       6.168   7.753   0.701  1.00  0.00     0.085 C 
ATOM     80  N   UNL     1       6.769   7.364   3.032  1.00  0.00    -0.321 N 
ATOM     81  C   UNL     1       6.443   9.059   1.439  1.00  0.00     0.054 C 
ATOM     82  C   UNL     1       6.287   8.739   2.921  1.00  0.00     0.188 C 
ATOM     83  H   UNL     1       6.370   6.933   3.866  1.00  0.00     0.349 HD
ATOM     84  C   UNL     1       5.691  10.312   1.025  1.00  0.00     0.010 C 
ATOM     85  C   UNL     1       6.777   9.874   3.810  1.00  0.00     0.065 C 
ATOM     86  C   UNL     1       6.139  11.485   1.905  1.00  0.00     0.001 C 
ATOM     87  C   UNL     1       6.080  11.183   3.410  1.00  0.00     0.006 C 
BRANCH  80  88
ATOM     88  C   UNL     1       8.197   7.174   3.361  1.00  0.00     0.285 C 
BRANCH  88  89
ATOM     89  C   UNL     1       9.361   7.412   2.355  1.00  0.00     0.184 C 
BRANCH  89  90
ATOM     90  N   UNL     1       9.773   8.777   2.100  1.00  0.00    -0.332 N 
ATOM     91  C   UNL     1       9.826   9.389   0.874  1.00  0.00     0.107 A 
ATOM     92  C   UNL     1      10.209   9.688   3.019  1.00  0.00     0.199 A 
ATOM     93  C   UNL     1      10.088  10.711   1.149  1.00  0.00     0.130 A 
ATOM     94  N   UNL     1      10.346  10.882   2.483  1.00  0.00    -0.245 NA
ENDBRANCH  89  90
ENDBRANCH  88  89
ENDBRANCH  80  88
ENDBRANCH  75  78
ENDBRANCH  73  74
ENDBRANCH   1  73
TORSDOF 14
