REMARK SMILES Cc1ccc(C)c(NC(=O)/C=C/C(=O)NCCCCNC(=O)c2ccc(-c3c4nc(c(-c5c(F)c(F)c(F)c(F)c5F)c5ccc([nH]5)c(-c5c(F)c(F)c(F)c(F)c5F)c5nc(c(-c6c(F)c(F)c(F)c(F)c6F)c6ccc3[nH]6)C=C5)C=C4)cc2)c1
REMARK SMILES IDX 17 1 16 2 15 3 13 4 14 5 12 7 11 8 9 9 8 10 10 12 7 13 1 14
REMARK SMILES IDX 2 15 3 16 86 17 4 18 5 19 6 20 18 21 19 22 20 23 21 24 22 26
REMARK SMILES IDX 23 27 24 28 85 29 25 30 84 31 26 32 27 33 28 34 78 35 29 36
REMARK SMILES IDX 83 37 77 38 79 39 30 40 82 41 76 42 75 43 31 45 63 46 43 47
REMARK SMILES IDX 62 48 44 49 47 50 61 51 80 52 45 53 46 54 60 56 81 57 48 58
REMARK SMILES IDX 32 59 33 60 41 61 34 62 35 63 39 64 42 65 36 66 37 67 40 68
REMARK SMILES IDX 38 69 64 70 65 71 73 72 66 73 67 74 71 75 74 76 68 77 69 78
REMARK SMILES IDX 72 79 70 80 49 81 50 82 58 83 51 84 52 85 56 86 59 87 53 88
REMARK SMILES IDX 54 89 57 90 55 91
REMARK H PARENT 15 6 8 11 20 25 79 44 47 55
REMARK Flexibility Score: inf
ROOT
ATOM      1  C   UNL     1      -7.510   0.507  -1.812  1.00  0.00     0.023 C 
ENDROOT
BRANCH   1   2
ATOM      2  C   UNL     1      -7.087   0.569  -0.349  1.00  0.00     0.116 C 
BRANCH   2   3
ATOM      3  N   UNL     1      -6.306  -0.587   0.035  1.00  0.00    -0.353 N 
ATOM      4  C   UNL     1      -5.020  -0.655   0.453  1.00  0.00     0.244 C 
ATOM      5  O   UNL     1      -4.520  -1.744   0.709  1.00  0.00    -0.270 OA
ATOM      6  H   UNL     1      -6.778  -1.450  -0.013  1.00  0.00     0.163 HD
BRANCH   4   7
ATOM      7  C   UNL     1      -4.261   0.593   0.634  1.00  0.00     0.077 C 
ATOM      8  C   UNL     1      -3.341   0.937  -0.278  1.00  0.00     0.077 C 
BRANCH   8   9
ATOM      9  C   UNL     1      -2.424   2.021   0.080  1.00  0.00     0.248 C 
ATOM     10  N   UNL     1      -1.074   1.852   0.098  1.00  0.00    -0.322 N 
ATOM     11  H   UNL     1      -0.619   2.715   0.227  1.00  0.00     0.170 HD
ATOM     12  O   UNL     1      -2.890   3.132   0.341  1.00  0.00    -0.270 OA
BRANCH  10  13
ATOM     13  C   UNL     1      -0.127   0.800  -0.012  1.00  0.00     0.044 A 
ATOM     14  C   UNL     1       3.720   0.892  -0.168  1.00  0.00     0.044 C 
ATOM     15  C   UNL     1       2.308   0.391  -0.208  1.00  0.00    -0.049 A 
ATOM     16  C   UNL     1       2.075  -0.974  -0.299  1.00  0.00     0.004 A 
ATOM     17  C   UNL     1       1.211   1.260  -0.094  1.00  0.00     0.029 A 
ATOM     18  C   UNL     1       0.777  -1.453  -0.197  1.00  0.00     0.006 A 
ATOM     19  C   UNL     1      -0.323  -0.591   0.012  1.00  0.00    -0.027 A 
ATOM     20  C   UNL     1      -1.593  -1.307   0.339  1.00  0.00     0.046 C 
ENDBRANCH  10  13
ENDBRANCH   8   9
ENDBRANCH   4   7
ENDBRANCH   2   3
ENDBRANCH   1   2
BRANCH   1  21
ATOM     21  C   UNL     1      -8.271  -0.741  -2.291  1.00  0.00     0.023 C 
BRANCH  21  22
ATOM     22  C   UNL     1      -9.688  -1.033  -1.775  1.00  0.00     0.116 C 
BRANCH  22  23
ATOM     23  N   UNL     1     -10.419   0.109  -1.266  1.00  0.00    -0.352 N 
ATOM     24  C   UNL     1     -10.912   0.485  -0.035  1.00  0.00     0.251 C 
ATOM     25  H   UNL     1     -10.609   0.775  -1.966  1.00  0.00     0.163 HD
ATOM     26  O   UNL     1     -11.691   1.424  -0.015  1.00  0.00    -0.269 OA
BRANCH  24  27
ATOM     27  C   UNL     1     -10.493  -0.126   1.262  1.00  0.00     0.039 A 
ATOM     28  C   UNL     1     -11.015   0.421   2.453  1.00  0.00     0.014 A 
ATOM     29  C   UNL     1      -9.518  -1.109   1.365  1.00  0.00     0.014 A 
ATOM     30  C   UNL     1     -10.525   0.023   3.703  1.00  0.00     0.010 A 
ATOM     31  C   UNL     1      -9.014  -1.490   2.588  1.00  0.00     0.010 A 
ATOM     32  C   UNL     1      -9.501  -0.917   3.756  1.00  0.00    -0.014 A 
BRANCH  32  33
ATOM     33  C   UNL     1      -8.904  -1.383   5.001  1.00  0.00     0.031 A 
ATOM     34  C   UNL     1      -9.458  -2.648   5.559  1.00  0.00     0.074 A 
ATOM     35  C   UNL     1      -7.660  -1.011   5.361  1.00  0.00     0.049 A 
ATOM     36  N   UNL     1     -10.121  -2.833   6.655  1.00  0.00    -0.248 NA
ATOM     37  C   UNL     1      -9.348  -3.857   4.727  1.00  0.00     0.031 C 
ATOM     38  C   UNL     1      -6.723  -0.168   4.616  1.00  0.00     0.029 A 
ATOM     39  N   UNL     1      -6.917  -1.455   6.410  1.00  0.00    -0.354 N 
ATOM     40  C   UNL     1     -10.377  -4.205   6.714  1.00  0.00     0.074 A 
ATOM     41  C   UNL     1     -10.127  -4.704   5.393  1.00  0.00     0.031 C 
ATOM     42  C   UNL     1      -5.485  -0.314   5.141  1.00  0.00     0.029 A 
ATOM     43  C   UNL     1      -5.563  -1.169   6.315  1.00  0.00     0.049 A 
ATOM     44  H   UNL     1      -7.307  -1.940   7.173  1.00  0.00     0.167 HD
ATOM     45  C   UNL     1     -10.508  -4.875   7.896  1.00  0.00     0.037 A 
ATOM     46  C   UNL     1      -4.585  -1.662   7.114  1.00  0.00     0.037 A 
ATOM     47  C   UNL     1     -10.625  -3.944   8.995  1.00  0.00     0.049 A 
ATOM     48  C   UNL     1      -5.238  -2.271   8.305  1.00  0.00     0.074 A 
ATOM     49  C   UNL     1     -11.471  -2.894   9.304  1.00  0.00     0.029 A 
ATOM     50  N   UNL     1      -9.541  -3.790   9.827  1.00  0.00    -0.354 N 
ATOM     51  N   UNL     1      -5.826  -1.601   9.256  1.00  0.00    -0.248 NA
ATOM     52  C   UNL     1      -5.571  -3.688   8.249  1.00  0.00     0.031 C 
ATOM     53  C   UNL     1     -10.637  -1.914   9.925  1.00  0.00     0.029 A 
ATOM     54  C   UNL     1      -9.350  -2.446  10.001  1.00  0.00     0.049 A 
ATOM     55  H   UNL     1      -9.002  -4.513  10.223  1.00  0.00     0.167 HD
ATOM     56  C   UNL     1      -6.899  -2.393   9.636  1.00  0.00     0.074 A 
ATOM     57  C   UNL     1      -6.620  -3.709   9.074  1.00  0.00     0.031 C 
ATOM     58  C   UNL     1      -8.048  -1.834  10.116  1.00  0.00     0.037 A 
BRANCH  45  59
ATOM     59  C   UNL     1     -10.167  -6.344   8.131  1.00  0.00     0.064 A 
ATOM     60  C   UNL     1     -10.381  -6.885   9.420  1.00  0.00     0.173 A 
ATOM     61  C   UNL     1      -9.415  -7.173   7.268  1.00  0.00     0.173 A 
ATOM     62  F   UNL     1     -11.099  -6.216  10.334  1.00  0.00    -0.203 F 
ATOM     63  C   UNL     1      -9.787  -8.079   9.841  1.00  0.00     0.198 A 
ATOM     64  C   UNL     1      -8.875  -8.396   7.673  1.00  0.00     0.198 A 
ATOM     65  F   UNL     1      -9.073  -6.817   6.028  1.00  0.00    -0.203 F 
ATOM     66  F   UNL     1      -9.906  -8.464  11.119  1.00  0.00    -0.200 F 
ATOM     67  C   UNL     1      -9.024  -8.829   8.970  1.00  0.00     0.200 A 
ATOM     68  F   UNL     1      -8.140  -9.108   6.807  1.00  0.00    -0.200 F 
ATOM     69  F   UNL     1      -8.399  -9.937   9.386  1.00  0.00    -0.200 F 
ENDBRANCH  45  59
BRANCH  46  70
ATOM     70  C   UNL     1      -3.137  -1.837   6.856  1.00  0.00     0.064 A 
ATOM     71  C   UNL     1      -2.238  -2.017   7.921  1.00  0.00     0.173 A 
ATOM     72  C   UNL     1      -2.632  -2.079   5.564  1.00  0.00     0.173 A 
ATOM     73  F   UNL     1      -2.645  -1.842   9.187  1.00  0.00    -0.203 F 
ATOM     74  C   UNL     1      -0.924  -2.444   7.710  1.00  0.00     0.198 A 
ATOM     75  C   UNL     1      -1.315  -2.491   5.353  1.00  0.00     0.198 A 
ATOM     76  F   UNL     1      -3.430  -2.010   4.490  1.00  0.00    -0.203 F 
ATOM     77  F   UNL     1      -0.120  -2.670   8.758  1.00  0.00    -0.200 F 
ATOM     78  C   UNL     1      -0.466  -2.689   6.427  1.00  0.00     0.200 A 
ATOM     79  F   UNL     1      -0.891  -2.755   4.109  1.00  0.00    -0.200 F 
ATOM     80  F   UNL     1       0.775  -3.155   6.229  1.00  0.00    -0.200 F 
ENDBRANCH  46  70
BRANCH  58  81
ATOM     81  C   UNL     1      -8.005  -0.397  10.545  1.00  0.00     0.064 A 
ATOM     82  C   UNL     1      -7.692   0.672   9.688  1.00  0.00     0.173 A 
ATOM     83  C   UNL     1      -8.415  -0.082  11.848  1.00  0.00     0.173 A 
ATOM     84  F   UNL     1      -7.399   0.461   8.399  1.00  0.00    -0.203 F 
ATOM     85  C   UNL     1      -7.732   1.991  10.136  1.00  0.00     0.198 A 
ATOM     86  C   UNL     1      -8.495   1.239  12.280  1.00  0.00     0.198 A 
ATOM     87  F   UNL     1      -8.780  -1.058  12.694  1.00  0.00    -0.203 F 
ATOM     88  F   UNL     1      -7.405   2.992   9.306  1.00  0.00    -0.200 F 
ATOM     89  C   UNL     1      -8.139   2.273  11.430  1.00  0.00     0.200 A 
ATOM     90  F   UNL     1      -8.938   1.510  13.515  1.00  0.00    -0.200 F 
ATOM     91  F   UNL     1      -8.215   3.544  11.849  1.00  0.00    -0.200 F 
ENDBRANCH  58  81
ENDBRANCH  32  33
ENDBRANCH  24  27
ENDBRANCH  22  23
ENDBRANCH  21  22
ENDBRANCH   1  21
TORSDOF 13
