REMARK SMILES Cn1c(C(=O)NCCCCNC(=O)c2ccc(-c3c4nc(c(-c5c(F)c(F)c(F)c(F)c5F)c5ccc([nH]5)c(-c5c(F)c(F)c(F)c(F)c5F)c5nc(c(-c6c(F)c(F)c(F)c(F)c6F)c6ccc3[nH]6)C=C5)C=C4)cc2)cc2cc(OCc3ccccc3)ccc21
REMARK SMILES IDX 8 1 7 2 6 3 4 4 5 5 3 7 1 8 2 9 91 10 77 11 78 12 90 13
REMARK SMILES IDX 79 14 89 15 80 16 81 17 82 18 83 19 84 20 88 21 85 22 87 23
REMARK SMILES IDX 86 24 9 25 10 26 11 27 12 28 13 30 14 31 15 32 76 33 16 34
REMARK SMILES IDX 75 35 17 36 18 37 19 38 69 39 20 40 74 41 68 42 70 43 21 44
REMARK SMILES IDX 73 45 67 46 66 47 22 49 54 50 34 51 53 52 35 53 38 54 52 55
REMARK SMILES IDX 71 56 36 57 37 58 51 60 72 61 39 62 23 63 24 64 32 65 25 66
REMARK SMILES IDX 26 67 30 68 33 69 27 70 28 71 31 72 29 73 55 74 56 75 64 76
REMARK SMILES IDX 57 77 58 78 62 79 65 80 59 81 60 82 63 83 61 84 40 85 41 86
REMARK SMILES IDX 49 87 42 88 43 89 47 90 50 91 44 92 45 93 48 94 46 95
REMARK H PARENT 6 6 11 29 70 48 38 59
REMARK Flexibility Score: inf
ROOT
ATOM      1  C   UNL     1       5.180   1.344   2.030  1.00  0.00     0.023 C 
ENDROOT
BRANCH   1   2
ATOM      2  C   UNL     1       4.168   0.991   0.947  1.00  0.00     0.116 C 
BRANCH   2   3
ATOM      3  N   UNL     1       4.276  -0.352   0.420  1.00  0.00    -0.351 N 
ATOM      4  C   UNL     1       3.307  -1.173  -0.114  1.00  0.00     0.267 C 
ATOM      5  O   UNL     1       3.669  -2.301  -0.449  1.00  0.00    -0.268 OA
ATOM      6  H   UNL     1       5.181  -0.739   0.447  1.00  0.00     0.163 HD
BRANCH   4   7
ATOM      7  C   UNL     1       1.923  -0.744  -0.203  1.00  0.00     0.107 A 
ATOM      8  C   UNL     1       2.091   1.548  -1.273  1.00  0.00     0.150 C 
ATOM      9  N   UNL     1       1.403   0.476  -0.587  1.00  0.00    -0.340 N 
ATOM     10  C   UNL     1       0.040   0.514  -0.366  1.00  0.00     0.049 A 
ATOM     11  C   UNL     1       0.814  -1.568  -0.015  1.00  0.00     0.042 A 
ATOM     12  C   UNL     1      -0.368  -0.785  -0.087  1.00  0.00     0.004 A 
ATOM     13  C   UNL     1      -0.862   1.578  -0.449  1.00  0.00     0.031 A 
ATOM     14  C   UNL     1      -1.747  -1.045   0.067  1.00  0.00     0.056 A 
ATOM     15  C   UNL     1      -2.219   1.298  -0.284  1.00  0.00     0.048 A 
ATOM     16  C   UNL     1      -2.673   0.006  -0.031  1.00  0.00     0.120 A 
BRANCH  16  17
ATOM     17  O   UNL     1      -3.983  -0.353   0.156  1.00  0.00    -0.489 OA
BRANCH  17  18
ATOM     18  C   UNL     1      -4.992   0.664   0.070  1.00  0.00     0.265 C 
BRANCH  18  19
ATOM     19  C   UNL     1      -5.033   1.553   1.294  1.00  0.00    -0.011 A 
ATOM     20  C   UNL     1      -5.113   0.990   2.574  1.00  0.00     0.007 A 
ATOM     21  C   UNL     1      -4.957   2.950   1.171  1.00  0.00     0.007 A 
ATOM     22  C   UNL     1      -5.072   1.803   3.708  1.00  0.00     0.000 A 
ATOM     23  C   UNL     1      -4.896   3.759   2.305  1.00  0.00     0.000 A 
ATOM     24  C   UNL     1      -4.949   3.185   3.573  1.00  0.00     0.000 A 
ENDBRANCH  18  19
ENDBRANCH  17  18
ENDBRANCH  16  17
ENDBRANCH   4   7
ENDBRANCH   2   3
ENDBRANCH   1   2
BRANCH   1  25
ATOM     25  C   UNL     1       6.655   1.258   1.636  1.00  0.00     0.023 C 
BRANCH  25  26
ATOM     26  C   UNL     1       7.047   1.883   0.300  1.00  0.00     0.116 C 
BRANCH  26  27
ATOM     27  N   UNL     1       6.790   3.313   0.213  1.00  0.00    -0.352 N 
ATOM     28  C   UNL     1       7.657   4.371   0.038  1.00  0.00     0.251 C 
ATOM     29  H   UNL     1       5.842   3.567   0.293  1.00  0.00     0.163 HD
ATOM     30  O   UNL     1       7.234   5.518   0.062  1.00  0.00    -0.269 OA
BRANCH  28  31
ATOM     31  C   UNL     1       9.108   4.126  -0.129  1.00  0.00     0.039 A 
ATOM     32  C   UNL     1      10.007   4.878   0.634  1.00  0.00     0.014 A 
ATOM     33  C   UNL     1       9.584   3.150  -1.005  1.00  0.00     0.014 A 
ATOM     34  C   UNL     1      11.371   4.573   0.600  1.00  0.00     0.010 A 
ATOM     35  C   UNL     1      10.928   2.788  -0.970  1.00  0.00     0.010 A 
ATOM     36  C   UNL     1      11.835   3.486  -0.157  1.00  0.00    -0.014 A 
BRANCH  36  37
ATOM     37  C   UNL     1      13.255   3.046  -0.097  1.00  0.00     0.031 A 
ATOM     38  C   UNL     1      14.104   3.053  -1.339  1.00  0.00     0.074 A 
ATOM     39  C   UNL     1      13.757   2.558   1.056  1.00  0.00     0.049 A 
ATOM     40  N   UNL     1      15.326   2.614  -1.511  1.00  0.00    -0.248 NA
ATOM     41  C   UNL     1      13.488   3.598  -2.559  1.00  0.00     0.031 C 
ATOM     42  C   UNL     1      13.023   2.443   2.318  1.00  0.00     0.029 A 
ATOM     43  N   UNL     1      14.999   2.052   1.351  1.00  0.00    -0.354 N 
ATOM     44  C   UNL     1      15.612   2.807  -2.856  1.00  0.00     0.074 A 
ATOM     45  C   UNL     1      14.421   3.356  -3.467  1.00  0.00     0.031 C 
ATOM     46  C   UNL     1      13.834   1.925   3.255  1.00  0.00     0.029 A 
ATOM     47  C   UNL     1      15.130   1.631   2.653  1.00  0.00     0.049 A 
ATOM     48  H   UNL     1      15.728   1.996   0.692  1.00  0.00     0.167 HD
ATOM     49  C   UNL     1      16.770   2.571  -3.517  1.00  0.00     0.037 A 
ATOM     50  C   UNL     1      16.174   1.063   3.287  1.00  0.00     0.037 A 
ATOM     51  C   UNL     1      17.967   2.062  -2.901  1.00  0.00     0.049 A 
ATOM     52  C   UNL     1      17.451   0.819   2.529  1.00  0.00     0.074 A 
ATOM     53  C   UNL     1      19.211   1.859  -3.471  1.00  0.00     0.029 A 
ATOM     54  N   UNL     1      18.069   1.678  -1.572  1.00  0.00    -0.354 N 
ATOM     55  N   UNL     1      17.732   1.077   1.275  1.00  0.00    -0.248 NA
ATOM     56  C   UNL     1      18.561   0.210   3.277  1.00  0.00     0.031 C 
ATOM     57  C   UNL     1      20.054   1.311  -2.500  1.00  0.00     0.029 A 
ATOM     58  C   UNL     1      19.350   1.220  -1.310  1.00  0.00     0.049 A 
ATOM     59  H   UNL     1      17.339   1.724  -0.913  1.00  0.00     0.167 HD
ATOM     60  C   UNL     1      19.055   0.695   1.094  1.00  0.00     0.074 A 
ATOM     61  C   UNL     1      19.526   0.200   2.369  1.00  0.00     0.031 C 
ATOM     62  C   UNL     1      19.810   0.748  -0.030  1.00  0.00     0.037 A 
BRANCH  49  63
ATOM     63  C   UNL     1      16.808   2.871  -4.987  1.00  0.00     0.064 A 
ATOM     64  C   UNL     1      16.789   4.189  -5.469  1.00  0.00     0.173 A 
ATOM     65  C   UNL     1      16.919   1.832  -5.924  1.00  0.00     0.173 A 
ATOM     66  F   UNL     1      16.672   5.218  -4.616  1.00  0.00    -0.203 F 
ATOM     67  C   UNL     1      16.854   4.454  -6.834  1.00  0.00     0.198 A 
ATOM     68  C   UNL     1      17.015   2.103  -7.286  1.00  0.00     0.198 A 
ATOM     69  F   UNL     1      16.948   0.554  -5.517  1.00  0.00    -0.203 F 
ATOM     70  F   UNL     1      16.790   5.719  -7.272  1.00  0.00    -0.200 F 
ATOM     71  C   UNL     1      16.976   3.412  -7.741  1.00  0.00     0.200 A 
ATOM     72  F   UNL     1      17.147   1.095  -8.161  1.00  0.00    -0.200 F 
ATOM     73  F   UNL     1      17.052   3.670  -9.053  1.00  0.00    -0.200 F 
ENDBRANCH  49  63
BRANCH  50  74
ATOM     74  C   UNL     1      16.071   0.701   4.727  1.00  0.00     0.064 A 
ATOM     75  C   UNL     1      16.814   1.391   5.695  1.00  0.00     0.173 A 
ATOM     76  C   UNL     1      15.253  -0.352   5.162  1.00  0.00     0.173 A 
ATOM     77  F   UNL     1      17.628   2.392   5.326  1.00  0.00    -0.203 F 
ATOM     78  C   UNL     1      16.767   1.023   7.038  1.00  0.00     0.198 A 
ATOM     79  C   UNL     1      15.183  -0.699   6.509  1.00  0.00     0.198 A 
ATOM     80  F   UNL     1      14.518  -1.041   4.277  1.00  0.00    -0.203 F 
ATOM     81  F   UNL     1      17.531   1.664   7.933  1.00  0.00    -0.200 F 
ATOM     82  C   UNL     1      15.948  -0.019   7.445  1.00  0.00     0.200 A 
ATOM     83  F   UNL     1      14.380  -1.698   6.901  1.00  0.00    -0.200 F 
ATOM     84  F   UNL     1      15.904  -0.374   8.736  1.00  0.00    -0.200 F 
ENDBRANCH  50  74
BRANCH  62  85
ATOM     85  C   UNL     1      21.239   0.303   0.077  1.00  0.00     0.064 A 
ATOM     86  C   UNL     1      21.582  -1.048   0.224  1.00  0.00     0.173 A 
ATOM     87  C   UNL     1      22.281   1.241  -0.011  1.00  0.00     0.173 A 
ATOM     88  F   UNL     1      20.623  -1.980   0.329  1.00  0.00    -0.203 F 
ATOM     89  C   UNL     1      22.915  -1.443   0.304  1.00  0.00     0.198 A 
ATOM     90  C   UNL     1      23.612   0.839   0.038  1.00  0.00     0.198 A 
ATOM     91  F   UNL     1      22.006   2.545  -0.159  1.00  0.00    -0.203 F 
ATOM     92  F   UNL     1      23.219  -2.735   0.491  1.00  0.00    -0.200 F 
ATOM     93  C   UNL     1      23.928  -0.501   0.202  1.00  0.00     0.200 A 
ATOM     94  F   UNL     1      24.590   1.749  -0.074  1.00  0.00    -0.200 F 
ATOM     95  F   UNL     1      25.211  -0.884   0.270  1.00  0.00    -0.200 F 
ENDBRANCH  62  85
ENDBRANCH  36  37
ENDBRANCH  28  31
ENDBRANCH  26  27
ENDBRANCH  25  26
ENDBRANCH   1  25
TORSDOF 14
