REMARK SMILES O=C(NCCCCNC(=O)c1ccc(-c2c3nc(c(-c4c(F)c(F)c(F)c(F)c4F)c4ccc([nH]4)c(-c4c(F)c(F)c(F)c(F)c4F)c4nc(c(-c5c(F)c(F)c(F)c(F)c5F)c5ccc2[nH]5)C=C4)C=C3)cc1)C1=Cc2cc(OC(F)(F)F)ccc2O[C@@H]1C(F)(F)F
REMARK SMILES IDX 5 1 4 2 3 3 1 4 2 5 74 7 75 8 88 9 76 10 87 11 77 12 86 13
REMARK SMILES IDX 78 14 85 15 84 16 89 17 90 18 91 19 92 20 79 21 80 22 81 23
REMARK SMILES IDX 82 24 83 25 6 26 7 27 8 28 9 29 10 31 11 32 12 33 73 34
REMARK SMILES IDX 13 35 72 36 14 37 15 38 16 39 66 40 17 41 71 42 65 43 67 44
REMARK SMILES IDX 18 45 70 46 64 47 63 48 19 50 51 51 31 52 50 53 32 54 35 55
REMARK SMILES IDX 49 56 68 57 33 58 34 59 48 61 69 62 36 63 20 64 21 65 29 66
REMARK SMILES IDX 22 67 23 68 27 69 30 70 24 71 25 72 28 73 26 74 52 75 53 76
REMARK SMILES IDX 61 77 54 78 55 79 59 80 62 81 56 82 57 83 60 84 58 85 37 86
REMARK SMILES IDX 38 87 46 88 39 89 40 90 44 91 47 92 41 93 42 94 45 95 43 96
REMARK H PARENT 3 6 8 30 67 49 35 60
REMARK Flexibility Score: inf
ROOT
ATOM      1  C   UNL     1       4.132   1.499  -2.913  1.00  0.00     0.023 C 
ENDROOT
BRANCH   1   2
ATOM      2  C   UNL     1       3.476   1.284  -1.548  1.00  0.00     0.116 C 
BRANCH   2   3
ATOM      3  N   UNL     1       2.448   0.239  -1.555  1.00  0.00    -0.352 N 
ATOM      4  O   UNL     1       1.173  -1.409  -0.655  1.00  0.00    -0.270 OA
ATOM      5  C   UNL     1       2.224  -0.783  -0.662  1.00  0.00     0.251 C 
ATOM      6  H   UNL     1       1.822   0.275  -2.314  1.00  0.00     0.163 HD
BRANCH   5   7
ATOM      7  C   UNL     1       3.272  -1.043   0.340  1.00  0.00     0.067 C 
ATOM      8  C   UNL     1       4.478  -1.403  -0.117  1.00  0.00     0.025 C 
ATOM      9  C   UNL     1       3.047  -0.530   1.729  1.00  0.00     0.314 C 
ATOM     10  C   UNL     1       5.583  -0.698   0.543  1.00  0.00     0.021 A 
ATOM     11  O   UNL     1       4.069   0.423   2.118  1.00  0.00    -0.475 OA
ATOM     12  C   UNL     1       6.824  -0.687  -0.100  1.00  0.00     0.058 A 
ATOM     13  C   UNL     1       5.298   0.273   1.522  1.00  0.00     0.128 A 
ATOM     14  C   UNL     1       7.717   0.358   0.139  1.00  0.00     0.130 A 
ATOM     15  C   UNL     1       6.225   1.274   1.806  1.00  0.00     0.051 A 
ATOM     16  C   UNL     1       7.426   1.331   1.097  1.00  0.00     0.050 A 
BRANCH   9  17
ATOM     17  C   UNL     1       2.934  -1.667   2.759  1.00  0.00     0.429 C 
ATOM     18  F   UNL     1       2.615  -1.180   3.985  1.00  0.00    -0.167 F 
ATOM     19  F   UNL     1       1.967  -2.554   2.430  1.00  0.00    -0.167 F 
ATOM     20  F   UNL     1       4.088  -2.362   2.895  1.00  0.00    -0.167 F 
ENDBRANCH   9  17
BRANCH  14  21
ATOM     21  O   UNL     1       8.852   0.374  -0.622  1.00  0.00    -0.406 OA
BRANCH  21  22
ATOM     22  C   UNL     1       9.013   1.587  -1.357  1.00  0.00     0.573 C 
ATOM     23  F   UNL     1       7.850   1.941  -1.952  1.00  0.00    -0.132 F 
ATOM     24  F   UNL     1       9.443   2.575  -0.548  1.00  0.00    -0.132 F 
ATOM     25  F   UNL     1       9.937   1.384  -2.321  1.00  0.00    -0.132 F 
ENDBRANCH  21  22
ENDBRANCH  14  21
ENDBRANCH   5   7
ENDBRANCH   2   3
ENDBRANCH   1   2
BRANCH   1  26
ATOM     26  C   UNL     1       3.992   2.925  -3.450  1.00  0.00     0.023 C 
BRANCH  26  27
ATOM     27  C   UNL     1       4.539   4.048  -2.569  1.00  0.00     0.116 C 
BRANCH  27  28
ATOM     28  N   UNL     1       5.973   3.994  -2.326  1.00  0.00    -0.352 N 
ATOM     29  C   UNL     1       6.884   5.029  -2.307  1.00  0.00     0.251 C 
ATOM     30  H   UNL     1       6.343   3.098  -2.152  1.00  0.00     0.163 HD
ATOM     31  O   UNL     1       8.073   4.819  -2.084  1.00  0.00    -0.269 OA
BRANCH  29  32
ATOM     32  C   UNL     1       6.431   6.394  -2.644  1.00  0.00     0.039 A 
ATOM     33  C   UNL     1       7.044   7.050  -3.716  1.00  0.00     0.014 A 
ATOM     34  C   UNL     1       5.332   6.965  -1.998  1.00  0.00     0.014 A 
ATOM     35  C   UNL     1       6.469   8.212  -4.231  1.00  0.00     0.010 A 
ATOM     36  C   UNL     1       4.720   8.084  -2.555  1.00  0.00     0.010 A 
ATOM     37  C   UNL     1       5.260   8.691  -3.700  1.00  0.00    -0.014 A 
BRANCH  37  38
ATOM     38  C   UNL     1       4.495   9.761  -4.389  1.00  0.00     0.031 A 
ATOM     39  C   UNL     1       4.255  11.079  -3.719  1.00  0.00     0.074 A 
ATOM     40  C   UNL     1       3.924   9.493  -5.580  1.00  0.00     0.049 A 
ATOM     41  N   UNL     1       3.535  12.094  -4.125  1.00  0.00    -0.248 NA
ATOM     42  C   UNL     1       4.883  11.271  -2.404  1.00  0.00     0.031 C 
ATOM     43  C   UNL     1       4.024   8.220  -6.298  1.00  0.00     0.029 A 
ATOM     44  N   UNL     1       3.129  10.267  -6.388  1.00  0.00    -0.354 N 
ATOM     45  C   UNL     1       3.613  13.038  -3.113  1.00  0.00     0.074 A 
ATOM     46  C   UNL     1       4.408  12.456  -2.052  1.00  0.00     0.031 C 
ATOM     47  C   UNL     1       3.329   8.304  -7.443  1.00  0.00     0.029 A 
ATOM     48  C   UNL     1       2.707   9.622  -7.525  1.00  0.00     0.049 A 
ATOM     49  H   UNL     1       2.884  11.196  -6.174  1.00  0.00     0.167 HD
ATOM     50  C   UNL     1       3.086  14.286  -3.082  1.00  0.00     0.037 A 
ATOM     51  C   UNL     1       1.899  10.040  -8.518  1.00  0.00     0.037 A 
ATOM     52  C   UNL     1       2.312  14.866  -4.147  1.00  0.00     0.049 A 
ATOM     53  C   UNL     1       1.333  11.430  -8.467  1.00  0.00     0.074 A 
ATOM     54  C   UNL     1       1.805  16.149  -4.248  1.00  0.00     0.029 A 
ATOM     55  N   UNL     1       1.923  14.191  -5.296  1.00  0.00    -0.354 N 
ATOM     56  N   UNL     1       1.483  12.347  -7.542  1.00  0.00    -0.248 NA
ATOM     57  C   UNL     1       0.489  11.845  -9.595  1.00  0.00     0.031 C 
ATOM     58  C   UNL     1       1.076  16.239  -5.440  1.00  0.00     0.029 A 
ATOM     59  C   UNL     1       1.159  15.023  -6.099  1.00  0.00     0.049 A 
ATOM     60  H   UNL     1       2.157  13.259  -5.510  1.00  0.00     0.167 HD
ATOM     61  C   UNL     1       0.760  13.448  -7.976  1.00  0.00     0.074 A 
ATOM     62  C   UNL     1       0.188  13.093  -9.259  1.00  0.00     0.031 C 
ATOM     63  C   UNL     1       0.582  14.645  -7.364  1.00  0.00     0.037 A 
BRANCH  50  64
ATOM     64  C   UNL     1       3.338  15.102  -1.848  1.00  0.00     0.064 A 
ATOM     65  C   UNL     1       4.614  15.602  -1.548  1.00  0.00     0.173 A 
ATOM     66  C   UNL     1       2.294  15.386  -0.956  1.00  0.00     0.173 A 
ATOM     67  F   UNL     1       5.648  15.347  -2.364  1.00  0.00    -0.203 F 
ATOM     68  C   UNL     1       4.845  16.323  -0.379  1.00  0.00     0.198 A 
ATOM     69  C   UNL     1       2.522  16.131   0.199  1.00  0.00     0.198 A 
ATOM     70  F   UNL     1       1.054  14.934  -1.198  1.00  0.00    -0.203 F 
ATOM     71  F   UNL     1       6.084  16.738  -0.084  1.00  0.00    -0.200 F 
ATOM     72  C   UNL     1       3.799  16.589   0.491  1.00  0.00     0.200 A 
ATOM     73  F   UNL     1       1.510  16.395   1.036  1.00  0.00    -0.200 F 
ATOM     74  F   UNL     1       4.023  17.277   1.619  1.00  0.00    -0.200 F 
ENDBRANCH  50  64
BRANCH  51  75
ATOM     75  C   UNL     1       1.597   9.127  -9.650  1.00  0.00     0.064 A 
ATOM     76  C   UNL     1       2.171   9.333 -10.912  1.00  0.00     0.173 A 
ATOM     77  C   UNL     1       0.759   8.015  -9.485  1.00  0.00     0.173 A 
ATOM     78  F   UNL     1       2.964  10.394 -11.121  1.00  0.00    -0.203 F 
ATOM     79  C   UNL     1       1.913   8.463 -11.969  1.00  0.00     0.198 A 
ATOM     80  C   UNL     1       0.520   7.133 -10.537  1.00  0.00     0.198 A 
ATOM     81  F   UNL     1       0.192   7.773  -8.294  1.00  0.00    -0.203 F 
ATOM     82  F   UNL     1       2.455   8.695 -13.172  1.00  0.00    -0.200 F 
ATOM     83  C   UNL     1       1.095   7.359 -11.778  1.00  0.00     0.200 A 
ATOM     84  F   UNL     1      -0.260   6.061 -10.345  1.00  0.00    -0.200 F 
ATOM     85  F   UNL     1       0.858   6.515 -12.792  1.00  0.00    -0.200 F 
ENDBRANCH  51  75
BRANCH  63  86
ATOM     86  C   UNL     1      -0.273  15.652  -8.072  1.00  0.00     0.064 A 
ATOM     87  C   UNL     1      -1.669  15.518  -8.117  1.00  0.00     0.173 A 
ATOM     88  C   UNL     1       0.301  16.781  -8.674  1.00  0.00     0.173 A 
ATOM     89  F   UNL     1      -2.261  14.446  -7.571  1.00  0.00    -0.203 F 
ATOM     90  C   UNL     1      -2.457  16.472  -8.755  1.00  0.00     0.198 A 
ATOM     91  C   UNL     1      -0.492  17.745  -9.290  1.00  0.00     0.198 A 
ATOM     92  F   UNL     1       1.631  16.954  -8.655  1.00  0.00    -0.203 F 
ATOM     93  F   UNL     1      -3.786  16.306  -8.818  1.00  0.00    -0.200 F 
ATOM     94  C   UNL     1      -1.870  17.587  -9.333  1.00  0.00     0.200 A 
ATOM     95  F   UNL     1       0.075  18.826  -9.841  1.00  0.00    -0.200 F 
ATOM     96  F   UNL     1      -2.631  18.508  -9.940  1.00  0.00    -0.200 F 
ENDBRANCH  63  86
ENDBRANCH  37  38
ENDBRANCH  29  32
ENDBRANCH  27  28
ENDBRANCH  26  27
ENDBRANCH   1  26
TORSDOF 14
