REMARK SMILES O=C(NCCCCNC(=O)[C@H]1CC[C@H](CNS(=O)(=O)C[C@H]2CCCO2)O1)c1ccc(-c2c3nc(c(-c4c(F)c(F)c(F)c(F)c4F)c4ccc([nH]4)c(-c4c(F)c(F)c(F)c(F)c4F)c4nc(c(-c5c(F)c(F)c(F)c(F)c5F)c5ccc2[nH]5)C=C4)C=C3)cc1
REMARK SMILES IDX 7 1 6 2 5 3 4 4 3 5 1 6 2 7 27 9 28 10 89 11 29 12 88 13
REMARK SMILES IDX 30 14 31 15 32 16 82 17 33 18 87 19 81 20 83 21 34 22 86 23
REMARK SMILES IDX 80 24 79 25 35 27 67 28 47 29 66 30 48 31 51 32 65 33 84 34
REMARK SMILES IDX 49 35 50 36 64 38 85 39 52 40 36 41 37 42 45 43 38 44 39 45
REMARK SMILES IDX 43 46 46 47 40 48 41 49 44 50 42 51 68 52 69 53 77 54 70 55
REMARK SMILES IDX 71 56 75 57 78 58 72 59 73 60 76 61 74 62 53 63 54 64 62 65
REMARK SMILES IDX 55 66 56 67 60 68 63 69 57 70 58 71 61 72 59 73 8 74 9 75
REMARK SMILES IDX 10 77 11 78 12 79 26 80 13 81 14 82 15 83 16 84 17 86 18 87
REMARK SMILES IDX 19 88 20 89 21 90 22 91 25 92 23 93 24 94
REMARK H PARENT 3 8 83 26 51 37 8 76 16 85
REMARK Flexibility Score: inf
ROOT
ATOM      1  C   UNL     1      11.451 -12.430  -0.579  1.00  0.00     0.116 C 
ENDROOT
BRANCH   1   2
ATOM      2  C   UNL     1      11.489 -11.392   0.545  1.00  0.00     0.023 C 
BRANCH   2   3
ATOM      3  C   UNL     1      12.726 -11.474   1.430  1.00  0.00     0.023 C 
BRANCH   3   4
ATOM      4  C   UNL     1      14.035 -11.274   0.690  1.00  0.00     0.116 C 
BRANCH   4   5
ATOM      5  N   UNL     1      14.152  -9.983   0.024  1.00  0.00    -0.352 N 
ATOM      6  O   UNL     1      15.252  -8.092  -0.591  1.00  0.00    -0.269 OA
ATOM      7  C   UNL     1      15.284  -9.205  -0.084  1.00  0.00     0.251 C 
ATOM      8  H   UNL     1      13.334  -9.628  -0.393  1.00  0.00     0.163 HD
BRANCH   7   9
ATOM      9  C   UNL     1      16.535  -9.747   0.478  1.00  0.00     0.039 A 
ATOM     10  C   UNL     1      16.926 -11.043   0.137  1.00  0.00     0.014 A 
ATOM     11  C   UNL     1      17.221  -9.021   1.452  1.00  0.00     0.014 A 
ATOM     12  C   UNL     1      17.886 -11.681   0.903  1.00  0.00     0.010 A 
ATOM     13  C   UNL     1      18.275  -9.628   2.135  1.00  0.00     0.010 A 
ATOM     14  C   UNL     1      18.592 -10.974   1.891  1.00  0.00    -0.014 A 
BRANCH  14  15
ATOM     15  C   UNL     1      19.714 -11.648   2.589  1.00  0.00     0.031 A 
ATOM     16  C   UNL     1      19.708 -11.860   4.075  1.00  0.00     0.074 A 
ATOM     17  C   UNL     1      20.744 -12.089   1.841  1.00  0.00     0.049 A 
ATOM     18  N   UNL     1      20.621 -12.420   4.830  1.00  0.00    -0.248 NA
ATOM     19  C   UNL     1      18.536 -11.373   4.816  1.00  0.00     0.031 C 
ATOM     20  C   UNL     1      20.852 -11.933   0.388  1.00  0.00     0.029 A 
ATOM     21  N   UNL     1      21.881 -12.769   2.186  1.00  0.00    -0.354 N 
ATOM     22  C   UNL     1      20.148 -12.331   6.132  1.00  0.00     0.074 A 
ATOM     23  C   UNL     1      18.878 -11.639   6.069  1.00  0.00     0.031 C 
ATOM     24  C   UNL     1      21.960 -12.549  -0.041  1.00  0.00     0.029 A 
ATOM     25  C   UNL     1      22.686 -13.061   1.114  1.00  0.00     0.049 A 
ATOM     26  H   UNL     1      22.099 -13.024   3.112  1.00  0.00     0.167 HD
ATOM     27  C   UNL     1      20.724 -12.791   7.271  1.00  0.00     0.037 A 
ATOM     28  C   UNL     1      23.894 -13.647   1.063  1.00  0.00     0.037 A 
ATOM     29  C   UNL     1      21.991 -13.481   7.313  1.00  0.00     0.049 A 
ATOM     30  C   UNL     1      24.530 -14.098   2.344  1.00  0.00     0.074 A 
ATOM     31  C   UNL     1      22.646 -14.018   8.407  1.00  0.00     0.029 A 
ATOM     32  N   UNL     1      22.802 -13.719   6.210  1.00  0.00    -0.354 N 
ATOM     33  N   UNL     1      24.060 -14.038   3.566  1.00  0.00    -0.248 NA
ATOM     34  C   UNL     1      25.866 -14.693   2.238  1.00  0.00     0.031 C 
ATOM     35  C   UNL     1      23.881 -14.517   7.979  1.00  0.00     0.029 A 
ATOM     36  C   UNL     1      23.966 -14.361   6.604  1.00  0.00     0.049 A 
ATOM     37  H   UNL     1      22.582 -13.468   5.284  1.00  0.00     0.167 HD
ATOM     38  C   UNL     1      25.032 -14.607   4.374  1.00  0.00     0.074 A 
ATOM     39  C   UNL     1      26.108 -15.025   3.498  1.00  0.00     0.031 C 
ATOM     40  C   UNL     1      25.031 -14.768   5.721  1.00  0.00     0.037 A 
BRANCH  27  41
ATOM     41  C   UNL     1      20.011 -12.530   8.570  1.00  0.00     0.064 A 
ATOM     42  C   UNL     1      18.791 -13.145   8.887  1.00  0.00     0.173 A 
ATOM     43  C   UNL     1      20.573 -11.668   9.527  1.00  0.00     0.173 A 
ATOM     44  F   UNL     1      18.203 -13.973   8.010  1.00  0.00    -0.203 F 
ATOM     45  C   UNL     1      18.142 -12.879  10.092  1.00  0.00     0.198 A 
ATOM     46  C   UNL     1      19.939 -11.431  10.744  1.00  0.00     0.198 A 
ATOM     47  F   UNL     1      21.743 -11.059   9.284  1.00  0.00    -0.203 F 
ATOM     48  F   UNL     1      16.948 -13.432  10.345  1.00  0.00    -0.200 F 
ATOM     49  C   UNL     1      18.719 -12.027  11.021  1.00  0.00     0.200 A 
ATOM     50  F   UNL     1      20.509 -10.621  11.648  1.00  0.00    -0.200 F 
ATOM     51  F   UNL     1      18.095 -11.773  12.180  1.00  0.00    -0.200 F 
ENDBRANCH  27  41
BRANCH  28  52
ATOM     52  C   UNL     1      24.567 -13.823  -0.248  1.00  0.00     0.064 A 
ATOM     53  C   UNL     1      24.757 -15.099  -0.793  1.00  0.00     0.173 A 
ATOM     54  C   UNL     1      25.002 -12.720  -0.999  1.00  0.00     0.173 A 
ATOM     55  F   UNL     1      24.369 -16.184  -0.108  1.00  0.00    -0.203 F 
ATOM     56  C   UNL     1      25.368 -15.266  -2.034  1.00  0.00     0.198 A 
ATOM     57  C   UNL     1      25.580 -12.886  -2.254  1.00  0.00     0.198 A 
ATOM     58  F   UNL     1      24.831 -11.476  -0.527  1.00  0.00    -0.203 F 
ATOM     59  F   UNL     1      25.572 -16.499  -2.516  1.00  0.00    -0.200 F 
ATOM     60  C   UNL     1      25.770 -14.159  -2.767  1.00  0.00     0.200 A 
ATOM     61  F   UNL     1      25.943 -11.812  -2.969  1.00  0.00    -0.200 F 
ATOM     62  F   UNL     1      26.344 -14.320  -3.967  1.00  0.00    -0.200 F 
ENDBRANCH  28  52
BRANCH  40  63
ATOM     63  C   UNL     1      26.220 -15.462   6.322  1.00  0.00     0.064 A 
ATOM     64  C   UNL     1      27.487 -14.860   6.365  1.00  0.00     0.173 A 
ATOM     65  C   UNL     1      26.083 -16.742   6.882  1.00  0.00     0.173 A 
ATOM     66  F   UNL     1      27.676 -13.646   5.826  1.00  0.00    -0.203 F 
ATOM     67  C   UNL     1      28.578 -15.527   6.916  1.00  0.00     0.198 A 
ATOM     68  C   UNL     1      27.168 -17.389   7.466  1.00  0.00     0.198 A 
ATOM     69  F   UNL     1      24.894 -17.362   6.871  1.00  0.00    -0.203 F 
ATOM     70  F   UNL     1      29.791 -14.957   6.891  1.00  0.00    -0.200 F 
ATOM     71  C   UNL     1      28.416 -16.786   7.474  1.00  0.00     0.200 A 
ATOM     72  F   UNL     1      27.006 -18.600   8.018  1.00  0.00    -0.200 F 
ATOM     73  F   UNL     1      29.466 -17.423   8.010  1.00  0.00    -0.200 F 
ENDBRANCH  40  63
ENDBRANCH  14  15
ENDBRANCH   7   9
ENDBRANCH   4   5
ENDBRANCH   3   4
ENDBRANCH   2   3
ENDBRANCH   1   2
BRANCH   1  74
ATOM     74  N   UNL     1      10.830 -13.660  -0.154  1.00  0.00    -0.354 N 
ATOM     75  C   UNL     1       9.559 -14.111  -0.349  1.00  0.00     0.249 C 
ATOM     76  H   UNL     1      11.414 -14.268   0.354  1.00  0.00     0.163 HD
ATOM     77  O   UNL     1       9.303 -15.246   0.066  1.00  0.00    -0.272 OA
BRANCH  75  78
ATOM     78  C   UNL     1       8.468 -13.267  -1.056  1.00  0.00     0.207 C 
ATOM     79  C   UNL     1       8.163 -11.916  -0.431  1.00  0.00     0.045 C 
ATOM     80  O   UNL     1       8.697 -13.065  -2.451  1.00  0.00    -0.364 OA
ATOM     81  C   UNL     1       8.574 -10.894  -1.461  1.00  0.00     0.037 C 
ATOM     82  C   UNL     1       8.627 -11.672  -2.767  1.00  0.00     0.134 C 
BRANCH  82  83
ATOM     83  C   UNL     1       7.416 -11.348  -3.652  1.00  0.00     0.130 C 
BRANCH  83  84
ATOM     84  N   UNL     1       7.597  -9.999  -4.214  1.00  0.00    -0.213 NA
ATOM     85  H   UNL     1       8.180 -10.102  -5.045  1.00  0.00     0.141 HD
BRANCH  84  86
ATOM     86  S   UNL     1       6.263  -9.098  -4.670  1.00  0.00     0.214 S 
ATOM     87  O   UNL     1       5.234  -9.328  -3.685  1.00  0.00    -0.212 OA
ATOM     88  O   UNL     1       6.778  -7.769  -4.919  1.00  0.00    -0.212 OA
BRANCH  86  89
ATOM     89  C   UNL     1       5.793  -9.864  -6.211  1.00  0.00     0.185 C 
BRANCH  89  90
ATOM     90  C   UNL     1       6.970  -9.974  -7.176  1.00  0.00     0.134 C 
ATOM     91  C   UNL     1       7.097 -11.370  -7.778  1.00  0.00     0.035 C 
ATOM     92  O   UNL     1       6.727  -9.093  -8.293  1.00  0.00    -0.377 OA
ATOM     93  C   UNL     1       6.188 -11.290  -8.978  1.00  0.00     0.031 C 
ATOM     94  C   UNL     1       6.432  -9.877  -9.457  1.00  0.00     0.160 C 
ENDBRANCH  89  90
ENDBRANCH  86  89
ENDBRANCH  84  86
ENDBRANCH  83  84
ENDBRANCH  82  83
ENDBRANCH  75  78
ENDBRANCH   1  74
TORSDOF 16
