REMARK SMILES CC[NH2+][C@@]1(C(=O)NCCCCNC(=O)c2ccc(-c3c4nc(c(-c5c(F)c(F)c(F)c(F)c5F)c5ccc([nH]5)c(-c5c(F)c(F)c(F)c(F)c5F)c5nc(c(-c6c(F)c(F)c(F)c(F)c6F)c6ccc3[nH]6)C=C5)C=C4)cc2)CCC[C@H]1CCN1C(=O)CCC1=O
REMARK SMILES IDX 9 1 8 2 7 3 5 4 6 5 4 7 78 8 81 9 79 10 80 11 3 12 2 15 1 16
REMARK SMILES IDX 82 17 83 18 84 19 85 20 89 21 86 22 87 23 88 24 90 25 10 26
REMARK SMILES IDX 11 27 12 28 13 29 14 31 15 32 16 33 77 34 17 35 76 36 18 37
REMARK SMILES IDX 19 38 20 39 70 40 21 41 75 42 69 43 71 44 22 45 74 46 68 47
REMARK SMILES IDX 67 48 23 50 55 51 35 52 54 53 36 54 39 55 53 56 72 57 37 58
REMARK SMILES IDX 38 59 52 61 73 62 40 63 24 64 25 65 33 66 26 67 27 68 31 69
REMARK SMILES IDX 34 70 28 71 29 72 32 73 30 74 56 75 57 76 65 77 58 78 59 79
REMARK SMILES IDX 63 80 66 81 60 82 61 83 64 84 62 85 41 86 42 87 50 88 43 89
REMARK SMILES IDX 44 90 48 91 51 92 45 93 46 94 49 95 47 96
REMARK H PARENT 7 6 3 13 3 14 12 30 71 49 39 60
REMARK Flexibility Score: inf
ROOT
ATOM      1  C   UNL     1       0.663  -0.441   7.406  1.00  0.00     0.023 C 
ENDROOT
BRANCH   1   2
ATOM      2  C   UNL     1       0.571   0.920   6.721  1.00  0.00     0.116 C 
BRANCH   2   3
ATOM      3  N   UNL     1       1.558   1.058   5.685  1.00  0.00    -0.351 N 
ATOM      4  C   UNL     1       1.504   1.138   4.337  1.00  0.00     0.281 C 
ATOM      5  O   UNL     1       2.622   1.328   3.822  1.00  0.00    -0.268 OA
ATOM      6  H   UNL     1       2.477   1.105   6.036  1.00  0.00     0.163 HD
BRANCH   4   7
ATOM      7  C   UNL     1       0.200   1.028   3.386  1.00  0.00     0.178 C 
ATOM      8  C   UNL     1      -0.889   2.035   3.810  1.00  0.00     0.079 C 
ATOM      9  C   UNL     1      -0.452  -0.418   3.528  1.00  0.00     0.062 C 
ATOM     10  C   UNL     1      -2.012   1.286   4.500  1.00  0.00     0.008 C 
ATOM     11  C   UNL     1      -1.636  -0.184   4.522  1.00  0.00     0.011 C 
BRANCH   7  12
ATOM     12  N   UNL     1       0.718   1.625   2.114  1.00  0.00    -0.334 N 
ATOM     13  H   UNL     1       0.353   2.575   2.057  1.00  0.00     0.347 HD
ATOM     14  H   UNL     1       1.731   1.535   2.191  1.00  0.00     0.347 HD
BRANCH  12  15
ATOM     15  C   UNL     1       0.402   0.975   0.871  1.00  0.00     0.257 C 
ATOM     16  C   UNL     1       1.262   1.447  -0.290  1.00  0.00     0.071 C 
ENDBRANCH  12  15
ENDBRANCH   7  12
BRANCH   9  17
ATOM     17  C   UNL     1      -1.097  -1.258   2.384  1.00  0.00     0.033 C 
BRANCH  17  18
ATOM     18  C   UNL     1      -0.331  -2.174   1.408  1.00  0.00     0.129 C 
BRANCH  18  19
ATOM     19  N   UNL     1       0.816  -2.911   1.907  1.00  0.00    -0.283 N 
ATOM     20  C   UNL     1       0.817  -4.272   2.015  1.00  0.00     0.229 C 
ATOM     21  C   UNL     1       2.069  -2.386   2.054  1.00  0.00     0.229 C 
ATOM     22  O   UNL     1      -0.136  -5.021   1.857  1.00  0.00    -0.274 OA
ATOM     23  C   UNL     1       2.208  -4.747   2.308  1.00  0.00     0.110 C 
ATOM     24  C   UNL     1       3.037  -3.485   2.368  1.00  0.00     0.110 C 
ATOM     25  O   UNL     1       2.406  -1.226   1.926  1.00  0.00    -0.274 OA
ENDBRANCH  18  19
ENDBRANCH  17  18
ENDBRANCH   9  17
ENDBRANCH   4   7
ENDBRANCH   2   3
ENDBRANCH   1   2
BRANCH   1  26
ATOM     26  C   UNL     1       1.661  -0.483   8.562  1.00  0.00     0.023 C 
BRANCH  26  27
ATOM     27  C   UNL     1       1.413   0.551   9.654  1.00  0.00     0.116 C 
BRANCH  27  28
ATOM     28  N   UNL     1       0.070   0.497  10.218  1.00  0.00    -0.352 N 
ATOM     29  C   UNL     1      -0.302   0.679  11.530  1.00  0.00     0.251 C 
ATOM     30  H   UNL     1      -0.658   0.307   9.584  1.00  0.00     0.163 HD
ATOM     31  O   UNL     1      -1.457   0.497  11.893  1.00  0.00    -0.269 OA
BRANCH  29  32
ATOM     32  C   UNL     1       0.740   1.057  12.502  1.00  0.00     0.039 A 
ATOM     33  C   UNL     1       0.915   0.278  13.646  1.00  0.00     0.014 A 
ATOM     34  C   UNL     1       1.606   2.116  12.217  1.00  0.00     0.014 A 
ATOM     35  C   UNL     1       2.013   0.517  14.471  1.00  0.00     0.010 A 
ATOM     36  C   UNL     1       2.749   2.287  12.985  1.00  0.00     0.010 A 
ATOM     37  C   UNL     1       2.963   1.493  14.122  1.00  0.00    -0.014 A 
BRANCH  37  38
ATOM     38  C   UNL     1       4.184   1.705  14.939  1.00  0.00     0.031 A 
ATOM     39  C   UNL     1       4.418   3.033  15.603  1.00  0.00     0.074 A 
ATOM     40  C   UNL     1       5.107   0.728  15.031  1.00  0.00     0.049 A 
ATOM     41  N   UNL     1       5.441   3.436  16.312  1.00  0.00    -0.248 NA
ATOM     42  C   UNL     1       3.376   4.056  15.419  1.00  0.00     0.031 C 
ATOM     43  C   UNL     1       5.019  -0.585  14.388  1.00  0.00     0.029 A 
ATOM     44  N   UNL     1       6.306   0.689  15.699  1.00  0.00    -0.354 N 
ATOM     45  C   UNL     1       5.169   4.756  16.647  1.00  0.00     0.074 A 
ATOM     46  C   UNL     1       3.924   5.110  16.003  1.00  0.00     0.031 C 
ATOM     47  C   UNL     1       6.097  -1.312  14.723  1.00  0.00     0.029 A 
ATOM     48  C   UNL     1       6.973  -0.504  15.566  1.00  0.00     0.049 A 
ATOM     49  H   UNL     1       6.654   1.446  16.224  1.00  0.00     0.167 HD
ATOM     50  C   UNL     1       5.877   5.588  17.447  1.00  0.00     0.037 A 
ATOM     51  C   UNL     1       8.159  -0.898  16.067  1.00  0.00     0.037 A 
ATOM     52  C   UNL     1       7.107   5.225  18.098  1.00  0.00     0.049 A 
ATOM     53  C   UNL     1       8.941   0.056  16.931  1.00  0.00     0.074 A 
ATOM     54  C   UNL     1       7.878   5.975  18.968  1.00  0.00     0.029 A 
ATOM     55  N   UNL     1       7.752   4.006  17.942  1.00  0.00    -0.354 N 
ATOM     56  N   UNL     1       8.637   1.275  17.305  1.00  0.00    -0.248 NA
ATOM     57  C   UNL     1      10.229  -0.426  17.449  1.00  0.00     0.031 C 
ATOM     58  C   UNL     1       9.017   5.233  19.293  1.00  0.00     0.029 A 
ATOM     59  C   UNL     1       8.925   3.994  18.679  1.00  0.00     0.049 A 
ATOM     60  H   UNL     1       7.424   3.260  17.390  1.00  0.00     0.167 HD
ATOM     61  C   UNL     1       9.674   1.693  18.128  1.00  0.00     0.074 A 
ATOM     62  C   UNL     1      10.609   0.590  18.211  1.00  0.00     0.031 C 
ATOM     63  C   UNL     1       9.839   2.882  18.759  1.00  0.00     0.037 A 
BRANCH  50  64
ATOM     64  C   UNL     1       5.330   6.972  17.660  1.00  0.00     0.064 A 
ATOM     65  C   UNL     1       4.137   7.193  18.366  1.00  0.00     0.173 A 
ATOM     66  C   UNL     1       6.016   8.093  17.169  1.00  0.00     0.173 A 
ATOM     67  F   UNL     1       3.434   6.156  18.847  1.00  0.00    -0.203 F 
ATOM     68  C   UNL     1       3.630   8.479  18.536  1.00  0.00     0.198 A 
ATOM     69  C   UNL     1       5.526   9.380  17.373  1.00  0.00     0.198 A 
ATOM     70  F   UNL     1       7.164   7.941  16.491  1.00  0.00    -0.203 F 
ATOM     71  F   UNL     1       2.456   8.658  19.157  1.00  0.00    -0.200 F 
ATOM     72  C   UNL     1       4.329   9.572  18.046  1.00  0.00     0.200 A 
ATOM     73  F   UNL     1       6.210  10.436  16.912  1.00  0.00    -0.200 F 
ATOM     74  F   UNL     1       3.844  10.809  18.215  1.00  0.00    -0.200 F 
ENDBRANCH  50  64
BRANCH  51  75
ATOM     75  C   UNL     1       8.670  -2.268  15.792  1.00  0.00     0.064 A 
ATOM     76  C   UNL     1       8.781  -3.215  16.821  1.00  0.00     0.173 A 
ATOM     77  C   UNL     1       9.071  -2.657  14.505  1.00  0.00     0.173 A 
ATOM     78  F   UNL     1       8.428  -2.886  18.073  1.00  0.00    -0.203 F 
ATOM     79  C   UNL     1       9.298  -4.486  16.580  1.00  0.00     0.198 A 
ATOM     80  C   UNL     1       9.558  -3.939  14.259  1.00  0.00     0.198 A 
ATOM     81  F   UNL     1       8.981  -1.794  13.483  1.00  0.00    -0.203 F 
ATOM     82  F   UNL     1       9.442  -5.351  17.593  1.00  0.00    -0.200 F 
ATOM     83  C   UNL     1       9.681  -4.849  15.298  1.00  0.00     0.200 A 
ATOM     84  F   UNL     1       9.911  -4.292  13.015  1.00  0.00    -0.200 F 
ATOM     85  F   UNL     1      10.176  -6.072  15.065  1.00  0.00    -0.200 F 
ENDBRANCH  51  75
BRANCH  63  86
ATOM     86  C   UNL     1      11.051   3.037  19.634  1.00  0.00     0.064 A 
ATOM     87  C   UNL     1      12.345   3.121  19.099  1.00  0.00     0.173 A 
ATOM     88  C   UNL     1      10.909   3.141  21.026  1.00  0.00     0.173 A 
ATOM     89  F   UNL     1      12.538   3.013  17.776  1.00  0.00    -0.203 F 
ATOM     90  C   UNL     1      13.454   3.271  19.929  1.00  0.00     0.198 A 
ATOM     91  C   UNL     1      12.015   3.328  21.849  1.00  0.00     0.198 A 
ATOM     92  F   UNL     1       9.693   3.075  21.589  1.00  0.00    -0.203 F 
ATOM     93  F   UNL     1      14.685   3.291  19.400  1.00  0.00    -0.200 F 
ATOM     94  C   UNL     1      13.287   3.383  21.301  1.00  0.00     0.200 A 
ATOM     95  F   UNL     1      11.850   3.454  23.173  1.00  0.00    -0.200 F 
ATOM     96  F   UNL     1      14.355   3.537  22.096  1.00  0.00    -0.200 F 
ENDBRANCH  63  86
ENDBRANCH  37  38
ENDBRANCH  29  32
ENDBRANCH  27  28
ENDBRANCH  26  27
ENDBRANCH   1  26
TORSDOF 16
