REMARK SMILES O=C(CCCN1C(=O)/C(=C\c2ccc(O)c(O)c2)SC1=S)NCCCCNC(=O)c1ccc(-c2c3nc(c(-c4c(F)c(F)c(F)c(F)c4F)c4ccc([nH]4)c(-c4c(F)c(F)c(F)c(F)c4F)c4nc(c(-c5c(F)c(F)c(F)c(F)c5F)c5ccc2[nH]5)C=C4)C=C3)cc1
REMARK SMILES IDX 23 1 22 2 1 3 2 4 3 6 4 7 5 8 6 9 7 10 20 11 8 12 9 13 19 14
REMARK SMILES IDX 21 15 10 16 11 17 12 18 18 19 13 20 16 21 14 22 17 23 15 25
REMARK SMILES IDX 24 27 25 28 26 29 27 30 28 31 29 33 30 34 31 35 92 36 32 37
REMARK SMILES IDX 91 38 33 39 34 40 35 41 85 42 36 43 90 44 84 45 86 46 37 47
REMARK SMILES IDX 89 48 83 49 82 50 38 52 70 53 50 54 69 55 51 56 54 57 68 58
REMARK SMILES IDX 87 59 52 60 53 61 67 63 88 64 55 65 39 66 40 67 48 68 41 69
REMARK SMILES IDX 42 70 46 71 49 72 43 73 44 74 47 75 45 76 71 77 72 78 80 79
REMARK SMILES IDX 73 80 74 81 78 82 81 83 75 84 76 85 79 86 77 87 56 88 57 89
REMARK SMILES IDX 65 90 58 91 59 92 63 93 66 94 60 95 61 96 64 97 62 98
REMARK H PARENT 22 5 17 24 15 26 27 32 86 51 54 62
REMARK Flexibility Score: inf
ROOT
ATOM      1  C   UNL     1       2.176   1.408   2.103  1.00  0.00     0.116 C 
ENDROOT
BRANCH   1   2
ATOM      2  N   UNL     1       2.767   0.621   1.040  1.00  0.00    -0.356 N 
ATOM      3  O   UNL     1       0.920   0.683  -0.323  1.00  0.00    -0.275 OA
ATOM      4  C   UNL     1       2.054   0.282  -0.086  1.00  0.00     0.220 C 
ATOM      5  H   UNL     1       3.701   0.321   1.125  1.00  0.00     0.163 HD
BRANCH   4   6
ATOM      6  C   UNL     1       2.782  -0.657  -1.019  1.00  0.00     0.102 C 
BRANCH   6   7
ATOM      7  C   UNL     1       3.724   0.064  -1.975  1.00  0.00     0.032 C 
BRANCH   7   8
ATOM      8  C   UNL     1       5.127   0.377  -1.441  1.00  0.00     0.128 C 
BRANCH   8   9
ATOM      9  N   UNL     1       5.867  -0.668  -0.712  1.00  0.00    -0.293 N 
ATOM     10  C   UNL     1       6.611  -0.263   0.392  1.00  0.00     0.266 C 
ATOM     11  C   UNL     1       6.052  -1.982  -1.094  1.00  0.00     0.148 C 
ATOM     12  O   UNL     1       6.509   0.831   0.936  1.00  0.00    -0.268 OA
ATOM     13  C   UNL     1       7.499  -1.366   0.868  1.00  0.00     0.081 C 
ATOM     14  S   UNL     1       6.964  -2.838   0.150  1.00  0.00    -0.054 SA
ATOM     15  S   UNL     1       5.564  -2.761  -2.482  1.00  0.00    -0.052 S 
ATOM     16  C   UNL     1       8.630  -1.307   1.591  1.00  0.00     0.029 C 
BRANCH  16  17
ATOM     17  C   UNL     1       9.339  -0.081   1.967  1.00  0.00    -0.020 A 
ATOM     18  C   UNL     1       8.748   0.907   2.754  1.00  0.00     0.012 A 
ATOM     19  C   UNL     1      10.641   0.116   1.480  1.00  0.00     0.058 A 
ATOM     20  C   UNL     1       9.400   2.123   2.958  1.00  0.00     0.051 A 
ATOM     21  C   UNL     1      11.285   1.323   1.709  1.00  0.00     0.157 A 
ATOM     22  C   UNL     1      10.659   2.336   2.419  1.00  0.00     0.157 A 
BRANCH  21  23
ATOM     23  O   UNL     1      12.540   1.526   1.211  1.00  0.00    -0.504 OA
ATOM     24  H   UNL     1      12.979   2.339   1.363  1.00  0.00     0.293 HD
ENDBRANCH  21  23
BRANCH  22  25
ATOM     25  O   UNL     1      11.320   3.524   2.534  1.00  0.00    -0.504 OA
ATOM     26  H   UNL     1      10.931   4.234   3.006  1.00  0.00     0.293 HD
ENDBRANCH  22  25
ENDBRANCH  16  17
ENDBRANCH   8   9
ENDBRANCH   7   8
ENDBRANCH   6   7
ENDBRANCH   4   6
ENDBRANCH   1   2
BRANCH   1  27
ATOM     27  C   UNL     1       2.614   0.915   3.480  1.00  0.00     0.023 C 
BRANCH  27  28
ATOM     28  C   UNL     1       4.107   1.088   3.786  1.00  0.00     0.023 C 
BRANCH  28  29
ATOM     29  C   UNL     1       4.619   2.528   3.744  1.00  0.00     0.116 C 
BRANCH  29  30
ATOM     30  N   UNL     1       3.966   3.372   4.736  1.00  0.00    -0.352 N 
ATOM     31  C   UNL     1       4.508   4.129   5.745  1.00  0.00     0.251 C 
ATOM     32  H   UNL     1       2.984   3.404   4.673  1.00  0.00     0.163 HD
ATOM     33  O   UNL     1       3.784   4.623   6.604  1.00  0.00    -0.269 OA
BRANCH  31  34
ATOM     34  C   UNL     1       5.968   4.347   5.813  1.00  0.00     0.039 A 
ATOM     35  C   UNL     1       6.634   4.158   7.026  1.00  0.00     0.014 A 
ATOM     36  C   UNL     1       6.678   4.769   4.691  1.00  0.00     0.014 A 
ATOM     37  C   UNL     1       8.028   4.288   7.088  1.00  0.00     0.010 A 
ATOM     38  C   UNL     1       8.069   4.865   4.751  1.00  0.00     0.010 A 
ATOM     39  C   UNL     1       8.775   4.574   5.934  1.00  0.00    -0.014 A 
BRANCH  39  40
ATOM     40  C   UNL     1      10.274   4.500   5.931  1.00  0.00     0.031 A 
ATOM     41  C   UNL     1      11.111   5.643   5.411  1.00  0.00     0.074 A 
ATOM     42  C   UNL     1      10.901   3.351   6.271  1.00  0.00     0.049 A 
ATOM     43  N   UNL     1      12.401   5.686   5.184  1.00  0.00    -0.248 NA
ATOM     44  C   UNL     1      10.397   6.865   5.016  1.00  0.00     0.031 C 
ATOM     45  C   UNL     1      10.243   2.111   6.691  1.00  0.00     0.029 A 
ATOM     46  N   UNL     1      12.241   3.029   6.298  1.00  0.00    -0.354 N 
ATOM     47  C   UNL     1      12.646   6.918   4.592  1.00  0.00     0.074 A 
ATOM     48  C   UNL     1      11.359   7.559   4.425  1.00  0.00     0.031 C 
ATOM     49  C   UNL     1      11.174   1.188   6.980  1.00  0.00     0.029 A 
ATOM     50  C   UNL     1      12.498   1.745   6.726  1.00  0.00     0.049 A 
ATOM     51  H   UNL     1      12.950   3.659   6.036  1.00  0.00     0.167 HD
ATOM     52  C   UNL     1      13.830   7.486   4.250  1.00  0.00     0.037 A 
ATOM     53  C   UNL     1      13.661   1.085   6.900  1.00  0.00     0.037 A 
ATOM     54  C   UNL     1      15.124   6.903   4.495  1.00  0.00     0.049 A 
ATOM     55  C   UNL     1      14.966   1.767   6.586  1.00  0.00     0.074 A 
ATOM     56  C   UNL     1      16.373   7.468   4.294  1.00  0.00     0.029 A 
ATOM     57  N   UNL     1      15.341   5.633   5.005  1.00  0.00    -0.354 N 
ATOM     58  N   UNL     1      15.180   2.973   6.123  1.00  0.00    -0.248 NA
ATOM     59  C   UNL     1      16.195   0.993   6.827  1.00  0.00     0.031 C 
ATOM     60  C   UNL     1      17.346   6.527   4.648  1.00  0.00     0.029 A 
ATOM     61  C   UNL     1      16.703   5.393   5.113  1.00  0.00     0.049 A 
ATOM     62  H   UNL     1      14.633   4.995   5.253  1.00  0.00     0.167 HD
ATOM     63  C   UNL     1      16.561   3.112   6.048  1.00  0.00     0.074 A 
ATOM     64  C   UNL     1      17.137   1.876   6.528  1.00  0.00     0.031 C 
ATOM     65  C   UNL     1      17.282   4.175   5.616  1.00  0.00     0.037 A 
BRANCH  52  66
ATOM     66  C   UNL     1      13.790   8.838   3.595  1.00  0.00     0.064 A 
ATOM     67  C   UNL     1      13.397   9.986   4.298  1.00  0.00     0.173 A 
ATOM     68  C   UNL     1      14.197   8.995   2.261  1.00  0.00     0.173 A 
ATOM     69  F   UNL     1      12.995   9.891   5.575  1.00  0.00    -0.203 F 
ATOM     70  C   UNL     1      13.373  11.233   3.680  1.00  0.00     0.198 A 
ATOM     71  C   UNL     1      14.207  10.249   1.656  1.00  0.00     0.198 A 
ATOM     72  F   UNL     1      14.597   7.932   1.546  1.00  0.00    -0.203 F 
ATOM     73  F   UNL     1      12.937  12.305   4.357  1.00  0.00    -0.200 F 
ATOM     74  C   UNL     1      13.785  11.365   2.363  1.00  0.00     0.200 A 
ATOM     75  F   UNL     1      14.622  10.378   0.389  1.00  0.00    -0.200 F 
ATOM     76  F   UNL     1      13.768  12.568   1.772  1.00  0.00    -0.200 F 
ENDBRANCH  52  66
BRANCH  53  77
ATOM     77  C   UNL     1      13.663  -0.297   7.453  1.00  0.00     0.064 A 
ATOM     78  C   UNL     1      14.143  -0.543   8.749  1.00  0.00     0.173 A 
ATOM     79  C   UNL     1      13.226  -1.395   6.700  1.00  0.00     0.173 A 
ATOM     80  F   UNL     1      14.595   0.473   9.498  1.00  0.00    -0.203 F 
ATOM     81  C   UNL     1      14.210  -1.837   9.260  1.00  0.00     0.198 A 
ATOM     82  C   UNL     1      13.268  -2.687   7.224  1.00  0.00     0.198 A 
ATOM     83  F   UNL     1      12.755  -1.215   5.459  1.00  0.00    -0.203 F 
ATOM     84  F   UNL     1      14.723  -2.047  10.480  1.00  0.00    -0.200 F 
ATOM     85  C   UNL     1      13.769  -2.908   8.498  1.00  0.00     0.200 A 
ATOM     86  F   UNL     1      12.830  -3.719   6.490  1.00  0.00    -0.200 F 
ATOM     87  F   UNL     1      13.836  -4.153   8.989  1.00  0.00    -0.200 F 
ENDBRANCH  53  77
BRANCH  65  88
ATOM     88  C   UNL     1      18.779   4.080   5.690  1.00  0.00     0.064 A 
ATOM     89  C   UNL     1      19.512   3.259   4.822  1.00  0.00     0.173 A 
ATOM     90  C   UNL     1      19.492   4.858   6.615  1.00  0.00     0.173 A 
ATOM     91  F   UNL     1      18.878   2.484   3.929  1.00  0.00    -0.203 F 
ATOM     92  C   UNL     1      20.903   3.203   4.892  1.00  0.00     0.198 A 
ATOM     93  C   UNL     1      20.883   4.821   6.664  1.00  0.00     0.198 A 
ATOM     94  F   UNL     1      18.840   5.664   7.466  1.00  0.00    -0.203 F 
ATOM     95  F   UNL     1      21.580   2.378   4.081  1.00  0.00    -0.200 F 
ATOM     96  C   UNL     1      21.587   3.989   5.807  1.00  0.00     0.200 A 
ATOM     97  F   UNL     1      21.543   5.590   7.541  1.00  0.00    -0.200 F 
ATOM     98  F   UNL     1      22.925   3.940   5.866  1.00  0.00    -0.200 F 
ENDBRANCH  65  88
ENDBRANCH  39  40
ENDBRANCH  31  34
ENDBRANCH  29  30
ENDBRANCH  28  29
ENDBRANCH  27  28
ENDBRANCH   1  27
TORSDOF 17
