REMARK SMILES O=C(NCCCCNC(=O)[C@H](c1cnn(Cc2ccccc2)c1)[NH+]1CCOCC1)c1ccc(-c2c3nc(c(-c4c(F)c(F)c(F)c(F)c4F)c4ccc([nH]4)c(-c4c(F)c(F)c(F)c(F)c4F)c4nc(c(-c5c(F)c(F)c(F)c(F)c5F)c5ccc2[nH]5)C=C4)C=C3)cc1
REMARK SMILES IDX 6 1 5 2 4 3 3 4 1 5 2 6 30 8 31 9 92 10 32 11 91 12 33 13
REMARK SMILES IDX 34 14 35 15 85 16 36 17 90 18 84 19 86 20 37 21 89 22 83 23
REMARK SMILES IDX 82 24 38 26 70 27 50 28 69 29 51 30 54 31 68 32 87 33 52 34
REMARK SMILES IDX 53 35 67 37 88 38 55 39 39 40 40 41 48 42 41 43 42 44 46 45
REMARK SMILES IDX 49 46 43 47 44 48 47 49 45 50 71 51 72 52 80 53 73 54 74 55
REMARK SMILES IDX 78 56 81 57 75 58 76 59 79 60 77 61 56 62 57 63 65 64 58 65
REMARK SMILES IDX 59 66 63 67 66 68 60 69 61 70 64 71 62 72 7 73 8 74 9 75
REMARK SMILES IDX 10 77 11 78 24 79 25 80 29 81 26 83 28 84 27 85 12 86 13 87
REMARK SMILES IDX 23 88 14 89 15 90 16 91 17 92 18 93 22 94 19 95 21 96 20 97
REMARK H PARENT 3 7 86 25 54 36 8 76 24 82
REMARK Flexibility Score: inf
ROOT
ATOM      1  C   UNL     1       7.174  10.331  -1.421  1.00  0.00     0.023 C 
ENDROOT
BRANCH   1   2
ATOM      2  C   UNL     1       6.409  10.848  -2.650  1.00  0.00     0.023 C 
BRANCH   2   3
ATOM      3  C   UNL     1       5.184  11.712  -2.351  1.00  0.00     0.116 C 
BRANCH   3   4
ATOM      4  N   UNL     1       5.475  12.900  -1.576  1.00  0.00    -0.352 N 
ATOM      5  O   UNL     1       5.905  14.953  -0.905  1.00  0.00    -0.269 OA
ATOM      6  C   UNL     1       5.894  14.168  -1.863  1.00  0.00     0.251 C 
ATOM      7  H   UNL     1       5.338  12.761  -0.612  1.00  0.00     0.163 HD
BRANCH   6   8
ATOM      8  C   UNL     1       6.375  14.663  -3.184  1.00  0.00     0.039 A 
ATOM      9  C   UNL     1       6.305  13.980  -4.399  1.00  0.00     0.014 A 
ATOM     10  C   UNL     1       6.970  15.942  -3.176  1.00  0.00     0.014 A 
ATOM     11  C   UNL     1       6.872  14.530  -5.552  1.00  0.00     0.010 A 
ATOM     12  C   UNL     1       7.529  16.498  -4.324  1.00  0.00     0.010 A 
ATOM     13  C   UNL     1       7.510  15.778  -5.511  1.00  0.00    -0.014 A 
BRANCH  13  14
ATOM     14  C   UNL     1       8.009  16.353  -6.764  1.00  0.00     0.031 A 
ATOM     15  C   UNL     1       6.962  16.613  -7.797  1.00  0.00     0.074 A 
ATOM     16  C   UNL     1       9.277  16.770  -6.970  1.00  0.00     0.049 A 
ATOM     17  N   UNL     1       6.875  16.126  -8.993  1.00  0.00    -0.248 NA
ATOM     18  C   UNL     1       5.826  17.470  -7.420  1.00  0.00     0.031 C 
ATOM     19  C   UNL     1      10.366  16.889  -5.998  1.00  0.00     0.029 A 
ATOM     20  N   UNL     1       9.837  17.264  -8.116  1.00  0.00    -0.354 N 
ATOM     21  C   UNL     1       5.757  16.719  -9.579  1.00  0.00     0.074 A 
ATOM     22  C   UNL     1       5.092  17.455  -8.534  1.00  0.00     0.031 C 
ATOM     23  C   UNL     1      11.379  17.605  -6.542  1.00  0.00     0.029 A 
ATOM     24  C   UNL     1      11.075  17.870  -7.939  1.00  0.00     0.049 A 
ATOM     25  H   UNL     1       9.399  17.195  -8.995  1.00  0.00     0.167 HD
ATOM     26  C   UNL     1       5.556  16.702 -10.926  1.00  0.00     0.037 A 
ATOM     27  C   UNL     1      11.779  18.572  -8.863  1.00  0.00     0.037 A 
ATOM     28  C   UNL     1       6.326  15.668 -11.560  1.00  0.00     0.049 A 
ATOM     29  C   UNL     1      11.272  18.191 -10.201  1.00  0.00     0.074 A 
ATOM     30  C   UNL     1       6.359  14.290 -11.472  1.00  0.00     0.029 A 
ATOM     31  N   UNL     1       7.478  16.020 -12.214  1.00  0.00    -0.354 N 
ATOM     32  N   UNL     1      11.446  17.020 -10.745  1.00  0.00    -0.248 NA
ATOM     33  C   UNL     1      10.206  18.998 -10.773  1.00  0.00     0.031 C 
ATOM     34  C   UNL     1       7.737  13.948 -11.604  1.00  0.00     0.029 A 
ATOM     35  C   UNL     1       8.443  15.131 -11.822  1.00  0.00     0.049 A 
ATOM     36  H   UNL     1       7.591  16.768 -12.844  1.00  0.00     0.167 HD
ATOM     37  C   UNL     1      10.259  16.769 -11.413  1.00  0.00     0.074 A 
ATOM     38  C   UNL     1       9.572  18.056 -11.473  1.00  0.00     0.031 C 
ATOM     39  C   UNL     1       9.822  15.493 -11.609  1.00  0.00     0.037 A 
BRANCH  26  40
ATOM     40  C   UNL     1       4.920  17.821 -11.715  1.00  0.00     0.064 A 
ATOM     41  C   UNL     1       4.647  17.635 -13.087  1.00  0.00     0.173 A 
ATOM     42  C   UNL     1       4.862  19.156 -11.261  1.00  0.00     0.173 A 
ATOM     43  F   UNL     1       4.689  16.410 -13.634  1.00  0.00    -0.203 F 
ATOM     44  C   UNL     1       4.420  18.711 -13.950  1.00  0.00     0.198 A 
ATOM     45  C   UNL     1       4.585  20.223 -12.115  1.00  0.00     0.198 A 
ATOM     46  F   UNL     1       5.181  19.492 -10.006  1.00  0.00    -0.203 F 
ATOM     47  F   UNL     1       4.295  18.495 -15.266  1.00  0.00    -0.200 F 
ATOM     48  C   UNL     1       4.398  20.005 -13.464  1.00  0.00     0.200 A 
ATOM     49  F   UNL     1       4.586  21.472 -11.629  1.00  0.00    -0.200 F 
ATOM     50  F   UNL     1       4.248  21.043 -14.297  1.00  0.00    -0.200 F 
ENDBRANCH  26  40
BRANCH  27  51
ATOM     51  C   UNL     1      12.645  19.762  -8.676  1.00  0.00     0.064 A 
ATOM     52  C   UNL     1      13.553  20.168  -9.669  1.00  0.00     0.173 A 
ATOM     53  C   UNL     1      12.377  20.695  -7.656  1.00  0.00     0.173 A 
ATOM     54  F   UNL     1      13.829  19.360 -10.704  1.00  0.00    -0.203 F 
ATOM     55  C   UNL     1      14.134  21.442  -9.658  1.00  0.00     0.198 A 
ATOM     56  C   UNL     1      12.960  21.963  -7.644  1.00  0.00     0.198 A 
ATOM     57  F   UNL     1      11.465  20.430  -6.710  1.00  0.00    -0.203 F 
ATOM     58  F   UNL     1      14.944  21.818 -10.658  1.00  0.00    -0.200 F 
ATOM     59  C   UNL     1      13.827  22.342  -8.652  1.00  0.00     0.200 A 
ATOM     60  F   UNL     1      12.623  22.840  -6.687  1.00  0.00    -0.200 F 
ATOM     61  F   UNL     1      14.329  23.585  -8.676  1.00  0.00    -0.200 F 
ENDBRANCH  27  51
BRANCH  39  62
ATOM     62  C   UNL     1      10.779  14.368 -11.340  1.00  0.00     0.064 A 
ATOM     63  C   UNL     1      11.310  14.073 -10.072  1.00  0.00     0.173 A 
ATOM     64  C   UNL     1      11.031  13.457 -12.375  1.00  0.00     0.173 A 
ATOM     65  F   UNL     1      11.038  14.843  -9.011  1.00  0.00    -0.203 F 
ATOM     66  C   UNL     1      12.083  12.931  -9.863  1.00  0.00     0.198 A 
ATOM     67  C   UNL     1      11.771  12.300 -12.155  1.00  0.00     0.198 A 
ATOM     68  F   UNL     1      10.505  13.663 -13.593  1.00  0.00    -0.203 F 
ATOM     69  F   UNL     1      12.581  12.669  -8.646  1.00  0.00    -0.200 F 
ATOM     70  C   UNL     1      12.303  12.041 -10.902  1.00  0.00     0.200 A 
ATOM     71  F   UNL     1      11.939  11.418 -13.149  1.00  0.00    -0.200 F 
ATOM     72  F   UNL     1      13.002  10.917 -10.688  1.00  0.00    -0.200 F 
ENDBRANCH  39  62
ENDBRANCH  13  14
ENDBRANCH   6   8
ENDBRANCH   3   4
ENDBRANCH   2   3
ENDBRANCH   1   2
BRANCH   1  73
ATOM     73  C   UNL     1       6.361   9.509  -0.419  1.00  0.00     0.116 C 
BRANCH  73  74
ATOM     74  N   UNL     1       5.743   8.350  -1.034  1.00  0.00    -0.351 N 
ATOM     75  C   UNL     1       5.603   7.056  -0.613  1.00  0.00     0.283 C 
ATOM     76  H   UNL     1       5.350   8.527  -1.919  1.00  0.00     0.163 HD
ATOM     77  O   UNL     1       4.918   6.344  -1.356  1.00  0.00    -0.268 OA
BRANCH  75  78
ATOM     78  C   UNL     1       6.242   6.545   0.713  1.00  0.00     0.308 C 
BRANCH  78  79
ATOM     79  N   UNL     1       5.343   6.592   1.906  1.00  0.00    -0.317 N 
ATOM     80  C   UNL     1       4.406   5.471   2.115  1.00  0.00     0.292 C 
ATOM     81  C   UNL     1       4.592   7.848   2.093  1.00  0.00     0.292 C 
ATOM     82  H   UNL     1       6.072   6.511   2.616  1.00  0.00     0.349 HD
ATOM     83  C   UNL     1       3.114   5.567   1.296  1.00  0.00     0.221 C 
ATOM     84  C   UNL     1       3.247   7.924   1.336  1.00  0.00     0.221 C 
ATOM     85  O   UNL     1       2.419   6.785   1.597  1.00  0.00    -0.370 OA
ENDBRANCH  78  79
BRANCH  78  86
ATOM     86  C   UNL     1       6.843   5.162   0.537  1.00  0.00     0.057 A 
ATOM     87  C   UNL     1       6.312   4.073  -0.206  1.00  0.00     0.145 A 
ATOM     88  C   UNL     1       8.014   4.639   1.065  1.00  0.00     0.119 A 
ATOM     89  N   UNL     1       7.071   2.980  -0.155  1.00  0.00    -0.181 NA
ATOM     90  N   UNL     1       8.072   3.325   0.678  1.00  0.00    -0.268 N 
BRANCH  90  91
ATOM     91  C   UNL     1       9.090   2.336   1.018  1.00  0.00     0.179 C 
BRANCH  91  92
ATOM     92  C   UNL     1       8.704   1.476   2.202  1.00  0.00    -0.027 A 
ATOM     93  C   UNL     1       9.601   1.297   3.266  1.00  0.00     0.005 A 
ATOM     94  C   UNL     1       7.481   0.786   2.237  1.00  0.00     0.005 A 
ATOM     95  C   UNL     1       9.270   0.475   4.346  1.00  0.00     0.000 A 
ATOM     96  C   UNL     1       7.147  -0.028   3.321  1.00  0.00     0.000 A 
ATOM     97  C   UNL     1       8.041  -0.182   4.376  1.00  0.00     0.000 A 
ENDBRANCH  91  92
ENDBRANCH  90  91
ENDBRANCH  78  86
ENDBRANCH  75  78
ENDBRANCH  73  74
ENDBRANCH   1  73
TORSDOF 15
