REMARK SMILES C[C@@H](C(=O)NCCCCNC(=O)c1ccc(-c2c3nc(c(-c4c(F)c(F)c(F)c(F)c4F)c4ccc([nH]4)c(-c4c(F)c(F)c(F)c(F)c4F)c4nc(c(-c5c(F)c(F)c(F)c(F)c5F)c5ccc2[nH]5)C=C4)C=C3)cc1)c1ccc(-c2cccc(OC(=O)NCCCc3ccccc3)c2)c(F)c1
REMARK SMILES IDX 1 1 2 2 3 3 4 4 5 5 6 7 7 8 8 9 9 10 10 11 11 12 12 14 13 15
REMARK SMILES IDX 14 16 75 17 15 18 74 19 16 20 17 21 18 22 68 23 19 24 73 25
REMARK SMILES IDX 67 26 69 27 20 28 72 29 66 30 65 31 21 33 53 34 33 35 52 36
REMARK SMILES IDX 34 37 37 38 51 39 70 40 35 41 36 42 50 44 71 45 38 46 22 47
REMARK SMILES IDX 23 48 31 49 24 50 25 51 29 52 32 53 26 54 27 55 30 56 28 57
REMARK SMILES IDX 54 58 55 59 63 60 56 61 57 62 61 63 64 64 58 65 59 66 62 67
REMARK SMILES IDX 60 68 39 69 40 70 48 71 41 72 42 73 46 74 49 75 43 76 44 77
REMARK SMILES IDX 47 78 45 79 76 80 77 81 101 82 78 83 99 84 79 85 100 86
REMARK SMILES IDX 80 87 81 88 98 89 82 90 84 91 83 92 85 93 86 94 87 95 88 96
REMARK SMILES IDX 89 98 90 99 91 100 92 101 93 102 97 103 94 104 96 105 95 106
REMARK H PARENT 5 6 10 13 69 32 37 43 88 97
REMARK Flexibility Score: inf
ROOT
ATOM      1  C   UNL     1       1.019   0.395  -0.004  1.00  0.00     0.023 C 
ATOM      2  C   UNL     1       0.486  -1.042   0.044  1.00  0.00     0.105 C 
ENDROOT
BRANCH   2   3
ATOM      3  C   UNL     1       1.036  -1.795   1.274  1.00  0.00     0.227 C 
ATOM      4  O   UNL     1       0.339  -2.118   2.238  1.00  0.00    -0.274 OA
ATOM      5  N   UNL     1       2.346  -2.177   1.314  1.00  0.00    -0.356 N 
ATOM      6  H   UNL     1       2.577  -2.813   2.030  1.00  0.00     0.163 HD
BRANCH   5   7
ATOM      7  C   UNL     1       3.446  -1.785   0.460  1.00  0.00     0.116 C 
BRANCH   7   8
ATOM      8  C   UNL     1       4.233  -0.635   1.093  1.00  0.00     0.023 C 
BRANCH   8   9
ATOM      9  C   UNL     1       5.019  -1.015   2.349  1.00  0.00     0.023 C 
BRANCH   9  10
ATOM     10  C   UNL     1       6.022  -2.144   2.163  1.00  0.00     0.116 C 
BRANCH  10  11
ATOM     11  N   UNL     1       6.975  -1.881   1.098  1.00  0.00    -0.352 N 
ATOM     12  C   UNL     1       8.320  -2.144   1.048  1.00  0.00     0.251 C 
ATOM     13  H   UNL     1       6.601  -1.450   0.296  1.00  0.00     0.163 HD
ATOM     14  O   UNL     1       8.990  -1.725   0.109  1.00  0.00    -0.269 OA
BRANCH  12  15
ATOM     15  C   UNL     1       8.970  -2.901   2.139  1.00  0.00     0.039 A 
ATOM     16  C   UNL     1      10.211  -2.460   2.603  1.00  0.00     0.014 A 
ATOM     17  C   UNL     1       8.375  -4.036   2.697  1.00  0.00     0.014 A 
ATOM     18  C   UNL     1      10.830  -3.127   3.659  1.00  0.00     0.010 A 
ATOM     19  C   UNL     1       8.956  -4.653   3.803  1.00  0.00     0.010 A 
ATOM     20  C   UNL     1      10.193  -4.210   4.289  1.00  0.00    -0.014 A 
BRANCH  20  21
ATOM     21  C   UNL     1      10.823  -4.873   5.458  1.00  0.00     0.031 A 
ATOM     22  C   UNL     1      11.272  -6.305   5.376  1.00  0.00     0.074 A 
ATOM     23  C   UNL     1      10.971  -4.183   6.605  1.00  0.00     0.049 A 
ATOM     24  N   UNL     1      11.869  -7.037   6.283  1.00  0.00    -0.248 NA
ATOM     25  C   UNL     1      10.994  -7.019   4.120  1.00  0.00     0.031 C 
ATOM     26  C   UNL     1      10.510  -2.811   6.830  1.00  0.00     0.029 A 
ATOM     27  N   UNL     1      11.552  -4.537   7.796  1.00  0.00    -0.354 N 
ATOM     28  C   UNL     1      12.043  -8.288   5.706  1.00  0.00     0.074 A 
ATOM     29  C   UNL     1      11.425  -8.240   4.399  1.00  0.00     0.031 C 
ATOM     30  C   UNL     1      10.854  -2.430   8.070  1.00  0.00     0.029 A 
ATOM     31  C   UNL     1      11.534  -3.536   8.736  1.00  0.00     0.049 A 
ATOM     32  H   UNL     1      11.944  -5.425   7.961  1.00  0.00     0.167 HD
ATOM     33  C   UNL     1      12.688  -9.368   6.207  1.00  0.00     0.037 A 
ATOM     34  C   UNL     1      12.018  -3.512   9.992  1.00  0.00     0.037 A 
ATOM     35  C   UNL     1      13.307  -9.412   7.506  1.00  0.00     0.049 A 
ATOM     36  C   UNL     1      12.742  -4.721  10.518  1.00  0.00     0.074 A 
ATOM     37  C   UNL     1      14.014 -10.446   8.094  1.00  0.00     0.029 A 
ATOM     38  N   UNL     1      13.291  -8.369   8.422  1.00  0.00    -0.354 N 
ATOM     39  N   UNL     1      12.967  -5.872   9.933  1.00  0.00    -0.248 NA
ATOM     40  C   UNL     1      13.296  -4.619  11.875  1.00  0.00     0.031 C 
ATOM     41  C   UNL     1      14.391 -10.045   9.380  1.00  0.00     0.029 A 
ATOM     42  C   UNL     1      13.965  -8.741   9.575  1.00  0.00     0.049 A 
ATOM     43  H   UNL     1      12.865  -7.494   8.274  1.00  0.00     0.167 HD
ATOM     44  C   UNL     1      13.704  -6.623  10.839  1.00  0.00     0.074 A 
ATOM     45  C   UNL     1      13.914  -5.784  12.001  1.00  0.00     0.031 C 
ATOM     46  C   UNL     1      14.162  -7.894  10.723  1.00  0.00     0.037 A 
BRANCH  33  47
ATOM     47  C   UNL     1      12.774 -10.589   5.335  1.00  0.00     0.064 A 
ATOM     48  C   UNL     1      13.567 -10.605   4.176  1.00  0.00     0.173 A 
ATOM     49  C   UNL     1      12.094 -11.766   5.678  1.00  0.00     0.173 A 
ATOM     50  F   UNL     1      14.228  -9.501   3.796  1.00  0.00    -0.203 F 
ATOM     51  C   UNL     1      13.653 -11.744   3.381  1.00  0.00     0.198 A 
ATOM     52  C   UNL     1      12.207 -12.914   4.897  1.00  0.00     0.198 A 
ATOM     53  F   UNL     1      11.326 -11.809   6.778  1.00  0.00    -0.203 F 
ATOM     54  F   UNL     1      14.378 -11.719   2.254  1.00  0.00    -0.200 F 
ATOM     55  C   UNL     1      12.980 -12.899   3.746  1.00  0.00     0.200 A 
ATOM     56  F   UNL     1      11.566 -14.034   5.258  1.00  0.00    -0.200 F 
ATOM     57  F   UNL     1      13.071 -13.998   2.984  1.00  0.00    -0.200 F 
ENDBRANCH  33  47
BRANCH  34  58
ATOM     58  C   UNL     1      11.861  -2.292  10.826  1.00  0.00     0.064 A 
ATOM     59  C   UNL     1      12.967  -1.506  11.177  1.00  0.00     0.173 A 
ATOM     60  C   UNL     1      10.602  -1.893  11.298  1.00  0.00     0.173 A 
ATOM     61  F   UNL     1      14.194  -1.855  10.764  1.00  0.00    -0.203 F 
ATOM     62  C   UNL     1      12.825  -0.386  11.993  1.00  0.00     0.198 A 
ATOM     63  C   UNL     1      10.456  -0.755  12.088  1.00  0.00     0.198 A 
ATOM     64  F   UNL     1       9.510  -2.606  10.983  1.00  0.00    -0.203 F 
ATOM     65  F   UNL     1      13.907   0.316  12.358  1.00  0.00    -0.200 F 
ATOM     66  C   UNL     1      11.569  -0.008  12.444  1.00  0.00     0.200 A 
ATOM     67  F   UNL     1       9.239  -0.384  12.507  1.00  0.00    -0.200 F 
ATOM     68  F   UNL     1      11.432   1.070  13.228  1.00  0.00    -0.200 F 
ENDBRANCH  34  58
BRANCH  46  69
ATOM     69  C   UNL     1      14.952  -8.441  11.877  1.00  0.00     0.064 A 
ATOM     70  C   UNL     1      14.349  -8.739  13.108  1.00  0.00     0.173 A 
ATOM     71  C   UNL     1      16.329  -8.679  11.747  1.00  0.00     0.173 A 
ATOM     72  F   UNL     1      13.038  -8.516  13.289  1.00  0.00    -0.203 F 
ATOM     73  C   UNL     1      15.101  -9.215  14.178  1.00  0.00     0.198 A 
ATOM     74  C   UNL     1      17.072  -9.187  12.809  1.00  0.00     0.198 A 
ATOM     75  F   UNL     1      16.954  -8.420  10.588  1.00  0.00    -0.203 F 
ATOM     76  F   UNL     1      14.515  -9.431  15.364  1.00  0.00    -0.200 F 
ATOM     77  C   UNL     1      16.461  -9.443  14.026  1.00  0.00     0.200 A 
ATOM     78  F   UNL     1      18.383  -9.420  12.656  1.00  0.00    -0.200 F 
ATOM     79  F   UNL     1      17.184  -9.900  15.058  1.00  0.00    -0.200 F 
ENDBRANCH  46  69
ENDBRANCH  20  21
ENDBRANCH  12  15
ENDBRANCH  10  11
ENDBRANCH   9  10
ENDBRANCH   8   9
ENDBRANCH   7   8
ENDBRANCH   5   7
ENDBRANCH   2   3
BRANCH   2  80
ATOM     80  C   UNL     1      -1.041  -1.109  -0.026  1.00  0.00    -0.033 A 
ATOM     81  C   UNL     1      -1.853   0.032   0.052  1.00  0.00     0.005 A 
ATOM     82  C   UNL     1      -1.673  -2.357  -0.149  1.00  0.00     0.044 A 
ATOM     83  C   UNL     1      -3.245  -0.069   0.028  1.00  0.00     0.012 A 
ATOM     84  C   UNL     1      -3.065  -2.451  -0.153  1.00  0.00     0.131 A 
ATOM     85  C   UNL     1      -3.877  -1.315  -0.056  1.00  0.00     0.018 A 
ATOM     86  F   UNL     1      -3.617  -3.673  -0.233  1.00  0.00    -0.206 F 
BRANCH  85  87
ATOM     87  C   UNL     1      -5.335  -1.394   0.074  1.00  0.00    -0.012 A 
ATOM     88  C   UNL     1      -6.191  -0.683  -0.783  1.00  0.00     0.009 A 
ATOM     89  C   UNL     1      -5.896  -2.115   1.140  1.00  0.00     0.056 A 
ATOM     90  C   UNL     1      -7.571  -0.677  -0.571  1.00  0.00     0.004 A 
ATOM     91  C   UNL     1      -7.267  -2.085   1.362  1.00  0.00     0.133 A 
ATOM     92  C   UNL     1      -8.110  -1.373   0.508  1.00  0.00     0.047 A 
BRANCH  91  93
ATOM     93  O   UNL     1      -7.909  -2.761   2.423  1.00  0.00    -0.410 OA
BRANCH  93  94
ATOM     94  C   UNL     1      -7.278  -3.300   3.542  1.00  0.00     0.412 C 
ATOM     95  O   UNL     1      -6.084  -3.250   3.806  1.00  0.00    -0.224 OA
ATOM     96  N   UNL     1      -8.150  -3.911   4.398  1.00  0.00    -0.321 N 
ATOM     97  H   UNL     1      -7.765  -4.423   5.145  1.00  0.00     0.167 HD
BRANCH  96  98
ATOM     98  C   UNL     1      -9.589  -3.869   4.299  1.00  0.00     0.120 C 
BRANCH  98  99
ATOM     99  C   UNL     1     -10.296  -5.114   4.830  1.00  0.00     0.026 C 
BRANCH  99 100
ATOM    100  C   UNL     1      -9.738  -5.787   6.091  1.00  0.00     0.037 C 
BRANCH 100 101
ATOM    101  C   UNL     1      -9.875  -5.124   7.442  1.00  0.00    -0.048 A 
ATOM    102  C   UNL     1     -10.091  -3.757   7.643  1.00  0.00     0.004 A 
ATOM    103  C   UNL     1      -9.714  -5.936   8.580  1.00  0.00     0.004 A 
ATOM    104  C   UNL     1     -10.140  -3.217   8.932  1.00  0.00     0.000 A 
ATOM    105  C   UNL     1      -9.773  -5.401   9.868  1.00  0.00     0.000 A 
ATOM    106  C   UNL     1      -9.981  -4.038  10.045  1.00  0.00     0.000 A 
ENDBRANCH 100 101
ENDBRANCH  99 100
ENDBRANCH  98  99
ENDBRANCH  96  98
ENDBRANCH  93  94
ENDBRANCH  91  93
ENDBRANCH  85  87
ENDBRANCH   2  80
TORSDOF 19
