REMARK SMILES CCc1ccccc1NC(=O)c1cc(S(=O)(=O)N2CCC[C@H](C(=O)NCCCCNC(=O)c3ccc(-c4c5nc(c(-c6c(F)c(F)c(F)c(F)c6F)c6ccc([nH]6)c(-c6c(F)c(F)c(F)c(F)c6F)c6nc(c(-c7c(F)c(F)c(F)c(F)c7F)c7ccc4[nH]7)C=C6)C=C5)cc3)C2)ccc1F
REMARK SMILES IDX 26 1 25 2 23 3 24 4 22 6 18 7 19 8 96 9 20 10 21 11 15 12
REMARK SMILES IDX 16 13 17 14 14 15 12 16 13 17 99 18 98 19 100 20 97 21 10 22
REMARK SMILES IDX 9 23 11 25 8 26 3 27 4 28 5 29 7 30 6 31 2 32 1 33 27 34
REMARK SMILES IDX 28 35 29 36 30 37 31 38 32 40 33 41 34 42 95 43 35 44 94 45
REMARK SMILES IDX 36 46 37 47 38 48 88 49 39 50 93 51 87 52 89 53 40 54 92 55
REMARK SMILES IDX 86 56 85 57 41 59 73 60 53 61 72 62 54 63 57 64 71 65 90 66
REMARK SMILES IDX 55 67 56 68 70 70 91 71 58 72 42 73 43 74 51 75 44 76 45 77
REMARK SMILES IDX 49 78 52 79 46 80 47 81 50 82 48 83 74 84 75 85 83 86 76 87
REMARK SMILES IDX 77 88 81 89 84 90 78 91 79 92 82 93 80 94 59 95 60 96 68 97
REMARK SMILES IDX 61 98 62 99 66 100 69 101 63 102 64 103 67 104 65 105
REMARK H PARENT 25 5 9 24 30 39 89 58 57 69
REMARK Flexibility Score: inf
ROOT
ATOM      1  C   UNL     1       1.994  13.306  -3.570  1.00  0.00     0.116 C 
ENDROOT
BRANCH   1   2
ATOM      2  N   UNL     1       1.029  13.685  -4.577  1.00  0.00    -0.356 N 
ATOM      3  C   UNL     1       0.139  12.963  -5.297  1.00  0.00     0.224 C 
ATOM      4  O   UNL     1      -0.575  13.601  -6.080  1.00  0.00    -0.275 OA
ATOM      5  H   UNL     1       1.017  14.650  -4.776  1.00  0.00     0.163 HD
BRANCH   3   6
ATOM      6  C   UNL     1      -0.014  11.443  -5.220  1.00  0.00     0.093 C 
ATOM      7  N   UNL     1       0.837  10.276  -3.136  1.00  0.00    -0.197 NA
ATOM      8  C   UNL     1       1.920   9.605  -3.885  1.00  0.00     0.102 C 
ATOM      9  C   UNL     1      -0.316  10.892  -3.838  1.00  0.00     0.116 C 
ATOM     10  C   UNL     1       2.234  10.249  -5.223  1.00  0.00     0.018 C 
ATOM     11  C   UNL     1       1.010  10.648  -6.018  1.00  0.00     0.016 C 
BRANCH   7  12
ATOM     12  S   UNL     1       0.520   9.688  -1.568  1.00  0.00     0.243 S 
ATOM     13  O   UNL     1      -0.469  10.541  -0.959  1.00  0.00    -0.207 OA
ATOM     14  O   UNL     1       1.806   9.438  -0.942  1.00  0.00    -0.207 OA
BRANCH  12  15
ATOM     15  C   UNL     1      -0.242   8.091  -1.782  1.00  0.00     0.083 A 
ATOM     16  C   UNL     1      -0.834   5.988  -0.775  1.00  0.00     0.077 A 
ATOM     17  C   UNL     1      -0.354   7.293  -0.641  1.00  0.00     0.038 A 
ATOM     18  C   UNL     1      -1.295   5.519  -2.005  1.00  0.00     0.136 A 
ATOM     19  C   UNL     1      -1.183   6.312  -3.138  1.00  0.00     0.041 A 
ATOM     20  F   UNL     1      -1.792   4.281  -2.134  1.00  0.00    -0.206 F 
ATOM     21  C   UNL     1      -0.636   7.591  -3.032  1.00  0.00     0.025 A 
BRANCH  16  22
ATOM     22  C   UNL     1      -0.734   5.085   0.375  1.00  0.00     0.258 C 
ATOM     23  N   UNL     1       0.008   3.927   0.291  1.00  0.00    -0.322 N 
ATOM     24  H   UNL     1      -0.112   3.310   1.048  1.00  0.00     0.170 HD
ATOM     25  O   UNL     1      -1.354   5.370   1.396  1.00  0.00    -0.269 OA
BRANCH  23  26
ATOM     26  C   UNL     1       0.915   3.471  -0.698  1.00  0.00     0.044 A 
ATOM     27  C   UNL     1       1.128   2.082  -0.846  1.00  0.00    -0.025 A 
ATOM     28  C   UNL     1       1.903   1.636  -1.935  1.00  0.00     0.006 A 
ATOM     29  C   UNL     1       2.509   2.534  -2.814  1.00  0.00     0.000 A 
ATOM     30  C   UNL     1       1.611   4.357  -1.534  1.00  0.00     0.026 A 
ATOM     31  C   UNL     1       2.387   3.897  -2.596  1.00  0.00     0.002 A 
BRANCH  27  32
ATOM     32  C   UNL     1       0.495   1.097   0.121  1.00  0.00     0.034 C 
ATOM     33  C   UNL     1       0.934  -0.358   0.019  1.00  0.00     0.009 C 
ENDBRANCH  27  32
ENDBRANCH  23  26
ENDBRANCH  16  22
ENDBRANCH  12  15
ENDBRANCH   7  12
ENDBRANCH   3   6
ENDBRANCH   1   2
BRANCH   1  34
ATOM     34  C   UNL     1       3.425  13.386  -4.095  1.00  0.00     0.023 C 
BRANCH  34  35
ATOM     35  C   UNL     1       4.138  14.686  -3.763  1.00  0.00     0.023 C 
BRANCH  35  36
ATOM     36  C   UNL     1       4.267  14.970  -2.275  1.00  0.00     0.116 C 
BRANCH  36  37
ATOM     37  N   UNL     1       4.975  13.940  -1.524  1.00  0.00    -0.352 N 
ATOM     38  C   UNL     1       5.847  14.126  -0.474  1.00  0.00     0.251 C 
ATOM     39  H   UNL     1       4.811  13.009  -1.798  1.00  0.00     0.163 HD
ATOM     40  O   UNL     1       6.456  13.191   0.029  1.00  0.00    -0.269 OA
BRANCH  38  41
ATOM     41  C   UNL     1       6.070  15.507  -0.007  1.00  0.00     0.039 A 
ATOM     42  C   UNL     1       7.366  16.023  -0.012  1.00  0.00     0.014 A 
ATOM     43  C   UNL     1       4.973  16.323   0.281  1.00  0.00     0.014 A 
ATOM     44  C   UNL     1       7.554  17.390   0.191  1.00  0.00     0.010 A 
ATOM     45  C   UNL     1       5.154  17.695   0.374  1.00  0.00     0.010 A 
ATOM     46  C   UNL     1       6.446  18.243   0.336  1.00  0.00    -0.014 A 
BRANCH  46  47
ATOM     47  C   UNL     1       6.614  19.711   0.472  1.00  0.00     0.031 A 
ATOM     48  C   UNL     1       6.136  20.400   1.719  1.00  0.00     0.074 A 
ATOM     49  C   UNL     1       7.129  20.429  -0.546  1.00  0.00     0.049 A 
ATOM     50  N   UNL     1       6.126  21.676   2.010  1.00  0.00    -0.248 NA
ATOM     51  C   UNL     1       5.553  19.544   2.765  1.00  0.00     0.031 C 
ATOM     52  C   UNL     1       7.565  19.885  -1.834  1.00  0.00     0.029 A 
ATOM     53  N   UNL     1       7.365  21.776  -0.660  1.00  0.00    -0.354 N 
ATOM     54  C   UNL     1       5.519  21.771   3.255  1.00  0.00     0.074 A 
ATOM     55  C   UNL     1       5.109  20.438   3.633  1.00  0.00     0.031 C 
ATOM     56  C   UNL     1       8.047  20.883  -2.593  1.00  0.00     0.029 A 
ATOM     57  C   UNL     1       7.923  22.140  -1.862  1.00  0.00     0.049 A 
ATOM     58  H   UNL     1       7.155  22.421   0.053  1.00  0.00     0.167 HD
ATOM     59  C   UNL     1       5.351  22.867   4.031  1.00  0.00     0.037 A 
ATOM     60  C   UNL     1       8.293  23.352  -2.317  1.00  0.00     0.037 A 
ATOM     61  C   UNL     1       5.798  24.185   3.669  1.00  0.00     0.049 A 
ATOM     62  C   UNL     1       8.115  24.553  -1.426  1.00  0.00     0.074 A 
ATOM     63  C   UNL     1       5.741  25.350   4.412  1.00  0.00     0.029 A 
ATOM     64  N   UNL     1       6.391  24.509   2.458  1.00  0.00    -0.354 N 
ATOM     65  N   UNL     1       7.613  24.620  -0.217  1.00  0.00    -0.248 NA
ATOM     66  C   UNL     1       8.564  25.846  -1.961  1.00  0.00     0.031 C 
ATOM     67  C   UNL     1       6.260  26.389   3.632  1.00  0.00     0.029 A 
ATOM     68  C   UNL     1       6.688  25.861   2.425  1.00  0.00     0.049 A 
ATOM     69  H   UNL     1       6.574  23.872   1.729  1.00  0.00     0.167 HD
ATOM     70  C   UNL     1       7.713  25.951   0.166  1.00  0.00     0.074 A 
ATOM     71  C   UNL     1       8.339  26.654  -0.935  1.00  0.00     0.031 C 
ATOM     72  C   UNL     1       7.322  26.539   1.323  1.00  0.00     0.037 A 
BRANCH  59  73
ATOM     73  C   UNL     1       4.667  22.677   5.354  1.00  0.00     0.064 A 
ATOM     74  C   UNL     1       5.273  21.964   6.401  1.00  0.00     0.173 A 
ATOM     75  C   UNL     1       3.397  23.227   5.585  1.00  0.00     0.173 A 
ATOM     76  F   UNL     1       6.480  21.405   6.227  1.00  0.00    -0.203 F 
ATOM     77  C   UNL     1       4.618  21.777   7.615  1.00  0.00     0.198 A 
ATOM     78  C   UNL     1       2.760  23.067   6.812  1.00  0.00     0.198 A 
ATOM     79  F   UNL     1       2.774  23.921   4.620  1.00  0.00    -0.203 F 
ATOM     80  F   UNL     1       5.192  21.042   8.577  1.00  0.00    -0.200 F 
ATOM     81  C   UNL     1       3.366  22.335   7.822  1.00  0.00     0.200 A 
ATOM     82  F   UNL     1       1.555  23.617   7.016  1.00  0.00    -0.200 F 
ATOM     83  F   UNL     1       2.739  22.159   8.993  1.00  0.00    -0.200 F 
ENDBRANCH  59  73
BRANCH  60  84
ATOM     84  C   UNL     1       8.906  23.489  -3.665  1.00  0.00     0.064 A 
ATOM     85  C   UNL     1      10.261  23.825  -3.808  1.00  0.00     0.173 A 
ATOM     86  C   UNL     1       8.156  23.299  -4.834  1.00  0.00     0.173 A 
ATOM     87  F   UNL     1      11.016  24.037  -2.720  1.00  0.00    -0.203 F 
ATOM     88  C   UNL     1      10.834  23.990  -5.067  1.00  0.00     0.198 A 
ATOM     89  C   UNL     1       8.738  23.436  -6.093  1.00  0.00     0.198 A 
ATOM     90  F   UNL     1       6.859  22.970  -4.754  1.00  0.00    -0.203 F 
ATOM     91  F   UNL     1      12.118  24.359  -5.173  1.00  0.00    -0.200 F 
ATOM     92  C   UNL     1      10.074  23.790  -6.209  1.00  0.00     0.200 A 
ATOM     93  F   UNL     1       8.003  23.228  -7.195  1.00  0.00    -0.200 F 
ATOM     94  F   UNL     1      10.626  23.946  -7.420  1.00  0.00    -0.200 F 
ENDBRANCH  60  84
BRANCH  72  95
ATOM     95  C   UNL     1       7.594  28.007   1.474  1.00  0.00     0.064 A 
ATOM     96  C   UNL     1       6.874  28.968   0.751  1.00  0.00     0.173 A 
ATOM     97  C   UNL     1       8.559  28.458   2.389  1.00  0.00     0.173 A 
ATOM     98  F   UNL     1       5.951  28.588  -0.145  1.00  0.00    -0.203 F 
ATOM     99  C   UNL     1       7.129  30.327   0.917  1.00  0.00     0.198 A 
ATOM    100  C   UNL     1       8.788  29.817   2.576  1.00  0.00     0.198 A 
ATOM    101  F   UNL     1       9.269  27.578   3.111  1.00  0.00    -0.203 F 
ATOM    102  F   UNL     1       6.463  31.227   0.180  1.00  0.00    -0.200 F 
ATOM    103  C   UNL     1       8.079  30.750   1.835  1.00  0.00     0.200 A 
ATOM    104  F   UNL     1       9.696  30.225   3.473  1.00  0.00    -0.200 F 
ATOM    105  F   UNL     1       8.317  32.059   1.999  1.00  0.00    -0.200 F 
ENDBRANCH  72  95
ENDBRANCH  46  47
ENDBRANCH  38  41
ENDBRANCH  36  37
ENDBRANCH  35  36
ENDBRANCH  34  35
ENDBRANCH   1  34
TORSDOF 16
