REMARK SMILES C[C@@H](C(=O)NCCCCNC(=O)c1ccc(-c2c3nc(c(-c4c(F)c(F)c(F)c(F)c4F)c4ccc([nH]4)c(-c4c(F)c(F)c(F)c(F)c4F)c4nc(c(-c5c(F)c(F)c(F)c(F)c5F)c5ccc2[nH]5)C=C4)C=C3)cc1)N1C(=O)/C(=C/c2ccc(N(C)C)cc2)SC1=S
REMARK SMILES IDX 7 1 6 2 5 3 3 4 4 5 2 7 1 8 76 9 77 10 91 11 78 12 79 13
REMARK SMILES IDX 90 14 92 15 80 16 81 17 82 18 89 19 83 20 88 21 84 22 85 23
REMARK SMILES IDX 86 24 87 25 8 26 9 27 10 28 11 29 12 31 13 32 14 33 75 34
REMARK SMILES IDX 15 35 74 36 16 37 17 38 18 39 68 40 19 41 73 42 67 43 69 44
REMARK SMILES IDX 20 45 72 46 66 47 65 48 21 50 53 51 33 52 52 53 34 54 37 55
REMARK SMILES IDX 51 56 70 57 35 58 36 59 50 61 71 62 38 63 22 64 23 65 31 66
REMARK SMILES IDX 24 67 25 68 29 69 32 70 26 71 27 72 30 73 28 74 54 75 55 76
REMARK SMILES IDX 63 77 56 78 57 79 61 80 64 81 58 82 59 83 62 84 60 85 39 86
REMARK SMILES IDX 40 87 48 88 41 89 42 90 46 91 49 92 43 93 44 94 47 95 45 96
REMARK H PARENT 5 6 10 30 69 49 37 60
REMARK Flexibility Score: inf
ROOT
ATOM      1  C   UNL     1       4.134  -0.217   1.095  1.00  0.00     0.023 C 
ENDROOT
BRANCH   1   2
ATOM      2  C   UNL     1       3.310  -1.504   1.137  1.00  0.00     0.116 C 
BRANCH   2   3
ATOM      3  N   UNL     1       2.229  -1.395   2.094  1.00  0.00    -0.354 N 
ATOM      4  C   UNL     1       0.907  -1.127   1.892  1.00  0.00     0.242 C 
ATOM      5  O   UNL     1       0.192  -1.049   2.895  1.00  0.00    -0.273 OA
ATOM      6  H   UNL     1       2.488  -1.537   3.034  1.00  0.00     0.163 HD
BRANCH   4   7
ATOM      7  C   UNL     1       0.344  -0.980   0.461  1.00  0.00     0.178 C 
ATOM      8  C   UNL     1       0.925   0.172  -0.357  1.00  0.00     0.042 C 
BRANCH   7   9
ATOM      9  N   UNL     1      -1.131  -0.971   0.558  1.00  0.00    -0.281 N 
ATOM     10  C   UNL     1      -1.774  -2.198   0.464  1.00  0.00     0.266 C 
ATOM     11  C   UNL     1      -1.932   0.106   0.892  1.00  0.00     0.149 C 
ATOM     12  O   UNL     1      -1.233  -3.282   0.286  1.00  0.00    -0.268 OA
ATOM     13  C   UNL     1      -3.243  -2.029   0.583  1.00  0.00     0.081 C 
ATOM     14  S   UNL     1      -3.622  -0.383   0.883  1.00  0.00    -0.054 SA
ATOM     15  S   UNL     1      -1.517   1.684   1.246  1.00  0.00    -0.052 S 
ATOM     16  C   UNL     1      -4.098  -3.049   0.431  1.00  0.00     0.029 C 
BRANCH  16  17
ATOM     17  C   UNL     1      -5.554  -2.897   0.404  1.00  0.00    -0.024 A 
ATOM     18  C   UNL     1      -6.354  -3.367   1.439  1.00  0.00     0.010 A 
ATOM     19  C   UNL     1      -6.163  -2.250  -0.669  1.00  0.00     0.010 A 
ATOM     20  C   UNL     1      -7.745  -3.160   1.410  1.00  0.00     0.026 A 
ATOM     21  C   UNL     1      -7.548  -2.052  -0.685  1.00  0.00     0.026 A 
ATOM     22  C   UNL     1      -8.389  -2.490   0.354  1.00  0.00     0.036 A 
BRANCH  22  23
ATOM     23  N   UNL     1      -9.761  -2.279   0.311  1.00  0.00    -0.378 N 
ATOM     24  C   UNL     1     -10.674  -2.681   1.373  1.00  0.00     0.143 C 
ATOM     25  C   UNL     1     -10.338  -1.416  -0.719  1.00  0.00     0.143 C 
ENDBRANCH  22  23
ENDBRANCH  16  17
ENDBRANCH   7   9
ENDBRANCH   4   7
ENDBRANCH   2   3
ENDBRANCH   1   2
BRANCH   1  26
ATOM     26  C   UNL     1       4.942   0.056   2.368  1.00  0.00     0.023 C 
BRANCH  26  27
ATOM     27  C   UNL     1       5.968  -1.014   2.725  1.00  0.00     0.116 C 
BRANCH  27  28
ATOM     28  N   UNL     1       6.963  -1.217   1.684  1.00  0.00    -0.352 N 
ATOM     29  C   UNL     1       8.313  -1.435   1.811  1.00  0.00     0.251 C 
ATOM     30  H   UNL     1       6.623  -1.194   0.761  1.00  0.00     0.163 HD
ATOM     31  O   UNL     1       9.030  -1.461   0.816  1.00  0.00    -0.269 OA
BRANCH  29  32
ATOM     32  C   UNL     1       8.907  -1.603   3.154  1.00  0.00     0.039 A 
ATOM     33  C   UNL     1      10.071  -0.896   3.466  1.00  0.00     0.014 A 
ATOM     34  C   UNL     1       8.315  -2.439   4.104  1.00  0.00     0.014 A 
ATOM     35  C   UNL     1      10.605  -0.976   4.754  1.00  0.00     0.010 A 
ATOM     36  C   UNL     1       8.808  -2.464   5.406  1.00  0.00     0.010 A 
ATOM     37  C   UNL     1       9.957  -1.732   5.744  1.00  0.00    -0.014 A 
BRANCH  37  38
ATOM     38  C   UNL     1      10.460  -1.762   7.140  1.00  0.00     0.031 A 
ATOM     39  C   UNL     1      10.962  -3.046   7.737  1.00  0.00     0.074 A 
ATOM     40  C   UNL     1      10.402  -0.645   7.892  1.00  0.00     0.049 A 
ATOM     41  N   UNL     1      11.376  -3.288   8.955  1.00  0.00    -0.248 NA
ATOM     42  C   UNL     1      10.977  -4.223   6.854  1.00  0.00     0.031 C 
ATOM     43  C   UNL     1       9.890   0.650   7.444  1.00  0.00     0.029 A 
ATOM     44  N   UNL     1      10.765  -0.425   9.198  1.00  0.00    -0.354 N 
ATOM     45  C   UNL     1      11.684  -4.641   8.988  1.00  0.00     0.074 A 
ATOM     46  C   UNL     1      11.362  -5.180   7.684  1.00  0.00     0.031 C 
ATOM     47  C   UNL     1       9.990   1.535   8.449  1.00  0.00     0.029 A 
ATOM     48  C   UNL     1      10.537   0.861   9.623  1.00  0.00     0.049 A 
ATOM     49  H   UNL     1      11.152  -1.122   9.774  1.00  0.00     0.167 HD
ATOM     50  C   UNL     1      12.211  -5.364  10.006  1.00  0.00     0.037 A 
ATOM     51  C   UNL     1      10.740   1.431  10.826  1.00  0.00     0.037 A 
ATOM     52  C   UNL     1      12.553  -4.819  11.293  1.00  0.00     0.049 A 
ATOM     53  C   UNL     1      11.323   0.605  11.941  1.00  0.00     0.074 A 
ATOM     54  C   UNL     1      13.148  -5.455  12.369  1.00  0.00     0.029 A 
ATOM     55  N   UNL     1      12.326  -3.506  11.681  1.00  0.00    -0.354 N 
ATOM     56  N   UNL     1      11.678  -0.657  11.938  1.00  0.00    -0.248 NA
ATOM     57  C   UNL     1      11.539   1.286  13.225  1.00  0.00     0.031 C 
ATOM     58  C   UNL     1      13.239  -4.539  13.423  1.00  0.00     0.029 A 
ATOM     59  C   UNL     1      12.750  -3.319  12.987  1.00  0.00     0.049 A 
ATOM     60  H   UNL     1      11.924  -2.811  11.112  1.00  0.00     0.167 HD
ATOM     61  C   UNL     1      12.185  -0.914  13.204  1.00  0.00     0.074 A 
ATOM     62  C   UNL     1      12.105   0.328  13.945  1.00  0.00     0.031 C 
ATOM     63  C   UNL     1      12.672  -2.074  13.708  1.00  0.00     0.037 A 
BRANCH  50  64
ATOM     64  C   UNL     1      12.454  -6.826   9.766  1.00  0.00     0.064 A 
ATOM     65  C   UNL     1      13.460  -7.271   8.894  1.00  0.00     0.173 A 
ATOM     66  C   UNL     1      11.698  -7.795  10.443  1.00  0.00     0.173 A 
ATOM     67  F   UNL     1      14.204  -6.386   8.213  1.00  0.00    -0.203 F 
ATOM     68  C   UNL     1      13.679  -8.630   8.686  1.00  0.00     0.198 A 
ATOM     69  C   UNL     1      11.941  -9.153  10.256  1.00  0.00     0.198 A 
ATOM     70  F   UNL     1      10.728  -7.424  11.292  1.00  0.00    -0.203 F 
ATOM     71  F   UNL     1      14.611  -9.030   7.811  1.00  0.00    -0.200 F 
ATOM     72  C   UNL     1      12.925  -9.570   9.373  1.00  0.00     0.200 A 
ATOM     73  F   UNL     1      11.220 -10.060  10.930  1.00  0.00    -0.200 F 
ATOM     74  F   UNL     1      13.142 -10.877   9.177  1.00  0.00    -0.200 F 
ENDBRANCH  50  64
BRANCH  51  75
ATOM     75  C   UNL     1      10.413   2.866  11.033  1.00  0.00     0.064 A 
ATOM     76  C   UNL     1      11.428   3.814  11.221  1.00  0.00     0.173 A 
ATOM     77  C   UNL     1       9.086   3.318  11.053  1.00  0.00     0.173 A 
ATOM     78  F   UNL     1      12.712   3.427  11.230  1.00  0.00    -0.203 F 
ATOM     79  C   UNL     1      11.128   5.157  11.442  1.00  0.00     0.198 A 
ATOM     80  C   UNL     1       8.787   4.665  11.247  1.00  0.00     0.198 A 
ATOM     81  F   UNL     1       8.078   2.451  10.874  1.00  0.00    -0.203 F 
ATOM     82  F   UNL     1      12.116   6.034  11.666  1.00  0.00    -0.200 F 
ATOM     83  C   UNL     1       9.808   5.582  11.450  1.00  0.00     0.200 A 
ATOM     84  F   UNL     1       7.511   5.074  11.239  1.00  0.00    -0.200 F 
ATOM     85  F   UNL     1       9.519   6.873  11.660  1.00  0.00    -0.200 F 
ENDBRANCH  51  75
BRANCH  63  86
ATOM     86  C   UNL     1      13.193  -2.048  15.116  1.00  0.00     0.064 A 
ATOM     87  C   UNL     1      12.333  -1.943  16.219  1.00  0.00     0.173 A 
ATOM     88  C   UNL     1      14.569  -2.170  15.365  1.00  0.00     0.173 A 
ATOM     89  F   UNL     1      11.011  -1.809  16.033  1.00  0.00    -0.203 F 
ATOM     90  C   UNL     1      12.833  -1.935  17.518  1.00  0.00     0.198 A 
ATOM     91  C   UNL     1      15.062  -2.192  16.666  1.00  0.00     0.198 A 
ATOM     92  F   UNL     1      15.434  -2.280  14.345  1.00  0.00    -0.203 F 
ATOM     93  F   UNL     1      11.997  -1.785  18.555  1.00  0.00    -0.200 F 
ATOM     94  C   UNL     1      14.196  -2.067  17.741  1.00  0.00     0.200 A 
ATOM     95  F   UNL     1      16.378  -2.334  16.880  1.00  0.00    -0.200 F 
ATOM     96  F   UNL     1      14.674  -2.067  18.993  1.00  0.00    -0.200 F 
ENDBRANCH  63  86
ENDBRANCH  37  38
ENDBRANCH  29  32
ENDBRANCH  27  28
ENDBRANCH  26  27
ENDBRANCH   1  26
TORSDOF 14
