REMARK SMILES C=CC[C@@H](NC(=O)OCc1ccccc1)C(=O)NCCCCNC(=O)c1ccc(-c2c3nc(c(-c4c(F)c(F)c(F)c(F)c4F)c4ccc([nH]4)c(-c4c(F)c(F)c(F)c(F)c4F)c4nc(c(-c5c(F)c(F)c(F)c(F)c5F)c5ccc2[nH]5)C=C4)C=C3)cc1
REMARK SMILES IDX 19 1 18 2 16 3 17 4 4 6 3 7 2 8 1 9 5 10 6 11 7 13 8 14 9 15
REMARK SMILES IDX 10 16 11 17 15 18 12 19 14 20 13 21 20 22 21 23 22 24 23 25
REMARK SMILES IDX 24 26 25 28 26 29 27 30 88 31 28 32 87 33 29 34 30 35 31 36
REMARK SMILES IDX 81 37 32 38 86 39 80 40 82 41 33 42 85 43 79 44 78 45 34 47
REMARK SMILES IDX 66 48 46 49 65 50 47 51 50 52 64 53 83 54 48 55 49 56 63 58
REMARK SMILES IDX 84 59 51 60 35 61 36 62 44 63 37 64 38 65 42 66 45 67 39 68
REMARK SMILES IDX 40 69 43 70 41 71 67 72 68 73 76 74 69 75 70 76 74 77 77 78
REMARK SMILES IDX 71 79 72 80 75 81 73 82 52 83 53 84 61 85 54 86 55 87 59 88
REMARK SMILES IDX 62 89 56 90 57 91 60 92 58 93
REMARK H PARENT 18 5 5 12 23 27 82 46 50 57
REMARK Flexibility Score: inf
ROOT
ATOM      1  C   UNL     1      -3.253   1.544  -2.636  1.00  0.00     0.116 C 
ENDROOT
BRANCH   1   2
ATOM      2  N   UNL     1      -3.792   1.570  -1.289  1.00  0.00    -0.354 N 
ATOM      3  C   UNL     1      -3.172   1.901  -0.115  1.00  0.00     0.243 C 
ATOM      4  O   UNL     1      -3.816   1.766   0.929  1.00  0.00    -0.273 OA
ATOM      5  H   UNL     1      -4.739   1.313  -1.208  1.00  0.00     0.163 HD
BRANCH   3   6
ATOM      6  C   UNL     1      -1.666   2.258  -0.084  1.00  0.00     0.178 C 
BRANCH   6   7
ATOM      7  C   UNL     1      -0.938   0.894  -0.243  1.00  0.00     0.062 C 
BRANCH   7   8
ATOM      8  C   UNL     1       0.566   0.909  -0.265  1.00  0.00    -0.032 C 
ATOM      9  C   UNL     1       1.308  -0.009   0.369  1.00  0.00     0.004 C 
ENDBRANCH   7   8
ENDBRANCH   6   7
BRANCH   6  10
ATOM     10  N   UNL     1      -1.243   3.234  -1.099  1.00  0.00    -0.309 N 
ATOM     11  C   UNL     1      -1.922   4.335  -1.536  1.00  0.00     0.408 C 
ATOM     12  H   UNL     1      -0.364   3.075  -1.513  1.00  0.00     0.167 HD
ATOM     13  O   UNL     1      -1.427   5.083  -2.370  1.00  0.00    -0.225 OA
BRANCH  11  14
ATOM     14  O   UNL     1      -3.192   4.396  -1.084  1.00  0.00    -0.445 OA
BRANCH  14  15
ATOM     15  C   UNL     1      -4.109   5.115  -1.917  1.00  0.00     0.270 C 
BRANCH  15  16
ATOM     16  C   UNL     1      -4.223   6.552  -1.504  1.00  0.00    -0.011 A 
ATOM     17  C   UNL     1      -4.562   6.886  -0.186  1.00  0.00     0.007 A 
ATOM     18  C   UNL     1      -3.998   7.574  -2.435  1.00  0.00     0.007 A 
ATOM     19  C   UNL     1      -4.647   8.222   0.199  1.00  0.00     0.000 A 
ATOM     20  C   UNL     1      -4.087   8.910  -2.048  1.00  0.00     0.000 A 
ATOM     21  C   UNL     1      -4.405   9.233  -0.730  1.00  0.00     0.000 A 
ENDBRANCH  15  16
ENDBRANCH  14  15
ENDBRANCH  11  14
ENDBRANCH   6  10
ENDBRANCH   3   6
ENDBRANCH   1   2
BRANCH   1  22
ATOM     22  C   UNL     1      -3.612   0.249  -3.349  1.00  0.00     0.023 C 
BRANCH  22  23
ATOM     23  C   UNL     1      -5.097   0.121  -3.676  1.00  0.00     0.023 C 
BRANCH  23  24
ATOM     24  C   UNL     1      -5.661   1.266  -4.509  1.00  0.00     0.116 C 
BRANCH  24  25
ATOM     25  N   UNL     1      -4.981   1.417  -5.787  1.00  0.00    -0.352 N 
ATOM     26  C   UNL     1      -5.525   1.464  -7.047  1.00  0.00     0.251 C 
ATOM     27  H   UNL     1      -4.001   1.495  -5.743  1.00  0.00     0.163 HD
ATOM     28  O   UNL     1      -4.811   1.411  -8.041  1.00  0.00    -0.269 OA
BRANCH  26  29
ATOM     29  C   UNL     1      -6.992   1.552  -7.189  1.00  0.00     0.039 A 
ATOM     30  C   UNL     1      -7.643   0.674  -8.056  1.00  0.00     0.014 A 
ATOM     31  C   UNL     1      -7.719   2.471  -6.427  1.00  0.00     0.014 A 
ATOM     32  C   UNL     1      -9.037   0.672  -8.108  1.00  0.00     0.010 A 
ATOM     33  C   UNL     1      -9.107   2.407  -6.416  1.00  0.00     0.010 A 
ATOM     34  C   UNL     1      -9.780   1.509  -7.259  1.00  0.00    -0.014 A 
BRANCH  34  35
ATOM     35  C   UNL     1     -11.264   1.460  -7.239  1.00  0.00     0.031 A 
ATOM     36  C   UNL     1     -12.063   2.670  -7.633  1.00  0.00     0.074 A 
ATOM     37  C   UNL     1     -11.889   0.347  -6.809  1.00  0.00     0.049 A 
ATOM     38  N   UNL     1     -13.360   2.845  -7.624  1.00  0.00    -0.248 NA
ATOM     39  C   UNL     1     -11.302   3.852  -8.069  1.00  0.00     0.031 C 
ATOM     40  C   UNL     1     -11.223  -0.874  -6.352  1.00  0.00     0.029 A 
ATOM     41  N   UNL     1     -13.226   0.065  -6.676  1.00  0.00    -0.354 N 
ATOM     42  C   UNL     1     -13.567   4.152  -8.044  1.00  0.00     0.074 A 
ATOM     43  C   UNL     1     -12.263   4.747  -8.236  1.00  0.00     0.031 C 
ATOM     44  C   UNL     1     -12.152  -1.782  -6.013  1.00  0.00     0.029 A 
ATOM     45  C   UNL     1     -13.477  -1.194  -6.186  1.00  0.00     0.049 A 
ATOM     46  H   UNL     1     -13.937   0.704  -6.910  1.00  0.00     0.167 HD
ATOM     47  C   UNL     1     -14.739   4.790  -8.276  1.00  0.00     0.037 A 
ATOM     48  C   UNL     1     -14.644  -1.800  -5.897  1.00  0.00     0.037 A 
ATOM     49  C   UNL     1     -16.034   4.189  -8.095  1.00  0.00     0.049 A 
ATOM     50  C   UNL     1     -15.933  -1.061  -6.142  1.00  0.00     0.074 A 
ATOM     51  C   UNL     1     -17.281   4.733  -8.349  1.00  0.00     0.029 A 
ATOM     52  N   UNL     1     -16.249   2.908  -7.607  1.00  0.00    -0.354 N 
ATOM     53  N   UNL     1     -16.118   0.150  -6.608  1.00  0.00    -0.248 NA
ATOM     54  C   UNL     1     -17.177  -1.778  -5.827  1.00  0.00     0.031 C 
ATOM     55  C   UNL     1     -18.251   3.804  -7.960  1.00  0.00     0.029 A 
ATOM     56  C   UNL     1     -17.610   2.655  -7.527  1.00  0.00     0.049 A 
ATOM     57  H   UNL     1     -15.541   2.273  -7.355  1.00  0.00     0.167 HD
ATOM     58  C   UNL     1     -17.494   0.329  -6.672  1.00  0.00     0.074 A 
ATOM     59  C   UNL     1     -18.096  -0.905  -6.212  1.00  0.00     0.031 C 
ATOM     60  C   UNL     1     -18.195   1.418  -7.074  1.00  0.00     0.037 A 
BRANCH  47  61
ATOM     61  C   UNL     1     -14.673   6.213  -8.753  1.00  0.00     0.064 A 
ATOM     62  C   UNL     1     -14.179   6.542 -10.026  1.00  0.00     0.173 A 
ATOM     63  C   UNL     1     -15.139   7.260  -7.943  1.00  0.00     0.173 A 
ATOM     64  F   UNL     1     -13.710   5.582 -10.837  1.00  0.00    -0.203 F 
ATOM     65  C   UNL     1     -14.125   7.865 -10.456  1.00  0.00     0.198 A 
ATOM     66  C   UNL     1     -15.116   8.578  -8.390  1.00  0.00     0.198 A 
ATOM     67  F   UNL     1     -15.626   7.003  -6.720  1.00  0.00    -0.203 F 
ATOM     68  F   UNL     1     -13.598   8.158 -11.653  1.00  0.00    -0.200 F 
ATOM     69  C   UNL     1     -14.601   8.881  -9.641  1.00  0.00     0.200 A 
ATOM     70  F   UNL     1     -15.591   9.557  -7.608  1.00  0.00    -0.200 F 
ATOM     71  F   UNL     1     -14.556  10.153 -10.059  1.00  0.00    -0.200 F 
ENDBRANCH  47  61
BRANCH  48  72
ATOM     72  C   UNL     1     -14.650  -3.187  -5.359  1.00  0.00     0.064 A 
ATOM     73  C   UNL     1     -15.158  -4.254  -6.114  1.00  0.00     0.173 A 
ATOM     74  C   UNL     1     -14.160  -3.473  -4.076  1.00  0.00     0.173 A 
ATOM     75  F   UNL     1     -15.656  -4.029  -7.339  1.00  0.00    -0.203 F 
ATOM     76  C   UNL     1     -15.200  -5.547  -5.597  1.00  0.00     0.198 A 
ATOM     77  C   UNL     1     -14.172  -4.773  -3.573  1.00  0.00     0.198 A 
ATOM     78  F   UNL     1     -13.657  -2.491  -3.314  1.00  0.00    -0.203 F 
ATOM     79  F   UNL     1     -15.740  -6.537  -6.320  1.00  0.00    -0.200 F 
ATOM     80  C   UNL     1     -14.701  -5.807  -4.330  1.00  0.00     0.200 A 
ATOM     81  F   UNL     1     -13.672  -5.022  -2.355  1.00  0.00    -0.200 F 
ATOM     82  F   UNL     1     -14.739  -7.051  -3.834  1.00  0.00    -0.200 F 
ENDBRANCH  48  72
BRANCH  60  83
ATOM     83  C   UNL     1     -19.694   1.312  -7.076  1.00  0.00     0.064 A 
ATOM     84  C   UNL     1     -20.434   1.256  -5.886  1.00  0.00     0.173 A 
ATOM     85  C   UNL     1     -20.401   1.308  -8.289  1.00  0.00     0.173 A 
ATOM     86  F   UNL     1     -19.806   1.243  -4.700  1.00  0.00    -0.203 F 
ATOM     87  C   UNL     1     -21.824   1.169  -5.911  1.00  0.00     0.198 A 
ATOM     88  C   UNL     1     -21.792   1.257  -8.309  1.00  0.00     0.198 A 
ATOM     89  F   UNL     1     -19.743   1.368  -9.457  1.00  0.00    -0.203 F 
ATOM     90  F   UNL     1     -22.506   1.060  -4.763  1.00  0.00    -0.200 F 
ATOM     91  C   UNL     1     -22.501   1.178  -7.121  1.00  0.00     0.200 A 
ATOM     92  F   UNL     1     -22.445   1.284  -9.479  1.00  0.00    -0.200 F 
ATOM     93  F   UNL     1     -23.839   1.104  -7.142  1.00  0.00    -0.200 F 
ENDBRANCH  60  83
ENDBRANCH  34  35
ENDBRANCH  26  29
ENDBRANCH  24  25
ENDBRANCH  23  24
ENDBRANCH  22  23
ENDBRANCH   1  22
TORSDOF 17
