REMARK SMILES [NH3+]CCOCC(=O)Nc1ccc(C(=O)NCCCCNC(=O)c2ccc(-c3c4nc(c(-c5c(F)c(F)c(F)c(F)c5F)c5ccc([nH]5)c(-c5c(F)c(F)c(F)c(F)c5F)c5nc(c(-c6c(F)c(F)c(F)c(F)c6F)c6ccc3[nH]6)C=C5)C=C4)cc2)c(Cl)c1
REMARK SMILES IDX 13 1 14 2 15 3 12 5 9 6 10 7 88 8 11 9 86 10 87 11 8 12 6 13
REMARK SMILES IDX 7 14 5 16 4 17 3 18 2 19 1 20 16 24 17 25 18 26 19 27 20 28
REMARK SMILES IDX 21 29 22 31 23 32 24 33 85 34 25 35 84 36 26 37 27 38 28 39
REMARK SMILES IDX 78 40 29 41 83 42 77 43 79 44 30 45 82 46 76 47 75 48 31 50
REMARK SMILES IDX 63 51 43 52 62 53 44 54 47 55 61 56 80 57 45 58 46 59 60 61
REMARK SMILES IDX 81 62 48 63 32 64 33 65 41 66 34 67 35 68 39 69 42 70 36 71
REMARK SMILES IDX 37 72 40 73 38 74 64 75 65 76 73 77 66 78 67 79 71 80 74 81
REMARK SMILES IDX 68 82 69 83 72 84 70 85 49 86 50 87 58 88 51 89 52 90 56 91
REMARK SMILES IDX 59 92 53 93 54 94 57 95 55 96
REMARK H PARENT 15 4 8 15 1 21 1 22 1 23 20 30 79 49 47 60
REMARK Flexibility Score: inf
ROOT
ATOM      1  C   UNL     1       0.227   6.130   4.965  1.00  0.00     0.252 C 
ATOM      2  O   UNL     1      -0.851   5.573   5.200  1.00  0.00    -0.269 OA
ATOM      3  N   UNL     1       0.359   7.375   5.509  1.00  0.00    -0.352 N 
ATOM      4  H   UNL     1      -0.362   7.603   6.139  1.00  0.00     0.163 HD
ENDROOT
BRANCH   1   5
ATOM      5  C   UNL     1       1.264   5.354   4.217  1.00  0.00     0.058 A 
ATOM      6  C   UNL     1       2.775   3.466   2.744  1.00  0.00     0.042 A 
ATOM      7  C   UNL     1       1.865   3.028   3.693  1.00  0.00     0.027 A 
ATOM      8  C   UNL     1       3.022   4.821   2.603  1.00  0.00     0.047 A 
ATOM      9  C   UNL     1       1.145   3.962   4.438  1.00  0.00     0.017 A 
ATOM     10  C   UNL     1       2.214   5.762   3.267  1.00  0.00     0.055 A 
ATOM     11  Cl  UNL     1       2.394   7.329   2.587  1.00  0.00    -0.083 Cl
BRANCH   6  12
ATOM     12  N   UNL     1       3.364   2.598   1.824  1.00  0.00    -0.324 N 
ATOM     13  C   UNL     1       2.683   1.842   0.901  1.00  0.00     0.250 C 
ATOM     14  O   UNL     1       3.316   1.136   0.112  1.00  0.00    -0.272 OA
ATOM     15  H   UNL     1       4.345   2.522   1.837  1.00  0.00     0.170 HD
BRANCH  13  16
ATOM     16  C   UNL     1       1.143   1.938   0.821  1.00  0.00     0.260 C 
BRANCH  16  17
ATOM     17  O   UNL     1       0.352   1.216   1.744  1.00  0.00    -0.366 OA
BRANCH  17  18
ATOM     18  C   UNL     1       0.796  -0.110   2.027  1.00  0.00     0.222 C 
BRANCH  18  19
ATOM     19  C   UNL     1       0.392  -1.149   0.973  1.00  0.00     0.287 C 
BRANCH  19  20
ATOM     20  N   UNL     1       1.065  -1.029  -0.319  1.00  0.00    -0.356 N 
ATOM     21  H   UNL     1       0.730  -1.760  -0.946  1.00  0.00     0.344 HD
ATOM     22  H   UNL     1       2.072  -1.128  -0.189  1.00  0.00     0.344 HD
ATOM     23  H   UNL     1       0.863  -0.115  -0.724  1.00  0.00     0.344 HD
ENDBRANCH  19  20
ENDBRANCH  18  19
ENDBRANCH  17  18
ENDBRANCH  16  17
ENDBRANCH  13  16
ENDBRANCH   6  12
ENDBRANCH   1   5
BRANCH   3  24
ATOM     24  C   UNL     1       1.333   8.425   5.353  1.00  0.00     0.116 C 
BRANCH  24  25
ATOM     25  C   UNL     1       0.865   9.377   4.246  1.00  0.00     0.023 C 
BRANCH  25  26
ATOM     26  C   UNL     1       0.003  10.545   4.709  1.00  0.00     0.023 C 
BRANCH  26  27
ATOM     27  C   UNL     1       0.704  11.495   5.665  1.00  0.00     0.116 C 
BRANCH  27  28
ATOM     28  N   UNL     1       2.008  11.947   5.197  1.00  0.00    -0.352 N 
ATOM     29  C   UNL     1       2.667  13.108   5.510  1.00  0.00     0.251 C 
ATOM     30  H   UNL     1       2.475  11.342   4.577  1.00  0.00     0.163 HD
ATOM     31  O   UNL     1       3.734  13.390   4.975  1.00  0.00    -0.269 OA
BRANCH  29  32
ATOM     32  C   UNL     1       2.040  14.040   6.462  1.00  0.00     0.039 A 
ATOM     33  C   UNL     1       1.887  15.374   6.083  1.00  0.00     0.014 A 
ATOM     34  C   UNL     1       1.537  13.578   7.681  1.00  0.00     0.014 A 
ATOM     35  C   UNL     1       1.163  16.234   6.905  1.00  0.00     0.010 A 
ATOM     36  C   UNL     1       0.744  14.414   8.455  1.00  0.00     0.010 A 
ATOM     37  C   UNL     1       0.552  15.749   8.075  1.00  0.00    -0.014 A 
BRANCH  37  38
ATOM     38  C   UNL     1      -0.300  16.637   8.897  1.00  0.00     0.031 A 
ATOM     39  C   UNL     1       0.110  16.998  10.294  1.00  0.00     0.074 A 
ATOM     40  C   UNL     1      -1.465  17.081   8.389  1.00  0.00     0.049 A 
ATOM     41  N   UNL     1      -0.487  17.786  11.152  1.00  0.00    -0.248 NA
ATOM     42  C   UNL     1       1.336  16.369  10.811  1.00  0.00     0.031 C 
ATOM     43  C   UNL     1      -2.005  16.728   7.074  1.00  0.00     0.029 A 
ATOM     44  N   UNL     1      -2.404  17.931   8.916  1.00  0.00    -0.354 N 
ATOM     45  C   UNL     1       0.286  17.744  12.303  1.00  0.00     0.074 A 
ATOM     46  C   UNL     1       1.357  16.803  12.062  1.00  0.00     0.031 C 
ATOM     47  C   UNL     1      -3.157  17.388   6.880  1.00  0.00     0.029 A 
ATOM     48  C   UNL     1      -3.448  18.191   8.063  1.00  0.00     0.049 A 
ATOM     49  H   UNL     1      -2.336  18.317   9.819  1.00  0.00     0.167 HD
ATOM     50  C   UNL     1       0.133  18.452  13.447  1.00  0.00     0.037 A 
ATOM     51  C   UNL     1      -4.511  19.001   8.217  1.00  0.00     0.037 A 
ATOM     52  C   UNL     1      -0.923  19.403  13.670  1.00  0.00     0.049 A 
ATOM     53  C   UNL     1      -4.639  19.801   9.484  1.00  0.00     0.074 A 
ATOM     54  C   UNL     1      -1.131  20.223  14.765  1.00  0.00     0.029 A 
ATOM     55  N   UNL     1      -1.953  19.660  12.776  1.00  0.00    -0.354 N 
ATOM     56  N   UNL     1      -3.850  19.826  10.531  1.00  0.00    -0.248 NA
ATOM     57  C   UNL     1      -5.799  20.697   9.583  1.00  0.00     0.031 C 
ATOM     58  C   UNL     1      -2.311  20.945  14.552  1.00  0.00     0.029 A 
ATOM     59  C   UNL     1      -2.812  20.610  13.303  1.00  0.00     0.049 A 
ATOM     60  H   UNL     1      -2.058  19.229  11.897  1.00  0.00     0.167 HD
ATOM     61  C   UNL     1      -4.405  20.750  11.404  1.00  0.00     0.074 A 
ATOM     62  C   UNL     1      -5.583  21.285  10.751  1.00  0.00     0.031 C 
ATOM     63  C   UNL     1      -3.983  21.121  12.639  1.00  0.00     0.037 A 
BRANCH  50  64
ATOM     64  C   UNL     1       1.142  18.230  14.536  1.00  0.00     0.064 A 
ATOM     65  C   UNL     1       2.471  18.661  14.405  1.00  0.00     0.173 A 
ATOM     66  C   UNL     1       0.772  17.601  15.734  1.00  0.00     0.173 A 
ATOM     67  F   UNL     1       2.880  19.254  13.273  1.00  0.00    -0.203 F 
ATOM     68  C   UNL     1       3.400  18.444  15.419  1.00  0.00     0.198 A 
ATOM     69  C   UNL     1       1.696  17.412  16.759  1.00  0.00     0.198 A 
ATOM     70  F   UNL     1      -0.485  17.170  15.912  1.00  0.00    -0.203 F 
ATOM     71  F   UNL     1       4.675  18.818  15.249  1.00  0.00    -0.200 F 
ATOM     72  C   UNL     1       3.010  17.827  16.598  1.00  0.00     0.200 A 
ATOM     73  F   UNL     1       1.316  16.824  17.901  1.00  0.00    -0.200 F 
ATOM     74  F   UNL     1       3.903  17.623  17.576  1.00  0.00    -0.200 F 
ENDBRANCH  50  64
BRANCH  51  75
ATOM     75  C   UNL     1      -5.507  19.135   7.123  1.00  0.00     0.064 A 
ATOM     76  C   UNL     1      -5.604  20.320   6.380  1.00  0.00     0.173 A 
ATOM     77  C   UNL     1      -6.380  18.087   6.798  1.00  0.00     0.173 A 
ATOM     78  F   UNL     1      -4.801  21.356   6.665  1.00  0.00    -0.203 F 
ATOM     79  C   UNL     1      -6.551  20.460   5.368  1.00  0.00     0.198 A 
ATOM     80  C   UNL     1      -7.309  18.218   5.767  1.00  0.00     0.198 A 
ATOM     81  F   UNL     1      -6.322  16.930   7.473  1.00  0.00    -0.203 F 
ATOM     82  F   UNL     1      -6.652  21.619   4.704  1.00  0.00    -0.200 F 
ATOM     83  C   UNL     1      -7.399  19.407   5.059  1.00  0.00     0.200 A 
ATOM     84  F   UNL     1      -8.117  17.194   5.462  1.00  0.00    -0.200 F 
ATOM     85  F   UNL     1      -8.308  19.541   4.084  1.00  0.00    -0.200 F 
ENDBRANCH  51  75
BRANCH  63  86
ATOM     86  C   UNL     1      -4.798  22.163  13.349  1.00  0.00     0.064 A 
ATOM     87  C   UNL     1      -6.076  21.877  13.851  1.00  0.00     0.173 A 
ATOM     88  C   UNL     1      -4.291  23.457  13.537  1.00  0.00     0.173 A 
ATOM     89  F   UNL     1      -6.611  20.658  13.682  1.00  0.00    -0.203 F 
ATOM     90  C   UNL     1      -6.832  22.860  14.483  1.00  0.00     0.198 A 
ATOM     91  C   UNL     1      -5.037  24.428  14.198  1.00  0.00     0.198 A 
ATOM     92  F   UNL     1      -3.071  23.779  13.082  1.00  0.00    -0.203 F 
ATOM     93  F   UNL     1      -8.075  22.581  14.901  1.00  0.00    -0.200 F 
ATOM     94  C   UNL     1      -6.311  24.132  14.660  1.00  0.00     0.200 A 
ATOM     95  F   UNL     1      -4.527  25.654  14.380  1.00  0.00    -0.200 F 
ATOM     96  F   UNL     1      -7.041  25.078  15.268  1.00  0.00    -0.200 F 
ENDBRANCH  63  86
ENDBRANCH  37  38
ENDBRANCH  29  32
ENDBRANCH  27  28
ENDBRANCH  26  27
ENDBRANCH  25  26
ENDBRANCH  24  25
ENDBRANCH   3  24
TORSDOF 17
