REMARK SMILES CC[N@@H+](C[C@@H]1CCCO1)[C@@H](C)c1ccc(C(=O)NCCCCNC(=O)c2ccc(-c3c4nc(c(-c5c(F)c(F)c(F)c(F)c5F)c5ccc([nH]5)c(-c5c(F)c(F)c(F)c(F)c5F)c5nc(c(-c6c(F)c(F)c(F)c(F)c6F)c6ccc3[nH]6)C=C5)C=C4)cc2)o1
REMARK SMILES IDX 19 1 18 2 16 3 17 4 15 6 12 7 13 8 89 9 14 10 10 11 11 12
REMARK SMILES IDX 3 13 2 15 1 16 4 17 5 18 6 19 9 20 7 21 8 22 20 23 21 24
REMARK SMILES IDX 22 25 23 26 24 27 25 29 26 30 27 31 88 32 28 33 87 34 29 35
REMARK SMILES IDX 30 36 31 37 81 38 32 39 86 40 80 41 82 42 33 43 85 44 79 45
REMARK SMILES IDX 78 46 34 48 66 49 46 50 65 51 47 52 50 53 64 54 83 55 48 56
REMARK SMILES IDX 49 57 63 59 84 60 51 61 35 62 36 63 44 64 37 65 38 66 42 67
REMARK SMILES IDX 45 68 39 69 40 70 43 71 41 72 67 73 68 74 76 75 69 76 70 77
REMARK SMILES IDX 74 78 77 79 71 80 72 81 75 82 73 83 52 84 53 85 61 86 54 87
REMARK SMILES IDX 55 88 59 89 62 90 56 91 57 92 60 93 58 94
REMARK H PARENT 18 5 3 14 23 28 82 47 50 58
REMARK Flexibility Score: inf
ROOT
ATOM      1  C   UNL     1       4.789  -1.973   3.810  1.00  0.00     0.116 C 
ENDROOT
BRANCH   1   2
ATOM      2  N   UNL     1       4.188  -3.023   3.026  1.00  0.00    -0.349 N 
ATOM      3  C   UNL     1       3.644  -3.002   1.764  1.00  0.00     0.287 C 
ATOM      4  O   UNL     1       3.206  -4.085   1.366  1.00  0.00    -0.266 OA
ATOM      5  H   UNL     1       4.162  -3.901   3.469  1.00  0.00     0.163 HD
BRANCH   3   6
ATOM      6  C   UNL     1       3.602  -1.786   0.970  1.00  0.00     0.191 A 
ATOM      7  C   UNL     1       3.103  -0.694  -0.891  1.00  0.00     0.161 A 
ATOM      8  C   UNL     1       3.643   0.238  -0.035  1.00  0.00     0.053 A 
ATOM      9  O   UNL     1       3.115  -1.922  -0.309  1.00  0.00    -0.450 OA
ATOM     10  C   UNL     1       3.906  -0.448   1.170  1.00  0.00     0.057 A 
BRANCH   7  11
ATOM     11  C   UNL     1       2.517  -0.598  -2.264  1.00  0.00     0.248 C 
ATOM     12  C   UNL     1       3.429   0.321  -3.095  1.00  0.00     0.084 C 
BRANCH  11  13
ATOM     13  N   UNL     1       1.064  -0.311  -2.282  1.00  0.00    -0.324 N 
ATOM     14  H   UNL     1       0.797  -1.267  -2.046  1.00  0.00     0.348 HD
BRANCH  13  15
ATOM     15  C   UNL     1       0.419   0.408  -1.179  1.00  0.00     0.259 C 
ATOM     16  C   UNL     1       0.273  -0.334   0.151  1.00  0.00     0.071 C 
ENDBRANCH  13  15
BRANCH  13  17
ATOM     17  C   UNL     1       0.477   0.009  -3.597  1.00  0.00     0.295 C 
BRANCH  17  18
ATOM     18  C   UNL     1       0.739   1.391  -4.238  1.00  0.00     0.173 C 
ATOM     19  C   UNL     1       0.607   2.616  -3.351  1.00  0.00     0.040 C 
ATOM     20  O   UNL     1      -0.186   1.651  -5.316  1.00  0.00    -0.372 OA
ATOM     21  C   UNL     1       0.564   3.712  -4.383  1.00  0.00     0.031 C 
ATOM     22  C   UNL     1      -0.253   3.079  -5.493  1.00  0.00     0.161 C 
ENDBRANCH  17  18
ENDBRANCH  13  17
ENDBRANCH  11  13
ENDBRANCH   7  11
ENDBRANCH   3   6
ENDBRANCH   1   2
BRANCH   1  23
ATOM     23  C   UNL     1       3.757  -1.313   4.725  1.00  0.00     0.023 C 
BRANCH  23  24
ATOM     24  C   UNL     1       3.640  -1.995   6.091  1.00  0.00     0.023 C 
BRANCH  24  25
ATOM     25  C   UNL     1       4.936  -2.023   6.894  1.00  0.00     0.116 C 
BRANCH  25  26
ATOM     26  N   UNL     1       5.520  -0.707   7.099  1.00  0.00    -0.352 N 
ATOM     27  C   UNL     1       6.346  -0.296   8.120  1.00  0.00     0.251 C 
ATOM     28  H   UNL     1       5.296  -0.026   6.425  1.00  0.00     0.163 HD
ATOM     29  O   UNL     1       6.665   0.876   8.232  1.00  0.00    -0.269 OA
BRANCH  27  30
ATOM     30  C   UNL     1       6.799  -1.296   9.109  1.00  0.00     0.039 A 
ATOM     31  C   UNL     1       6.638  -1.013  10.465  1.00  0.00     0.014 A 
ATOM     32  C   UNL     1       7.327  -2.521   8.695  1.00  0.00     0.014 A 
ATOM     33  C   UNL     1       6.956  -1.989  11.408  1.00  0.00     0.010 A 
ATOM     34  C   UNL     1       7.558  -3.523   9.631  1.00  0.00     0.010 A 
ATOM     35  C   UNL     1       7.383  -3.265  10.997  1.00  0.00    -0.014 A 
BRANCH  35  36
ATOM     36  C   UNL     1       7.639  -4.329  11.999  1.00  0.00     0.031 A 
ATOM     37  C   UNL     1       9.018  -4.904  12.167  1.00  0.00     0.074 A 
ATOM     38  C   UNL     1       6.616  -4.795  12.741  1.00  0.00     0.049 A 
ATOM     39  N   UNL     1       9.440  -5.802  13.022  1.00  0.00    -0.248 NA
ATOM     40  C   UNL     1      10.055  -4.431  11.237  1.00  0.00     0.031 C 
ATOM     41  C   UNL     1       5.220  -4.371  12.615  1.00  0.00     0.029 A 
ATOM     42  N   UNL     1       6.591  -5.720  13.754  1.00  0.00    -0.354 N 
ATOM     43  C   UNL     1      10.783  -5.999  12.730  1.00  0.00     0.074 A 
ATOM     44  C   UNL     1      11.090  -5.184  11.576  1.00  0.00     0.031 C 
ATOM     45  C   UNL     1       4.484  -4.997  13.547  1.00  0.00     0.029 A 
ATOM     46  C   UNL     1       5.349  -5.889  14.313  1.00  0.00     0.049 A 
ATOM     47  H   UNL     1       7.389  -6.215  14.051  1.00  0.00     0.167 HD
ATOM     48  C   UNL     1      11.688  -6.765  13.386  1.00  0.00     0.037 A 
ATOM     49  C   UNL     1       4.955  -6.667  15.339  1.00  0.00     0.037 A 
ATOM     50  C   UNL     1      11.378  -7.565  14.543  1.00  0.00     0.049 A 
ATOM     51  C   UNL     1       5.982  -7.497  16.060  1.00  0.00     0.074 A 
ATOM     52  C   UNL     1      12.230  -8.336  15.313  1.00  0.00     0.029 A 
ATOM     53  N   UNL     1      10.111  -7.701  15.092  1.00  0.00    -0.354 N 
ATOM     54  N   UNL     1       7.269  -7.606  15.833  1.00  0.00    -0.248 NA
ATOM     55  C   UNL     1       5.503  -8.297  17.194  1.00  0.00     0.031 C 
ATOM     56  C   UNL     1      11.470  -8.981  16.295  1.00  0.00     0.029 A 
ATOM     57  C   UNL     1      10.155  -8.560  16.179  1.00  0.00     0.049 A 
ATOM     58  H   UNL     1       9.300  -7.253  14.759  1.00  0.00     0.167 HD
ATOM     59  C   UNL     1       7.758  -8.460  16.813  1.00  0.00     0.074 A 
ATOM     60  C   UNL     1       6.632  -8.819  17.650  1.00  0.00     0.031 C 
ATOM     61  C   UNL     1       9.025  -8.907  17.003  1.00  0.00     0.037 A 
BRANCH  48  62
ATOM     62  C   UNL     1      13.099  -6.769  12.870  1.00  0.00     0.064 A 
ATOM     63  C   UNL     1      13.917  -5.630  12.951  1.00  0.00     0.173 A 
ATOM     64  C   UNL     1      13.653  -7.932  12.315  1.00  0.00     0.173 A 
ATOM     65  F   UNL     1      13.434  -4.487  13.461  1.00  0.00    -0.203 F 
ATOM     66  C   UNL     1      15.223  -5.647  12.467  1.00  0.00     0.198 A 
ATOM     67  C   UNL     1      14.971  -7.955  11.864  1.00  0.00     0.198 A 
ATOM     68  F   UNL     1      12.919  -9.050  12.215  1.00  0.00    -0.203 F 
ATOM     69  F   UNL     1      15.964  -4.531  12.505  1.00  0.00    -0.200 F 
ATOM     70  C   UNL     1      15.751  -6.811  11.932  1.00  0.00     0.200 A 
ATOM     71  F   UNL     1      15.485  -9.086  11.360  1.00  0.00    -0.200 F 
ATOM     72  F   UNL     1      17.011  -6.829  11.475  1.00  0.00    -0.200 F 
ENDBRANCH  48  62
BRANCH  49  73
ATOM     73  C   UNL     1       3.533  -6.663  15.774  1.00  0.00     0.064 A 
ATOM     74  C   UNL     1       3.159  -6.128  17.016  1.00  0.00     0.173 A 
ATOM     75  C   UNL     1       2.521  -7.201  14.966  1.00  0.00     0.173 A 
ATOM     76  F   UNL     1       4.091  -5.617  17.833  1.00  0.00    -0.203 F 
ATOM     77  C   UNL     1       1.833  -6.159  17.444  1.00  0.00     0.198 A 
ATOM     78  C   UNL     1       1.191  -7.201  15.381  1.00  0.00     0.198 A 
ATOM     79  F   UNL     1       2.823  -7.716  13.765  1.00  0.00    -0.203 F 
ATOM     80  F   UNL     1       1.513  -5.691  18.658  1.00  0.00    -0.200 F 
ATOM     81  C   UNL     1       0.850  -6.690  16.624  1.00  0.00     0.200 A 
ATOM     82  F   UNL     1       0.241  -7.699  14.578  1.00  0.00    -0.200 F 
ATOM     83  F   UNL     1      -0.425  -6.717  17.035  1.00  0.00    -0.200 F 
ENDBRANCH  49  73
BRANCH  61  84
ATOM     84  C   UNL     1       9.262  -9.799  18.190  1.00  0.00     0.064 A 
ATOM     85  C   UNL     1       8.737 -11.099  18.258  1.00  0.00     0.173 A 
ATOM     86  C   UNL     1      10.029  -9.345  19.274  1.00  0.00     0.173 A 
ATOM     87  F   UNL     1       7.987 -11.578  17.254  1.00  0.00    -0.203 F 
ATOM     88  C   UNL     1       8.927 -11.890  19.388  1.00  0.00     0.198 A 
ATOM     89  C   UNL     1      10.250 -10.154  20.386  1.00  0.00     0.198 A 
ATOM     90  F   UNL     1      10.565  -8.116  19.257  1.00  0.00    -0.203 F 
ATOM     91  F   UNL     1       8.352 -13.098  19.462  1.00  0.00    -0.200 F 
ATOM     92  C   UNL     1       9.687 -11.419  20.448  1.00  0.00     0.200 A 
ATOM     93  F   UNL     1      11.000  -9.703  21.401  1.00  0.00    -0.200 F 
ATOM     94  F   UNL     1       9.866 -12.180  21.537  1.00  0.00    -0.200 F 
ENDBRANCH  61  84
ENDBRANCH  35  36
ENDBRANCH  27  30
ENDBRANCH  25  26
ENDBRANCH  24  25
ENDBRANCH  23  24
ENDBRANCH   1  23
TORSDOF 16
