REMARK SMILES CC(=O)NCCNC(=O)C[N@H+]1CC[C@@H](C(=O)NCCCCNC(=O)c2ccc(-c3c4nc(c(-c5c(F)c(F)c(F)c(F)c5F)c5ccc([nH]5)c(-c5c(F)c(F)c(F)c(F)c5F)c5nc(c(-c6c(F)c(F)c(F)c(F)c6F)c6ccc3[nH]6)C=C5)C=C4)cc2)[C@H]1C
REMARK SMILES IDX 18 1 17 2 15 3 16 4 14 6 11 7 12 8 88 9 13 11 89 12 10 13
REMARK SMILES IDX 8 14 7 15 9 17 6 18 5 19 4 20 1 21 2 22 3 23 19 25 20 26
REMARK SMILES IDX 21 27 22 28 23 29 24 31 25 32 26 33 87 34 27 35 86 36 28 37
REMARK SMILES IDX 29 38 30 39 80 40 31 41 85 42 79 43 81 44 32 45 84 46 78 47
REMARK SMILES IDX 77 48 33 50 65 51 45 52 64 53 46 54 49 55 63 56 82 57 47 58
REMARK SMILES IDX 48 59 62 61 83 62 50 63 34 64 35 65 43 66 36 67 37 68 41 69
REMARK SMILES IDX 44 70 38 71 39 72 42 73 40 74 66 75 67 76 75 77 68 78 69 79
REMARK SMILES IDX 73 80 76 81 70 82 71 83 74 84 72 85 51 86 52 87 60 88 53 89
REMARK SMILES IDX 54 90 58 91 61 92 55 93 56 94 59 95 57 96
REMARK H PARENT 17 5 11 10 7 16 4 24 22 30 81 49 49 60
REMARK Flexibility Score: inf
ROOT
ATOM      1  C   UNL     1       5.817   0.804  -4.498  1.00  0.00     0.116 C 
ENDROOT
BRANCH   1   2
ATOM      2  N   UNL     1       5.092   1.847  -5.186  1.00  0.00    -0.356 N 
ATOM      3  C   UNL     1       3.999   1.829  -5.981  1.00  0.00     0.229 C 
ATOM      4  O   UNL     1       3.736   2.898  -6.545  1.00  0.00    -0.275 OA
ATOM      5  H   UNL     1       5.468   2.746  -5.049  1.00  0.00     0.163 HD
BRANCH   3   6
ATOM      6  C   UNL     1       3.055   0.649  -6.151  1.00  0.00     0.142 C 
ATOM      7  N   UNL     1       2.742  -1.761  -6.120  1.00  0.00    -0.324 N 
ATOM      8  C   UNL     1       1.678  -1.081  -5.372  1.00  0.00     0.263 C 
ATOM      9  C   UNL     1       3.425  -0.664  -6.874  1.00  0.00     0.194 C 
ATOM     10  H   UNL     1       2.382  -2.464  -6.766  1.00  0.00     0.348 HD
ATOM     11  C   UNL     1       2.327   0.206  -4.892  1.00  0.00     0.081 C 
ATOM     12  C   UNL     1       4.869  -0.898  -7.282  1.00  0.00     0.076 C 
BRANCH   7  13
ATOM     13  C   UNL     1       3.620  -2.594  -5.268  1.00  0.00     0.363 C 
BRANCH  13  14
ATOM     14  C   UNL     1       2.839  -3.662  -4.480  1.00  0.00     0.275 C 
ATOM     15  N   UNL     1       2.625  -3.522  -3.133  1.00  0.00    -0.349 N 
ATOM     16  H   UNL     1       2.073  -4.230  -2.728  1.00  0.00     0.163 HD
ATOM     17  O   UNL     1       2.378  -4.666  -5.026  1.00  0.00    -0.269 OA
BRANCH  15  18
ATOM     18  C   UNL     1       3.078  -2.498  -2.202  1.00  0.00     0.137 C 
BRANCH  18  19
ATOM     19  C   UNL     1       1.965  -1.549  -1.737  1.00  0.00     0.137 C 
BRANCH  19  20
ATOM     20  N   UNL     1       1.059  -2.148  -0.775  1.00  0.00    -0.355 N 
ATOM     21  C   UNL     1       0.726  -0.063   0.496  1.00  0.00     0.114 C 
ATOM     22  C   UNL     1       0.407  -1.513   0.244  1.00  0.00     0.216 C 
ATOM     23  O   UNL     1      -0.410  -2.129   0.923  1.00  0.00    -0.275 OA
ATOM     24  H   UNL     1       0.897  -3.115  -0.867  1.00  0.00     0.163 HD
ENDBRANCH  19  20
ENDBRANCH  18  19
ENDBRANCH  15  18
ENDBRANCH  13  14
ENDBRANCH   7  13
ENDBRANCH   3   6
ENDBRANCH   1   2
BRANCH   1  25
ATOM     25  C   UNL     1       7.160   0.525  -5.178  1.00  0.00     0.023 C 
BRANCH  25  26
ATOM     26  C   UNL     1       8.175   1.663  -5.110  1.00  0.00     0.023 C 
BRANCH  26  27
ATOM     27  C   UNL     1       8.605   2.052  -3.706  1.00  0.00     0.116 C 
BRANCH  27  28
ATOM     28  N   UNL     1       9.200   0.946  -2.971  1.00  0.00    -0.352 N 
ATOM     29  C   UNL     1      10.424   0.869  -2.345  1.00  0.00     0.251 C 
ATOM     30  H   UNL     1       8.647   0.133  -2.914  1.00  0.00     0.163 HD
ATOM     31  O   UNL     1      10.825  -0.194  -1.901  1.00  0.00    -0.269 OA
BRANCH  29  32
ATOM     32  C   UNL     1      11.259   2.084  -2.245  1.00  0.00     0.039 A 
ATOM     33  C   UNL     1      12.614   2.005  -2.573  1.00  0.00     0.014 A 
ATOM     34  C   UNL     1      10.693   3.303  -1.864  1.00  0.00     0.014 A 
ATOM     35  C   UNL     1      13.385   3.169  -2.593  1.00  0.00     0.010 A 
ATOM     36  C   UNL     1      11.436   4.470  -1.977  1.00  0.00     0.010 A 
ATOM     37  C   UNL     1      12.791   4.415  -2.336  1.00  0.00    -0.014 A 
BRANCH  37  38
ATOM     38  C   UNL     1      13.566   5.677  -2.419  1.00  0.00     0.031 A 
ATOM     39  C   UNL     1      13.732   6.532  -1.194  1.00  0.00     0.074 A 
ATOM     40  C   UNL     1      14.042   6.094  -3.608  1.00  0.00     0.049 A 
ATOM     41  N   UNL     1      14.284   7.712  -1.074  1.00  0.00    -0.248 NA
ATOM     42  C   UNL     1      13.166   6.005   0.059  1.00  0.00     0.031 C 
ATOM     43  C   UNL     1      13.891   5.382  -4.878  1.00  0.00     0.029 A 
ATOM     44  N   UNL     1      14.741   7.226  -3.943  1.00  0.00    -0.354 N 
ATOM     45  C   UNL     1      14.108   8.076   0.254  1.00  0.00     0.074 A 
ATOM     46  C   UNL     1      13.346   7.023   0.886  1.00  0.00     0.031 C 
ATOM     47  C   UNL     1      14.502   6.079  -5.849  1.00  0.00     0.029 A 
ATOM     48  C   UNL     1      15.057   7.303  -5.278  1.00  0.00     0.049 A 
ATOM     49  H   UNL     1      14.992   7.918  -3.289  1.00  0.00     0.167 HD
ATOM     50  C   UNL     1      14.566   9.177   0.896  1.00  0.00     0.037 A 
ATOM     51  C   UNL     1      15.718   8.256  -5.961  1.00  0.00     0.037 A 
ATOM     52  C   UNL     1      15.360  10.201   0.271  1.00  0.00     0.049 A 
ATOM     53  C   UNL     1      16.235   9.460  -5.222  1.00  0.00     0.074 A 
ATOM     54  C   UNL     1      15.939  11.317   0.847  1.00  0.00     0.029 A 
ATOM     55  N   UNL     1      15.688  10.228  -1.077  1.00  0.00    -0.354 N 
ATOM     56  N   UNL     1      16.126   9.760  -3.950  1.00  0.00    -0.248 NA
ATOM     57  C   UNL     1      16.972  10.455  -6.012  1.00  0.00     0.031 C 
ATOM     58  C   UNL     1      16.585  12.042  -0.161  1.00  0.00     0.029 A 
ATOM     59  C   UNL     1      16.447  11.353  -1.356  1.00  0.00     0.049 A 
ATOM     60  H   UNL     1      15.422   9.549  -1.738  1.00  0.00     0.167 HD
ATOM     61  C   UNL     1      16.800  10.961  -3.782  1.00  0.00     0.074 A 
ATOM     62  C   UNL     1      17.328  11.328  -5.080  1.00  0.00     0.031 C 
ATOM     63  C   UNL     1      16.967  11.696  -2.655  1.00  0.00     0.037 A 
BRANCH  50  64
ATOM     64  C   UNL     1      14.223   9.321   2.350  1.00  0.00     0.064 A 
ATOM     65  C   UNL     1      14.773   8.471   3.324  1.00  0.00     0.173 A 
ATOM     66  C   UNL     1      13.345  10.327   2.780  1.00  0.00     0.173 A 
ATOM     67  F   UNL     1      15.606   7.483   2.965  1.00  0.00    -0.203 F 
ATOM     68  C   UNL     1      14.425   8.599   4.666  1.00  0.00     0.198 A 
ATOM     69  C   UNL     1      13.026  10.473   4.127  1.00  0.00     0.198 A 
ATOM     70  F   UNL     1      12.794  11.168   1.892  1.00  0.00    -0.203 F 
ATOM     71  F   UNL     1      14.915   7.737   5.567  1.00  0.00    -0.200 F 
ATOM     72  C   UNL     1      13.557   9.603   5.067  1.00  0.00     0.200 A 
ATOM     73  F   UNL     1      12.195  11.450   4.516  1.00  0.00    -0.200 F 
ATOM     74  F   UNL     1      13.225   9.725   6.360  1.00  0.00    -0.200 F 
ENDBRANCH  50  64
BRANCH  51  75
ATOM     75  C   UNL     1      15.962   8.090  -7.417  1.00  0.00     0.064 A 
ATOM     76  C   UNL     1      17.252   7.826  -7.900  1.00  0.00     0.173 A 
ATOM     77  C   UNL     1      14.921   8.181  -8.351  1.00  0.00     0.173 A 
ATOM     78  F   UNL     1      18.283   7.748  -7.046  1.00  0.00    -0.203 F 
ATOM     79  C   UNL     1      17.493   7.676  -9.264  1.00  0.00     0.198 A 
ATOM     80  C   UNL     1      15.159   8.005  -9.713  1.00  0.00     0.198 A 
ATOM     81  F   UNL     1      13.668   8.426  -7.939  1.00  0.00    -0.203 F 
ATOM     82  F   UNL     1      18.741   7.463  -9.701  1.00  0.00    -0.200 F 
ATOM     83  C   UNL     1      16.446   7.760 -10.169  1.00  0.00     0.200 A 
ATOM     84  F   UNL     1      14.142   8.073 -10.583  1.00  0.00    -0.200 F 
ATOM     85  F   UNL     1      16.677   7.609 -11.480  1.00  0.00    -0.200 F 
ENDBRANCH  51  75
BRANCH  63  86
ATOM     86  C   UNL     1      17.777  12.954  -2.769  1.00  0.00     0.064 A 
ATOM     87  C   UNL     1      17.274  14.095  -3.409  1.00  0.00     0.173 A 
ATOM     88  C   UNL     1      19.054  13.030  -2.192  1.00  0.00     0.173 A 
ATOM     89  F   UNL     1      16.065  14.066  -3.989  1.00  0.00    -0.203 F 
ATOM     90  C   UNL     1      18.030  15.261  -3.488  1.00  0.00     0.198 A 
ATOM     91  C   UNL     1      19.795  14.206  -2.247  1.00  0.00     0.198 A 
ATOM     92  F   UNL     1      19.576  11.966  -1.563  1.00  0.00    -0.203 F 
ATOM     93  F   UNL     1      17.548  16.327  -4.142  1.00  0.00    -0.200 F 
ATOM     94  C   UNL     1      19.286  15.319  -2.900  1.00  0.00     0.200 A 
ATOM     95  F   UNL     1      21.002  14.264  -1.668  1.00  0.00    -0.200 F 
ATOM     96  F   UNL     1      20.008  16.445  -2.970  1.00  0.00    -0.200 F 
ENDBRANCH  63  86
ENDBRANCH  37  38
ENDBRANCH  29  32
ENDBRANCH  27  28
ENDBRANCH  26  27
ENDBRANCH  25  26
ENDBRANCH   1  25
TORSDOF 16
