REMARK SMILES COc1ccc(/C=C/c2cc(OC)cc(OC)c2/C=C/C(=O)NCCCCNC(=O)c2ccc(-c3c4nc(c(-c5c(F)c(F)c(F)c(F)c5F)c5ccc([nH]5)c(-c5c(F)c(F)c(F)c(F)c5F)c5nc(c(-c6c(F)c(F)c(F)c(F)c6F)c6ccc3[nH]6)C=C5)C=C4)cc2)cc1
REMARK SMILES IDX 24 1 23 2 21 3 22 4 20 6 19 7 18 8 9 9 10 10 11 11 15 12
REMARK SMILES IDX 14 13 8 14 7 15 6 16 3 17 4 18 95 19 5 20 94 21 2 22 1 23
REMARK SMILES IDX 12 24 13 25 16 26 17 27 25 28 26 29 27 30 28 31 29 32 30 34
REMARK SMILES IDX 31 35 32 36 93 37 33 38 92 39 34 40 35 41 36 42 86 43 37 44
REMARK SMILES IDX 91 45 85 46 87 47 38 48 90 49 84 50 83 51 39 53 71 54 51 55
REMARK SMILES IDX 70 56 52 57 55 58 69 59 88 60 53 61 54 62 68 64 89 65 56 66
REMARK SMILES IDX 40 67 41 68 49 69 42 70 43 71 47 72 50 73 44 74 45 75 48 76
REMARK SMILES IDX 46 77 72 78 73 79 81 80 74 81 75 82 79 83 82 84 76 85 77 86
REMARK SMILES IDX 80 87 78 88 57 89 58 90 66 91 59 92 60 93 64 94 67 95 61 96
REMARK SMILES IDX 62 97 65 98 63 99
REMARK H PARENT 23 5 28 33 87 52 55 63
REMARK Flexibility Score: inf
ROOT
ATOM      1  C   UNL     1       4.441   2.918   5.304  1.00  0.00     0.116 C 
ENDROOT
BRANCH   1   2
ATOM      2  N   UNL     1       5.578   3.470   6.005  1.00  0.00    -0.353 N 
ATOM      3  C   UNL     1       5.861   3.374   7.331  1.00  0.00     0.244 C 
ATOM      4  O   UNL     1       6.876   3.878   7.800  1.00  0.00    -0.270 OA
ATOM      5  H   UNL     1       6.223   3.973   5.458  1.00  0.00     0.163 HD
BRANCH   3   6
ATOM      6  C   UNL     1       4.954   2.593   8.194  1.00  0.00     0.072 C 
ATOM      7  C   UNL     1       3.713   3.028   8.461  1.00  0.00     0.018 C 
BRANCH   7   8
ATOM      8  C   UNL     1       2.832   2.361   9.431  1.00  0.00     0.024 A 
ATOM      9  C   UNL     1       1.671   1.689   8.944  1.00  0.00    -0.011 A 
ATOM     10  C   UNL     1       0.767   1.104   9.850  1.00  0.00     0.055 A 
ATOM     11  C   UNL     1       0.969   1.187  11.222  1.00  0.00     0.123 A 
ATOM     12  C   UNL     1       3.044   2.418  10.827  1.00  0.00     0.130 A 
ATOM     13  C   UNL     1       2.114   1.816  11.694  1.00  0.00     0.093 A 
BRANCH   9  14
ATOM     14  C   UNL     1       1.249   1.624   7.525  1.00  0.00     0.009 C 
ATOM     15  C   UNL     1       1.826   0.852   6.587  1.00  0.00     0.009 C 
BRANCH  15  16
ATOM     16  C   UNL     1       1.389   0.729   5.176  1.00  0.00    -0.025 A 
ATOM     17  C   UNL     1       0.595   0.330   2.477  1.00  0.00     0.118 A 
ATOM     18  C   UNL     1      -0.225   1.016   3.372  1.00  0.00     0.047 A 
ATOM     19  C   UNL     1       1.830  -0.132   2.921  1.00  0.00     0.047 A 
ATOM     20  C   UNL     1       0.161   1.210   4.705  1.00  0.00     0.012 A 
ATOM     21  C   UNL     1       2.221   0.067   4.257  1.00  0.00     0.012 A 
BRANCH  17  22
ATOM     22  O   UNL     1       0.068   0.180   1.226  1.00  0.00    -0.497 OA
ATOM     23  C   UNL     1       0.871  -0.439   0.230  1.00  0.00     0.278 C 
ENDBRANCH  17  22
ENDBRANCH  15  16
ENDBRANCH   9  14
BRANCH  11  24
ATOM     24  O   UNL     1      -0.010   0.638  12.004  1.00  0.00    -0.497 OA
ATOM     25  C   UNL     1      -0.025   1.057  13.366  1.00  0.00     0.278 C 
ENDBRANCH  11  24
BRANCH  12  26
ATOM     26  O   UNL     1       4.021   3.021  11.573  1.00  0.00    -0.496 OA
ATOM     27  C   UNL     1       5.089   3.761  11.016  1.00  0.00     0.278 C 
ENDBRANCH  12  26
ENDBRANCH   7   8
ENDBRANCH   3   6
ENDBRANCH   1   2
BRANCH   1  28
ATOM     28  C   UNL     1       3.557   4.023   4.740  1.00  0.00     0.023 C 
BRANCH  28  29
ATOM     29  C   UNL     1       4.147   4.688   3.498  1.00  0.00     0.023 C 
BRANCH  29  30
ATOM     30  C   UNL     1       4.438   3.720   2.359  1.00  0.00     0.116 C 
BRANCH  30  31
ATOM     31  N   UNL     1       3.246   3.018   1.911  1.00  0.00    -0.352 N 
ATOM     32  C   UNL     1       2.876   2.737   0.621  1.00  0.00     0.251 C 
ATOM     33  H   UNL     1       2.634   2.707   2.616  1.00  0.00     0.163 HD
ATOM     34  O   UNL     1       1.716   2.481   0.338  1.00  0.00    -0.269 OA
BRANCH  32  35
ATOM     35  C   UNL     1       3.881   2.819  -0.451  1.00  0.00     0.039 A 
ATOM     36  C   UNL     1       3.485   3.384  -1.663  1.00  0.00     0.014 A 
ATOM     37  C   UNL     1       5.205   2.426  -0.240  1.00  0.00     0.014 A 
ATOM     38  C   UNL     1       4.446   3.681  -2.619  1.00  0.00     0.010 A 
ATOM     39  C   UNL     1       6.176   2.810  -1.151  1.00  0.00     0.010 A 
ATOM     40  C   UNL     1       5.802   3.467  -2.331  1.00  0.00    -0.014 A 
BRANCH  40  41
ATOM     41  C   UNL     1       6.843   3.988  -3.238  1.00  0.00     0.031 A 
ATOM     42  C   UNL     1       7.754   3.039  -3.949  1.00  0.00     0.074 A 
ATOM     43  C   UNL     1       6.979   5.322  -3.364  1.00  0.00     0.049 A 
ATOM     44  N   UNL     1       8.751   3.300  -4.751  1.00  0.00    -0.248 NA
ATOM     45  C   UNL     1       7.533   1.604  -3.706  1.00  0.00     0.031 C 
ATOM     46  C   UNL     1       6.165   6.324  -2.669  1.00  0.00     0.029 A 
ATOM     47  N   UNL     1       7.846   6.068  -4.117  1.00  0.00    -0.354 N 
ATOM     48  C   UNL     1       9.273   2.067  -5.109  1.00  0.00     0.074 A 
ATOM     49  C   UNL     1       8.532   1.060  -4.383  1.00  0.00     0.031 C 
ATOM     50  C   UNL     1       6.546   7.550  -3.058  1.00  0.00     0.029 A 
ATOM     51  C   UNL     1       7.662   7.423  -3.988  1.00  0.00     0.049 A 
ATOM     52  H   UNL     1       8.537   5.670  -4.696  1.00  0.00     0.167 HD
ATOM     53  C   UNL     1      10.265   1.804  -5.991  1.00  0.00     0.037 A 
ATOM     54  C   UNL     1       8.330   8.444  -4.554  1.00  0.00     0.037 A 
ATOM     55  C   UNL     1      10.988   2.825  -6.702  1.00  0.00     0.049 A 
ATOM     56  C   UNL     1       9.455   8.121  -5.500  1.00  0.00     0.074 A 
ATOM     57  C   UNL     1      11.996   2.678  -7.636  1.00  0.00     0.029 A 
ATOM     58  N   UNL     1      10.777   4.190  -6.547  1.00  0.00    -0.354 N 
ATOM     59  N   UNL     1       9.903   6.949  -5.884  1.00  0.00    -0.248 NA
ATOM     60  C   UNL     1      10.165   9.259  -6.096  1.00  0.00     0.031 C 
ATOM     61  C   UNL     1      12.433   3.953  -8.007  1.00  0.00     0.029 A 
ATOM     62  C   UNL     1      11.653   4.896  -7.354  1.00  0.00     0.049 A 
ATOM     63  H   UNL     1      10.105   4.594  -5.953  1.00  0.00     0.167 HD
ATOM     64  C   UNL     1      10.921   7.207  -6.789  1.00  0.00     0.074 A 
ATOM     65  C   UNL     1      11.015   8.648  -6.908  1.00  0.00     0.031 C 
ATOM     66  C   UNL     1      11.709   6.333  -7.463  1.00  0.00     0.037 A 
BRANCH  53  67
ATOM     67  C   UNL     1      10.619   0.365  -6.224  1.00  0.00     0.064 A 
ATOM     68  C   UNL     1       9.731  -0.517  -6.862  1.00  0.00     0.173 A 
ATOM     69  C   UNL     1      11.863  -0.140  -5.819  1.00  0.00     0.173 A 
ATOM     70  F   UNL     1       8.521  -0.090  -7.254  1.00  0.00    -0.203 F 
ATOM     71  C   UNL     1      10.062  -1.855  -7.054  1.00  0.00     0.198 A 
ATOM     72  C   UNL     1      12.205  -1.471  -6.044  1.00  0.00     0.198 A 
ATOM     73  F   UNL     1      12.750   0.657  -5.204  1.00  0.00    -0.203 F 
ATOM     74  F   UNL     1       9.174  -2.690  -7.610  1.00  0.00    -0.200 F 
ATOM     75  C   UNL     1      11.301  -2.329  -6.652  1.00  0.00     0.200 A 
ATOM     76  F   UNL     1      13.407  -1.925  -5.665  1.00  0.00    -0.200 F 
ATOM     77  F   UNL     1      11.621  -3.617  -6.841  1.00  0.00    -0.200 F 
ENDBRANCH  53  67
BRANCH  54  78
ATOM     78  C   UNL     1       7.948   9.851  -4.260  1.00  0.00     0.064 A 
ATOM     79  C   UNL     1       7.414  10.679  -5.258  1.00  0.00     0.173 A 
ATOM     80  C   UNL     1       8.121  10.404  -2.982  1.00  0.00     0.173 A 
ATOM     81  F   UNL     1       7.240  10.203  -6.500  1.00  0.00    -0.203 F 
ATOM     82  C   UNL     1       7.100  12.012  -4.999  1.00  0.00     0.198 A 
ATOM     83  C   UNL     1       7.775  11.728  -2.715  1.00  0.00     0.198 A 
ATOM     84  F   UNL     1       8.618   9.655  -1.986  1.00  0.00    -0.203 F 
ATOM     85  F   UNL     1       6.646  12.795  -5.987  1.00  0.00    -0.200 F 
ATOM     86  C   UNL     1       7.277  12.534  -3.727  1.00  0.00     0.200 A 
ATOM     87  F   UNL     1       7.930  12.222  -1.480  1.00  0.00    -0.200 F 
ATOM     88  F   UNL     1       6.977  13.816  -3.478  1.00  0.00    -0.200 F 
ENDBRANCH  54  78
BRANCH  66  89
ATOM     89  C   UNL     1      12.705   6.910  -8.425  1.00  0.00     0.064 A 
ATOM     90  C   UNL     1      13.846   7.598  -7.986  1.00  0.00     0.173 A 
ATOM     91  C   UNL     1      12.540   6.721  -9.806  1.00  0.00     0.173 A 
ATOM     92  F   UNL     1      14.040   7.818  -6.677  1.00  0.00    -0.203 F 
ATOM     93  C   UNL     1      14.773   8.095  -8.896  1.00  0.00     0.198 A 
ATOM     94  C   UNL     1      13.488   7.188 -10.711  1.00  0.00     0.198 A 
ATOM     95  F   UNL     1      11.470   6.064 -10.276  1.00  0.00    -0.203 F 
ATOM     96  F   UNL     1      15.831   8.791  -8.458  1.00  0.00    -0.200 F 
ATOM     97  C   UNL     1      14.600   7.881 -10.256  1.00  0.00     0.200 A 
ATOM     98  F   UNL     1      13.328   6.964 -12.022  1.00  0.00    -0.200 F 
ATOM     99  F   UNL     1      15.502   8.347 -11.130  1.00  0.00    -0.200 F 
ENDBRANCH  66  89
ENDBRANCH  40  41
ENDBRANCH  32  35
ENDBRANCH  30  31
ENDBRANCH  29  30
ENDBRANCH  28  29
ENDBRANCH   1  28
TORSDOF 17
