REMARK SMILES O=C(NCCCCNC(=O)C1([NH+]2CCOCC2)CCC1)c1ccc(-c2c3nc(c(-c4c(F)c(F)c(F)c(F)c4F)c4ccc([nH]4)c(-c4c(F)c(F)c(F)c(F)c4F)c4nc(c(-c5c(F)c(F)c(F)c(F)c5F)c5ccc2[nH]5)C=C4)C=C3)cc1
REMARK SMILES IDX 5 1 4 2 3 3 1 4 2 5 21 7 22 8 83 9 23 10 82 11 24 12 25 13
REMARK SMILES IDX 26 14 76 15 27 16 81 17 75 18 77 19 28 20 80 21 74 22 73 23
REMARK SMILES IDX 29 25 61 26 41 27 60 28 42 29 45 30 59 31 78 32 43 33 44 34
REMARK SMILES IDX 58 36 79 37 46 38 30 39 31 40 39 41 32 42 33 43 37 44 40 45
REMARK SMILES IDX 34 46 35 47 38 48 36 49 62 50 63 51 71 52 64 53 65 54 69 55
REMARK SMILES IDX 72 56 66 57 67 58 70 59 68 60 47 61 48 62 56 63 49 64 50 65
REMARK SMILES IDX 54 66 57 67 51 68 52 69 55 70 53 71 6 72 7 73 8 74 9 75
REMARK SMILES IDX 10 77 11 78 18 79 20 80 19 81 12 82 13 83 17 84 14 86 16 87
REMARK SMILES IDX 15 88
REMARK H PARENT 3 6 77 24 45 35 8 76 12 85
REMARK Flexibility Score: inf
ROOT
ATOM      1  C   UNL     1       4.948  -0.491   2.083  1.00  0.00     0.023 C 
ENDROOT
BRANCH   1   2
ATOM      2  C   UNL     1       4.515  -0.583   0.631  1.00  0.00     0.116 C 
BRANCH   2   3
ATOM      3  N   UNL     1       3.078  -0.757   0.478  1.00  0.00    -0.352 N 
ATOM      4  O   UNL     1       1.009  -0.252  -0.281  1.00  0.00    -0.269 OA
ATOM      5  C   UNL     1       2.218  -0.083  -0.354  1.00  0.00     0.251 C 
ATOM      6  H   UNL     1       2.669  -1.450   1.046  1.00  0.00     0.163 HD
BRANCH   5   7
ATOM      7  C   UNL     1       2.781   0.879  -1.319  1.00  0.00     0.039 A 
ATOM      8  C   UNL     1       3.871   0.517  -2.115  1.00  0.00     0.014 A 
ATOM      9  C   UNL     1       2.244   2.166  -1.383  1.00  0.00     0.014 A 
ATOM     10  C   UNL     1       4.516   1.483  -2.873  1.00  0.00     0.010 A 
ATOM     11  C   UNL     1       2.841   3.113  -2.212  1.00  0.00     0.010 A 
ATOM     12  C   UNL     1       3.996   2.784  -2.940  1.00  0.00    -0.014 A 
BRANCH  12  13
ATOM     13  C   UNL     1       4.629   3.783  -3.830  1.00  0.00     0.031 A 
ATOM     14  C   UNL     1       5.270   5.015  -3.268  1.00  0.00     0.074 A 
ATOM     15  C   UNL     1       4.589   3.571  -5.157  1.00  0.00     0.049 A 
ATOM     16  N   UNL     1       5.766   6.047  -3.901  1.00  0.00    -0.248 NA
ATOM     17  C   UNL     1       5.355   5.109  -1.803  1.00  0.00     0.031 C 
ATOM     18  C   UNL     1       3.991   2.400  -5.803  1.00  0.00     0.029 A 
ATOM     19  N   UNL     1       5.046   4.332  -6.200  1.00  0.00    -0.354 N 
ATOM     20  C   UNL     1       6.191   6.927  -2.916  1.00  0.00     0.074 A 
ATOM     21  C   UNL     1       5.887   6.313  -1.641  1.00  0.00     0.031 C 
ATOM     22  C   UNL     1       4.126   2.515  -7.130  1.00  0.00     0.029 A 
ATOM     23  C   UNL     1       4.753   3.797  -7.429  1.00  0.00     0.049 A 
ATOM     24  H   UNL     1       5.535   5.178  -6.080  1.00  0.00     0.167 HD
ATOM     25  C   UNL     1       6.779   8.138  -3.072  1.00  0.00     0.037 A 
ATOM     26  C   UNL     1       4.929   4.301  -8.663  1.00  0.00     0.037 A 
ATOM     27  C   UNL     1       7.091   8.723  -4.351  1.00  0.00     0.049 A 
ATOM     28  C   UNL     1       5.563   5.652  -8.809  1.00  0.00     0.074 A 
ATOM     29  C   UNL     1       7.727   9.922  -4.621  1.00  0.00     0.029 A 
ATOM     30  N   UNL     1       6.783   8.148  -5.577  1.00  0.00    -0.354 N 
ATOM     31  N   UNL     1       5.978   6.470  -7.874  1.00  0.00    -0.248 NA
ATOM     32  C   UNL     1       5.748   6.151 -10.176  1.00  0.00     0.031 C 
ATOM     33  C   UNL     1       7.764  10.093  -6.009  1.00  0.00     0.029 A 
ATOM     34  C   UNL     1       7.195   8.979  -6.606  1.00  0.00     0.049 A 
ATOM     35  H   UNL     1       6.338   7.278  -5.697  1.00  0.00     0.167 HD
ATOM     36  C   UNL     1       6.489   7.576  -8.534  1.00  0.00     0.074 A 
ATOM     37  C   UNL     1       6.338   7.319  -9.954  1.00  0.00     0.031 C 
ATOM     38  C   UNL     1       7.036   8.700  -8.012  1.00  0.00     0.037 A 
BRANCH  25  39
ATOM     39  C   UNL     1       7.088   8.925  -1.831  1.00  0.00     0.064 A 
ATOM     40  C   UNL     1       8.117   8.553  -0.953  1.00  0.00     0.173 A 
ATOM     41  C   UNL     1       6.356  10.084  -1.529  1.00  0.00     0.173 A 
ATOM     42  F   UNL     1       8.839   7.447  -1.189  1.00  0.00    -0.203 F 
ATOM     43  C   UNL     1       8.381   9.294   0.197  1.00  0.00     0.198 A 
ATOM     44  C   UNL     1       6.640  10.837  -0.393  1.00  0.00     0.198 A 
ATOM     45  F   UNL     1       5.366  10.488  -2.338  1.00  0.00    -0.203 F 
ATOM     46  F   UNL     1       9.336   8.892   1.047  1.00  0.00    -0.200 F 
ATOM     47  C   UNL     1       7.646  10.438   0.473  1.00  0.00     0.200 A 
ATOM     48  F   UNL     1       5.936  11.948  -0.134  1.00  0.00    -0.200 F 
ATOM     49  F   UNL     1       7.902  11.149   1.580  1.00  0.00    -0.200 F 
ENDBRANCH  25  39
BRANCH  26  50
ATOM     50  C   UNL     1       4.472   3.512  -9.832  1.00  0.00     0.064 A 
ATOM     51  C   UNL     1       5.390   2.866 -10.668  1.00  0.00     0.173 A 
ATOM     52  C   UNL     1       3.105   3.317 -10.081  1.00  0.00     0.173 A 
ATOM     53  F   UNL     1       6.706   3.032 -10.473  1.00  0.00    -0.203 F 
ATOM     54  C   UNL     1       4.957   2.048 -11.709  1.00  0.00     0.198 A 
ATOM     55  C   UNL     1       2.674   2.479 -11.106  1.00  0.00     0.198 A 
ATOM     56  F   UNL     1       2.189   3.905  -9.297  1.00  0.00    -0.203 F 
ATOM     57  F   UNL     1       5.854   1.448 -12.504  1.00  0.00    -0.200 F 
ATOM     58  C   UNL     1       3.601   1.846 -11.920  1.00  0.00     0.200 A 
ATOM     59  F   UNL     1       1.364   2.269 -11.291  1.00  0.00    -0.200 F 
ATOM     60  F   UNL     1       3.187   1.038 -12.905  1.00  0.00    -0.200 F 
ENDBRANCH  26  50
BRANCH  38  61
ATOM     61  C   UNL     1       7.541   9.726  -8.980  1.00  0.00     0.064 A 
ATOM     62  C   UNL     1       6.665  10.571  -9.675  1.00  0.00     0.173 A 
ATOM     63  C   UNL     1       8.920   9.903  -9.167  1.00  0.00     0.173 A 
ATOM     64  F   UNL     1       5.338  10.426  -9.541  1.00  0.00    -0.203 F 
ATOM     65  C   UNL     1       7.153  11.552 -10.533  1.00  0.00     0.198 A 
ATOM     66  C   UNL     1       9.404  10.899 -10.007  1.00  0.00     0.198 A 
ATOM     67  F   UNL     1       9.795   9.119  -8.520  1.00  0.00    -0.203 F 
ATOM     68  F   UNL     1       6.300  12.331 -11.213  1.00  0.00    -0.200 F 
ATOM     69  C   UNL     1       8.521  11.721 -10.692  1.00  0.00     0.200 A 
ATOM     70  F   UNL     1      10.726  11.068 -10.152  1.00  0.00    -0.200 F 
ATOM     71  F   UNL     1       8.989  12.675 -11.509  1.00  0.00    -0.200 F 
ENDBRANCH  38  61
ENDBRANCH  12  13
ENDBRANCH   5   7
ENDBRANCH   2   3
ENDBRANCH   1   2
BRANCH   1  72
ATOM     72  C   UNL     1       4.555  -1.690   2.938  1.00  0.00     0.023 C 
BRANCH  72  73
ATOM     73  C   UNL     1       5.175  -3.020   2.506  1.00  0.00     0.116 C 
BRANCH  73  74
ATOM     74  N   UNL     1       6.568  -3.072   2.891  1.00  0.00    -0.351 N 
ATOM     75  C   UNL     1       7.172  -3.673   3.976  1.00  0.00     0.281 C 
ATOM     76  H   UNL     1       7.183  -2.605   2.281  1.00  0.00     0.163 HD
ATOM     77  O   UNL     1       8.383  -3.427   4.090  1.00  0.00    -0.268 OA
BRANCH  75  78
ATOM     78  C   UNL     1       6.368  -4.679   4.950  1.00  0.00     0.177 C 
ATOM     79  C   UNL     1       6.528  -6.167   4.492  1.00  0.00     0.079 C 
ATOM     80  C   UNL     1       7.125  -5.088   6.255  1.00  0.00     0.079 C 
ATOM     81  C   UNL     1       6.879  -6.569   5.933  1.00  0.00     0.014 C 
BRANCH  78  82
ATOM     82  N   UNL     1       4.961  -4.302   5.261  1.00  0.00    -0.318 N 
ATOM     83  C   UNL     1       4.803  -3.033   5.989  1.00  0.00     0.291 C 
ATOM     84  C   UNL     1       3.951  -5.285   5.661  1.00  0.00     0.291 C 
ATOM     85  H   UNL     1       4.702  -4.193   4.280  1.00  0.00     0.349 HD
ATOM     86  C   UNL     1       4.426  -3.138   7.473  1.00  0.00     0.221 C 
ATOM     87  C   UNL     1       3.654  -5.329   7.167  1.00  0.00     0.221 C 
ATOM     88  O   UNL     1       3.326  -4.030   7.668  1.00  0.00    -0.370 OA
ENDBRANCH  78  82
ENDBRANCH  75  78
ENDBRANCH  73  74
ENDBRANCH  72  73
ENDBRANCH   1  72
TORSDOF 12
