REMARK SMILES CN(C)C(=O)Nc1cccc(/C=C/C(=O)NCCCCNC(=O)c2ccc(-c3c4nc(c(-c5c(F)c(F)c(F)c(F)c5F)c5ccc([nH]5)c(-c5c(F)c(F)c(F)c(F)c5F)c5nc(c(-c6c(F)c(F)c(F)c(F)c6F)c6ccc3[nH]6)C=C5)C=C4)cc2)n1
REMARK SMILES IDX 18 1 17 2 16 3 14 4 15 5 13 7 12 8 11 9 7 10 8 11 87 12 9 13
REMARK SMILES IDX 10 14 6 15 1 16 2 17 3 18 4 19 5 20 19 22 20 23 21 24 22 25
REMARK SMILES IDX 23 27 24 28 25 29 86 30 26 31 85 32 27 33 28 34 29 35 79 36
REMARK SMILES IDX 30 37 84 38 78 39 80 40 31 41 83 42 77 43 76 44 32 46 64 47
REMARK SMILES IDX 44 48 63 49 45 50 48 51 62 52 81 53 46 54 47 55 61 57 82 58
REMARK SMILES IDX 49 59 33 60 34 61 42 62 35 63 36 64 40 65 43 66 37 67 38 68
REMARK SMILES IDX 41 69 39 70 65 71 66 72 74 73 67 74 68 75 72 76 75 77 69 78
REMARK SMILES IDX 70 79 73 80 71 81 50 82 51 83 59 84 52 85 53 86 57 87 60 88
REMARK SMILES IDX 54 89 55 90 58 91 56 92
REMARK H PARENT 16 6 6 21 21 26 80 45 48 56
REMARK Flexibility Score: inf
ROOT
ATOM      1  C   UNL     1      -2.416  -7.360   7.341  1.00  0.00     0.023 C 
ENDROOT
BRANCH   1   2
ATOM      2  C   UNL     1      -1.034  -6.709   7.447  1.00  0.00     0.116 C 
BRANCH   2   3
ATOM      3  N   UNL     1      -0.015  -7.564   6.873  1.00  0.00    -0.353 N 
ATOM      4  C   UNL     1       0.613  -7.526   5.666  1.00  0.00     0.244 C 
ATOM      5  O   UNL     1       1.513  -8.333   5.442  1.00  0.00    -0.270 OA
ATOM      6  H   UNL     1       0.274  -8.301   7.458  1.00  0.00     0.163 HD
BRANCH   4   7
ATOM      7  C   UNL     1       0.299  -6.491   4.652  1.00  0.00     0.073 C 
ATOM      8  C   UNL     1      -0.918  -5.991   4.394  1.00  0.00     0.034 C 
BRANCH   8   9
ATOM      9  C   UNL     1      -1.202  -4.951   3.403  1.00  0.00     0.066 A 
ATOM     10  C   UNL     1      -0.535  -3.760   1.547  1.00  0.00     0.134 A 
ATOM     11  C   UNL     1      -1.713  -3.023   1.541  1.00  0.00     0.047 A 
ATOM     12  N   UNL     1      -0.296  -4.756   2.422  1.00  0.00    -0.231 NA
ATOM     13  C   UNL     1      -2.635  -3.233   2.558  1.00  0.00     0.006 A 
ATOM     14  C   UNL     1      -2.367  -4.198   3.519  1.00  0.00     0.028 A 
BRANCH  10  15
ATOM     15  N   UNL     1       0.501  -3.507   0.659  1.00  0.00    -0.292 N 
ATOM     16  C   UNL     1       1.012   0.013  -0.270  1.00  0.00     0.148 C 
ATOM     17  N   UNL     1       0.636  -1.137   0.533  1.00  0.00    -0.331 N 
ATOM     18  C   UNL     1       0.374  -0.848   1.939  1.00  0.00     0.148 C 
ATOM     19  C   UNL     1       0.861  -2.387  -0.013  1.00  0.00     0.322 C 
ATOM     20  O   UNL     1       1.479  -2.525  -1.073  1.00  0.00    -0.248 OA
ATOM     21  H   UNL     1       1.080  -4.284   0.485  1.00  0.00     0.173 HD
ENDBRANCH  10  15
ENDBRANCH   8   9
ENDBRANCH   4   7
ENDBRANCH   2   3
ENDBRANCH   1   2
BRANCH   1  22
ATOM     22  C   UNL     1      -2.696  -8.424   8.404  1.00  0.00     0.023 C 
BRANCH  22  23
ATOM     23  C   UNL     1      -2.645  -7.922   9.841  1.00  0.00     0.116 C 
BRANCH  23  24
ATOM     24  N   UNL     1      -3.541  -6.804  10.092  1.00  0.00    -0.352 N 
ATOM     25  C   UNL     1      -4.201  -6.478  11.250  1.00  0.00     0.251 C 
ATOM     26  H   UNL     1      -3.694  -6.200   9.330  1.00  0.00     0.163 HD
ATOM     27  O   UNL     1      -5.018  -5.562  11.258  1.00  0.00    -0.269 OA
BRANCH  25  28
ATOM     28  C   UNL     1      -3.954  -7.264  12.476  1.00  0.00     0.039 A 
ATOM     29  C   UNL     1      -5.048  -7.681  13.234  1.00  0.00     0.014 A 
ATOM     30  C   UNL     1      -2.655  -7.603  12.865  1.00  0.00     0.014 A 
ATOM     31  C   UNL     1      -4.841  -8.483  14.356  1.00  0.00     0.010 A 
ATOM     32  C   UNL     1      -2.457  -8.474  13.931  1.00  0.00     0.010 A 
ATOM     33  C   UNL     1      -3.547  -8.912  14.696  1.00  0.00    -0.014 A 
BRANCH  33  34
ATOM     34  C   UNL     1      -3.333  -9.819  15.851  1.00  0.00     0.031 A 
ATOM     35  C   UNL     1      -2.527  -9.369  17.037  1.00  0.00     0.074 A 
ATOM     36  C   UNL     1      -3.840 -11.066  15.813  1.00  0.00     0.049 A 
ATOM     37  N   UNL     1      -2.270 -10.007  18.152  1.00  0.00    -0.248 NA
ATOM     38  C   UNL     1      -1.899  -8.042  16.950  1.00  0.00     0.031 C 
ATOM     39  C   UNL     1      -4.566 -11.646  14.682  1.00  0.00     0.029 A 
ATOM     40  N   UNL     1      -3.821 -12.071  16.746  1.00  0.00    -0.354 N 
ATOM     41  C   UNL     1      -1.445  -9.166  18.887  1.00  0.00     0.074 A 
ATOM     42  C   UNL     1      -1.190  -8.002  18.068  1.00  0.00     0.031 C 
ATOM     43  C   UNL     1      -4.956 -12.890  15.001  1.00  0.00     0.029 A 
ATOM     44  C   UNL     1      -4.481 -13.206  16.345  1.00  0.00     0.049 A 
ATOM     45  H   UNL     1      -3.378 -11.986  17.621  1.00  0.00     0.167 HD
ATOM     46  C   UNL     1      -0.967  -9.338  20.143  1.00  0.00     0.037 A 
ATOM     47  C   UNL     1      -4.686 -14.370  16.990  1.00  0.00     0.037 A 
ATOM     48  C   UNL     1      -1.243 -10.492  20.958  1.00  0.00     0.049 A 
ATOM     49  C   UNL     1      -4.176 -14.525  18.396  1.00  0.00     0.074 A 
ATOM     50  C   UNL     1      -0.878 -10.728  22.271  1.00  0.00     0.029 A 
ATOM     51  N   UNL     1      -1.942 -11.612  20.530  1.00  0.00    -0.354 N 
ATOM     52  N   UNL     1      -3.490 -13.678  19.126  1.00  0.00    -0.248 NA
ATOM     53  C   UNL     1      -4.486 -15.789  19.077  1.00  0.00     0.031 C 
ATOM     54  C   UNL     1      -1.300 -12.017  22.617  1.00  0.00     0.029 A 
ATOM     55  C   UNL     1      -1.991 -12.556  21.544  1.00  0.00     0.049 A 
ATOM     56  H   UNL     1      -2.344 -11.720  19.637  1.00  0.00     0.167 HD
ATOM     57  C   UNL     1      -3.309 -14.293  20.357  1.00  0.00     0.074 A 
ATOM     58  C   UNL     1      -3.973 -15.579  20.281  1.00  0.00     0.031 C 
ATOM     59  C   UNL     1      -2.654 -13.834  21.453  1.00  0.00     0.037 A 
BRANCH  46  60
ATOM     60  C   UNL     1      -0.089  -8.255  20.706  1.00  0.00     0.064 A 
ATOM     61  C   UNL     1      -0.584  -6.973  20.996  1.00  0.00     0.173 A 
ATOM     62  C   UNL     1       1.264  -8.507  20.979  1.00  0.00     0.173 A 
ATOM     63  F   UNL     1      -1.868  -6.672  20.747  1.00  0.00    -0.203 F 
ATOM     64  C   UNL     1       0.250  -5.976  21.496  1.00  0.00     0.198 A 
ATOM     65  C   UNL     1       2.087  -7.519  21.514  1.00  0.00     0.198 A 
ATOM     66  F   UNL     1       1.791  -9.715  20.728  1.00  0.00    -0.203 F 
ATOM     67  F   UNL     1      -0.232  -4.742  21.702  1.00  0.00    -0.200 F 
ATOM     68  C   UNL     1       1.583  -6.251  21.760  1.00  0.00     0.200 A 
ATOM     69  F   UNL     1       3.371  -7.792  21.783  1.00  0.00    -0.200 F 
ATOM     70  F   UNL     1       2.384  -5.292  22.244  1.00  0.00    -0.200 F 
ENDBRANCH  46  60
BRANCH  47  71
ATOM     71  C   UNL     1      -5.441 -15.460  16.317  1.00  0.00     0.064 A 
ATOM     72  C   UNL     1      -6.727 -15.821  16.741  1.00  0.00     0.173 A 
ATOM     73  C   UNL     1      -4.901 -16.144  15.218  1.00  0.00     0.173 A 
ATOM     74  F   UNL     1      -7.281 -15.207  17.797  1.00  0.00    -0.203 F 
ATOM     75  C   UNL     1      -7.437 -16.837  16.103  1.00  0.00     0.198 A 
ATOM     76  C   UNL     1      -5.624 -17.137  14.561  1.00  0.00     0.198 A 
ATOM     77  F   UNL     1      -3.678 -15.828  14.765  1.00  0.00    -0.203 F 
ATOM     78  F   UNL     1      -8.648 -17.190  16.554  1.00  0.00    -0.200 F 
ATOM     79  C   UNL     1      -6.888 -17.488  15.009  1.00  0.00     0.200 A 
ATOM     80  F   UNL     1      -5.097 -17.750  13.492  1.00  0.00    -0.200 F 
ATOM     81  F   UNL     1      -7.576 -18.456  14.388  1.00  0.00    -0.200 F 
ENDBRANCH  47  71
BRANCH  59  82
ATOM     82  C   UNL     1      -2.654 -14.710  22.673  1.00  0.00     0.064 A 
ATOM     83  C   UNL     1      -1.938 -15.916  22.720  1.00  0.00     0.173 A 
ATOM     84  C   UNL     1      -3.355 -14.320  23.824  1.00  0.00     0.173 A 
ATOM     85  F   UNL     1      -1.261 -16.343  21.643  1.00  0.00    -0.203 F 
ATOM     86  C   UNL     1      -1.954 -16.714  23.861  1.00  0.00     0.198 A 
ATOM     87  C   UNL     1      -3.339 -15.102  24.975  1.00  0.00     0.198 A 
ATOM     88  F   UNL     1      -4.049 -13.171  23.837  1.00  0.00    -0.203 F 
ATOM     89  F   UNL     1      -1.312 -17.891  23.862  1.00  0.00    -0.200 F 
ATOM     90  C   UNL     1      -2.648 -16.303  24.990  1.00  0.00     0.200 A 
ATOM     91  F   UNL     1      -3.995 -14.693  26.070  1.00  0.00    -0.200 F 
ATOM     92  F   UNL     1      -2.656 -17.070  26.089  1.00  0.00    -0.200 F 
ENDBRANCH  59  82
ENDBRANCH  33  34
ENDBRANCH  25  28
ENDBRANCH  23  24
ENDBRANCH  22  23
ENDBRANCH   1  22
TORSDOF 13
