REMARK SMILES CC(C)C[NH+]1CC[NH+]([C@H](C)[C@@H](C)C(=O)NCCCCNC(=O)c2ccc(-c3c4nc(c(-c5c(F)c(F)c(F)c(F)c5F)c5ccc([nH]5)c(-c5c(F)c(F)c(F)c(F)c5F)c5nc(c(-c6c(F)c(F)c(F)c(F)c6F)c6ccc3[nH]6)C=C5)C=C4)cc2)CC1
REMARK SMILES IDX 16 1 15 2 13 3 14 4 11 6 12 7 9 8 10 9 8 10 5 11 6 12 87 13
REMARK SMILES IDX 7 15 86 16 4 18 2 19 1 20 3 21 17 22 18 23 19 24 20 25 21 26
REMARK SMILES IDX 22 28 23 29 24 30 85 31 25 32 84 33 26 34 27 35 28 36 78 37
REMARK SMILES IDX 29 38 83 39 77 40 79 41 30 42 82 43 76 44 75 45 31 47 63 48
REMARK SMILES IDX 43 49 62 50 44 51 47 52 61 53 80 54 45 55 46 56 60 58 81 59
REMARK SMILES IDX 48 60 32 61 33 62 41 63 34 64 35 65 39 66 42 67 36 68 37 69
REMARK SMILES IDX 40 70 38 71 64 72 65 73 73 74 66 75 67 76 71 77 74 78 68 79
REMARK SMILES IDX 69 80 72 81 70 82 49 83 50 84 58 85 51 86 52 87 56 88 59 89
REMARK SMILES IDX 53 90 54 91 57 92 55 93
REMARK H PARENT 15 5 5 14 8 17 20 27 79 46 47 57
REMARK Flexibility Score: inf
ROOT
ATOM      1  C   UNL     1      -4.854   5.029  -1.027  1.00  0.00     0.116 C 
ENDROOT
BRANCH   1   2
ATOM      2  N   UNL     1      -5.676   4.177  -1.863  1.00  0.00    -0.356 N 
ATOM      3  C   UNL     1      -5.922   2.839  -1.818  1.00  0.00     0.228 C 
ATOM      4  O   UNL     1      -6.705   2.385  -2.659  1.00  0.00    -0.275 OA
ATOM      5  H   UNL     1      -6.138   4.649  -2.593  1.00  0.00     0.163 HD
BRANCH   3   6
ATOM      6  C   UNL     1      -5.331   1.925  -0.744  1.00  0.00     0.133 C 
ATOM      7  C   UNL     1      -5.935   2.267   0.623  1.00  0.00     0.024 C 
BRANCH   6   8
ATOM      8  C   UNL     1      -3.779   1.851  -0.792  1.00  0.00     0.193 C 
ATOM      9  C   UNL     1      -3.193   1.052   0.389  1.00  0.00     0.076 C 
BRANCH   8  10
ATOM     10  N   UNL     1      -3.288   1.408  -2.122  1.00  0.00    -0.323 N 
ATOM     11  N   UNL     1      -1.455  -0.310  -3.776  1.00  0.00    -0.325 N 
ATOM     12  C   UNL     1      -2.926  -0.535  -3.753  1.00  0.00     0.324 C 
ATOM     13  C   UNL     1      -1.294   1.151  -3.653  1.00  0.00     0.324 C 
ATOM     14  H   UNL     1      -0.993  -0.627  -4.628  1.00  0.00     0.348 HD
ATOM     15  C   UNL     1      -3.640   0.022  -2.490  1.00  0.00     0.324 C 
ATOM     16  C   UNL     1      -1.872   1.739  -2.350  1.00  0.00     0.324 C 
ATOM     17  H   UNL     1      -3.820   1.971  -2.786  1.00  0.00     0.348 HD
BRANCH  11  18
ATOM     18  C   UNL     1      -0.820  -1.096  -2.696  1.00  0.00     0.265 C 
BRANCH  18  19
ATOM     19  C   UNL     1       0.723  -1.234  -2.681  1.00  0.00     0.038 C 
ATOM     20  C   UNL     1       1.494   0.062  -2.436  1.00  0.00     0.013 C 
ATOM     21  C   UNL     1       1.102  -2.232  -1.574  1.00  0.00     0.013 C 
ENDBRANCH  18  19
ENDBRANCH  11  18
ENDBRANCH   8  10
ENDBRANCH   6   8
ENDBRANCH   3   6
ENDBRANCH   1   2
BRANCH   1  22
ATOM     22  C   UNL     1      -3.595   5.506  -1.748  1.00  0.00     0.023 C 
BRANCH  22  23
ATOM     23  C   UNL     1      -3.836   6.500  -2.882  1.00  0.00     0.023 C 
BRANCH  23  24
ATOM     24  C   UNL     1      -4.627   7.745  -2.498  1.00  0.00     0.116 C 
BRANCH  24  25
ATOM     25  N   UNL     1      -4.038   8.488  -1.392  1.00  0.00    -0.352 N 
ATOM     26  C   UNL     1      -3.891   9.848  -1.250  1.00  0.00     0.251 C 
ATOM     27  H   UNL     1      -3.700   7.943  -0.645  1.00  0.00     0.163 HD
ATOM     28  O   UNL     1      -3.289  10.318  -0.294  1.00  0.00    -0.269 OA
BRANCH  26  29
ATOM     29  C   UNL     1      -4.430  10.736  -2.299  1.00  0.00     0.039 A 
ATOM     30  C   UNL     1      -3.577  11.667  -2.896  1.00  0.00     0.014 A 
ATOM     31  C   UNL     1      -5.748  10.591  -2.740  1.00  0.00     0.014 A 
ATOM     32  C   UNL     1      -4.016  12.386  -4.009  1.00  0.00     0.010 A 
ATOM     33  C   UNL     1      -6.162  11.259  -3.886  1.00  0.00     0.010 A 
ATOM     34  C   UNL     1      -5.292  12.145  -4.543  1.00  0.00    -0.014 A 
BRANCH  34  35
ATOM     35  C   UNL     1      -5.728  12.764  -5.818  1.00  0.00     0.031 A 
ATOM     36  C   UNL     1      -6.880  13.725  -5.833  1.00  0.00     0.074 A 
ATOM     37  C   UNL     1      -5.149  12.380  -6.971  1.00  0.00     0.049 A 
ATOM     38  N   UNL     1      -7.490  14.268  -6.855  1.00  0.00    -0.248 NA
ATOM     39  C   UNL     1      -7.435  14.104  -4.525  1.00  0.00     0.031 C 
ATOM     40  C   UNL     1      -4.045  11.425  -7.088  1.00  0.00     0.029 A 
ATOM     41  N   UNL     1      -5.422  12.731  -8.270  1.00  0.00    -0.354 N 
ATOM     42  C   UNL     1      -8.508  15.041  -6.315  1.00  0.00     0.074 A 
ATOM     43  C   UNL     1      -8.463  14.861  -4.880  1.00  0.00     0.031 C 
ATOM     44  C   UNL     1      -3.725  11.279  -8.383  1.00  0.00     0.029 A 
ATOM     45  C   UNL     1      -4.628  12.092  -9.191  1.00  0.00     0.049 A 
ATOM     46  H   UNL     1      -6.120  13.380  -8.518  1.00  0.00     0.167 HD
ATOM     47  C   UNL     1      -9.388  15.843  -6.960  1.00  0.00     0.037 A 
ATOM     48  C   UNL     1      -4.639  12.144 -10.536  1.00  0.00     0.037 A 
ATOM     49  C   UNL     1      -9.417  16.033  -8.386  1.00  0.00     0.049 A 
ATOM     50  C   UNL     1      -5.653  13.012 -11.229  1.00  0.00     0.074 A 
ATOM     51  C   UNL     1     -10.226  16.875  -9.129  1.00  0.00     0.029 A 
ATOM     52  N   UNL     1      -8.602  15.364  -9.287  1.00  0.00    -0.354 N 
ATOM     53  N   UNL     1      -6.573  13.785 -10.708  1.00  0.00    -0.248 NA
ATOM     54  C   UNL     1      -5.633  13.007 -12.699  1.00  0.00     0.031 C 
ATOM     55  C   UNL     1      -9.928  16.685 -10.483  1.00  0.00     0.029 A 
ATOM     56  C   UNL     1      -8.907  15.754 -10.582  1.00  0.00     0.049 A 
ATOM     57  H   UNL     1      -7.909  14.708  -9.043  1.00  0.00     0.167 HD
ATOM     58  C   UNL     1      -7.229  14.374 -11.780  1.00  0.00     0.074 A 
ATOM     59  C   UNL     1      -6.593  13.878 -12.983  1.00  0.00     0.031 C 
ATOM     60  C   UNL     1      -8.264  15.248 -11.767  1.00  0.00     0.037 A 
BRANCH  47  61
ATOM     61  C   UNL     1     -10.392  16.577  -6.122  1.00  0.00     0.064 A 
ATOM     62  C   UNL     1     -10.014  17.643  -5.291  1.00  0.00     0.173 A 
ATOM     63  C   UNL     1     -11.750  16.227  -6.166  1.00  0.00     0.173 A 
ATOM     64  F   UNL     1      -8.726  18.007  -5.205  1.00  0.00    -0.203 F 
ATOM     65  C   UNL     1     -10.954  18.311  -4.511  1.00  0.00     0.198 A 
ATOM     66  C   UNL     1     -12.691  16.915  -5.405  1.00  0.00     0.198 A 
ATOM     67  F   UNL     1     -12.164  15.218  -6.947  1.00  0.00    -0.203 F 
ATOM     68  F   UNL     1     -10.562  19.293  -3.688  1.00  0.00    -0.200 F 
ATOM     69  C   UNL     1     -12.292  17.950  -4.573  1.00  0.00     0.200 A 
ATOM     70  F   UNL     1     -13.985  16.573  -5.472  1.00  0.00    -0.200 F 
ATOM     71  F   UNL     1     -13.196  18.596  -3.823  1.00  0.00    -0.200 F 
ENDBRANCH  47  61
BRANCH  48  72
ATOM     72  C   UNL     1      -3.647  11.361 -11.315  1.00  0.00     0.064 A 
ATOM     73  C   UNL     1      -2.598  12.003 -11.985  1.00  0.00     0.173 A 
ATOM     74  C   UNL     1      -3.719   9.963 -11.398  1.00  0.00     0.173 A 
ATOM     75  F   UNL     1      -2.502  13.340 -11.951  1.00  0.00    -0.203 F 
ATOM     76  C   UNL     1      -1.662  11.278 -12.718  1.00  0.00     0.198 A 
ATOM     77  C   UNL     1      -2.769   9.236 -12.113  1.00  0.00     0.198 A 
ATOM     78  F   UNL     1      -4.704   9.302 -10.773  1.00  0.00    -0.203 F 
ATOM     79  F   UNL     1      -0.687  11.919 -13.377  1.00  0.00    -0.200 F 
ATOM     80  C   UNL     1      -1.744   9.895 -12.777  1.00  0.00     0.200 A 
ATOM     81  F   UNL     1      -2.845   7.899 -12.158  1.00  0.00    -0.200 F 
ATOM     82  F   UNL     1      -0.840   9.197 -13.477  1.00  0.00    -0.200 F 
ENDBRANCH  48  72
BRANCH  60  83
ATOM     83  C   UNL     1      -8.763  15.739 -13.093  1.00  0.00     0.064 A 
ATOM     84  C   UNL     1      -9.536  14.923 -13.931  1.00  0.00     0.173 A 
ATOM     85  C   UNL     1      -8.507  17.055 -13.506  1.00  0.00     0.173 A 
ATOM     86  F   UNL     1      -9.791  13.652 -13.587  1.00  0.00    -0.203 F 
ATOM     87  C   UNL     1     -10.023  15.404 -15.144  1.00  0.00     0.198 A 
ATOM     88  C   UNL     1      -9.017  17.540 -14.707  1.00  0.00     0.198 A 
ATOM     89  F   UNL     1      -7.776  17.875 -12.737  1.00  0.00    -0.203 F 
ATOM     90  F   UNL     1     -10.730  14.596 -15.946  1.00  0.00    -0.200 F 
ATOM     91  C   UNL     1      -9.771  16.713 -15.526  1.00  0.00     0.200 A 
ATOM     92  F   UNL     1      -8.781  18.808 -15.070  1.00  0.00    -0.200 F 
ATOM     93  F   UNL     1     -10.250  17.177 -16.689  1.00  0.00    -0.200 F 
ENDBRANCH  60  83
ENDBRANCH  34  35
ENDBRANCH  26  29
ENDBRANCH  24  25
ENDBRANCH  23  24
ENDBRANCH  22  23
ENDBRANCH   1  22
TORSDOF 15
