REMARK SMILES C[C@@H]1[C@H](C)CCC[C@H]1NC(=O)C[N@@H+]1CCC[C@@H]1C(=O)NCCCCNC(=O)c1ccc(-c2c3nc(c(-c4c(F)c(F)c(F)c(F)c4F)c4ccc([nH]4)c(-c4c(F)c(F)c(F)c(F)c4F)c4nc(c(-c5c(F)c(F)c(F)c(F)c5F)c5ccc2[nH]5)C=C4)C=C3)cc1
REMARK SMILES IDX 22 1 21 2 20 3 18 4 19 5 17 7 13 8 14 9 15 11 16 12 12 13
REMARK SMILES IDX 10 14 9 15 11 17 8 18 1 19 2 20 3 21 4 22 5 23 7 24 6 25
REMARK SMILES IDX 23 26 24 27 25 28 26 29 27 31 28 32 29 33 90 34 30 35 89 36
REMARK SMILES IDX 31 37 32 38 33 39 83 40 34 41 88 42 82 43 84 44 35 45 87 46
REMARK SMILES IDX 81 47 80 48 36 50 68 51 48 52 67 53 49 54 52 55 66 56 85 57
REMARK SMILES IDX 50 58 51 59 65 61 86 62 53 63 37 64 38 65 46 66 39 67 40 68
REMARK SMILES IDX 44 69 47 70 41 71 42 72 45 73 43 74 69 75 70 76 78 77 71 78
REMARK SMILES IDX 72 79 76 80 79 81 73 82 74 83 77 84 75 85 54 86 55 87 63 88
REMARK SMILES IDX 56 89 57 90 61 91 64 92 58 93 59 94 62 95 60 96
REMARK H PARENT 20 6 13 10 9 16 25 30 84 49 52 60
REMARK Flexibility Score: inf
ROOT
ATOM      1  C   UNL     1      -3.966   3.402   6.362  1.00  0.00     0.023 C 
ENDROOT
BRANCH   1   2
ATOM      2  C   UNL     1      -3.589   2.461   5.230  1.00  0.00     0.116 C 
BRANCH   2   3
ATOM      3  N   UNL     1      -3.219   3.144   4.012  1.00  0.00    -0.351 N 
ATOM      4  C   UNL     1      -2.115   2.991   3.224  1.00  0.00     0.278 C 
ATOM      5  O   UNL     1      -2.139   3.560   2.127  1.00  0.00    -0.268 OA
ATOM      6  H   UNL     1      -3.861   3.824   3.703  1.00  0.00     0.163 HD
BRANCH   4   7
ATOM      7  C   UNL     1      -0.888   2.158   3.645  1.00  0.00     0.274 C 
ATOM      8  N   UNL     1      -1.014   0.683   3.575  1.00  0.00    -0.317 N 
ATOM      9  C   UNL     1      -0.307   0.116   4.725  1.00  0.00     0.263 C 
ATOM     10  H   UNL     1      -0.569   0.397   2.702  1.00  0.00     0.349 HD
ATOM     11  C   UNL     1      -0.217   1.210   5.774  1.00  0.00     0.068 C 
ATOM     12  C   UNL     1      -0.279   2.513   4.997  1.00  0.00     0.081 C 
BRANCH   8  13
ATOM     13  C   UNL     1      -2.339   0.111   3.325  1.00  0.00     0.364 C 
BRANCH  13  14
ATOM     14  C   UNL     1      -2.259  -1.369   2.949  1.00  0.00     0.275 C 
ATOM     15  N   UNL     1      -1.763  -1.733   1.733  1.00  0.00    -0.348 N 
ATOM     16  H   UNL     1      -1.853  -2.686   1.504  1.00  0.00     0.163 HD
ATOM     17  O   UNL     1      -2.673  -2.247   3.709  1.00  0.00    -0.268 OA
BRANCH  15  18
ATOM     18  C   UNL     1      -1.114  -0.897   0.722  1.00  0.00     0.085 C 
ATOM     19  C   UNL     1       1.149  -0.010   0.008  1.00  0.00     0.010 C 
ATOM     20  C   UNL     1       0.415  -1.142   0.740  1.00  0.00     0.011 C 
ATOM     21  C   UNL     1       0.752  -2.554   0.189  1.00  0.00    -0.009 C 
ATOM     22  C   UNL     1       2.254  -2.839   0.157  1.00  0.00     0.008 C 
ATOM     23  C   UNL     1       0.128  -2.802  -1.192  1.00  0.00     0.004 C 
ATOM     24  C   UNL     1      -1.733  -1.169  -0.654  1.00  0.00     0.025 C 
ATOM     25  C   UNL     1      -1.377  -2.549  -1.200  1.00  0.00     0.002 C 
ENDBRANCH  15  18
ENDBRANCH  13  14
ENDBRANCH   8  13
ENDBRANCH   4   7
ENDBRANCH   2   3
ENDBRANCH   1   2
BRANCH   1  26
ATOM     26  C   UNL     1      -5.314   4.098   6.193  1.00  0.00     0.023 C 
BRANCH  26  27
ATOM     27  C   UNL     1      -6.495   3.187   5.869  1.00  0.00     0.116 C 
BRANCH  27  28
ATOM     28  N   UNL     1      -6.656   2.076   6.797  1.00  0.00    -0.352 N 
ATOM     29  C   UNL     1      -7.811   1.578   7.354  1.00  0.00     0.251 C 
ATOM     30  H   UNL     1      -5.825   1.619   7.062  1.00  0.00     0.163 HD
ATOM     31  O   UNL     1      -7.769   0.676   8.183  1.00  0.00    -0.269 OA
BRANCH  29  32
ATOM     32  C   UNL     1      -9.105   2.181   6.980  1.00  0.00     0.039 A 
ATOM     33  C   UNL     1      -9.950   2.636   7.995  1.00  0.00     0.014 A 
ATOM     34  C   UNL     1      -9.445   2.359   5.637  1.00  0.00     0.014 A 
ATOM     35  C   UNL     1     -11.096   3.359   7.660  1.00  0.00     0.010 A 
ATOM     36  C   UNL     1     -10.550   3.137   5.308  1.00  0.00     0.010 A 
ATOM     37  C   UNL     1     -11.376   3.658   6.317  1.00  0.00    -0.014 A 
BRANCH  37  38
ATOM     38  C   UNL     1     -12.508   4.544   5.948  1.00  0.00     0.031 A 
ATOM     39  C   UNL     1     -13.650   4.011   5.132  1.00  0.00     0.074 A 
ATOM     40  C   UNL     1     -12.455   5.852   6.268  1.00  0.00     0.049 A 
ATOM     41  N   UNL     1     -14.680   4.649   4.637  1.00  0.00    -0.248 NA
ATOM     42  C   UNL     1     -13.615   2.578   4.802  1.00  0.00     0.031 C 
ATOM     43  C   UNL     1     -11.364   6.504   6.995  1.00  0.00     0.029 A 
ATOM     44  N   UNL     1     -13.332   6.875   6.004  1.00  0.00    -0.354 N 
ATOM     45  C   UNL     1     -15.398   3.703   3.917  1.00  0.00     0.074 A 
ATOM     46  C   UNL     1     -14.668   2.457   4.007  1.00  0.00     0.031 C 
ATOM     47  C   UNL     1     -11.639   7.811   7.126  1.00  0.00     0.029 A 
ATOM     48  C   UNL     1     -12.910   8.098   6.467  1.00  0.00     0.049 A 
ATOM     49  H   UNL     1     -14.184   6.745   5.527  1.00  0.00     0.167 HD
ATOM     50  C   UNL     1     -16.569   3.860   3.257  1.00  0.00     0.037 A 
ATOM     51  C   UNL     1     -13.478   9.314   6.362  1.00  0.00     0.037 A 
ATOM     52  C   UNL     1     -17.317   5.088   3.213  1.00  0.00     0.049 A 
ATOM     53  C   UNL     1     -14.802   9.448   5.659  1.00  0.00     0.074 A 
ATOM     54  C   UNL     1     -18.566   5.317   2.663  1.00  0.00     0.029 A 
ATOM     55  N   UNL     1     -16.883   6.295   3.739  1.00  0.00    -0.354 N 
ATOM     56  N   UNL     1     -15.520   8.525   5.067  1.00  0.00    -0.248 NA
ATOM     57  C   UNL     1     -15.398  10.790   5.617  1.00  0.00     0.031 C 
ATOM     58  C   UNL     1     -18.870   6.673   2.820  1.00  0.00     0.029 A 
ATOM     59  C   UNL     1     -17.829   7.279   3.504  1.00  0.00     0.049 A 
ATOM     60  H   UNL     1     -16.029   6.433   4.209  1.00  0.00     0.167 HD
ATOM     61  C   UNL     1     -16.659   9.168   4.603  1.00  0.00     0.074 A 
ATOM     62  C   UNL     1     -16.547  10.556   4.998  1.00  0.00     0.031 C 
ATOM     63  C   UNL     1     -17.704   8.654   3.910  1.00  0.00     0.037 A 
BRANCH  50  64
ATOM     64  C   UNL     1     -17.128   2.671   2.534  1.00  0.00     0.064 A 
ATOM     65  C   UNL     1     -17.686   1.586   3.224  1.00  0.00     0.173 A 
ATOM     66  C   UNL     1     -17.160   2.647   1.131  1.00  0.00     0.173 A 
ATOM     67  F   UNL     1     -17.669   1.558   4.565  1.00  0.00    -0.203 F 
ATOM     68  C   UNL     1     -18.240   0.509   2.537  1.00  0.00     0.198 A 
ATOM     69  C   UNL     1     -17.738   1.581   0.448  1.00  0.00     0.198 A 
ATOM     70  F   UNL     1     -16.644   3.663   0.425  1.00  0.00    -0.203 F 
ATOM     71  F   UNL     1     -18.736  -0.534   3.217  1.00  0.00    -0.200 F 
ATOM     72  C   UNL     1     -18.274   0.511   1.150  1.00  0.00     0.200 A 
ATOM     73  F   UNL     1     -17.781   1.589  -0.892  1.00  0.00    -0.200 F 
ATOM     74  F   UNL     1     -18.819  -0.519   0.491  1.00  0.00    -0.200 F 
ENDBRANCH  50  64
BRANCH  51  75
ATOM     75  C   UNL     1     -12.807  10.504   6.947  1.00  0.00     0.064 A 
ATOM     76  C   UNL     1     -13.336  11.148   8.074  1.00  0.00     0.173 A 
ATOM     77  C   UNL     1     -11.637  11.031   6.382  1.00  0.00     0.173 A 
ATOM     78  F   UNL     1     -14.465  10.693   8.637  1.00  0.00    -0.203 F 
ATOM     79  C   UNL     1     -12.735  12.290   8.598  1.00  0.00     0.198 A 
ATOM     80  C   UNL     1     -11.021  12.158   6.924  1.00  0.00     0.198 A 
ATOM     81  F   UNL     1     -11.088  10.448   5.306  1.00  0.00    -0.203 F 
ATOM     82  F   UNL     1     -13.289  12.916   9.646  1.00  0.00    -0.200 F 
ATOM     83  C   UNL     1     -11.576  12.792   8.025  1.00  0.00     0.200 A 
ATOM     84  F   UNL     1      -9.895  12.632   6.375  1.00  0.00    -0.200 F 
ATOM     85  F   UNL     1     -10.999  13.892   8.528  1.00  0.00    -0.200 F 
ENDBRANCH  51  75
BRANCH  63  86
ATOM     86  C   UNL     1     -18.819   9.591   3.554  1.00  0.00     0.064 A 
ATOM     87  C   UNL     1     -18.671  10.559   2.550  1.00  0.00     0.173 A 
ATOM     88  C   UNL     1     -20.063   9.492   4.196  1.00  0.00     0.173 A 
ATOM     89  F   UNL     1     -17.495  10.703   1.921  1.00  0.00    -0.203 F 
ATOM     90  C   UNL     1     -19.722  11.407   2.215  1.00  0.00     0.198 A 
ATOM     91  C   UNL     1     -21.120  10.323   3.839  1.00  0.00     0.198 A 
ATOM     92  F   UNL     1     -20.256   8.578   5.159  1.00  0.00    -0.203 F 
ATOM     93  F   UNL     1     -19.546  12.353   1.282  1.00  0.00    -0.200 F 
ATOM     94  C   UNL     1     -20.947  11.284   2.854  1.00  0.00     0.200 A 
ATOM     95  F   UNL     1     -22.306  10.195   4.449  1.00  0.00    -0.200 F 
ATOM     96  F   UNL     1     -21.960  12.097   2.525  1.00  0.00    -0.200 F 
ENDBRANCH  63  86
ENDBRANCH  37  38
ENDBRANCH  29  32
ENDBRANCH  27  28
ENDBRANCH  26  27
ENDBRANCH   1  26
TORSDOF 14
