REMARK SMILES N#CCCn1cc(/C=C/c2cc(C(=O)NCCCCNC(=O)c3ccc(-c4c5nc(c(-c6c(F)c(F)c(F)c(F)c6F)c6ccc([nH]6)c(-c6c(F)c(F)c(F)c(F)c6F)c6nc(c(-c7c(F)c(F)c(F)c(F)c7F)c7ccc4[nH]7)C=C6)C=C5)cc3)c3ccccc3n2)c(-c2ccccc2)n1
REMARK SMILES IDX 16 1 15 2 13 3 14 4 12 6 10 7 11 8 92 9 91 10 86 11 90 12
REMARK SMILES IDX 87 13 89 14 88 15 9 16 8 17 7 18 5 19 6 20 100 21 93 22 4 23
REMARK SMILES IDX 3 24 2 25 1 26 94 27 95 28 99 29 96 30 98 31 97 32 17 33
REMARK SMILES IDX 18 34 19 35 20 36 21 37 22 39 23 40 24 41 85 42 25 43 84 44
REMARK SMILES IDX 26 45 27 46 28 47 78 48 29 49 83 50 77 51 79 52 30 53 82 54
REMARK SMILES IDX 76 55 75 56 31 58 63 59 43 60 62 61 44 62 47 63 61 64 80 65
REMARK SMILES IDX 45 66 46 67 60 69 81 70 48 71 32 72 33 73 41 74 34 75 35 76
REMARK SMILES IDX 39 77 42 78 36 79 37 80 40 81 38 82 64 83 65 84 73 85 66 86
REMARK SMILES IDX 67 87 71 88 74 89 68 90 69 91 72 92 70 93 49 94 50 95 58 96
REMARK SMILES IDX 51 97 52 98 56 99 59 100 53 101 54 102 57 103 55 104
REMARK H PARENT 15 5 20 38 79 57 47 68
REMARK Flexibility Score: inf
ROOT
ATOM      1  C   UNL     1       1.546   1.986 -13.688  1.00  0.00     0.116 C 
ENDROOT
BRANCH   1   2
ATOM      2  N   UNL     1       2.266   2.723 -12.670  1.00  0.00    -0.352 N 
ATOM      3  C   UNL     1       2.280   2.757 -11.302  1.00  0.00     0.252 C 
ATOM      4  O   UNL     1       2.930   3.701 -10.833  1.00  0.00    -0.269 OA
ATOM      5  H   UNL     1       2.907   3.360 -13.061  1.00  0.00     0.163 HD
BRANCH   3   6
ATOM      6  C   UNL     1       1.715   1.757 -10.333  1.00  0.00     0.051 A 
ATOM      7  C   UNL     1       2.113   0.843  -8.129  1.00  0.00     0.065 A 
ATOM      8  C   UNL     1       2.490   1.680  -9.161  1.00  0.00     0.042 A 
ATOM      9  N   UNL     1       1.064   0.013  -8.226  1.00  0.00    -0.248 NA
ATOM     10  C   UNL     1       0.299   0.074  -9.317  1.00  0.00     0.072 A 
ATOM     11  C   UNL     1       0.529   0.971 -10.390  1.00  0.00     0.013 A 
ATOM     12  C   UNL     1      -0.797  -0.778  -9.335  1.00  0.00     0.029 A 
ATOM     13  C   UNL     1      -0.487   1.027 -11.368  1.00  0.00     0.011 A 
ATOM     14  C   UNL     1      -1.720  -0.773 -10.375  1.00  0.00     0.002 A 
ATOM     15  C   UNL     1      -1.574   0.150 -11.391  1.00  0.00     0.001 A 
BRANCH   7  16
ATOM     16  C   UNL     1       2.812   0.910  -6.845  1.00  0.00     0.029 C 
ATOM     17  C   UNL     1       2.463   0.220  -5.746  1.00  0.00     0.014 C 
BRANCH  17  18
ATOM     18  C   UNL     1       3.078   0.381  -4.470  1.00  0.00     0.021 A 
ATOM     19  N   UNL     1       3.893  -0.081  -2.505  1.00  0.00    -0.270 N 
ATOM     20  C   UNL     1       3.247  -0.638  -3.564  1.00  0.00     0.117 A 
ATOM     21  N   UNL     1       4.171   1.225  -2.655  1.00  0.00    -0.172 NA
ATOM     22  C   UNL     1       3.622   1.544  -3.840  1.00  0.00     0.100 A 
BRANCH  19  23
ATOM     23  C   UNL     1       4.269  -0.754  -1.278  1.00  0.00     0.159 C 
BRANCH  23  24
ATOM     24  C   UNL     1       3.719  -0.067  -0.042  1.00  0.00     0.144 C 
BRANCH  24  25
ATOM     25  C   UNL     1       2.199  -0.067  -0.042  1.00  0.00     0.064 C 
ATOM     26  N   UNL     1       0.938  -0.067  -0.042  1.00  0.00    -0.198 NA
ENDBRANCH  24  25
ENDBRANCH  23  24
ENDBRANCH  19  23
BRANCH  22  27
ATOM     27  C   UNL     1       3.643   2.913  -4.349  1.00  0.00     0.003 A 
ATOM     28  C   UNL     1       2.451   3.541  -4.742  1.00  0.00     0.010 A 
ATOM     29  C   UNL     1       4.862   3.569  -4.547  1.00  0.00     0.010 A 
ATOM     30  C   UNL     1       2.486   4.786  -5.373  1.00  0.00     0.001 A 
ATOM     31  C   UNL     1       4.894   4.814  -5.179  1.00  0.00     0.001 A 
ATOM     32  C   UNL     1       3.708   5.415  -5.602  1.00  0.00     0.000 A 
ENDBRANCH  22  27
ENDBRANCH  17  18
ENDBRANCH   7  16
ENDBRANCH   3   6
ENDBRANCH   1   2
BRANCH   1  33
ATOM     33  C   UNL     1       0.316   2.797 -14.132  1.00  0.00     0.023 C 
BRANCH  33  34
ATOM     34  C   UNL     1       0.532   3.778 -15.287  1.00  0.00     0.023 C 
BRANCH  34  35
ATOM     35  C   UNL     1       0.513   3.125 -16.663  1.00  0.00     0.116 C 
BRANCH  35  36
ATOM     36  N   UNL     1      -0.747   2.437 -16.941  1.00  0.00    -0.352 N 
ATOM     37  C   UNL     1      -0.955   1.347 -17.754  1.00  0.00     0.251 C 
ATOM     38  H   UNL     1      -1.545   2.799 -16.490  1.00  0.00     0.163 HD
ATOM     39  O   UNL     1      -2.076   1.015 -18.124  1.00  0.00    -0.269 OA
BRANCH  37  40
ATOM     40  C   UNL     1       0.225   0.587 -18.179  1.00  0.00     0.039 A 
ATOM     41  C   UNL     1       0.560   0.512 -19.532  1.00  0.00     0.014 A 
ATOM     42  C   UNL     1       1.073   0.095 -17.187  1.00  0.00     0.014 A 
ATOM     43  C   UNL     1       1.814   0.023 -19.886  1.00  0.00     0.010 A 
ATOM     44  C   UNL     1       2.345  -0.307 -17.537  1.00  0.00     0.010 A 
ATOM     45  C   UNL     1       2.722  -0.355 -18.885  1.00  0.00    -0.014 A 
BRANCH  45  46
ATOM     46  C   UNL     1       4.104  -0.687 -19.248  1.00  0.00     0.031 A 
ATOM     47  C   UNL     1       4.889   0.348 -20.000  1.00  0.00     0.074 A 
ATOM     48  C   UNL     1       4.754  -1.749 -18.727  1.00  0.00     0.049 A 
ATOM     49  N   UNL     1       5.562   0.213 -21.100  1.00  0.00    -0.248 NA
ATOM     50  C   UNL     1       4.917   1.717 -19.460  1.00  0.00     0.031 C 
ATOM     51  C   UNL     1       4.281  -2.694 -17.710  1.00  0.00     0.029 A 
ATOM     52  N   UNL     1       6.051  -2.124 -18.914  1.00  0.00    -0.354 N 
ATOM     53  C   UNL     1       6.204   1.433 -21.333  1.00  0.00     0.074 A 
ATOM     54  C   UNL     1       5.706   2.345 -20.335  1.00  0.00     0.031 C 
ATOM     55  C   UNL     1       5.335  -3.367 -17.201  1.00  0.00     0.029 A 
ATOM     56  C   UNL     1       6.515  -3.029 -17.975  1.00  0.00     0.049 A 
ATOM     57  H   UNL     1       6.608  -1.781 -19.650  1.00  0.00     0.167 HD
ATOM     58  C   UNL     1       7.212   1.569 -22.243  1.00  0.00     0.037 A 
ATOM     59  C   UNL     1       7.788  -3.450 -17.810  1.00  0.00     0.037 A 
ATOM     60  C   UNL     1       7.232   0.476 -23.176  1.00  0.00     0.049 A 
ATOM     61  C   UNL     1       8.524  -3.177 -19.066  1.00  0.00     0.074 A 
ATOM     62  C   UNL     1       6.356  -0.015 -24.122  1.00  0.00     0.029 A 
ATOM     63  N   UNL     1       8.187  -0.497 -23.025  1.00  0.00    -0.354 N 
ATOM     64  N   UNL     1       8.296  -3.786 -20.197  1.00  0.00    -0.248 NA
ATOM     65  C   UNL     1       9.271  -1.934 -19.165  1.00  0.00     0.031 C 
ATOM     66  C   UNL     1       6.543  -1.428 -24.098  1.00  0.00     0.029 A 
ATOM     67  C   UNL     1       7.543  -1.697 -23.163  1.00  0.00     0.049 A 
ATOM     68  H   UNL     1       9.146  -0.359 -22.852  1.00  0.00     0.167 HD
ATOM     69  C   UNL     1       8.498  -2.816 -21.166  1.00  0.00     0.074 A 
ATOM     70  C   UNL     1       9.210  -1.740 -20.484  1.00  0.00     0.031 C 
ATOM     71  C   UNL     1       7.829  -2.857 -22.354  1.00  0.00     0.037 A 
BRANCH  58  72
ATOM     72  C   UNL     1       8.369   2.538 -22.148  1.00  0.00     0.064 A 
ATOM     73  C   UNL     1       9.253   2.679 -23.242  1.00  0.00     0.173 A 
ATOM     74  C   UNL     1       8.817   3.098 -20.935  1.00  0.00     0.173 A 
ATOM     75  F   UNL     1       8.940   2.175 -24.446  1.00  0.00    -0.203 F 
ATOM     76  C   UNL     1      10.519   3.257 -23.106  1.00  0.00     0.198 A 
ATOM     77  C   UNL     1      10.061   3.721 -20.816  1.00  0.00     0.198 A 
ATOM     78  F   UNL     1       8.122   2.968 -19.799  1.00  0.00    -0.203 F 
ATOM     79  F   UNL     1      11.370   3.249 -24.142  1.00  0.00    -0.200 F 
ATOM     80  C   UNL     1      10.925   3.771 -21.890  1.00  0.00     0.200 A 
ATOM     81  F   UNL     1      10.445   4.203 -19.625  1.00  0.00    -0.200 F 
ATOM     82  F   UNL     1      12.160   4.267 -21.739  1.00  0.00    -0.200 F 
ENDBRANCH  58  72
BRANCH  59  83
ATOM     83  C   UNL     1       8.450  -3.845 -16.551  1.00  0.00     0.064 A 
ATOM     84  C   UNL     1       9.581  -4.672 -16.548  1.00  0.00     0.173 A 
ATOM     85  C   UNL     1       8.122  -3.216 -15.334  1.00  0.00     0.173 A 
ATOM     86  F   UNL     1       9.983  -5.268 -17.679  1.00  0.00    -0.203 F 
ATOM     87  C   UNL     1      10.348  -4.853 -15.393  1.00  0.00     0.198 A 
ATOM     88  C   UNL     1       8.882  -3.403 -14.180  1.00  0.00     0.198 A 
ATOM     89  F   UNL     1       7.107  -2.341 -15.265  1.00  0.00    -0.203 F 
ATOM     90  F   UNL     1      11.453  -5.609 -15.437  1.00  0.00    -0.200 F 
ATOM     91  C   UNL     1      10.002  -4.213 -14.213  1.00  0.00     0.200 A 
ATOM     92  F   UNL     1       8.556  -2.751 -13.055  1.00  0.00    -0.200 F 
ATOM     93  F   UNL     1      10.767  -4.344 -13.120  1.00  0.00    -0.200 F 
ENDBRANCH  59  83
BRANCH  71  94
ATOM     94  C   UNL     1       7.091  -4.114 -22.710  1.00  0.00     0.064 A 
ATOM     95  C   UNL     1       5.979  -4.591 -21.995  1.00  0.00     0.173 A 
ATOM     96  C   UNL     1       7.405  -4.752 -23.917  1.00  0.00     0.173 A 
ATOM     97  F   UNL     1       5.552  -3.970 -20.890  1.00  0.00    -0.203 F 
ATOM     98  C   UNL     1       5.241  -5.681 -22.451  1.00  0.00     0.198 A 
ATOM     99  C   UNL     1       6.645  -5.819 -24.388  1.00  0.00     0.198 A 
ATOM    100  F   UNL     1       8.418  -4.299 -24.673  1.00  0.00    -0.203 F 
ATOM    101  F   UNL     1       4.185  -6.119 -21.749  1.00  0.00    -0.200 F 
ATOM    102  C   UNL     1       5.569  -6.288 -23.652  1.00  0.00     0.200 A 
ATOM    103  F   UNL     1       6.933  -6.369 -25.576  1.00  0.00    -0.200 F 
ATOM    104  F   UNL     1       4.829  -7.304 -24.116  1.00  0.00    -0.200 F 
ENDBRANCH  71  94
ENDBRANCH  45  46
ENDBRANCH  37  40
ENDBRANCH  35  36
ENDBRANCH  34  35
ENDBRANCH  33  34
ENDBRANCH   1  33
TORSDOF 17
