REMARK SMILES CCC[NH2+][C@]1(C(=O)NCCCCNC(=O)c2ccc(-c3c4nc(c(-c5c(F)c(F)c(F)c(F)c5F)c5ccc([nH]5)c(-c5c(F)c(F)c(F)c(F)c5F)c5nc(c(-c6c(F)c(F)c(F)c(F)c6F)c6ccc3[nH]6)C=C5)C=C4)cc2)CCC[C@H](OC(C)(C)C)C1
REMARK SMILES IDX 10 1 9 2 8 3 6 4 7 5 5 7 79 8 88 9 80 10 82 11 81 12 4 13
REMARK SMILES IDX 3 16 2 17 1 18 83 19 84 20 85 21 86 22 87 23 11 24 12 25
REMARK SMILES IDX 13 26 14 27 15 29 16 30 17 31 78 32 18 33 77 34 19 35 20 36
REMARK SMILES IDX 21 37 71 38 22 39 76 40 70 41 72 42 23 43 75 44 69 45 68 46
REMARK SMILES IDX 24 48 56 49 36 50 55 51 37 52 40 53 54 54 73 55 38 56 39 57
REMARK SMILES IDX 53 59 74 60 41 61 25 62 26 63 34 64 27 65 28 66 32 67 35 68
REMARK SMILES IDX 29 69 30 70 33 71 31 72 57 73 58 74 66 75 59 76 60 77 64 78
REMARK SMILES IDX 67 79 61 80 62 81 65 82 63 83 42 84 43 85 51 86 44 87 45 88
REMARK SMILES IDX 49 89 52 90 46 91 47 92 50 93 48 94
REMARK H PARENT 8 6 4 14 4 15 13 28 72 47 40 58
REMARK Flexibility Score: inf
ROOT
ATOM      1  C   UNL     1       0.501  -0.215   4.177  1.00  0.00     0.023 C 
ENDROOT
BRANCH   1   2
ATOM      2  C   UNL     1      -0.520  -1.086   3.456  1.00  0.00     0.116 C 
BRANCH   2   3
ATOM      3  N   UNL     1      -0.101  -1.463   2.120  1.00  0.00    -0.351 N 
ATOM      4  C   UNL     1       0.434  -2.584   1.564  1.00  0.00     0.281 C 
ATOM      5  O   UNL     1       0.496  -2.548   0.324  1.00  0.00    -0.268 OA
ATOM      6  H   UNL     1      -0.235  -0.742   1.463  1.00  0.00     0.163 HD
BRANCH   4   7
ATOM      7  C   UNL     1       1.000  -3.835   2.349  1.00  0.00     0.178 C 
ATOM      8  C   UNL     1       0.341  -4.029   3.733  1.00  0.00     0.079 C 
ATOM      9  C   UNL     1       0.671  -5.090   1.471  1.00  0.00     0.111 C 
ATOM     10  C   UNL     1       0.539  -5.392   4.386  1.00  0.00     0.010 C 
ATOM     11  C   UNL     1       0.866  -6.460   2.147  1.00  0.00     0.125 C 
ATOM     12  C   UNL     1       0.065  -6.487   3.448  1.00  0.00     0.032 C 
BRANCH   7  13
ATOM     13  N   UNL     1       2.463  -3.634   2.598  1.00  0.00    -0.334 N 
ATOM     14  H   UNL     1       2.581  -2.740   3.076  1.00  0.00     0.347 HD
ATOM     15  H   UNL     1       2.768  -4.435   3.151  1.00  0.00     0.347 HD
BRANCH  13  16
ATOM     16  C   UNL     1       3.307  -3.622   1.396  1.00  0.00     0.261 C 
BRANCH  16  17
ATOM     17  C   UNL     1       4.763  -3.245   1.710  1.00  0.00     0.058 C 
ATOM     18  C   UNL     1       5.399  -4.050   2.834  1.00  0.00     0.010 C 
ENDBRANCH  16  17
ENDBRANCH  13  16
ENDBRANCH   7  13
BRANCH  11  19
ATOM     19  O   UNL     1       2.260  -6.654   2.396  1.00  0.00    -0.372 OA
BRANCH  19  20
ATOM     20  C   UNL     1       2.801  -7.984   2.343  1.00  0.00     0.060 C 
ATOM     21  C   UNL     1       2.180  -8.921   3.382  1.00  0.00     0.042 C 
ATOM     22  C   UNL     1       2.690  -8.583   0.936  1.00  0.00     0.042 C 
ATOM     23  C   UNL     1       4.290  -7.821   2.681  1.00  0.00     0.042 C 
ENDBRANCH  19  20
ENDBRANCH  11  19
ENDBRANCH   4   7
ENDBRANCH   2   3
ENDBRANCH   1   2
BRANCH   1  24
ATOM     24  C   UNL     1       0.372   1.280   3.871  1.00  0.00     0.023 C 
BRANCH  24  25
ATOM     25  C   UNL     1      -1.001   1.894   4.142  1.00  0.00     0.116 C 
BRANCH  25  26
ATOM     26  N   UNL     1      -1.505   1.662   5.488  1.00  0.00    -0.352 N 
ATOM     27  C   UNL     1      -2.360   2.453   6.224  1.00  0.00     0.251 C 
ATOM     28  H   UNL     1      -1.196   0.837   5.928  1.00  0.00     0.163 HD
ATOM     29  O   UNL     1      -2.644   2.171   7.377  1.00  0.00    -0.269 OA
BRANCH  27  30
ATOM     30  C   UNL     1      -2.894   3.684   5.605  1.00  0.00     0.039 A 
ATOM     31  C   UNL     1      -2.719   4.900   6.269  1.00  0.00     0.014 A 
ATOM     32  C   UNL     1      -3.506   3.640   4.350  1.00  0.00     0.014 A 
ATOM     33  C   UNL     1      -3.087   6.088   5.635  1.00  0.00     0.010 A 
ATOM     34  C   UNL     1      -3.809   4.827   3.693  1.00  0.00     0.010 A 
ATOM     35  C   UNL     1      -3.596   6.062   4.326  1.00  0.00    -0.014 A 
BRANCH  35  36
ATOM     36  C   UNL     1      -3.897   7.316   3.594  1.00  0.00     0.031 A 
ATOM     37  C   UNL     1      -5.308   7.637   3.197  1.00  0.00     0.074 A 
ATOM     38  C   UNL     1      -2.887   8.125   3.219  1.00  0.00     0.049 A 
ATOM     39  N   UNL     1      -5.764   8.645   2.496  1.00  0.00    -0.248 NA
ATOM     40  C   UNL     1      -6.343   6.680   3.617  1.00  0.00     0.031 C 
ATOM     41  C   UNL     1      -1.469   7.893   3.496  1.00  0.00     0.029 A 
ATOM     42  N   UNL     1      -2.899   9.302   2.513  1.00  0.00    -0.354 N 
ATOM     43  C   UNL     1      -7.130   8.434   2.378  1.00  0.00     0.074 A 
ATOM     44  C   UNL     1      -7.423   7.176   3.031  1.00  0.00     0.031 C 
ATOM     45  C   UNL     1      -0.750   8.907   2.989  1.00  0.00     0.029 A 
ATOM     46  C   UNL     1      -1.651   9.842   2.322  1.00  0.00     0.049 A 
ATOM     47  H   UNL     1      -3.724   9.720   2.175  1.00  0.00     0.167 HD
ATOM     48  C   UNL     1      -8.061   9.229   1.798  1.00  0.00     0.037 A 
ATOM     49  C   UNL     1      -1.277  10.965   1.681  1.00  0.00     0.037 A 
ATOM     50  C   UNL     1      -7.768  10.492   1.173  1.00  0.00     0.049 A 
ATOM     51  C   UNL     1      -2.329  11.834   1.048  1.00  0.00     0.074 A 
ATOM     52  C   UNL     1      -8.647  11.406   0.621  1.00  0.00     0.029 A 
ATOM     53  N   UNL     1      -6.493  11.017   1.016  1.00  0.00    -0.354 N 
ATOM     54  N   UNL     1      -3.628  11.665   1.008  1.00  0.00    -0.248 NA
ATOM     55  C   UNL     1      -1.862  13.055   0.375  1.00  0.00     0.031 C 
ATOM     56  C   UNL     1      -7.901  12.464   0.090  1.00  0.00     0.029 A 
ATOM     57  C   UNL     1      -6.561  12.232   0.353  1.00  0.00     0.049 A 
ATOM     58  H   UNL     1      -5.664  10.589   1.328  1.00  0.00     0.167 HD
ATOM     59  C   UNL     1      -4.137  12.766   0.333  1.00  0.00     0.074 A 
ATOM     60  C   UNL     1      -3.006  13.604  -0.009  1.00  0.00     0.031 C 
ATOM     61  C   UNL     1      -5.425  13.056   0.025  1.00  0.00     0.037 A 
BRANCH  48  62
ATOM     62  C   UNL     1      -9.483   8.750   1.816  1.00  0.00     0.064 A 
ATOM     63  C   UNL     1     -10.223   8.686   3.007  1.00  0.00     0.173 A 
ATOM     64  C   UNL     1     -10.119   8.361   0.628  1.00  0.00     0.173 A 
ATOM     65  F   UNL     1      -9.658   9.036   4.173  1.00  0.00    -0.203 F 
ATOM     66  C   UNL     1     -11.533   8.214   3.013  1.00  0.00     0.198 A 
ATOM     67  C   UNL     1     -11.440   7.919   0.633  1.00  0.00     0.198 A 
ATOM     68  F   UNL     1      -9.460   8.407  -0.539  1.00  0.00    -0.203 F 
ATOM     69  F   UNL     1     -12.199   8.106   4.171  1.00  0.00    -0.200 F 
ATOM     70  C   UNL     1     -12.142   7.836   1.826  1.00  0.00     0.200 A 
ATOM     71  F   UNL     1     -12.031   7.564  -0.516  1.00  0.00    -0.200 F 
ATOM     72  F   UNL     1     -13.402   7.381   1.833  1.00  0.00    -0.200 F 
ENDBRANCH  48  62
BRANCH  49  73
ATOM     73  C   UNL     1       0.157  11.351   1.643  1.00  0.00     0.064 A 
ATOM     74  C   UNL     1       0.624  12.440   2.392  1.00  0.00     0.173 A 
ATOM     75  C   UNL     1       1.088  10.639   0.874  1.00  0.00     0.173 A 
ATOM     76  F   UNL     1      -0.234  13.164   3.127  1.00  0.00    -0.203 F 
ATOM     77  C   UNL     1       1.966  12.810   2.364  1.00  0.00     0.198 A 
ATOM     78  C   UNL     1       2.435  10.995   0.866  1.00  0.00     0.198 A 
ATOM     79  F   UNL     1       0.691   9.587   0.144  1.00  0.00    -0.203 F 
ATOM     80  F   UNL     1       2.380  13.877   3.062  1.00  0.00    -0.200 F 
ATOM     81  C   UNL     1       2.872  12.083   1.607  1.00  0.00     0.200 A 
ATOM     82  F   UNL     1       3.310  10.283   0.143  1.00  0.00    -0.200 F 
ATOM     83  F   UNL     1       4.165  12.435   1.586  1.00  0.00    -0.200 F 
ENDBRANCH  49  73
BRANCH  61  84
ATOM     84  C   UNL     1      -5.685  14.349  -0.692  1.00  0.00     0.064 A 
ATOM     85  C   UNL     1      -5.349  14.522  -2.042  1.00  0.00     0.173 A 
ATOM     86  C   UNL     1      -6.316  15.412  -0.029  1.00  0.00     0.173 A 
ATOM     87  F   UNL     1      -4.729  13.540  -2.715  1.00  0.00    -0.203 F 
ATOM     88  C   UNL     1      -5.615  15.721  -2.697  1.00  0.00     0.198 A 
ATOM     89  C   UNL     1      -6.606  16.600  -0.694  1.00  0.00     0.198 A 
ATOM     90  F   UNL     1      -6.662  15.295   1.262  1.00  0.00    -0.203 F 
ATOM     91  F   UNL     1      -5.246  15.881  -3.975  1.00  0.00    -0.200 F 
ATOM     92  C   UNL     1      -6.250  16.756  -2.025  1.00  0.00     0.200 A 
ATOM     93  F   UNL     1      -7.231  17.593  -0.047  1.00  0.00    -0.200 F 
ATOM     94  F   UNL     1      -6.513  17.906  -2.660  1.00  0.00    -0.200 F 
ENDBRANCH  61  84
ENDBRANCH  35  36
ENDBRANCH  27  30
ENDBRANCH  25  26
ENDBRANCH  24  25
ENDBRANCH   1  24
TORSDOF 16
