REMARK SMILES NS(=O)(=O)c1ccc(-n2nc(NC(=O)NCCCC(=O)NCCCCNC(=O)c3ccc(-c4c5nc(c(-c6c(F)c(F)c(F)c(F)c6F)c6ccc([nH]6)c(-c6c(F)c(F)c(F)c(F)c6F)c6nc(c(-c7c(F)c(F)c(F)c(F)c7F)c7ccc4[nH]7)C=C6)C=C5)cc3)cc2-c2ccccc2)cc1
REMARK SMILES IDX 19 1 20 2 21 3 18 5 17 6 16 7 15 8 12 9 13 10 14 12 11 14
REMARK SMILES IDX 9 15 10 16 93 17 92 18 8 19 5 20 6 21 101 22 7 23 100 24
REMARK SMILES IDX 2 25 3 26 4 27 1 28 94 31 95 32 99 33 96 34 98 35 97 36
REMARK SMILES IDX 22 37 23 38 24 39 25 40 26 41 27 42 28 44 29 45 30 46 91 47
REMARK SMILES IDX 31 48 90 49 32 50 33 51 34 52 84 53 35 54 89 55 83 56 85 57
REMARK SMILES IDX 36 58 88 59 82 60 81 61 37 63 69 64 49 65 68 66 50 67 53 68
REMARK SMILES IDX 67 69 86 70 51 71 52 72 66 74 87 75 54 76 38 77 39 78 47 79
REMARK SMILES IDX 40 80 41 81 45 82 48 83 42 84 43 85 46 86 44 87 70 88 71 89
REMARK SMILES IDX 79 90 72 91 73 92 77 93 80 94 74 95 75 96 78 97 76 98 55 99
REMARK SMILES IDX 56 100 64 101 57 102 58 103 62 104 65 105 59 106 60 107
REMARK SMILES IDX 63 108 61 109
REMARK H PARENT 21 4 12 11 15 13 1 29 1 30 26 43 85 62 53 73
REMARK Flexibility Score: inf
ROOT
ATOM      1  C   UNL     1      -2.778   6.589   1.183  1.00  0.00     0.220 C 
ATOM      2  O   UNL     1      -2.910   5.597   0.462  1.00  0.00    -0.275 OA
ATOM      3  N   UNL     1      -2.153   7.677   0.650  1.00  0.00    -0.356 N 
ATOM      4  H   UNL     1      -1.980   7.616  -0.318  1.00  0.00     0.163 HD
ENDROOT
BRANCH   1   5
ATOM      5  C   UNL     1      -3.334   6.600   2.598  1.00  0.00     0.102 C 
BRANCH   5   6
ATOM      6  C   UNL     1      -2.464   5.896   3.639  1.00  0.00     0.031 C 
BRANCH   6   7
ATOM      7  C   UNL     1      -1.185   6.632   4.002  1.00  0.00     0.118 C 
BRANCH   7   8
ATOM      8  N   UNL     1      -1.342   7.955   4.576  1.00  0.00    -0.338 N 
ATOM      9  N   UNL     1       0.874   8.511   5.286  1.00  0.00    -0.291 N 
ATOM     10  C   UNL     1      -0.438   8.797   5.131  1.00  0.00     0.320 C 
ATOM     11  H   UNL     1       1.331   9.066   5.959  1.00  0.00     0.173 HD
ATOM     12  O   UNL     1      -0.875   9.844   5.621  1.00  0.00    -0.248 OA
ATOM     13  H   UNL     1      -2.264   8.301   4.558  1.00  0.00     0.165 HD
BRANCH   9  14
ATOM     14  C   UNL     1       1.683   7.587   4.672  1.00  0.00     0.157 A 
ATOM     15  N   UNL     1       2.223   6.002   3.379  1.00  0.00    -0.231 N 
ATOM     16  N   UNL     1       1.504   7.133   3.437  1.00  0.00    -0.149 NA
ATOM     17  C   UNL     1       3.225   6.019   4.337  1.00  0.00     0.076 A 
ATOM     18  C   UNL     1       2.869   7.039   5.207  1.00  0.00     0.078 A 
BRANCH  15  19
ATOM     19  C   UNL     1       1.824   4.964   2.490  1.00  0.00     0.065 A 
ATOM     20  C   UNL     1       0.970   2.947   0.756  1.00  0.00     0.082 A 
ATOM     21  C   UNL     1       1.459   2.612   2.022  1.00  0.00     0.024 A 
ATOM     22  C   UNL     1       0.882   4.284   0.361  1.00  0.00     0.024 A 
ATOM     23  C   UNL     1       1.893   3.621   2.887  1.00  0.00     0.030 A 
ATOM     24  C   UNL     1       1.294   5.291   1.234  1.00  0.00     0.030 A 
BRANCH  20  25
ATOM     25  S   UNL     1       0.542   1.703  -0.425  1.00  0.00     0.238 S 
ATOM     26  O   UNL     1       1.208   2.007  -1.667  1.00  0.00    -0.207 OA
ATOM     27  O   UNL     1      -0.878   1.443  -0.334  1.00  0.00    -0.207 OA
BRANCH  25  28
ATOM     28  N   UNL     1       1.294   0.309   0.141  1.00  0.00    -0.225 NA
ATOM     29  H   UNL     1       1.095  -0.466  -0.492  1.00  0.00     0.137 HD
ATOM     30  H   UNL     1       0.943   0.086   1.072  1.00  0.00     0.137 HD
ENDBRANCH  25  28
ENDBRANCH  20  25
ENDBRANCH  15  19
BRANCH  17  31
ATOM     31  C   UNL     1       4.364   5.115   4.311  1.00  0.00     0.000 A 
ATOM     32  C   UNL     1       5.086   4.955   3.118  1.00  0.00     0.010 A 
ATOM     33  C   UNL     1       4.699   4.348   5.428  1.00  0.00     0.010 A 
ATOM     34  C   UNL     1       6.098   4.004   3.027  1.00  0.00     0.001 A 
ATOM     35  C   UNL     1       5.717   3.397   5.335  1.00  0.00     0.001 A 
ATOM     36  C   UNL     1       6.407   3.220   4.135  1.00  0.00     0.000 A 
ENDBRANCH  17  31
ENDBRANCH   9  14
ENDBRANCH   7   8
ENDBRANCH   6   7
ENDBRANCH   5   6
ENDBRANCH   1   5
BRANCH   3  37
ATOM     37  C   UNL     1      -1.700   8.913   1.268  1.00  0.00     0.116 C 
BRANCH  37  38
ATOM     38  C   UNL     1      -0.175   8.952   1.383  1.00  0.00     0.023 C 
BRANCH  38  39
ATOM     39  C   UNL     1       0.635   9.182   0.107  1.00  0.00     0.023 C 
BRANCH  39  40
ATOM     40  C   UNL     1       0.564  10.601  -0.424  1.00  0.00     0.116 C 
BRANCH  40  41
ATOM     41  N   UNL     1       1.141  11.582   0.494  1.00  0.00    -0.352 N 
ATOM     42  C   UNL     1       1.006  12.954   0.435  1.00  0.00     0.251 C 
ATOM     43  H   UNL     1       1.683  11.225   1.235  1.00  0.00     0.163 HD
ATOM     44  O   UNL     1       1.828  13.707   0.940  1.00  0.00    -0.269 OA
BRANCH  42  45
ATOM     45  C   UNL     1      -0.174  13.491  -0.259  1.00  0.00     0.039 A 
ATOM     46  C   UNL     1      -0.052  14.498  -1.214  1.00  0.00     0.014 A 
ATOM     47  C   UNL     1      -1.404  12.883   0.003  1.00  0.00     0.014 A 
ATOM     48  C   UNL     1      -1.168  14.821  -1.977  1.00  0.00     0.010 A 
ATOM     49  C   UNL     1      -2.466  13.106  -0.841  1.00  0.00     0.010 A 
ATOM     50  C   UNL     1      -2.364  14.090  -1.817  1.00  0.00    -0.014 A 
BRANCH  50  51
ATOM     51  C   UNL     1      -3.424  14.208  -2.818  1.00  0.00     0.031 A 
ATOM     52  C   UNL     1      -2.909  14.049  -4.205  1.00  0.00     0.074 A 
ATOM     53  C   UNL     1      -4.746  14.282  -2.538  1.00  0.00     0.049 A 
ATOM     54  N   UNL     1      -2.744  14.993  -5.069  1.00  0.00    -0.248 NA
ATOM     55  C   UNL     1      -2.323  12.762  -4.622  1.00  0.00     0.031 C 
ATOM     56  C   UNL     1      -5.388  14.152  -1.226  1.00  0.00     0.029 A 
ATOM     57  N   UNL     1      -5.819  14.406  -3.378  1.00  0.00    -0.354 N 
ATOM     58  C   UNL     1      -2.290  14.371  -6.228  1.00  0.00     0.074 A 
ATOM     59  C   UNL     1      -1.844  13.064  -5.833  1.00  0.00     0.031 C 
ATOM     60  C   UNL     1      -6.718  13.966  -1.381  1.00  0.00     0.029 A 
ATOM     61  C   UNL     1      -7.052  14.135  -2.783  1.00  0.00     0.049 A 
ATOM     62  H   UNL     1      -5.728  14.665  -4.324  1.00  0.00     0.167 HD
ATOM     63  C   UNL     1      -2.672  14.870  -7.437  1.00  0.00     0.037 A 
ATOM     64  C   UNL     1      -8.262  14.061  -3.394  1.00  0.00     0.037 A 
ATOM     65  C   UNL     1      -3.209  16.201  -7.272  1.00  0.00     0.049 A 
ATOM     66  C   UNL     1      -8.157  14.826  -4.653  1.00  0.00     0.074 A 
ATOM     67  C   UNL     1      -2.730  17.442  -6.913  1.00  0.00     0.029 A 
ATOM     68  N   UNL     1      -4.558  16.205  -7.044  1.00  0.00    -0.354 N 
ATOM     69  N   UNL     1      -8.029  16.122  -4.695  1.00  0.00    -0.248 NA
ATOM     70  C   UNL     1      -7.819  14.121  -5.882  1.00  0.00     0.031 C 
ATOM     71  C   UNL     1      -3.820  18.116  -6.278  1.00  0.00     0.029 A 
ATOM     72  C   UNL     1      -4.950  17.303  -6.337  1.00  0.00     0.049 A 
ATOM     73  H   UNL     1      -5.171  15.500  -7.354  1.00  0.00     0.167 HD
ATOM     74  C   UNL     1      -7.165  16.338  -5.749  1.00  0.00     0.074 A 
ATOM     75  C   UNL     1      -7.228  15.117  -6.547  1.00  0.00     0.031 C 
ATOM     76  C   UNL     1      -6.235  17.335  -5.676  1.00  0.00     0.037 A 
BRANCH  63  77
ATOM     77  C   UNL     1      -3.130  14.008  -8.605  1.00  0.00     0.064 A 
ATOM     78  C   UNL     1      -3.492  14.645  -9.813  1.00  0.00     0.173 A 
ATOM     79  C   UNL     1      -3.563  12.669  -8.482  1.00  0.00     0.173 A 
ATOM     80  F   UNL     1      -3.172  15.931 -10.027  1.00  0.00    -0.203 F 
ATOM     81  C   UNL     1      -4.282  14.012 -10.780  1.00  0.00     0.198 A 
ATOM     82  C   UNL     1      -4.308  12.026  -9.470  1.00  0.00     0.198 A 
ATOM     83  F   UNL     1      -3.400  11.962  -7.359  1.00  0.00    -0.203 F 
ATOM     84  F   UNL     1      -4.707  14.700 -11.848  1.00  0.00    -0.200 F 
ATOM     85  C   UNL     1      -4.692  12.704 -10.605  1.00  0.00     0.200 A 
ATOM     86  F   UNL     1      -4.727  10.769  -9.262  1.00  0.00    -0.200 F 
ATOM     87  F   UNL     1      -5.498  12.114 -11.498  1.00  0.00    -0.200 F 
ENDBRANCH  63  77
BRANCH  64  88
ATOM     88  C   UNL     1      -9.450  13.219  -3.098  1.00  0.00     0.064 A 
ATOM     89  C   UNL     1     -10.698  13.485  -3.694  1.00  0.00     0.173 A 
ATOM     90  C   UNL     1      -9.309  11.960  -2.486  1.00  0.00     0.173 A 
ATOM     91  F   UNL     1     -10.911  14.647  -4.329  1.00  0.00    -0.203 F 
ATOM     92  C   UNL     1     -11.720  12.529  -3.725  1.00  0.00     0.198 A 
ATOM     93  C   UNL     1     -10.332  11.008  -2.515  1.00  0.00     0.198 A 
ATOM     94  F   UNL     1      -8.142  11.591  -1.941  1.00  0.00    -0.203 F 
ATOM     95  F   UNL     1     -12.864  12.792  -4.373  1.00  0.00    -0.200 F 
ATOM     96  C   UNL     1     -11.529  11.284  -3.151  1.00  0.00     0.200 A 
ATOM     97  F   UNL     1     -10.123   9.793  -1.988  1.00  0.00    -0.200 F 
ATOM     98  F   UNL     1     -12.476  10.340  -3.248  1.00  0.00    -0.200 F 
ENDBRANCH  64  88
BRANCH  76  99
ATOM     99  C   UNL     1      -6.524  18.477  -4.750  1.00  0.00     0.064 A 
ATOM    100  C   UNL     1      -6.644  18.380  -3.354  1.00  0.00     0.173 A 
ATOM    101  C   UNL     1      -6.632  19.752  -5.322  1.00  0.00     0.173 A 
ATOM    102  F   UNL     1      -6.470  17.211  -2.722  1.00  0.00    -0.203 F 
ATOM    103  C   UNL     1      -6.915  19.507  -2.578  1.00  0.00     0.198 A 
ATOM    104  C   UNL     1      -6.859  20.879  -4.542  1.00  0.00     0.198 A 
ATOM    105  F   UNL     1      -6.486  19.909  -6.647  1.00  0.00    -0.203 F 
ATOM    106  F   UNL     1      -7.060  19.389  -1.249  1.00  0.00    -0.200 F 
ATOM    107  C   UNL     1      -7.017  20.755  -3.172  1.00  0.00     0.200 A 
ATOM    108  F   UNL     1      -6.911  22.087  -5.119  1.00  0.00    -0.200 F 
ATOM    109  F   UNL     1      -7.250  21.842  -2.424  1.00  0.00    -0.200 F 
ENDBRANCH  76  99
ENDBRANCH  50  51
ENDBRANCH  42  45
ENDBRANCH  40  41
ENDBRANCH  39  40
ENDBRANCH  38  39
ENDBRANCH  37  38
ENDBRANCH   3  37
TORSDOF 19
