REMARK SMILES COC(=O)c1ccc(Cl)c(-c2ccc(F)cc2C(=O)NCCCCNC(=O)c2ccc(-c3c4nc(c(-c5c(F)c(F)c(F)c(F)c5F)c5ccc([nH]5)c(-c5c(F)c(F)c(F)c(F)c5F)c5nc(c(-c6c(F)c(F)c(F)c(F)c6F)c6ccc3[nH]6)C=C5)C=C4)cc2)c1
REMARK SMILES IDX 22 1 21 2 20 3 18 4 19 5 17 7 11 8 12 9 13 10 16 11 14 12
REMARK SMILES IDX 15 13 10 14 5 15 6 16 91 17 7 18 8 19 9 20 3 21 4 22 2 23
REMARK SMILES IDX 1 24 23 25 24 26 25 27 26 28 27 30 28 31 29 32 90 33 30 34
REMARK SMILES IDX 89 35 31 36 32 37 33 38 83 39 34 40 88 41 82 42 84 43 35 44
REMARK SMILES IDX 87 45 81 46 80 47 36 49 68 50 48 51 67 52 49 53 52 54 66 55
REMARK SMILES IDX 85 56 50 57 51 58 65 60 86 61 53 62 37 63 38 64 46 65 39 66
REMARK SMILES IDX 40 67 44 68 47 69 41 70 42 71 45 72 43 73 69 74 70 75 78 76
REMARK SMILES IDX 71 77 72 78 76 79 79 80 73 81 74 82 77 83 75 84 54 85 55 86
REMARK SMILES IDX 63 87 56 88 57 89 61 90 64 91 58 92 59 93 62 94 60 95
REMARK H PARENT 20 6 25 29 84 48 52 59
REMARK Flexibility Score: inf
ROOT
ATOM      1  C   UNL     1       0.013  -5.135   3.608  1.00  0.00     0.023 C 
ENDROOT
BRANCH   1   2
ATOM      2  C   UNL     1       0.760  -5.501   2.336  1.00  0.00     0.116 C 
BRANCH   2   3
ATOM      3  N   UNL     1       2.193  -5.374   2.364  1.00  0.00    -0.352 N 
ATOM      4  C   UNL     1       3.143  -6.044   1.627  1.00  0.00     0.252 C 
ATOM      5  O   UNL     1       4.314  -5.676   1.738  1.00  0.00    -0.269 OA
ATOM      6  H   UNL     1       2.545  -4.712   3.002  1.00  0.00     0.163 HD
BRANCH   4   7
ATOM      7  C   UNL     1       2.863  -7.242   0.773  1.00  0.00     0.050 A 
ATOM      8  C   UNL     1       1.898  -7.356  -0.263  1.00  0.00    -0.004 A 
ATOM      9  C   UNL     1       1.873  -8.557  -1.015  1.00  0.00     0.012 A 
ATOM     10  C   UNL     1       2.753  -9.608  -0.758  1.00  0.00     0.040 A 
ATOM     11  C   UNL     1       3.761  -8.306   1.000  1.00  0.00     0.053 A 
ATOM     12  C   UNL     1       3.694  -9.469   0.245  1.00  0.00     0.124 A 
ATOM     13  F   UNL     1       4.558 -10.465   0.481  1.00  0.00    -0.207 F 
BRANCH   8  14
ATOM     14  C   UNL     1       0.943  -6.295  -0.644  1.00  0.00     0.002 A 
ATOM     15  C   UNL     1       0.565  -3.973  -1.301  1.00  0.00     0.060 A 
ATOM     16  C   UNL     1      -0.816  -4.133  -1.151  1.00  0.00     0.017 A 
ATOM     17  C   UNL     1       1.434  -5.051  -1.079  1.00  0.00     0.026 A 
ATOM     18  C   UNL     1      -1.329  -5.377  -0.786  1.00  0.00     0.022 A 
ATOM     19  C   UNL     1      -0.463  -6.449  -0.538  1.00  0.00     0.048 A 
ATOM     20  Cl  UNL     1      -1.194  -7.915   0.031  1.00  0.00    -0.084 Cl
BRANCH  15  21
ATOM     21  C   UNL     1       1.163  -2.665  -1.636  1.00  0.00     0.337 C 
ATOM     22  O   UNL     1       2.159  -2.535  -2.327  1.00  0.00    -0.246 OA
BRANCH  21  23
ATOM     23  O   UNL     1       0.508  -1.687  -0.963  1.00  0.00    -0.465 OA
ATOM     24  C   UNL     1       1.109  -0.402  -1.111  1.00  0.00     0.282 C 
ENDBRANCH  21  23
ENDBRANCH  15  21
ENDBRANCH   8  14
ENDBRANCH   4   7
ENDBRANCH   2   3
ENDBRANCH   1   2
BRANCH   1  25
ATOM     25  C   UNL     1       0.075  -3.680   4.070  1.00  0.00     0.023 C 
BRANCH  25  26
ATOM     26  C   UNL     1      -0.107  -2.573   3.033  1.00  0.00     0.116 C 
BRANCH  26  27
ATOM     27  N   UNL     1      -1.298  -2.671   2.206  1.00  0.00    -0.352 N 
ATOM     28  C   UNL     1      -2.123  -1.684   1.710  1.00  0.00     0.251 C 
ATOM     29  H   UNL     1      -1.558  -3.589   1.962  1.00  0.00     0.163 HD
ATOM     30  O   UNL     1      -3.043  -1.999   0.958  1.00  0.00    -0.269 OA
BRANCH  28  31
ATOM     31  C   UNL     1      -1.968  -0.262   2.117  1.00  0.00     0.039 A 
ATOM     32  C   UNL     1      -3.124   0.475   2.402  1.00  0.00     0.014 A 
ATOM     33  C   UNL     1      -0.720   0.352   2.243  1.00  0.00     0.014 A 
ATOM     34  C   UNL     1      -3.025   1.774   2.916  1.00  0.00     0.010 A 
ATOM     35  C   UNL     1      -0.616   1.622   2.816  1.00  0.00     0.010 A 
ATOM     36  C   UNL     1      -1.766   2.336   3.180  1.00  0.00    -0.014 A 
BRANCH  36  37
ATOM     37  C   UNL     1      -1.636   3.630   3.900  1.00  0.00     0.031 A 
ATOM     38  C   UNL     1      -1.057   4.837   3.219  1.00  0.00     0.074 A 
ATOM     39  C   UNL     1      -1.966   3.687   5.207  1.00  0.00     0.049 A 
ATOM     40  N   UNL     1      -0.833   6.031   3.707  1.00  0.00    -0.248 NA
ATOM     41  C   UNL     1      -0.654   4.679   1.813  1.00  0.00     0.031 C 
ATOM     42  C   UNL     1      -2.466   2.561   5.999  1.00  0.00     0.029 A 
ATOM     43  N   UNL     1      -1.916   4.725   6.104  1.00  0.00    -0.354 N 
ATOM     44  C   UNL     1      -0.262   6.763   2.675  1.00  0.00     0.074 A 
ATOM     45  C   UNL     1      -0.130   5.868   1.545  1.00  0.00     0.031 C 
ATOM     46  C   UNL     1      -2.690   2.972   7.257  1.00  0.00     0.029 A 
ATOM     47  C   UNL     1      -2.330   4.382   7.369  1.00  0.00     0.049 A 
ATOM     48  H   UNL     1      -1.612   5.630   5.864  1.00  0.00     0.167 HD
ATOM     49  C   UNL     1       0.096   8.069   2.666  1.00  0.00     0.037 A 
ATOM     50  C   UNL     1      -2.413   5.120   8.493  1.00  0.00     0.037 A 
ATOM     51  C   UNL     1      -0.062   8.962   3.784  1.00  0.00     0.049 A 
ATOM     52  C   UNL     1      -2.042   6.577   8.444  1.00  0.00     0.074 A 
ATOM     53  C   UNL     1       0.211  10.318   3.848  1.00  0.00     0.029 A 
ATOM     54  N   UNL     1      -0.534   8.590   5.033  1.00  0.00    -0.354 N 
ATOM     55  N   UNL     1      -1.586   7.277   7.434  1.00  0.00    -0.248 NA
ATOM     56  C   UNL     1      -2.212   7.351   9.682  1.00  0.00     0.031 C 
ATOM     57  C   UNL     1      -0.061  10.758   5.145  1.00  0.00     0.029 A 
ATOM     58  C   UNL     1      -0.548   9.688   5.877  1.00  0.00     0.049 A 
ATOM     59  H   UNL     1      -0.818   7.680   5.283  1.00  0.00     0.167 HD
ATOM     60  C   UNL     1      -1.442   8.575   7.904  1.00  0.00     0.074 A 
ATOM     61  C   UNL     1      -1.871   8.570   9.287  1.00  0.00     0.031 C 
ATOM     62  C   UNL     1      -0.994   9.671   7.246  1.00  0.00     0.037 A 
BRANCH  49  63
ATOM     63  C   UNL     1       0.668   8.637   1.401  1.00  0.00     0.064 A 
ATOM     64  C   UNL     1       2.012   9.034   1.338  1.00  0.00     0.173 A 
ATOM     65  C   UNL     1      -0.144   8.888   0.285  1.00  0.00     0.173 A 
ATOM     66  F   UNL     1       2.828   8.823   2.382  1.00  0.00    -0.203 F 
ATOM     67  C   UNL     1       2.517   9.679   0.212  1.00  0.00     0.198 A 
ATOM     68  C   UNL     1       0.370   9.511  -0.849  1.00  0.00     0.198 A 
ATOM     69  F   UNL     1      -1.435   8.520   0.293  1.00  0.00    -0.203 F 
ATOM     70  F   UNL     1       3.794  10.083   0.189  1.00  0.00    -0.200 F 
ATOM     71  C   UNL     1       1.696   9.917  -0.880  1.00  0.00     0.200 A 
ATOM     72  F   UNL     1      -0.420   9.724  -1.911  1.00  0.00    -0.200 F 
ATOM     73  F   UNL     1       2.182  10.539  -1.963  1.00  0.00    -0.200 F 
ENDBRANCH  49  63
BRANCH  50  74
ATOM     74  C   UNL     1      -2.915   4.502   9.748  1.00  0.00     0.064 A 
ATOM     75  C   UNL     1      -2.155   3.558  10.454  1.00  0.00     0.173 A 
ATOM     76  C   UNL     1      -4.177   4.836  10.259  1.00  0.00     0.173 A 
ATOM     77  F   UNL     1      -0.944   3.199  10.003  1.00  0.00    -0.203 F 
ATOM     78  C   UNL     1      -2.643   2.966  11.617  1.00  0.00     0.198 A 
ATOM     79  C   UNL     1      -4.653   4.263  11.437  1.00  0.00     0.198 A 
ATOM     80  F   UNL     1      -4.934   5.747   9.630  1.00  0.00    -0.203 F 
ATOM     81  F   UNL     1      -1.907   2.047  12.258  1.00  0.00    -0.200 F 
ATOM     82  C   UNL     1      -3.888   3.323  12.111  1.00  0.00     0.200 A 
ATOM     83  F   UNL     1      -5.846   4.629  11.923  1.00  0.00    -0.200 F 
ATOM     84  F   UNL     1      -4.349   2.766  13.239  1.00  0.00    -0.200 F 
ENDBRANCH  50  74
BRANCH  62  85
ATOM     85  C   UNL     1      -0.970  10.970   7.995  1.00  0.00     0.064 A 
ATOM     86  C   UNL     1      -1.870  11.995   7.664  1.00  0.00     0.173 A 
ATOM     87  C   UNL     1      -0.010  11.230   8.983  1.00  0.00     0.173 A 
ATOM     88  F   UNL     1      -2.801  11.798   6.719  1.00  0.00    -0.203 F 
ATOM     89  C   UNL     1      -1.799  13.238   8.287  1.00  0.00     0.198 A 
ATOM     90  C   UNL     1       0.041  12.465   9.623  1.00  0.00     0.198 A 
ATOM     91  F   UNL     1       0.864  10.277   9.341  1.00  0.00    -0.203 F 
ATOM     92  F   UNL     1      -2.648  14.213   7.932  1.00  0.00    -0.200 F 
ATOM     93  C   UNL     1      -0.847  13.470   9.268  1.00  0.00     0.200 A 
ATOM     94  F   UNL     1       0.947  12.682  10.586  1.00  0.00    -0.200 F 
ATOM     95  F   UNL     1      -0.786  14.664   9.873  1.00  0.00    -0.200 F 
ENDBRANCH  62  85
ENDBRANCH  36  37
ENDBRANCH  28  31
ENDBRANCH  26  27
ENDBRANCH  25  26
ENDBRANCH   1  25
TORSDOF 14
