REMARK SMILES CCC(CC)(C(=O)NCCCCNC(=O)c1ccc(-c2c3nc(c(-c4c(F)c(F)c(F)c(F)c4F)c4ccc([nH]4)c(-c4c(F)c(F)c(F)c(F)c4F)c4nc(c(-c5c(F)c(F)c(F)c(F)c5F)c5ccc2[nH]5)C=C4)C=C3)cc1)n1nnnc1C[C@@H](C)C(C)(C)C
REMARK SMILES IDX 9 1 8 2 6 3 7 4 3 6 2 7 1 8 4 9 5 10 79 11 80 12 83 13 81 14
REMARK SMILES IDX 82 15 84 16 85 17 86 18 87 19 88 20 89 21 90 22 10 23 11 24
REMARK SMILES IDX 12 25 13 26 14 27 15 29 16 30 17 31 78 32 18 33 77 34 19 35
REMARK SMILES IDX 20 36 21 37 71 38 22 39 76 40 70 41 72 42 23 43 75 44 69 45
REMARK SMILES IDX 68 46 24 48 56 49 36 50 55 51 37 52 40 53 54 54 73 55 38 56
REMARK SMILES IDX 39 57 53 59 74 60 41 61 25 62 26 63 34 64 27 65 28 66 32 67
REMARK SMILES IDX 35 68 29 69 30 70 33 71 31 72 57 73 58 74 66 75 59 76 60 77
REMARK SMILES IDX 64 78 67 79 61 80 62 81 65 82 63 83 42 84 43 85 51 86 44 87
REMARK SMILES IDX 45 88 49 89 52 90 46 91 47 92 50 93 48 94
REMARK H PARENT 8 5 13 28 72 47 40 58
REMARK Flexibility Score: inf
ROOT
ATOM      1  C   UNL     1      -2.164   2.499   1.995  1.00  0.00     0.116 C 
ENDROOT
BRANCH   1   2
ATOM      2  N   UNL     1      -0.910   2.843   2.637  1.00  0.00    -0.354 N 
ATOM      3  C   UNL     1       0.401   2.602   2.345  1.00  0.00     0.248 C 
ATOM      4  O   UNL     1       1.164   2.857   3.284  1.00  0.00    -0.272 OA
ATOM      5  H   UNL     1      -1.031   3.363   3.464  1.00  0.00     0.163 HD
BRANCH   3   6
ATOM      6  C   UNL     1       0.925   2.040   0.975  1.00  0.00     0.144 C 
BRANCH   6   7
ATOM      7  C   UNL     1       0.232   0.684   0.691  1.00  0.00     0.037 C 
ATOM      8  C   UNL     1       0.332   0.152  -0.726  1.00  0.00     0.007 C 
ENDBRANCH   6   7
BRANCH   6   9
ATOM      9  C   UNL     1       0.702   3.096  -0.179  1.00  0.00     0.037 C 
ATOM     10  C   UNL     1      -0.683   3.427  -0.712  1.00  0.00     0.007 C 
ENDBRANCH   6   9
BRANCH   6  11
ATOM     11  N   UNL     1       2.420   1.922   1.110  1.00  0.00    -0.214 N 
ATOM     12  N   UNL     1       3.118   3.094   1.042  1.00  0.00    -0.044 NA
ATOM     13  C   UNL     1       3.349   0.905   1.301  1.00  0.00     0.152 A 
ATOM     14  N   UNL     1       4.386   2.800   1.230  1.00  0.00    -0.024 NA
ATOM     15  N   UNL     1       4.543   1.467   1.400  1.00  0.00    -0.114 NA
BRANCH  13  16
ATOM     16  C   UNL     1       3.198  -0.580   1.438  1.00  0.00     0.083 C 
BRANCH  16  17
ATOM     17  C   UNL     1       3.601  -1.372   0.155  1.00  0.00    -0.001 C 
ATOM     18  C   UNL     1       5.126  -1.272  -0.069  1.00  0.00     0.008 C 
BRANCH  17  19
ATOM     19  C   UNL     1       3.098  -2.872   0.146  1.00  0.00    -0.035 C 
ATOM     20  C   UNL     1       1.558  -2.949   0.116  1.00  0.00     0.011 C 
ATOM     21  C   UNL     1       3.581  -3.607  -1.127  1.00  0.00     0.011 C 
ATOM     22  C   UNL     1       3.588  -3.654   1.377  1.00  0.00     0.011 C 
ENDBRANCH  17  19
ENDBRANCH  16  17
ENDBRANCH  13  16
ENDBRANCH   6  11
ENDBRANCH   3   6
ENDBRANCH   1   2
BRANCH   1  23
ATOM     23  C   UNL     1      -2.857   1.336   2.703  1.00  0.00     0.023 C 
BRANCH  23  24
ATOM     24  C   UNL     1      -3.707   1.748   3.902  1.00  0.00     0.023 C 
BRANCH  24  25
ATOM     25  C   UNL     1      -4.753   2.819   3.614  1.00  0.00     0.116 C 
BRANCH  25  26
ATOM     26  N   UNL     1      -5.594   2.524   2.462  1.00  0.00    -0.352 N 
ATOM     27  C   UNL     1      -6.911   2.851   2.259  1.00  0.00     0.251 C 
ATOM     28  H   UNL     1      -5.160   2.023   1.734  1.00  0.00     0.163 HD
ATOM     29  O   UNL     1      -7.506   2.445   1.266  1.00  0.00    -0.269 OA
BRANCH  27  30
ATOM     30  C   UNL     1      -7.618   3.656   3.274  1.00  0.00     0.039 A 
ATOM     31  C   UNL     1      -8.857   3.211   3.736  1.00  0.00     0.014 A 
ATOM     32  C   UNL     1      -7.036   4.812   3.802  1.00  0.00     0.014 A 
ATOM     33  C   UNL     1      -9.483   3.892   4.779  1.00  0.00     0.010 A 
ATOM     34  C   UNL     1      -7.620   5.439   4.897  1.00  0.00     0.010 A 
ATOM     35  C   UNL     1      -8.851   4.986   5.394  1.00  0.00    -0.014 A 
BRANCH  35  36
ATOM     36  C   UNL     1      -9.473   5.654   6.563  1.00  0.00     0.031 A 
ATOM     37  C   UNL     1      -9.918   7.086   6.474  1.00  0.00     0.074 A 
ATOM     38  C   UNL     1      -9.608   4.971   7.717  1.00  0.00     0.049 A 
ATOM     39  N   UNL     1     -10.505   7.827   7.381  1.00  0.00    -0.248 NA
ATOM     40  C   UNL     1      -9.644   7.791   5.212  1.00  0.00     0.031 C 
ATOM     41  C   UNL     1      -9.141   3.603   7.949  1.00  0.00     0.029 A 
ATOM     42  N   UNL     1     -10.179   5.334   8.911  1.00  0.00    -0.354 N 
ATOM     43  C   UNL     1     -10.673   9.075   6.797  1.00  0.00     0.074 A 
ATOM     44  C   UNL     1     -10.060   9.017   5.489  1.00  0.00     0.031 C 
ATOM     45  C   UNL     1      -9.474   3.230   9.195  1.00  0.00     0.029 A 
ATOM     46  C   UNL     1     -10.155   4.339   9.857  1.00  0.00     0.049 A 
ATOM     47  H   UNL     1     -10.569   6.223   9.074  1.00  0.00     0.167 HD
ATOM     48  C   UNL     1     -11.315  10.160   7.292  1.00  0.00     0.037 A 
ATOM     49  C   UNL     1     -10.637   4.321  11.114  1.00  0.00     0.037 A 
ATOM     50  C   UNL     1     -11.932  10.210   8.591  1.00  0.00     0.049 A 
ATOM     51  C   UNL     1     -11.363   5.533  11.632  1.00  0.00     0.074 A 
ATOM     52  C   UNL     1     -12.637  11.248   9.175  1.00  0.00     0.029 A 
ATOM     53  N   UNL     1     -11.916   9.171   9.511  1.00  0.00    -0.354 N 
ATOM     54  N   UNL     1     -11.588   6.680  11.039  1.00  0.00    -0.248 NA
ATOM     55  C   UNL     1     -11.920   5.439  12.988  1.00  0.00     0.031 C 
ATOM     56  C   UNL     1     -13.015  10.851  10.462  1.00  0.00     0.029 A 
ATOM     57  C   UNL     1     -12.589   9.548  10.663  1.00  0.00     0.049 A 
ATOM     58  H   UNL     1     -11.489   8.296   9.368  1.00  0.00     0.167 HD
ATOM     59  C   UNL     1     -12.328   7.436  11.938  1.00  0.00     0.074 A 
ATOM     60  C   UNL     1     -12.540   6.604  13.105  1.00  0.00     0.031 C 
ATOM     61  C   UNL     1     -12.787   8.706  11.814  1.00  0.00     0.037 A 
BRANCH  48  62
ATOM     62  C   UNL     1     -11.399  11.373   6.412  1.00  0.00     0.064 A 
ATOM     63  C   UNL     1     -12.191  11.380   5.252  1.00  0.00     0.173 A 
ATOM     64  C   UNL     1     -10.714  12.551   6.744  1.00  0.00     0.173 A 
ATOM     65  F   UNL     1     -12.855  10.275   4.882  1.00  0.00    -0.203 F 
ATOM     66  C   UNL     1     -12.270  12.510   4.443  1.00  0.00     0.198 A 
ATOM     67  C   UNL     1     -10.820  13.690   5.949  1.00  0.00     0.198 A 
ATOM     68  F   UNL     1      -9.946  12.601   7.842  1.00  0.00    -0.203 F 
ATOM     69  F   UNL     1     -12.992  12.475   3.315  1.00  0.00    -0.200 F 
ATOM     70  C   UNL     1     -11.592  13.666   4.796  1.00  0.00     0.200 A 
ATOM     71  F   UNL     1     -10.174  14.811   6.297  1.00  0.00    -0.200 F 
ATOM     72  F   UNL     1     -11.675  14.757   4.021  1.00  0.00    -0.200 F 
ENDBRANCH  48  62
BRANCH  49  73
ATOM     73  C   UNL     1     -10.480   3.106  11.955  1.00  0.00     0.064 A 
ATOM     74  C   UNL     1     -11.587   2.322  12.308  1.00  0.00     0.173 A 
ATOM     75  C   UNL     1      -9.222   2.710  12.433  1.00  0.00     0.173 A 
ATOM     76  F   UNL     1     -12.813   2.668  11.889  1.00  0.00    -0.203 F 
ATOM     77  C   UNL     1     -11.447   1.206  13.131  1.00  0.00     0.198 A 
ATOM     78  C   UNL     1      -9.079   1.577  13.230  1.00  0.00     0.198 A 
ATOM     79  F   UNL     1      -8.129   3.420  12.116  1.00  0.00    -0.203 F 
ATOM     80  F   UNL     1     -12.529   0.506  13.497  1.00  0.00    -0.200 F 
ATOM     81  C   UNL     1     -10.192   0.832  13.588  1.00  0.00     0.200 A 
ATOM     82  F   UNL     1      -7.862   1.209  13.654  1.00  0.00    -0.200 F 
ATOM     83  F   UNL     1     -10.057  -0.242  14.378  1.00  0.00    -0.200 F 
ENDBRANCH  49  73
BRANCH  61  84
ATOM     84  C   UNL     1     -13.580   9.259  12.963  1.00  0.00     0.064 A 
ATOM     85  C   UNL     1     -12.977   9.568  14.192  1.00  0.00     0.173 A 
ATOM     86  C   UNL     1     -14.957   9.492  12.830  1.00  0.00     0.173 A 
ATOM     87  F   UNL     1     -11.666   9.350  14.375  1.00  0.00    -0.203 F 
ATOM     88  C   UNL     1     -13.731  10.053  15.257  1.00  0.00     0.198 A 
ATOM     89  C   UNL     1     -15.701  10.009  13.886  1.00  0.00     0.198 A 
ATOM     90  F   UNL     1     -15.580   9.222  11.673  1.00  0.00    -0.203 F 
ATOM     91  F   UNL     1     -13.145  10.281  16.440  1.00  0.00    -0.200 F 
ATOM     92  C   UNL     1     -15.091  10.278  15.102  1.00  0.00     0.200 A 
ATOM     93  F   UNL     1     -17.012  10.239  13.730  1.00  0.00    -0.200 F 
ATOM     94  F   UNL     1     -15.815  10.743  16.128  1.00  0.00    -0.200 F 
ENDBRANCH  61  84
ENDBRANCH  35  36
ENDBRANCH  27  30
ENDBRANCH  25  26
ENDBRANCH  24  25
ENDBRANCH  23  24
ENDBRANCH   1  23
TORSDOF 17
