REMARK SMILES COC(=O)c1sc(SCC(=O)NCCCCNC(=O)c2ccc(-c3c4nc(c(-c5c(F)c(F)c(F)c(F)c5F)c5ccc([nH]5)c(-c5c(F)c(F)c(F)c(F)c5F)c5nc(c(-c6c(F)c(F)c(F)c(F)c6F)c6ccc3[nH]6)C=C5)C=C4)cc2)c(NC(=O)c2ccccc2)c1O
REMARK SMILES IDX 13 1 12 2 10 3 11 4 9 6 8 7 7 8 5 9 6 10 93 11 83 12 3 13
REMARK SMILES IDX 4 14 2 15 1 16 94 17 84 19 85 20 86 22 87 23 88 24 92 25
REMARK SMILES IDX 89 26 91 27 90 28 14 29 15 30 16 31 17 32 18 33 19 35 20 36
REMARK SMILES IDX 21 37 82 38 22 39 81 40 23 41 24 42 25 43 75 44 26 45 80 46
REMARK SMILES IDX 74 47 76 48 27 49 79 50 73 51 72 52 28 54 60 55 40 56 59 57
REMARK SMILES IDX 41 58 44 59 58 60 77 61 42 62 43 63 57 65 78 66 45 67 29 68
REMARK SMILES IDX 30 69 38 70 31 71 32 72 36 73 39 74 33 75 34 76 37 77 35 78
REMARK SMILES IDX 61 79 62 80 70 81 63 82 64 83 68 84 71 85 65 86 66 87 69 88
REMARK SMILES IDX 67 89 46 90 47 91 55 92 48 93 49 94 53 95 56 96 50 97 51 98
REMARK SMILES IDX 54 99 52 100
REMARK H PARENT 12 5 94 18 84 21 17 34 76 53 44 64
REMARK Flexibility Score: inf
ROOT
ATOM      1  C   UNL     1       0.330  -0.714 -10.069  1.00  0.00     0.116 C 
ENDROOT
BRANCH   1   2
ATOM      2  N   UNL     1      -1.020  -0.632  -9.564  1.00  0.00    -0.355 N 
ATOM      3  C   UNL     1      -1.783   0.460  -9.226  1.00  0.00     0.230 C 
ATOM      4  O   UNL     1      -2.976   0.218  -9.012  1.00  0.00    -0.274 OA
ATOM      5  H   UNL     1      -1.467  -1.500  -9.442  1.00  0.00     0.163 HD
BRANCH   3   6
ATOM      6  C   UNL     1      -1.108   2.090  -9.205  1.00  0.00     0.175 C 
BRANCH   6   7
ATOM      7  S   UNL     1      -0.385   3.518  -7.198  1.00  0.00    -0.103 SA
BRANCH   7   8
ATOM      8  C   UNL     1      -0.396   2.734  -5.487  1.00  0.00     0.089 A 
ATOM      9  C   UNL     1       0.359   1.882  -3.250  1.00  0.00     0.157 A 
ATOM     10  S   UNL     1       1.039   2.826  -4.517  1.00  0.00    -0.116 S 
ATOM     11  C   UNL     1      -0.946   1.556  -3.545  1.00  0.00     0.166 A 
ATOM     12  C   UNL     1      -1.402   2.055  -4.796  1.00  0.00     0.109 A 
BRANCH   9  13
ATOM     13  C   UNL     1       1.145   1.546  -2.077  1.00  0.00     0.352 C 
ATOM     14  O   UNL     1       2.232   2.008  -1.758  1.00  0.00    -0.245 OA
BRANCH  13  15
ATOM     15  O   UNL     1       0.463   0.611  -1.339  1.00  0.00    -0.465 OA
ATOM     16  C   UNL     1       1.070   0.222  -0.103  1.00  0.00     0.282 C 
ENDBRANCH  13  15
ENDBRANCH   9  13
BRANCH  11  17
ATOM     17  O   UNL     1      -1.740   0.795  -2.754  1.00  0.00    -0.504 OA
ATOM     18  H   UNL     1      -1.418   0.477  -1.934  1.00  0.00     0.293 HD
ENDBRANCH  11  17
BRANCH  12  19
ATOM     19  N   UNL     1      -2.704   1.773  -5.197  1.00  0.00    -0.317 N 
ATOM     20  C   UNL     1      -3.216   1.963  -6.443  1.00  0.00     0.255 C 
ATOM     21  H   UNL     1      -3.311   1.403  -4.517  1.00  0.00     0.170 HD
ATOM     22  O   UNL     1      -4.410   2.002  -6.694  1.00  0.00    -0.269 OA
BRANCH  20  23
ATOM     23  C   UNL     1      -2.206   2.165  -7.477  1.00  0.00     0.040 A 
ATOM     24  C   UNL     1      -2.356   3.650  -8.462  1.00  0.00     0.014 A 
ATOM     25  C   UNL     1      -0.614   1.242  -7.431  1.00  0.00     0.014 A 
ATOM     26  C   UNL     1      -0.945   4.220  -9.405  1.00  0.00     0.001 A 
ATOM     27  C   UNL     1       0.793   1.876  -8.366  1.00  0.00     0.001 A 
ATOM     28  C   UNL     1       0.615   3.365  -9.343  1.00  0.00     0.000 A 
ENDBRANCH  20  23
ENDBRANCH  12  19
ENDBRANCH   7   8
ENDBRANCH   6   7
ENDBRANCH   3   6
ENDBRANCH   1   2
BRANCH   1  29
ATOM     29  C   UNL     1       1.366  -1.161  -9.033  1.00  0.00     0.023 C 
BRANCH  29  30
ATOM     30  C   UNL     1       1.392  -2.632  -8.627  1.00  0.00     0.023 C 
BRANCH  30  31
ATOM     31  C   UNL     1       1.566  -3.604  -9.776  1.00  0.00     0.116 C 
BRANCH  31  32
ATOM     32  N   UNL     1       2.744  -3.321 -10.606  1.00  0.00    -0.352 N 
ATOM     33  C   UNL     1       3.059  -3.866 -11.842  1.00  0.00     0.251 C 
ATOM     34  H   UNL     1       3.385  -2.668 -10.243  1.00  0.00     0.163 HD
ATOM     35  O   UNL     1       4.194  -3.848 -12.294  1.00  0.00    -0.269 OA
BRANCH  33  36
ATOM     36  C   UNL     1       1.943  -4.405 -12.631  1.00  0.00     0.039 A 
ATOM     37  C   UNL     1       1.925  -5.668 -13.219  1.00  0.00     0.014 A 
ATOM     38  C   UNL     1       0.816  -3.600 -12.627  1.00  0.00     0.014 A 
ATOM     39  C   UNL     1       0.722  -6.109 -13.767  1.00  0.00     0.010 A 
ATOM     40  C   UNL     1      -0.396  -4.172 -12.830  1.00  0.00     0.010 A 
ATOM     41  C   UNL     1      -0.438  -5.341 -13.558  1.00  0.00    -0.014 A 
BRANCH  41  42
ATOM     42  C   UNL     1      -1.768  -5.744 -13.972  1.00  0.00     0.031 A 
ATOM     43  C   UNL     1      -2.171  -7.045 -13.394  1.00  0.00     0.074 A 
ATOM     44  C   UNL     1      -2.613  -4.891 -14.601  1.00  0.00     0.049 A 
ATOM     45  N   UNL     1      -2.241  -8.175 -14.009  1.00  0.00    -0.248 NA
ATOM     46  C   UNL     1      -2.297  -7.155 -11.930  1.00  0.00     0.031 C 
ATOM     47  C   UNL     1      -2.433  -3.466 -14.924  1.00  0.00     0.029 A 
ATOM     48  N   UNL     1      -3.881  -5.123 -15.039  1.00  0.00    -0.354 N 
ATOM     49  C   UNL     1      -2.669  -9.094 -13.059  1.00  0.00     0.074 A 
ATOM     50  C   UNL     1      -2.456  -8.473 -11.780  1.00  0.00     0.031 C 
ATOM     51  C   UNL     1      -3.614  -2.919 -15.295  1.00  0.00     0.029 A 
ATOM     52  C   UNL     1      -4.592  -3.979 -15.415  1.00  0.00     0.049 A 
ATOM     53  H   UNL     1      -4.269  -6.027 -15.087  1.00  0.00     0.167 HD
ATOM     54  C   UNL     1      -3.435 -10.155 -13.437  1.00  0.00     0.037 A 
ATOM     55  C   UNL     1      -5.899  -3.942 -15.789  1.00  0.00     0.037 A 
ATOM     56  C   UNL     1      -3.373 -10.332 -14.870  1.00  0.00     0.049 A 
ATOM     57  C   UNL     1      -6.267  -5.329 -16.182  1.00  0.00     0.074 A 
ATOM     58  C   UNL     1      -2.363 -10.614 -15.770  1.00  0.00     0.029 A 
ATOM     59  N   UNL     1      -4.390  -9.780 -15.612  1.00  0.00    -0.354 N 
ATOM     60  N   UNL     1      -5.742  -5.942 -17.210  1.00  0.00    -0.248 NA
ATOM     61  C   UNL     1      -6.780  -6.193 -15.129  1.00  0.00     0.031 C 
ATOM     62  C   UNL     1      -2.630  -9.779 -16.897  1.00  0.00     0.029 A 
ATOM     63  C   UNL     1      -3.837  -9.114 -16.676  1.00  0.00     0.049 A 
ATOM     64  H   UNL     1      -5.351  -9.851 -15.414  1.00  0.00     0.167 HD
ATOM     65  C   UNL     1      -5.462  -7.223 -16.753  1.00  0.00     0.074 A 
ATOM     66  C   UNL     1      -6.157  -7.325 -15.468  1.00  0.00     0.031 C 
ATOM     67  C   UNL     1      -4.449  -7.960 -17.297  1.00  0.00     0.037 A 
BRANCH  54  68
ATOM     68  C   UNL     1      -4.555 -10.743 -12.610  1.00  0.00     0.064 A 
ATOM     69  C   UNL     1      -5.223 -11.884 -13.100  1.00  0.00     0.173 A 
ATOM     70  C   UNL     1      -5.196 -10.081 -11.541  1.00  0.00     0.173 A 
ATOM     71  F   UNL     1      -4.710 -12.592 -14.118  1.00  0.00    -0.203 F 
ATOM     72  C   UNL     1      -6.480 -12.267 -12.623  1.00  0.00     0.198 A 
ATOM     73  C   UNL     1      -6.426 -10.496 -11.035  1.00  0.00     0.198 A 
ATOM     74  F   UNL     1      -4.728  -8.946 -11.011  1.00  0.00    -0.203 F 
ATOM     75  F   UNL     1      -7.133 -13.278 -13.212  1.00  0.00    -0.200 F 
ATOM     76  C   UNL     1      -7.085 -11.566 -11.598  1.00  0.00     0.200 A 
ATOM     77  F   UNL     1      -7.003  -9.791 -10.050  1.00  0.00    -0.200 F 
ATOM     78  F   UNL     1      -8.316 -11.890 -11.184  1.00  0.00    -0.200 F 
ENDBRANCH  54  68
BRANCH  55  79
ATOM     79  C   UNL     1      -6.922  -2.920 -15.443  1.00  0.00     0.064 A 
ATOM     80  C   UNL     1      -8.142  -2.831 -16.137  1.00  0.00     0.173 A 
ATOM     81  C   UNL     1      -6.845  -2.208 -14.230  1.00  0.00     0.173 A 
ATOM     82  F   UNL     1      -8.323  -3.525 -17.270  1.00  0.00    -0.203 F 
ATOM     83  C   UNL     1      -9.220  -2.084 -15.642  1.00  0.00     0.198 A 
ATOM     84  C   UNL     1      -7.920  -1.466 -13.735  1.00  0.00     0.198 A 
ATOM     85  F   UNL     1      -5.755  -2.302 -13.454  1.00  0.00    -0.203 F 
ATOM     86  F   UNL     1     -10.385  -2.064 -16.305  1.00  0.00    -0.200 F 
ATOM     87  C   UNL     1      -9.111  -1.410 -14.436  1.00  0.00     0.200 A 
ATOM     88  F   UNL     1      -7.817  -0.859 -12.545  1.00  0.00    -0.200 F 
ATOM     89  F   UNL     1     -10.160  -0.746 -13.931  1.00  0.00    -0.200 F 
ENDBRANCH  55  79
BRANCH  67  90
ATOM     90  C   UNL     1      -3.795  -7.439 -18.553  1.00  0.00     0.064 A 
ATOM     91  C   UNL     1      -3.046  -6.251 -18.632  1.00  0.00     0.173 A 
ATOM     92  C   UNL     1      -3.807  -8.261 -19.686  1.00  0.00     0.173 A 
ATOM     93  F   UNL     1      -2.904  -5.452 -17.568  1.00  0.00    -0.203 F 
ATOM     94  C   UNL     1      -2.374  -5.891 -19.802  1.00  0.00     0.198 A 
ATOM     95  C   UNL     1      -3.109  -7.918 -20.841  1.00  0.00     0.198 A 
ATOM     96  F   UNL     1      -4.459  -9.434 -19.654  1.00  0.00    -0.203 F 
ATOM     97  F   UNL     1      -1.669  -4.749 -19.852  1.00  0.00    -0.200 F 
ATOM     98  C   UNL     1      -2.401  -6.729 -20.903  1.00  0.00     0.200 A 
ATOM     99  F   UNL     1      -3.100  -8.758 -21.884  1.00  0.00    -0.200 F 
ATOM    100  F   UNL     1      -1.726  -6.406 -22.015  1.00  0.00    -0.200 F 
ENDBRANCH  67  90
ENDBRANCH  41  42
ENDBRANCH  33  36
ENDBRANCH  31  32
ENDBRANCH  30  31
ENDBRANCH  29  30
ENDBRANCH   1  29
TORSDOF 18
