REMARK SMILES CCc1nn(C)c(C[C@@H](C(=O)NCCCCNC(=O)c2ccc(-c3c4nc(c(-c5c(F)c(F)c(F)c(F)c5F)c5ccc([nH]5)c(-c5c(F)c(F)c(F)c(F)c5F)c5nc(c(-c6c(F)c(F)c(F)c(F)c6F)c6ccc3[nH]6)C=C5)C=C4)cc2)c2cccc(C)c2)c1Br
REMARK SMILES IDX 14 1 13 2 12 3 10 4 11 5 9 7 8 8 7 9 3 10 4 11 90 12 5 13
REMARK SMILES IDX 91 14 6 15 2 16 1 17 83 18 84 19 89 20 85 21 87 22 86 23
REMARK SMILES IDX 88 24 15 25 16 26 17 27 18 28 19 30 20 31 21 32 82 33 22 34
REMARK SMILES IDX 81 35 23 36 24 37 25 38 75 39 26 40 80 41 74 42 76 43 27 44
REMARK SMILES IDX 79 45 73 46 72 47 28 49 60 50 40 51 59 52 41 53 44 54 58 55
REMARK SMILES IDX 77 56 42 57 43 58 57 60 78 61 45 62 29 63 30 64 38 65 31 66
REMARK SMILES IDX 32 67 36 68 39 69 33 70 34 71 37 72 35 73 61 74 62 75 70 76
REMARK SMILES IDX 63 77 64 78 68 79 71 80 65 81 66 82 69 83 67 84 46 85 47 86
REMARK SMILES IDX 55 87 48 88 49 89 53 90 56 91 50 92 51 93 54 94 52 95
REMARK H PARENT 12 6 17 29 76 48 44 59
REMARK Flexibility Score: inf
ROOT
ATOM      1  C   UNL     1       2.349   0.008   3.783  1.00  0.00     0.023 C 
ENDROOT
BRANCH   1   2
ATOM      2  C   UNL     1       3.547  -0.937   3.942  1.00  0.00     0.116 C 
BRANCH   2   3
ATOM      3  N   UNL     1       3.731  -1.397   5.305  1.00  0.00    -0.356 N 
ATOM      4  C   UNL     1       3.637  -2.597   5.939  1.00  0.00     0.227 C 
ATOM      5  O   UNL     1       3.939  -2.525   7.137  1.00  0.00    -0.274 OA
ATOM      6  H   UNL     1       3.985  -0.668   5.916  1.00  0.00     0.163 HD
BRANCH   4   7
ATOM      7  C   UNL     1       3.237  -3.942   5.260  1.00  0.00     0.114 C 
BRANCH   7   8
ATOM      8  C   UNL     1       1.729  -4.177   5.015  1.00  0.00     0.075 C 
BRANCH   8   9
ATOM      9  C   UNL     1       1.005  -3.324   4.044  1.00  0.00     0.054 A 
ATOM     10  C   UNL     1       0.061  -2.292   2.308  1.00  0.00     0.077 A 
ATOM     11  N   UNL     1      -0.529  -1.773   3.397  1.00  0.00    -0.177 NA
ATOM     12  C   UNL     1       0.975  -3.304   2.670  1.00  0.00     0.062 A 
ATOM     13  N   UNL     1       0.063  -2.402   4.434  1.00  0.00    -0.271 N 
ATOM     14  Br  UNL     1       1.968  -4.368   1.492  1.00  0.00    -0.047 Br
ATOM     15  C   UNL     1      -0.160  -1.917   5.781  1.00  0.00     0.174 C 
BRANCH  10  16
ATOM     16  C   UNL     1      -0.260  -1.744   0.957  1.00  0.00     0.056 C 
ATOM     17  C   UNL     1       0.576  -0.515   0.617  1.00  0.00     0.011 C 
ENDBRANCH  10  16
ENDBRANCH   8   9
ENDBRANCH   7   8
BRANCH   7  18
ATOM     18  C   UNL     1       3.580  -5.172   6.155  1.00  0.00    -0.035 A 
ATOM     19  C   UNL     1       4.109  -6.345   5.600  1.00  0.00     0.004 A 
ATOM     20  C   UNL     1       3.088  -5.228   7.479  1.00  0.00     0.008 A 
ATOM     21  C   UNL     1       4.110  -7.535   6.340  1.00  0.00     0.001 A 
ATOM     22  C   UNL     1       3.067  -6.415   8.216  1.00  0.00    -0.051 A 
ATOM     23  C   UNL     1       3.580  -7.574   7.634  1.00  0.00     0.003 A 
ATOM     24  C   UNL     1       2.429  -6.447   9.574  1.00  0.00     0.044 C 
ENDBRANCH   7  18
ENDBRANCH   4   7
ENDBRANCH   2   3
ENDBRANCH   1   2
BRANCH   1  25
ATOM     25  C   UNL     1       2.199   1.258   4.657  1.00  0.00     0.023 C 
BRANCH  25  26
ATOM     26  C   UNL     1       2.724   2.554   4.051  1.00  0.00     0.116 C 
BRANCH  26  27
ATOM     27  N   UNL     1       2.129   2.889   2.747  1.00  0.00    -0.352 N 
ATOM     28  C   UNL     1       2.711   3.551   1.676  1.00  0.00     0.251 C 
ATOM     29  H   UNL     1       1.194   2.608   2.618  1.00  0.00     0.163 HD
ATOM     30  O   UNL     1       2.052   4.047   0.771  1.00  0.00    -0.269 OA
BRANCH  28  31
ATOM     31  C   UNL     1       4.178   3.619   1.657  1.00  0.00     0.039 A 
ATOM     32  C   UNL     1       4.861   4.837   1.646  1.00  0.00     0.014 A 
ATOM     33  C   UNL     1       4.819   2.425   1.950  1.00  0.00     0.014 A 
ATOM     34  C   UNL     1       6.178   4.859   2.103  1.00  0.00     0.010 A 
ATOM     35  C   UNL     1       6.015   2.500   2.610  1.00  0.00     0.010 A 
ATOM     36  C   UNL     1       6.732   3.692   2.656  1.00  0.00    -0.014 A 
BRANCH  36  37
ATOM     37  C   UNL     1       7.998   3.714   3.391  1.00  0.00     0.031 A 
ATOM     38  C   UNL     1       8.188   4.849   4.335  1.00  0.00     0.074 A 
ATOM     39  C   UNL     1       8.885   2.693   3.387  1.00  0.00     0.049 A 
ATOM     40  N   UNL     1       8.926   5.894   4.153  1.00  0.00    -0.248 NA
ATOM     41  C   UNL     1       7.405   4.890   5.579  1.00  0.00     0.031 C 
ATOM     42  C   UNL     1       8.742   1.359   2.783  1.00  0.00     0.029 A 
ATOM     43  N   UNL     1      10.099   2.607   4.005  1.00  0.00    -0.354 N 
ATOM     44  C   UNL     1       8.882   6.610   5.347  1.00  0.00     0.074 A 
ATOM     45  C   UNL     1       7.791   6.058   6.105  1.00  0.00     0.031 C 
ATOM     46  C   UNL     1       9.687   0.530   3.265  1.00  0.00     0.029 A 
ATOM     47  C   UNL     1      10.642   1.333   3.998  1.00  0.00     0.049 A 
ATOM     48  H   UNL     1      10.548   3.380   4.418  1.00  0.00     0.167 HD
ATOM     49  C   UNL     1       9.936   7.393   5.718  1.00  0.00     0.037 A 
ATOM     50  C   UNL     1      11.840   0.939   4.476  1.00  0.00     0.037 A 
ATOM     51  C   UNL     1      10.884   7.510   4.638  1.00  0.00     0.049 A 
ATOM     52  C   UNL     1      12.727   2.120   4.474  1.00  0.00     0.074 A 
ATOM     53  C   UNL     1      10.995   8.221   3.465  1.00  0.00     0.029 A 
ATOM     54  N   UNL     1      11.764   6.463   4.566  1.00  0.00    -0.354 N 
ATOM     55  N   UNL     1      13.100   2.733   3.383  1.00  0.00    -0.248 NA
ATOM     56  C   UNL     1      12.941   2.860   5.712  1.00  0.00     0.031 C 
ATOM     57  C   UNL     1      11.849   7.455   2.613  1.00  0.00     0.029 A 
ATOM     58  C   UNL     1      12.263   6.316   3.300  1.00  0.00     0.049 A 
ATOM     59  H   UNL     1      12.006   5.888   5.328  1.00  0.00     0.167 HD
ATOM     60  C   UNL     1      13.177   4.061   3.752  1.00  0.00     0.074 A 
ATOM     61  C   UNL     1      13.259   4.054   5.206  1.00  0.00     0.031 C 
ATOM     62  C   UNL     1      12.833   5.054   2.883  1.00  0.00     0.037 A 
BRANCH  49  63
ATOM     63  C   UNL     1      10.388   7.668   7.138  1.00  0.00     0.064 A 
ATOM     64  C   UNL     1      11.401   8.627   7.361  1.00  0.00     0.173 A 
ATOM     65  C   UNL     1      10.111   6.817   8.228  1.00  0.00     0.173 A 
ATOM     66  F   UNL     1      11.763   9.476   6.387  1.00  0.00    -0.203 F 
ATOM     67  C   UNL     1      12.123   8.680   8.558  1.00  0.00     0.198 A 
ATOM     68  C   UNL     1      10.798   6.908   9.440  1.00  0.00     0.198 A 
ATOM     69  F   UNL     1       9.256   5.793   8.129  1.00  0.00    -0.203 F 
ATOM     70  F   UNL     1      13.154   9.527   8.679  1.00  0.00    -0.200 F 
ATOM     71  C   UNL     1      11.824   7.817   9.595  1.00  0.00     0.200 A 
ATOM     72  F   UNL     1      10.510   6.046  10.425  1.00  0.00    -0.200 F 
ATOM     73  F   UNL     1      12.550   7.824  10.720  1.00  0.00    -0.200 F 
ENDBRANCH  49  63
BRANCH  50  74
ATOM     74  C   UNL     1      12.181  -0.354   5.095  1.00  0.00     0.064 A 
ATOM     75  C   UNL     1      13.506  -0.798   5.170  1.00  0.00     0.173 A 
ATOM     76  C   UNL     1      11.230  -1.045   5.872  1.00  0.00     0.173 A 
ATOM     77  F   UNL     1      14.466  -0.175   4.473  1.00  0.00    -0.203 F 
ATOM     78  C   UNL     1      13.872  -1.846   6.019  1.00  0.00     0.198 A 
ATOM     79  C   UNL     1      11.596  -2.091   6.716  1.00  0.00     0.198 A 
ATOM     80  F   UNL     1       9.947  -0.651   5.895  1.00  0.00    -0.203 F 
ATOM     81  F   UNL     1      15.160  -2.201   6.121  1.00  0.00    -0.200 F 
ATOM     82  C   UNL     1      12.921  -2.478   6.804  1.00  0.00     0.200 A 
ATOM     83  F   UNL     1      10.672  -2.674   7.493  1.00  0.00    -0.200 F 
ATOM     84  F   UNL     1      13.286  -3.430   7.674  1.00  0.00    -0.200 F 
ENDBRANCH  50  74
BRANCH  62  85
ATOM     85  C   UNL     1      12.902   4.744   1.420  1.00  0.00     0.064 A 
ATOM     86  C   UNL     1      12.059   3.840   0.754  1.00  0.00     0.173 A 
ATOM     87  C   UNL     1      13.838   5.442   0.646  1.00  0.00     0.173 A 
ATOM     88  F   UNL     1      11.092   3.189   1.409  1.00  0.00    -0.203 F 
ATOM     89  C   UNL     1      12.181   3.615  -0.617  1.00  0.00     0.198 A 
ATOM     90  C   UNL     1      13.937   5.240  -0.727  1.00  0.00     0.198 A 
ATOM     91  F   UNL     1      14.644   6.347   1.223  1.00  0.00    -0.203 F 
ATOM     92  F   UNL     1      11.380   2.728  -1.227  1.00  0.00    -0.200 F 
ATOM     93  C   UNL     1      13.117   4.318  -1.356  1.00  0.00     0.200 A 
ATOM     94  F   UNL     1      14.819   5.952  -1.442  1.00  0.00    -0.200 F 
ATOM     95  F   UNL     1      13.220   4.121  -2.678  1.00  0.00    -0.200 F 
ENDBRANCH  62  85
ENDBRANCH  36  37
ENDBRANCH  28  31
ENDBRANCH  26  27
ENDBRANCH  25  26
ENDBRANCH   1  25
TORSDOF 15
