REMARK SMILES O=C(NCCCCNC(=O)c1ccc(-c2ccc(Cl)cc2)cc1F)c1ccc(-c2c3nc(c(-c4c(F)c(F)c(F)c(F)c4F)c4ccc([nH]4)c(-c4c(F)c(F)c(F)c(F)c4F)c4nc(c(-c5c(F)c(F)c(F)c(F)c5F)c5ccc2[nH]5)C=C4)C=C3)cc1
REMARK SMILES IDX 5 1 4 2 3 3 1 4 2 5 25 7 26 8 87 9 27 10 86 11 28 12 29 13
REMARK SMILES IDX 30 14 80 15 31 16 85 17 79 18 81 19 32 20 84 21 78 22 77 23
REMARK SMILES IDX 33 25 65 26 45 27 64 28 46 29 49 30 63 31 82 32 47 33 48 34
REMARK SMILES IDX 62 36 83 37 50 38 34 39 35 40 43 41 36 42 37 43 41 44 44 45
REMARK SMILES IDX 38 46 39 47 42 48 40 49 66 50 67 51 75 52 68 53 69 54 73 55
REMARK SMILES IDX 76 56 70 57 71 58 74 59 72 60 51 61 52 62 60 63 53 64 54 65
REMARK SMILES IDX 58 66 61 67 55 68 56 69 59 70 57 71 6 72 7 73 8 74 9 75
REMARK SMILES IDX 10 77 11 78 12 79 23 80 13 81 22 82 24 83 14 84 15 85 16 86
REMARK SMILES IDX 21 87 17 88 20 89 18 90 19 91
REMARK H PARENT 3 6 81 24 49 35 8 76
REMARK Flexibility Score: inf
ROOT
ATOM      1  C   UNL     1       4.778  -0.358  -2.773  1.00  0.00     0.023 C 
ENDROOT
BRANCH   1   2
ATOM      2  C   UNL     1       4.489   0.304  -1.433  1.00  0.00     0.116 C 
BRANCH   2   3
ATOM      3  N   UNL     1       3.067   0.430  -1.149  1.00  0.00    -0.352 N 
ATOM      4  O   UNL     1       1.132   0.074  -0.038  1.00  0.00    -0.269 OA
ATOM      5  C   UNL     1       2.356  -0.008  -0.056  1.00  0.00     0.251 C 
ATOM      6  H   UNL     1       2.539   0.896  -1.837  1.00  0.00     0.163 HD
BRANCH   5   7
ATOM      7  C   UNL     1       3.072  -0.612   1.089  1.00  0.00     0.039 A 
ATOM      8  C   UNL     1       4.231  -0.020   1.590  1.00  0.00     0.014 A 
ATOM      9  C   UNL     1       2.589  -1.796   1.655  1.00  0.00     0.014 A 
ATOM     10  C   UNL     1       4.998  -0.697   2.529  1.00  0.00     0.010 A 
ATOM     11  C   UNL     1       3.312  -2.426   2.674  1.00  0.00     0.010 A 
ATOM     12  C   UNL     1       4.543  -1.902   3.093  1.00  0.00    -0.014 A 
BRANCH  12  13
ATOM     13  C   UNL     1       5.361  -2.542   4.155  1.00  0.00     0.031 A 
ATOM     14  C   UNL     1       6.011  -3.882   3.948  1.00  0.00     0.074 A 
ATOM     15  C   UNL     1       5.581  -1.853   5.292  1.00  0.00     0.049 A 
ATOM     16  N   UNL     1       6.826  -4.531   4.744  1.00  0.00    -0.248 NA
ATOM     17  C   UNL     1       5.710  -4.593   2.696  1.00  0.00     0.031 C 
ATOM     18  C   UNL     1       4.994  -0.547   5.605  1.00  0.00     0.029 A 
ATOM     19  N   UNL     1       6.386  -2.120   6.369  1.00  0.00    -0.354 N 
ATOM     20  C   UNL     1       7.122  -5.724   4.099  1.00  0.00     0.074 A 
ATOM     21  C   UNL     1       6.384  -5.726   2.854  1.00  0.00     0.031 C 
ATOM     22  C   UNL     1       5.521  -0.091   6.749  1.00  0.00     0.029 A 
ATOM     23  C   UNL     1       6.432  -1.097   7.284  1.00  0.00     0.049 A 
ATOM     24  H   UNL     1       6.883  -2.963   6.476  1.00  0.00     0.167 HD
ATOM     25  C   UNL     1       7.944  -6.720   4.509  1.00  0.00     0.037 A 
ATOM     26  C   UNL     1       7.129  -0.977   8.429  1.00  0.00     0.037 A 
ATOM     27  C   UNL     1       8.698  -6.702   5.737  1.00  0.00     0.049 A 
ATOM     28  C   UNL     1       8.028  -2.101   8.855  1.00  0.00     0.074 A 
ATOM     29  C   UNL     1       9.570  -7.660   6.226  1.00  0.00     0.029 A 
ATOM     30  N   UNL     1       8.675  -5.672   6.665  1.00  0.00    -0.354 N 
ATOM     31  N   UNL     1       8.301  -3.220   8.231  1.00  0.00    -0.248 NA
ATOM     32  C   UNL     1       8.705  -1.950  10.149  1.00  0.00     0.031 C 
ATOM     33  C   UNL     1      10.048  -7.226   7.466  1.00  0.00     0.029 A 
ATOM     34  C   UNL     1       9.507  -5.979   7.730  1.00  0.00     0.049 A 
ATOM     35  H   UNL     1       8.147  -4.846   6.579  1.00  0.00     0.167 HD
ATOM     36  C   UNL     1       9.181  -3.907   9.053  1.00  0.00     0.074 A 
ATOM     37  C   UNL     1       9.422  -3.064  10.206  1.00  0.00     0.031 C 
ATOM     38  C   UNL     1       9.732  -5.131   8.872  1.00  0.00     0.037 A 
BRANCH  25  39
ATOM     39  C   UNL     1       8.087  -7.928   3.631  1.00  0.00     0.064 A 
ATOM     40  C   UNL     1       7.538  -9.159   4.022  1.00  0.00     0.173 A 
ATOM     41  C   UNL     1       8.863  -7.896   2.464  1.00  0.00     0.173 A 
ATOM     42  F   UNL     1       6.794  -9.244   5.135  1.00  0.00    -0.203 F 
ATOM     43  C   UNL     1       7.779 -10.318   3.288  1.00  0.00     0.198 A 
ATOM     44  C   UNL     1       9.085  -9.053   1.720  1.00  0.00     0.198 A 
ATOM     45  F   UNL     1       9.403  -6.742   2.044  1.00  0.00    -0.203 F 
ATOM     46  F   UNL     1       7.276 -11.489   3.701  1.00  0.00    -0.200 F 
ATOM     47  C   UNL     1       8.553 -10.264   2.139  1.00  0.00     0.200 A 
ATOM     48  F   UNL     1       9.821  -8.997   0.601  1.00  0.00    -0.200 F 
ATOM     49  F   UNL     1       8.790 -11.380   1.435  1.00  0.00    -0.200 F 
ENDBRANCH  25  39
BRANCH  26  50
ATOM     50  C   UNL     1       7.008   0.262   9.238  1.00  0.00     0.064 A 
ATOM     51  C   UNL     1       5.813   0.590   9.894  1.00  0.00     0.173 A 
ATOM     52  C   UNL     1       8.081   1.158   9.346  1.00  0.00     0.173 A 
ATOM     53  F   UNL     1       4.757  -0.233   9.817  1.00  0.00    -0.203 F 
ATOM     54  C   UNL     1       5.688   1.779  10.608  1.00  0.00     0.198 A 
ATOM     55  C   UNL     1       7.963   2.332  10.086  1.00  0.00     0.198 A 
ATOM     56  F   UNL     1       9.250   0.877   8.751  1.00  0.00    -0.203 F 
ATOM     57  F   UNL     1       4.522   2.086  11.193  1.00  0.00    -0.200 F 
ATOM     58  C   UNL     1       6.764   2.646  10.709  1.00  0.00     0.200 A 
ATOM     59  F   UNL     1       9.014   3.156  10.200  1.00  0.00    -0.200 F 
ATOM     60  F   UNL     1       6.648   3.783  11.408  1.00  0.00    -0.200 F 
ENDBRANCH  26  50
BRANCH  38  61
ATOM     61  C   UNL     1      10.649  -5.633   9.945  1.00  0.00     0.064 A 
ATOM     62  C   UNL     1      12.032  -5.713   9.722  1.00  0.00     0.173 A 
ATOM     63  C   UNL     1      10.152  -6.079  11.178  1.00  0.00     0.173 A 
ATOM     64  F   UNL     1      12.553  -5.306   8.555  1.00  0.00    -0.203 F 
ATOM     65  C   UNL     1      12.883  -6.228  10.695  1.00  0.00     0.198 A 
ATOM     66  C   UNL     1      11.010  -6.569  12.158  1.00  0.00     0.198 A 
ATOM     67  F   UNL     1       8.839  -6.008  11.441  1.00  0.00    -0.203 F 
ATOM     68  F   UNL     1      14.199  -6.316  10.453  1.00  0.00    -0.200 F 
ATOM     69  C   UNL     1      12.373  -6.649  11.913  1.00  0.00     0.200 A 
ATOM     70  F   UNL     1      10.519  -6.953  13.344  1.00  0.00    -0.200 F 
ATOM     71  F   UNL     1      13.197  -7.129  12.856  1.00  0.00    -0.200 F 
ENDBRANCH  38  61
ENDBRANCH  12  13
ENDBRANCH   5   7
ENDBRANCH   2   3
ENDBRANCH   1   2
BRANCH   1  72
ATOM     72  C   UNL     1       4.301   0.419  -3.997  1.00  0.00     0.023 C 
BRANCH  72  73
ATOM     73  C   UNL     1       4.756   1.874  -4.063  1.00  0.00     0.116 C 
BRANCH  73  74
ATOM     74  N   UNL     1       6.204   2.012  -4.046  1.00  0.00    -0.352 N 
ATOM     75  C   UNL     1       7.006   2.731  -4.895  1.00  0.00     0.254 C 
ATOM     76  H   UNL     1       6.670   1.525  -3.329  1.00  0.00     0.163 HD
ATOM     77  O   UNL     1       8.228   2.680  -4.794  1.00  0.00    -0.269 OA
BRANCH  75  78
ATOM     78  C   UNL     1       6.399   3.517  -5.977  1.00  0.00     0.075 A 
ATOM     79  C   UNL     1       6.743   3.226  -7.297  1.00  0.00     0.017 A 
ATOM     80  C   UNL     1       5.481   4.525  -5.703  1.00  0.00     0.136 A 
ATOM     81  C   UNL     1       6.107   3.908  -8.340  1.00  0.00     0.010 A 
ATOM     82  C   UNL     1       4.843   5.198  -6.740  1.00  0.00     0.048 A 
ATOM     83  F   UNL     1       5.157   4.837  -4.439  1.00  0.00    -0.206 F 
ATOM     84  C   UNL     1       5.133   4.890  -8.080  1.00  0.00    -0.015 A 
BRANCH  84  85
ATOM     85  C   UNL     1       4.423   5.570  -9.177  1.00  0.00    -0.018 A 
ATOM     86  C   UNL     1       4.289   6.969  -9.194  1.00  0.00     0.010 A 
ATOM     87  C   UNL     1       3.841   4.838 -10.227  1.00  0.00     0.010 A 
ATOM     88  C   UNL     1       3.596   7.615 -10.222  1.00  0.00     0.021 A 
ATOM     89  C   UNL     1       3.149   5.481 -11.258  1.00  0.00     0.021 A 
ATOM     90  C   UNL     1       3.029   6.868 -11.250  1.00  0.00     0.041 A 
ATOM     91  Cl  UNL     1       2.175   7.661 -12.514  1.00  0.00    -0.084 Cl
ENDBRANCH  84  85
ENDBRANCH  75  78
ENDBRANCH  73  74
ENDBRANCH  72  73
ENDBRANCH   1  72
TORSDOF 12
