REMARK SMILES CC(C)C[C@H](CNc1cccc(F)c1C#N)CC(=O)NCCCCNC(=O)c1ccc(-c2c3nc(c(-c4c(F)c(F)c(F)c(F)c4F)c4ccc([nH]4)c(-c4c(F)c(F)c(F)c(F)c4F)c4nc(c(-c5c(F)c(F)c(F)c(F)c5F)c5ccc2[nH]5)C=C4)C=C3)cc1
REMARK SMILES IDX 21 1 20 2 18 3 19 4 17 6 5 7 4 8 2 9 1 10 3 11 6 12 7 13
REMARK SMILES IDX 8 15 9 16 14 17 10 18 12 19 11 20 13 21 15 22 16 23 22 24
REMARK SMILES IDX 23 25 24 26 25 27 26 28 27 30 28 31 29 32 90 33 30 34 89 35
REMARK SMILES IDX 31 36 32 37 33 38 83 39 34 40 88 41 82 42 84 43 35 44 87 45
REMARK SMILES IDX 81 46 80 47 36 49 68 50 48 51 67 52 49 53 52 54 66 55 85 56
REMARK SMILES IDX 50 57 51 58 65 60 86 61 53 62 37 63 38 64 46 65 39 66 40 67
REMARK SMILES IDX 44 68 47 69 41 70 42 71 45 72 43 73 69 74 70 75 78 76 71 77
REMARK SMILES IDX 72 78 76 79 79 80 73 81 74 82 77 83 75 84 54 85 55 86 63 87
REMARK SMILES IDX 56 88 57 89 61 90 64 91 58 92 59 93 62 94 60 95
REMARK H PARENT 20 5 7 14 25 29 84 48 52 59
REMARK Flexibility Score: inf
ROOT
ATOM      1  C   UNL     1      -3.139  -2.083   1.082  1.00  0.00     0.116 C 
ENDROOT
BRANCH   1   2
ATOM      2  N   UNL     1      -3.594  -0.721   0.934  1.00  0.00    -0.356 N 
ATOM      3  C   UNL     1      -3.301   0.171  -0.054  1.00  0.00     0.220 C 
ATOM      4  O   UNL     1      -3.560   1.359   0.141  1.00  0.00    -0.275 OA
ATOM      5  H   UNL     1      -4.197  -0.393   1.640  1.00  0.00     0.163 HD
BRANCH   3   6
ATOM      6  C   UNL     1      -2.740  -0.303  -1.389  1.00  0.00     0.105 C 
BRANCH   6   7
ATOM      7  C   UNL     1      -1.202  -0.198  -1.602  1.00  0.00     0.018 C 
BRANCH   7   8
ATOM      8  C   UNL     1      -0.908  -0.139  -3.116  1.00  0.00     0.009 C 
BRANCH   8   9
ATOM      9  C   UNL     1      -1.204   1.206  -3.807  1.00  0.00    -0.017 C 
ATOM     10  C   UNL     1      -0.472   2.374  -3.141  1.00  0.00     0.007 C 
ATOM     11  C   UNL     1      -0.776   1.098  -5.273  1.00  0.00     0.007 C 
ENDBRANCH   8   9
ENDBRANCH   7   8
BRANCH   7  12
ATOM     12  C   UNL     1      -0.449  -1.371  -0.932  1.00  0.00     0.117 C 
BRANCH  12  13
ATOM     13  N   UNL     1       0.956  -1.530  -1.295  1.00  0.00    -0.384 N 
ATOM     14  H   UNL     1       1.180  -1.833  -2.204  1.00  0.00     0.160 HD
BRANCH  13  15
ATOM     15  C   UNL     1       1.989  -1.269  -0.401  1.00  0.00     0.055 A 
ATOM     16  C   UNL     1       2.904  -0.263  -0.747  1.00  0.00     0.027 A 
ATOM     17  C   UNL     1       2.167  -1.917   0.838  1.00  0.00     0.111 A 
ATOM     18  C   UNL     1       3.927   0.129   0.123  1.00  0.00     0.005 A 
ATOM     19  C   UNL     1       3.161  -1.482   1.722  1.00  0.00     0.143 A 
ATOM     20  C   UNL     1       4.039  -0.464   1.375  1.00  0.00     0.041 A 
ATOM     21  F   UNL     1       3.302  -2.062   2.925  1.00  0.00    -0.205 F 
BRANCH  17  22
ATOM     22  C   UNL     1       1.458  -3.107   1.183  1.00  0.00     0.104 C 
ATOM     23  N   UNL     1       0.900  -4.090   1.460  1.00  0.00    -0.192 NA
ENDBRANCH  17  22
ENDBRANCH  13  15
ENDBRANCH  12  13
ENDBRANCH   7  12
ENDBRANCH   6   7
ENDBRANCH   3   6
ENDBRANCH   1   2
BRANCH   1  24
ATOM     24  C   UNL     1      -1.822  -2.086   1.846  1.00  0.00     0.023 C 
BRANCH  24  25
ATOM     25  C   UNL     1      -1.869  -2.327   3.333  1.00  0.00     0.023 C 
BRANCH  25  26
ATOM     26  C   UNL     1      -2.377  -3.696   3.706  1.00  0.00     0.116 C 
BRANCH  26  27
ATOM     27  N   UNL     1      -1.516  -4.796   3.287  1.00  0.00    -0.352 N 
ATOM     28  C   UNL     1      -1.169  -5.919   4.004  1.00  0.00     0.251 C 
ATOM     29  H   UNL     1      -1.137  -4.727   2.381  1.00  0.00     0.163 HD
ATOM     30  O   UNL     1      -0.416  -6.773   3.554  1.00  0.00    -0.269 OA
BRANCH  28  31
ATOM     31  C   UNL     1      -1.669  -6.038   5.386  1.00  0.00     0.039 A 
ATOM     32  C   UNL     1      -0.748  -6.265   6.409  1.00  0.00     0.014 A 
ATOM     33  C   UNL     1      -3.007  -5.771   5.674  1.00  0.00     0.014 A 
ATOM     34  C   UNL     1      -1.163  -6.148   7.733  1.00  0.00     0.010 A 
ATOM     35  C   UNL     1      -3.375  -5.501   6.981  1.00  0.00     0.010 A 
ATOM     36  C   UNL     1      -2.466  -5.716   8.027  1.00  0.00    -0.014 A 
BRANCH  36  37
ATOM     37  C   UNL     1      -2.921  -5.527   9.425  1.00  0.00     0.031 A 
ATOM     38  C   UNL     1      -4.094  -6.322   9.930  1.00  0.00     0.074 A 
ATOM     39  C   UNL     1      -2.319  -4.616  10.213  1.00  0.00     0.049 A 
ATOM     40  N   UNL     1      -4.690  -6.270  11.094  1.00  0.00    -0.248 NA
ATOM     41  C   UNL     1      -4.705  -7.277   8.989  1.00  0.00     0.031 C 
ATOM     42  C   UNL     1      -1.207  -3.750   9.816  1.00  0.00     0.029 A 
ATOM     43  N   UNL     1      -2.562  -4.264  11.517  1.00  0.00    -0.354 N 
ATOM     44  C   UNL     1      -5.745  -7.169  11.013  1.00  0.00     0.074 A 
ATOM     45  C   UNL     1      -5.763  -7.689   9.666  1.00  0.00     0.031 C 
ATOM     46  C   UNL     1      -0.838  -2.998  10.865  1.00  0.00     0.029 A 
ATOM     47  C   UNL     1      -1.719  -3.288  11.991  1.00  0.00     0.049 A 
ATOM     48  H   UNL     1      -3.272  -4.673  12.062  1.00  0.00     0.167 HD
ATOM     49  C   UNL     1      -6.601  -7.553  11.987  1.00  0.00     0.037 A 
ATOM     50  C   UNL     1      -1.673  -2.690  13.196  1.00  0.00     0.037 A 
ATOM     51  C   UNL     1      -6.561  -7.044  13.330  1.00  0.00     0.049 A 
ATOM     52  C   UNL     1      -2.656  -3.116  14.255  1.00  0.00     0.074 A 
ATOM     53  C   UNL     1      -7.345  -7.404  14.411  1.00  0.00     0.029 A 
ATOM     54  N   UNL     1      -5.692  -6.058  13.774  1.00  0.00    -0.354 N 
ATOM     55  N   UNL     1      -3.603  -4.022  14.193  1.00  0.00    -0.248 NA
ATOM     56  C   UNL     1      -2.560  -2.440  15.555  1.00  0.00     0.031 C 
ATOM     57  C   UNL     1      -7.002  -6.582  15.487  1.00  0.00     0.029 A 
ATOM     58  C   UNL     1      -5.947  -5.770  15.104  1.00  0.00     0.049 A 
ATOM     59  H   UNL     1      -4.998  -5.627  13.225  1.00  0.00     0.167 HD
ATOM     60  C   UNL     1      -4.190  -4.049  15.450  1.00  0.00     0.074 A 
ATOM     61  C   UNL     1      -3.480  -3.082  16.261  1.00  0.00     0.031 C 
ATOM     62  C   UNL     1      -5.223  -4.807  15.896  1.00  0.00     0.037 A 
BRANCH  49  63
ATOM     63  C   UNL     1      -7.654  -8.564  11.630  1.00  0.00     0.064 A 
ATOM     64  C   UNL     1      -7.328  -9.888  11.291  1.00  0.00     0.173 A 
ATOM     65  C   UNL     1      -9.011  -8.211  11.651  1.00  0.00     0.173 A 
ATOM     66  F   UNL     1      -6.045 -10.277  11.239  1.00  0.00    -0.203 F 
ATOM     67  C   UNL     1      -8.318 -10.807  10.955  1.00  0.00     0.198 A 
ATOM     68  C   UNL     1     -10.001  -9.144  11.355  1.00  0.00     0.198 A 
ATOM     69  F   UNL     1      -9.381  -6.961  11.968  1.00  0.00    -0.203 F 
ATOM     70  F   UNL     1      -7.978 -12.046  10.575  1.00  0.00    -0.200 F 
ATOM     71  C   UNL     1      -9.654 -10.438  10.997  1.00  0.00     0.200 A 
ATOM     72  F   UNL     1     -11.292  -8.789  11.412  1.00  0.00    -0.200 F 
ATOM     73  F   UNL     1     -10.607 -11.326  10.685  1.00  0.00    -0.200 F 
ENDBRANCH  49  63
BRANCH  50  74
ATOM     74  C   UNL     1      -0.659  -1.637  13.472  1.00  0.00     0.064 A 
ATOM     75  C   UNL     1       0.359  -1.839  14.415  1.00  0.00     0.173 A 
ATOM     76  C   UNL     1      -0.694  -0.399  12.811  1.00  0.00     0.173 A 
ATOM     77  F   UNL     1       0.428  -2.998  15.088  1.00  0.00    -0.203 F 
ATOM     78  C   UNL     1       1.280  -0.835  14.711  1.00  0.00     0.198 A 
ATOM     79  C   UNL     1       0.250   0.590  13.080  1.00  0.00     0.198 A 
ATOM     80  F   UNL     1      -1.642  -0.153  11.894  1.00  0.00    -0.203 F 
ATOM     81  F   UNL     1       2.202  -1.034  15.662  1.00  0.00    -0.200 F 
ATOM     82  C   UNL     1       1.228   0.376  14.039  1.00  0.00     0.200 A 
ATOM     83  F   UNL     1       0.207   1.752  12.414  1.00  0.00    -0.200 F 
ATOM     84  F   UNL     1       2.114   1.341  14.322  1.00  0.00    -0.200 F 
ENDBRANCH  50  74
BRANCH  62  85
ATOM     85  C   UNL     1      -5.618  -4.656  17.338  1.00  0.00     0.064 A 
ATOM     86  C   UNL     1      -6.215  -3.485  17.827  1.00  0.00     0.173 A 
ATOM     87  C   UNL     1      -5.432  -5.720  18.235  1.00  0.00     0.173 A 
ATOM     88  F   UNL     1      -6.407  -2.434  17.015  1.00  0.00    -0.203 F 
ATOM     89  C   UNL     1      -6.576  -3.371  19.167  1.00  0.00     0.198 A 
ATOM     90  C   UNL     1      -5.833  -5.619  19.564  1.00  0.00     0.198 A 
ATOM     91  F   UNL     1      -4.877  -6.868  17.819  1.00  0.00    -0.203 F 
ATOM     92  F   UNL     1      -7.085  -2.220  19.626  1.00  0.00    -0.200 F 
ATOM     93  C   UNL     1      -6.393  -4.440  20.032  1.00  0.00     0.200 A 
ATOM     94  F   UNL     1      -5.677  -6.662  20.390  1.00  0.00    -0.200 F 
ATOM     95  F   UNL     1      -6.751  -4.332  21.318  1.00  0.00    -0.200 F 
ENDBRANCH  62  85
ENDBRANCH  36  37
ENDBRANCH  28  31
ENDBRANCH  26  27
ENDBRANCH  25  26
ENDBRANCH  24  25
ENDBRANCH   1  24
TORSDOF 18
