REMARK SMILES Cc1ccnc(C(=O)c2[nH]c3cc(Cl)c(F)cc3c2CC(=O)NCCCCNC(=O)c2ccc(-c3c4nc(c(-c5c(F)c(F)c(F)c(F)c5F)c5ccc([nH]5)c(-c5c(F)c(F)c(F)c(F)c5F)c5nc(c(-c6c(F)c(F)c(F)c(F)c6F)c6ccc3[nH]6)C=C5)C=C4)cc2)c1
REMARK SMILES IDX 25 1 24 2 23 3 21 4 22 5 20 7 19 8 9 9 10 10 11 11 18 13
REMARK SMILES IDX 12 14 17 15 13 16 15 17 14 18 16 19 7 20 8 21 6 22 1 23 2 24
REMARK SMILES IDX 3 25 94 26 4 27 5 28 26 29 27 30 28 31 29 32 30 34 31 35
REMARK SMILES IDX 32 36 93 37 33 38 92 39 34 40 35 41 36 42 86 43 37 44 91 45
REMARK SMILES IDX 85 46 87 47 38 48 90 49 84 50 83 51 39 53 71 54 51 55 70 56
REMARK SMILES IDX 52 57 55 58 69 59 88 60 53 61 54 62 68 64 89 65 56 66 40 67
REMARK SMILES IDX 41 68 49 69 42 70 43 71 47 72 50 73 44 74 45 75 48 76 46 77
REMARK SMILES IDX 72 78 73 79 81 80 74 81 75 82 79 83 82 84 76 85 77 86 80 87
REMARK SMILES IDX 78 88 57 89 58 90 66 91 59 92 60 93 64 94 67 95 61 96 62 97
REMARK SMILES IDX 65 98 63 99
REMARK H PARENT 23 6 10 12 28 33 87 52 55 63
REMARK Flexibility Score: inf
ROOT
ATOM      1  C   UNL     1      -2.739  -3.520   0.902  1.00  0.00     0.023 C 
ENDROOT
BRANCH   1   2
ATOM      2  C   UNL     1      -2.863  -3.500  -0.643  1.00  0.00     0.116 C 
BRANCH   2   3
ATOM      3  N   UNL     1      -2.220  -2.420  -1.375  1.00  0.00    -0.356 N 
ATOM      4  C   UNL     1      -1.073  -2.368  -2.120  1.00  0.00     0.224 C 
ATOM      5  O   UNL     1      -0.830  -1.317  -2.717  1.00  0.00    -0.275 OA
ATOM      6  H   UNL     1      -2.701  -1.563  -1.325  1.00  0.00     0.163 HD
BRANCH   4   7
ATOM      7  C   UNL     1      -0.148  -3.554  -2.260  1.00  0.00     0.138 C 
BRANCH   7   8
ATOM      8  C   UNL     1       0.257  -4.186  -0.967  1.00  0.00    -0.002 A 
ATOM      9  C   UNL     1       1.075  -3.678   0.042  1.00  0.00     0.093 A 
ATOM     10  N   UNL     1       1.245  -4.712   0.951  1.00  0.00    -0.351 N 
ATOM     11  C   UNL     1       0.434  -5.785   0.651  1.00  0.00     0.048 A 
ATOM     12  H   UNL     1       1.867  -4.683   1.714  1.00  0.00     0.167 HD
ATOM     13  C   UNL     1      -0.152  -5.509  -0.578  1.00  0.00     0.007 A 
ATOM     14  C   UNL     1       0.183  -6.979   1.350  1.00  0.00     0.050 A 
ATOM     15  C   UNL     1      -1.014  -6.472  -1.152  1.00  0.00     0.051 A 
ATOM     16  C   UNL     1      -0.725  -7.887   0.786  1.00  0.00     0.078 A 
ATOM     17  C   UNL     1      -1.318  -7.631  -0.443  1.00  0.00     0.142 A 
ATOM     18  Cl  UNL     1      -1.112  -9.333   1.642  1.00  0.00    -0.081 Cl
ATOM     19  F   UNL     1      -2.221  -8.475  -0.965  1.00  0.00    -0.205 F 
BRANCH   9  20
ATOM     20  C   UNL     1       1.826  -2.416   0.188  1.00  0.00     0.227 C 
ATOM     21  O   UNL     1       3.033  -2.457   0.347  1.00  0.00    -0.285 OA
BRANCH  20  22
ATOM     22  C   UNL     1       1.118  -1.062   0.223  1.00  0.00     0.113 A 
ATOM     23  C   UNL     1      -2.361   0.518   0.178  1.00  0.00     0.044 C 
ATOM     24  C   UNL     1      -0.874   0.323   0.256  1.00  0.00    -0.047 A 
ATOM     25  C   UNL     1      -0.062   1.430   0.068  1.00  0.00     0.023 A 
ATOM     26  C   UNL     1      -0.252  -0.924   0.425  1.00  0.00     0.036 A 
ATOM     27  C   UNL     1       1.306   1.236  -0.007  1.00  0.00     0.112 A 
ATOM     28  N   UNL     1       1.910   0.025   0.047  1.00  0.00    -0.253 NA
ENDBRANCH  20  22
ENDBRANCH   9  20
ENDBRANCH   7   8
ENDBRANCH   4   7
ENDBRANCH   2   3
ENDBRANCH   1   2
BRANCH   1  29
ATOM     29  C   UNL     1      -3.490  -2.453   1.725  1.00  0.00     0.023 C 
BRANCH  29  30
ATOM     30  C   UNL     1      -4.903  -2.182   1.239  1.00  0.00     0.116 C 
BRANCH  30  31
ATOM     31  N   UNL     1      -5.733  -3.339   1.424  1.00  0.00    -0.352 N 
ATOM     32  C   UNL     1      -6.741  -3.662   2.276  1.00  0.00     0.251 C 
ATOM     33  H   UNL     1      -5.524  -4.062   0.789  1.00  0.00     0.163 HD
ATOM     34  O   UNL     1      -7.327  -4.711   2.033  1.00  0.00    -0.269 OA
BRANCH  32  35
ATOM     35  C   UNL     1      -7.026  -2.957   3.547  1.00  0.00     0.039 A 
ATOM     36  C   UNL     1      -6.618  -1.704   3.998  1.00  0.00     0.014 A 
ATOM     37  C   UNL     1      -7.680  -3.783   4.459  1.00  0.00     0.014 A 
ATOM     38  C   UNL     1      -6.498  -1.527   5.397  1.00  0.00     0.010 A 
ATOM     39  C   UNL     1      -7.918  -3.340   5.732  1.00  0.00     0.010 A 
ATOM     40  C   UNL     1      -6.942  -2.546   6.288  1.00  0.00    -0.014 A 
BRANCH  40  41
ATOM     41  C   UNL     1      -7.058  -2.445   7.788  1.00  0.00     0.031 A 
ATOM     42  C   UNL     1      -7.817  -1.099   7.972  1.00  0.00     0.074 A 
ATOM     43  C   UNL     1      -6.651  -3.404   8.748  1.00  0.00     0.049 A 
ATOM     44  N   UNL     1      -7.234   0.023   8.262  1.00  0.00    -0.248 NA
ATOM     45  C   UNL     1      -9.180  -0.794   7.408  1.00  0.00     0.031 C 
ATOM     46  C   UNL     1      -5.967  -4.750   8.651  1.00  0.00     0.029 A 
ATOM     47  N   UNL     1      -6.706  -3.362  10.166  1.00  0.00    -0.354 N 
ATOM     48  C   UNL     1      -8.241   0.981   8.398  1.00  0.00     0.074 A 
ATOM     49  C   UNL     1      -9.334   0.520   7.618  1.00  0.00     0.031 C 
ATOM     50  C   UNL     1      -6.005  -5.455   9.834  1.00  0.00     0.029 A 
ATOM     51  C   UNL     1      -6.573  -4.631  10.887  1.00  0.00     0.049 A 
ATOM     52  H   UNL     1      -6.829  -2.512  10.647  1.00  0.00     0.167 HD
ATOM     53  C   UNL     1      -8.188   1.821   9.467  1.00  0.00     0.037 A 
ATOM     54  C   UNL     1      -6.631  -4.873  12.270  1.00  0.00     0.037 A 
ATOM     55  C   UNL     1      -6.846   1.777   9.998  1.00  0.00     0.049 A 
ATOM     56  C   UNL     1      -6.515  -3.536  12.899  1.00  0.00     0.074 A 
ATOM     57  C   UNL     1      -5.609   2.145   9.514  1.00  0.00     0.029 A 
ATOM     58  N   UNL     1      -6.654   0.694  10.813  1.00  0.00    -0.354 N 
ATOM     59  N   UNL     1      -5.405  -2.857  12.834  1.00  0.00    -0.248 NA
ATOM     60  C   UNL     1      -7.769  -2.796  12.940  1.00  0.00     0.031 C 
ATOM     61  C   UNL     1      -4.715   1.097   9.885  1.00  0.00     0.029 A 
ATOM     62  C   UNL     1      -5.371   0.240  10.760  1.00  0.00     0.049 A 
ATOM     63  H   UNL     1      -7.359   0.292  11.370  1.00  0.00     0.167 HD
ATOM     64  C   UNL     1      -5.814  -1.654  12.292  1.00  0.00     0.074 A 
ATOM     65  C   UNL     1      -7.294  -1.676  12.383  1.00  0.00     0.031 C 
ATOM     66  C   UNL     1      -4.977  -0.940  11.477  1.00  0.00     0.037 A 
BRANCH  53  67
ATOM     67  C   UNL     1      -9.364   2.209  10.339  1.00  0.00     0.064 A 
ATOM     68  C   UNL     1      -9.157   3.180  11.339  1.00  0.00     0.173 A 
ATOM     69  C   UNL     1     -10.585   1.502  10.430  1.00  0.00     0.173 A 
ATOM     70  F   UNL     1      -8.006   3.869  11.384  1.00  0.00    -0.203 F 
ATOM     71  C   UNL     1     -10.092   3.427  12.348  1.00  0.00     0.198 A 
ATOM     72  C   UNL     1     -11.539   1.779  11.416  1.00  0.00     0.198 A 
ATOM     73  F   UNL     1     -10.862   0.461   9.634  1.00  0.00    -0.203 F 
ATOM     74  F   UNL     1      -9.813   4.316  13.310  1.00  0.00    -0.200 F 
ATOM     75  C   UNL     1     -11.288   2.734  12.380  1.00  0.00     0.200 A 
ATOM     76  F   UNL     1     -12.681   1.076  11.455  1.00  0.00    -0.200 F 
ATOM     77  F   UNL     1     -12.181   2.965  13.352  1.00  0.00    -0.200 F 
ENDBRANCH  53  67
BRANCH  54  78
ATOM     78  C   UNL     1      -7.278  -5.971  13.139  1.00  0.00     0.064 A 
ATOM     79  C   UNL     1      -7.184  -6.103  14.566  1.00  0.00     0.173 A 
ATOM     80  C   UNL     1      -8.339  -6.685  12.572  1.00  0.00     0.173 A 
ATOM     81  F   UNL     1      -6.230  -5.460  15.259  1.00  0.00    -0.203 F 
ATOM     82  C   UNL     1      -8.116  -6.858  15.331  1.00  0.00     0.198 A 
ATOM     83  C   UNL     1      -9.276  -7.405  13.332  1.00  0.00     0.198 A 
ATOM     84  F   UNL     1      -8.549  -6.606  11.254  1.00  0.00    -0.203 F 
ATOM     85  F   UNL     1      -8.021  -6.931  16.671  1.00  0.00    -0.200 F 
ATOM     86  C   UNL     1      -9.180  -7.483  14.709  1.00  0.00     0.200 A 
ATOM     87  F   UNL     1     -10.322  -7.969  12.712  1.00  0.00    -0.200 F 
ATOM     88  F   UNL     1     -10.124  -8.120  15.420  1.00  0.00    -0.200 F 
ENDBRANCH  54  78
BRANCH  66  89
ATOM     89  C   UNL     1      -3.534  -1.358  11.333  1.00  0.00     0.064 A 
ATOM     90  C   UNL     1      -3.034  -2.404  10.531  1.00  0.00     0.173 A 
ATOM     91  C   UNL     1      -2.594  -0.496  11.901  1.00  0.00     0.173 A 
ATOM     92  F   UNL     1      -3.855  -3.179   9.814  1.00  0.00    -0.203 F 
ATOM     93  C   UNL     1      -1.657  -2.614  10.381  1.00  0.00     0.198 A 
ATOM     94  C   UNL     1      -1.228  -0.675  11.713  1.00  0.00     0.198 A 
ATOM     95  F   UNL     1      -3.012   0.586  12.575  1.00  0.00    -0.203 F 
ATOM     96  F   UNL     1      -1.200  -3.619   9.617  1.00  0.00    -0.200 F 
ATOM     97  C   UNL     1      -0.756  -1.748  10.978  1.00  0.00     0.200 A 
ATOM     98  F   UNL     1      -0.374   0.227  12.210  1.00  0.00    -0.200 F 
ATOM     99  F   UNL     1       0.563  -1.922  10.815  1.00  0.00    -0.200 F 
ENDBRANCH  66  89
ENDBRANCH  40  41
ENDBRANCH  32  35
ENDBRANCH  30  31
ENDBRANCH  29  30
ENDBRANCH   1  29
TORSDOF 14
