REMARK SMILES [NH3+][C@@]1(C(=O)NCCCCNC(=O)c2ccc(-c3c4nc(c(-c5c(F)c(F)c(F)c(F)c5F)c5ccc([nH]5)c(-c5c(F)c(F)c(F)c(F)c5F)c5nc(c(-c6c(F)c(F)c(F)c(F)c6F)c6ccc3[nH]6)C=C5)C=C4)cc2)CCC[C@@H](Oc2ccc3c(c2)OCO3)C1
REMARK SMILES IDX 7 1 6 2 5 3 3 4 4 5 2 7 76 8 90 9 77 10 79 11 78 12 1 13
REMARK SMILES IDX 80 17 81 18 82 19 86 20 83 21 85 22 84 23 87 24 89 25 88 26
REMARK SMILES IDX 8 27 9 28 10 29 11 30 12 32 13 33 14 34 75 35 15 36 74 37
REMARK SMILES IDX 16 38 17 39 18 40 68 41 19 42 73 43 67 44 69 45 20 46 72 47
REMARK SMILES IDX 66 48 65 49 21 51 53 52 33 53 52 54 34 55 37 56 51 57 70 58
REMARK SMILES IDX 35 59 36 60 50 62 71 63 38 64 22 65 23 66 31 67 24 68 25 69
REMARK SMILES IDX 29 70 32 71 26 72 27 73 30 74 28 75 54 76 55 77 63 78 56 79
REMARK SMILES IDX 57 80 61 81 64 82 58 83 59 84 62 85 60 86 39 87 40 88 48 89
REMARK SMILES IDX 41 90 42 91 46 92 49 93 43 94 44 95 47 96 45 97
REMARK H PARENT 5 6 1 14 1 15 1 16 10 31 69 50 37 61
REMARK Flexibility Score: inf
ROOT
ATOM      1  C   UNL     1      -4.136  -0.990  -2.159  1.00  0.00     0.023 C 
ENDROOT
BRANCH   1   2
ATOM      2  C   UNL     1      -4.041   0.405  -1.519  1.00  0.00     0.116 C 
BRANCH   2   3
ATOM      3  N   UNL     1      -3.750   0.391  -0.092  1.00  0.00    -0.351 N 
ATOM      4  C   UNL     1      -2.581   0.305   0.618  1.00  0.00     0.281 C 
ATOM      5  O   UNL     1      -2.677   0.488   1.838  1.00  0.00    -0.268 OA
ATOM      6  H   UNL     1      -4.552   0.455   0.476  1.00  0.00     0.163 HD
BRANCH   4   7
ATOM      7  C   UNL     1      -1.175   0.037  -0.035  1.00  0.00     0.177 C 
ATOM      8  C   UNL     1      -0.414  -0.982   0.838  1.00  0.00     0.079 C 
ATOM      9  C   UNL     1      -0.369   1.358  -0.132  1.00  0.00     0.124 C 
ATOM     10  C   UNL     1       1.021  -1.230   0.365  1.00  0.00     0.011 C 
ATOM     11  C   UNL     1       1.145   1.234  -0.449  1.00  0.00     0.180 C 
ATOM     12  C   UNL     1       1.833   0.061   0.280  1.00  0.00     0.046 C 
BRANCH   7  13
ATOM     13  N   UNL     1      -1.353  -0.591  -1.339  1.00  0.00    -0.345 N 
ATOM     14  H   UNL     1      -0.440  -0.764  -1.760  1.00  0.00     0.345 HD
ATOM     15  H   UNL     1      -1.894   0.027  -1.943  1.00  0.00     0.345 HD
ATOM     16  H   UNL     1      -1.848  -1.475  -1.225  1.00  0.00     0.345 HD
ENDBRANCH   7  13
BRANCH  11  17
ATOM     17  O   UNL     1       1.519   1.507  -1.833  1.00  0.00    -0.490 OA
BRANCH  17  18
ATOM     18  C   UNL     1       1.408   0.487  -2.731  1.00  0.00     0.123 A 
ATOM     19  C   UNL     1       2.365  -0.539  -2.773  1.00  0.00     0.050 A 
ATOM     20  C   UNL     1       0.296   0.457  -3.570  1.00  0.00     0.097 A 
ATOM     21  C   UNL     1       2.072  -1.746  -3.411  1.00  0.00     0.054 A 
ATOM     22  C   UNL     1      -0.013  -0.772  -4.113  1.00  0.00     0.169 A 
ATOM     23  C   UNL     1       0.829  -1.858  -3.986  1.00  0.00     0.166 A 
ATOM     24  O   UNL     1      -1.250  -1.141  -4.561  1.00  0.00    -0.453 OA
ATOM     25  O   UNL     1       0.213  -3.022  -4.335  1.00  0.00    -0.454 OA
ATOM     26  C   UNL     1      -1.157  -2.568  -4.348  1.00  0.00     0.468 C 
ENDBRANCH  17  18
ENDBRANCH  11  17
ENDBRANCH   4   7
ENDBRANCH   2   3
ENDBRANCH   1   2
BRANCH   1  27
ATOM     27  C   UNL     1      -5.551  -1.501  -2.410  1.00  0.00     0.023 C 
BRANCH  27  28
ATOM     28  C   UNL     1      -6.368  -0.683  -3.400  1.00  0.00     0.116 C 
BRANCH  28  29
ATOM     29  N   UNL     1      -5.867  -0.692  -4.768  1.00  0.00    -0.352 N 
ATOM     30  C   UNL     1      -6.607  -0.575  -5.933  1.00  0.00     0.251 C 
ATOM     31  H   UNL     1      -4.894  -0.793  -4.876  1.00  0.00     0.163 HD
ATOM     32  O   UNL     1      -6.087  -0.653  -7.029  1.00  0.00    -0.269 OA
BRANCH  30  33
ATOM     33  C   UNL     1      -8.075  -0.409  -5.807  1.00  0.00     0.039 A 
ATOM     34  C   UNL     1      -8.918  -1.320  -6.446  1.00  0.00     0.014 A 
ATOM     35  C   UNL     1      -8.597   0.563  -4.953  1.00  0.00     0.014 A 
ATOM     36  C   UNL     1     -10.283  -1.321  -6.142  1.00  0.00     0.010 A 
ATOM     37  C   UNL     1      -9.933   0.496  -4.579  1.00  0.00     0.010 A 
ATOM     38  C   UNL     1     -10.789  -0.451  -5.162  1.00  0.00    -0.014 A 
BRANCH  38  39
ATOM     39  C   UNL     1     -12.207  -0.510  -4.719  1.00  0.00     0.031 A 
ATOM     40  C   UNL     1     -13.087   0.699  -4.877  1.00  0.00     0.074 A 
ATOM     41  C   UNL     1     -12.672  -1.606  -4.086  1.00  0.00     0.049 A 
ATOM     42  N   UNL     1     -14.305   0.903  -4.444  1.00  0.00    -0.248 NA
ATOM     43  C   UNL     1     -12.501   1.852  -5.579  1.00  0.00     0.031 C 
ATOM     44  C   UNL     1     -11.899  -2.818  -3.809  1.00  0.00     0.029 A 
ATOM     45  N   UNL     1     -13.906  -1.871  -3.545  1.00  0.00    -0.354 N 
ATOM     46  C   UNL     1     -14.614   2.211  -4.793  1.00  0.00     0.074 A 
ATOM     47  C   UNL     1     -13.437   2.774  -5.416  1.00  0.00     0.031 C 
ATOM     48  C   UNL     1     -12.684  -3.707  -3.177  1.00  0.00     0.029 A 
ATOM     49  C   UNL     1     -14.002  -3.115  -2.969  1.00  0.00     0.049 A 
ATOM     50  H   UNL     1     -14.653  -1.230  -3.568  1.00  0.00     0.167 HD
ATOM     51  C   UNL     1     -15.784   2.874  -4.636  1.00  0.00     0.037 A 
ATOM     52  C   UNL     1     -15.036  -3.708  -2.341  1.00  0.00     0.037 A 
ATOM     53  C   UNL     1     -16.968   2.293  -4.062  1.00  0.00     0.049 A 
ATOM     54  C   UNL     1     -16.336  -2.961  -2.207  1.00  0.00     0.074 A 
ATOM     55  C   UNL     1     -18.226   2.853  -3.928  1.00  0.00     0.029 A 
ATOM     56  N   UNL     1     -17.039   1.013  -3.534  1.00  0.00    -0.354 N 
ATOM     57  N   UNL     1     -16.639  -1.750  -2.606  1.00  0.00    -0.248 NA
ATOM     58  C   UNL     1     -17.441  -3.667  -1.543  1.00  0.00     0.031 C 
ATOM     59  C   UNL     1     -19.050   1.923  -3.285  1.00  0.00     0.029 A 
ATOM     60  C   UNL     1     -18.317   0.769  -3.059  1.00  0.00     0.049 A 
ATOM     61  H   UNL     1     -16.292   0.373  -3.501  1.00  0.00     0.167 HD
ATOM     62  C   UNL     1     -17.972  -1.558  -2.268  1.00  0.00     0.074 A 
ATOM     63  C   UNL     1     -18.424  -2.784  -1.644  1.00  0.00     0.031 C 
ATOM     64  C   UNL     1     -18.751  -0.465  -2.455  1.00  0.00     0.037 A 
BRANCH  51  65
ATOM     65  C   UNL     1     -15.840   4.298  -5.109  1.00  0.00     0.064 A 
ATOM     66  C   UNL     1     -15.785   4.623  -6.473  1.00  0.00     0.173 A 
ATOM     67  C   UNL     1     -15.968   5.350  -4.190  1.00  0.00     0.173 A 
ATOM     68  F   UNL     1     -15.650   3.655  -7.393  1.00  0.00    -0.203 F 
ATOM     69  C   UNL     1     -15.816   5.949  -6.897  1.00  0.00     0.198 A 
ATOM     70  C   UNL     1     -16.032   6.673  -4.620  1.00  0.00     0.198 A 
ATOM     71  F   UNL     1     -16.031   5.096  -2.874  1.00  0.00    -0.203 F 
ATOM     72  F   UNL     1     -15.700   6.236  -8.201  1.00  0.00    -0.200 F 
ATOM     73  C   UNL     1     -15.946   6.972  -5.971  1.00  0.00     0.200 A 
ATOM     74  F   UNL     1     -16.171   7.661  -3.725  1.00  0.00    -0.200 F 
ATOM     75  F   UNL     1     -15.979   8.248  -6.381  1.00  0.00    -0.200 F 
ENDBRANCH  51  65
BRANCH  52  76
ATOM     76  C   UNL     1     -14.899  -5.095  -1.823  1.00  0.00     0.064 A 
ATOM     77  C   UNL     1     -15.585  -6.157  -2.430  1.00  0.00     0.173 A 
ATOM     78  C   UNL     1     -14.094  -5.390  -0.713  1.00  0.00     0.173 A 
ATOM     79  F   UNL     1     -16.384  -5.923  -3.481  1.00  0.00    -0.203 F 
ATOM     80  C   UNL     1     -15.488  -7.456  -1.935  1.00  0.00     0.198 A 
ATOM     81  C   UNL     1     -13.975  -6.694  -0.235  1.00  0.00     0.198 A 
ATOM     82  F   UNL     1     -13.412  -4.412  -0.099  1.00  0.00    -0.203 F 
ATOM     83  F   UNL     1     -16.191  -8.443  -2.506  1.00  0.00    -0.200 F 
ATOM     84  C   UNL     1     -14.679  -7.725  -0.841  1.00  0.00     0.200 A 
ATOM     85  F   UNL     1     -13.182  -6.952   0.813  1.00  0.00    -0.200 F 
ATOM     86  F   UNL     1     -14.583  -8.974  -0.366  1.00  0.00    -0.200 F 
ENDBRANCH  52  76
BRANCH  64  87
ATOM     87  C   UNL     1     -20.182  -0.555  -2.016  1.00  0.00     0.064 A 
ATOM     88  C   UNL     1     -20.538  -0.538  -0.660  1.00  0.00     0.173 A 
ATOM     89  C   UNL     1     -21.213  -0.607  -2.967  1.00  0.00     0.173 A 
ATOM     90  F   UNL     1     -19.588  -0.504   0.287  1.00  0.00    -0.203 F 
ATOM     91  C   UNL     1     -21.874  -0.588  -0.271  1.00  0.00     0.198 A 
ATOM     92  C   UNL     1     -22.548  -0.628  -2.575  1.00  0.00     0.198 A 
ATOM     93  F   UNL     1     -20.924  -0.619  -4.277  1.00  0.00    -0.203 F 
ATOM     94  F   UNL     1     -22.190  -0.612   1.031  1.00  0.00    -0.200 F 
ATOM     95  C   UNL     1     -22.877  -0.625  -1.229  1.00  0.00     0.200 A 
ATOM     96  F   UNL     1     -23.516  -0.649  -3.502  1.00  0.00    -0.200 F 
ATOM     97  F   UNL     1     -24.163  -0.662  -0.852  1.00  0.00    -0.200 F 
ENDBRANCH  64  87
ENDBRANCH  38  39
ENDBRANCH  30  33
ENDBRANCH  28  29
ENDBRANCH  27  28
ENDBRANCH   1  27
TORSDOF 14
