REMARK SMILES C[C@@H]1OCC[C@@H]1C(=O)Nc1ccc(C(=O)NCCCCNC(=O)c2ccc(-c3c4nc(c(-c5c(F)c(F)c(F)c(F)c5F)c5ccc([nH]5)c(-c5c(F)c(F)c(F)c(F)c5F)c5nc(c(-c6c(F)c(F)c(F)c(F)c6F)c6ccc3[nH]6)C=C5)C=C4)cc2)cc1F
REMARK SMILES IDX 18 1 17 2 16 3 14 4 15 5 13 7 10 8 11 9 88 10 12 11 87 12
REMARK SMILES IDX 89 13 9 14 7 15 8 16 6 18 1 19 2 20 3 21 4 22 5 23 19 24
REMARK SMILES IDX 20 25 21 26 22 27 23 29 24 30 25 31 86 32 26 33 85 34 27 35
REMARK SMILES IDX 28 36 29 37 79 38 30 39 84 40 78 41 80 42 31 43 83 44 77 45
REMARK SMILES IDX 76 46 32 48 64 49 44 50 63 51 45 52 48 53 62 54 81 55 46 56
REMARK SMILES IDX 47 57 61 59 82 60 49 61 33 62 34 63 42 64 35 65 36 66 40 67
REMARK SMILES IDX 43 68 37 69 38 70 41 71 39 72 65 73 66 74 74 75 67 76 68 77
REMARK SMILES IDX 72 78 75 79 69 80 70 81 73 82 71 83 50 84 51 85 59 86 52 87
REMARK SMILES IDX 53 88 57 89 60 90 54 91 55 92 58 93 56 94
REMARK H PARENT 16 6 9 17 21 28 80 47 48 58
REMARK Flexibility Score: inf
ROOT
ATOM      1  C   UNL     1       2.257  -3.185   4.703  1.00  0.00     0.023 C 
ENDROOT
BRANCH   1   2
ATOM      2  C   UNL     1       1.659  -2.225   5.747  1.00  0.00     0.116 C 
BRANCH   2   3
ATOM      3  N   UNL     1       2.665  -1.315   6.283  1.00  0.00    -0.352 N 
ATOM      4  C   UNL     1       3.142  -0.085   5.879  1.00  0.00     0.251 C 
ATOM      5  O   UNL     1       3.977   0.470   6.593  1.00  0.00    -0.269 OA
ATOM      6  H   UNL     1       3.093  -1.647   7.105  1.00  0.00     0.163 HD
BRANCH   4   7
ATOM      7  C   UNL     1       2.677   0.618   4.649  1.00  0.00     0.042 A 
ATOM      8  C   UNL     1       1.670   2.003   2.354  1.00  0.00     0.077 A 
ATOM      9  C   UNL     1       2.491   2.650   3.294  1.00  0.00     0.030 A 
ATOM     10  C   UNL     1       1.348   0.688   2.642  1.00  0.00     0.147 A 
ATOM     11  C   UNL     1       2.961   1.975   4.446  1.00  0.00     0.016 A 
ATOM     12  C   UNL     1       1.927  -0.010   3.681  1.00  0.00     0.055 A 
ATOM     13  F   UNL     1       0.405  -0.007   2.017  1.00  0.00    -0.205 F 
BRANCH   8  14
ATOM     14  N   UNL     1       1.294   2.724   1.200  1.00  0.00    -0.323 N 
ATOM     15  C   UNL     1       0.587   2.435   0.061  1.00  0.00     0.230 C 
ATOM     16  O   UNL     1       0.533   3.327  -0.793  1.00  0.00    -0.274 OA
ATOM     17  H   UNL     1       1.615   3.655   1.216  1.00  0.00     0.170 HD
BRANCH  15  18
ATOM     18  C   UNL     1      -0.132   1.122  -0.159  1.00  0.00     0.110 C 
ATOM     19  C   UNL     1       1.848   0.225  -1.574  1.00  0.00     0.039 C 
ATOM     20  C   UNL     1       0.724  -0.077  -0.592  1.00  0.00     0.127 C 
ATOM     21  O   UNL     1      -0.182  -1.005  -1.236  1.00  0.00    -0.378 OA
ATOM     22  C   UNL     1      -1.463  -0.370  -1.345  1.00  0.00     0.161 C 
ATOM     23  C   UNL     1      -1.193   1.117  -1.246  1.00  0.00     0.044 C 
ENDBRANCH  15  18
ENDBRANCH   8  14
ENDBRANCH   4   7
ENDBRANCH   2   3
ENDBRANCH   1   2
BRANCH   1  24
ATOM     24  C   UNL     1       2.805  -4.478   5.301  1.00  0.00     0.023 C 
BRANCH  24  25
ATOM     25  C   UNL     1       1.717  -5.425   5.784  1.00  0.00     0.116 C 
BRANCH  25  26
ATOM     26  N   UNL     1       0.938  -6.018   4.707  1.00  0.00    -0.352 N 
ATOM     27  C   UNL     1       0.251  -7.215   4.737  1.00  0.00     0.251 C 
ATOM     28  H   UNL     1       0.896  -5.510   3.865  1.00  0.00     0.163 HD
ATOM     29  O   UNL     1      -0.290  -7.664   3.744  1.00  0.00    -0.269 OA
BRANCH  27  30
ATOM     30  C   UNL     1       0.233  -7.971   6.010  1.00  0.00     0.039 A 
ATOM     31  C   UNL     1       0.689  -9.291   6.017  1.00  0.00     0.014 A 
ATOM     32  C   UNL     1      -0.155  -7.344   7.196  1.00  0.00     0.014 A 
ATOM     33  C   UNL     1       0.828  -9.962   7.234  1.00  0.00     0.010 A 
ATOM     34  C   UNL     1       0.051  -7.988   8.410  1.00  0.00     0.010 A 
ATOM     35  C   UNL     1       0.548  -9.300   8.441  1.00  0.00    -0.014 A 
BRANCH  35  36
ATOM     36  C   UNL     1       0.748  -9.956   9.756  1.00  0.00     0.031 A 
ATOM     37  C   UNL     1      -0.439 -10.214  10.640  1.00  0.00     0.074 A 
ATOM     38  C   UNL     1       1.992 -10.237  10.189  1.00  0.00     0.049 A 
ATOM     39  N   UNL     1      -0.473 -10.627  11.881  1.00  0.00    -0.248 NA
ATOM     40  C   UNL     1      -1.764  -9.940  10.061  1.00  0.00     0.031 C 
ATOM     41  C   UNL     1       3.224 -10.008   9.434  1.00  0.00     0.029 A 
ATOM     42  N   UNL     1       2.426 -10.762  11.381  1.00  0.00    -0.354 N 
ATOM     43  C   UNL     1      -1.814 -10.638  12.236  1.00  0.00     0.074 A 
ATOM     44  C   UNL     1      -2.562 -10.153  11.097  1.00  0.00     0.031 C 
ATOM     45  C   UNL     1       4.273 -10.408  10.172  1.00  0.00     0.029 A 
ATOM     46  C   UNL     1       3.792 -10.880  11.468  1.00  0.00     0.049 A 
ATOM     47  H   UNL     1       1.816 -11.029  12.106  1.00  0.00     0.167 HD
ATOM     48  C   UNL     1      -2.372 -11.037  13.402  1.00  0.00     0.037 A 
ATOM     49  C   UNL     1       4.568 -11.308  12.482  1.00  0.00     0.037 A 
ATOM     50  C   UNL     1      -1.629 -11.563  14.514  1.00  0.00     0.049 A 
ATOM     51  C   UNL     1       3.922 -11.751  13.768  1.00  0.00     0.074 A 
ATOM     52  C   UNL     1      -2.109 -12.039  15.721  1.00  0.00     0.029 A 
ATOM     53  N   UNL     1      -0.249 -11.695  14.549  1.00  0.00    -0.354 N 
ATOM     54  N   UNL     1       2.650 -11.783  14.082  1.00  0.00    -0.248 NA
ATOM     55  C   UNL     1       4.815 -12.215  14.839  1.00  0.00     0.031 C 
ATOM     56  C   UNL     1      -1.018 -12.432  16.500  1.00  0.00     0.029 A 
ATOM     57  C   UNL     1       0.139 -12.239  15.761  1.00  0.00     0.049 A 
ATOM     58  H   UNL     1       0.363 -11.440  13.821  1.00  0.00     0.167 HD
ATOM     59  C   UNL     1       2.588 -12.298  15.370  1.00  0.00     0.074 A 
ATOM     60  C   UNL     1       3.949 -12.567  15.781  1.00  0.00     0.031 C 
ATOM     61  C   UNL     1       1.498 -12.528  16.140  1.00  0.00     0.037 A 
BRANCH  48  62
ATOM     62  C   UNL     1      -3.861 -10.942  13.535  1.00  0.00     0.064 A 
ATOM     63  C   UNL     1      -4.439 -10.005  14.404  1.00  0.00     0.173 A 
ATOM     64  C   UNL     1      -4.713 -11.826  12.857  1.00  0.00     0.173 A 
ATOM     65  F   UNL     1      -3.666  -9.140  15.078  1.00  0.00    -0.203 F 
ATOM     66  C   UNL     1      -5.817  -9.967  14.600  1.00  0.00     0.198 A 
ATOM     67  C   UNL     1      -6.092 -11.767  13.036  1.00  0.00     0.198 A 
ATOM     68  F   UNL     1      -4.208 -12.730  12.005  1.00  0.00    -0.203 F 
ATOM     69  F   UNL     1      -6.346  -9.084  15.459  1.00  0.00    -0.200 F 
ATOM     70  C   UNL     1      -6.642 -10.845  13.914  1.00  0.00     0.200 A 
ATOM     71  F   UNL     1      -6.890 -12.601  12.355  1.00  0.00    -0.200 F 
ATOM     72  F   UNL     1      -7.969 -10.802  14.098  1.00  0.00    -0.200 F 
ENDBRANCH  48  62
BRANCH  49  73
ATOM     73  C   UNL     1       6.043 -11.368  12.312  1.00  0.00     0.064 A 
ATOM     74  C   UNL     1       6.822 -10.205  12.246  1.00  0.00     0.173 A 
ATOM     75  C   UNL     1       6.699 -12.602  12.198  1.00  0.00     0.173 A 
ATOM     76  F   UNL     1       6.242  -9.000  12.345  1.00  0.00    -0.203 F 
ATOM     77  C   UNL     1       8.202 -10.273  12.060  1.00  0.00     0.198 A 
ATOM     78  C   UNL     1       8.081 -12.670  12.037  1.00  0.00     0.198 A 
ATOM     79  F   UNL     1       5.998 -13.742  12.277  1.00  0.00    -0.203 F 
ATOM     80  F   UNL     1       8.921  -9.146  11.975  1.00  0.00    -0.200 F 
ATOM     81  C   UNL     1       8.831 -11.505  11.962  1.00  0.00     0.200 A 
ATOM     82  F   UNL     1       8.687 -13.863  11.966  1.00  0.00    -0.200 F 
ATOM     83  F   UNL     1      10.159 -11.571  11.799  1.00  0.00    -0.200 F 
ENDBRANCH  49  73
BRANCH  61  84
ATOM     84  C   UNL     1       1.709 -13.143  17.489  1.00  0.00     0.064 A 
ATOM     85  C   UNL     1       1.327 -14.473  17.725  1.00  0.00     0.173 A 
ATOM     86  C   UNL     1       2.177 -12.388  18.573  1.00  0.00     0.173 A 
ATOM     87  F   UNL     1       0.865 -15.231  16.719  1.00  0.00    -0.203 F 
ATOM     88  C   UNL     1       1.386 -15.017  19.004  1.00  0.00     0.198 A 
ATOM     89  C   UNL     1       2.255 -12.943  19.847  1.00  0.00     0.198 A 
ATOM     90  F   UNL     1       2.562 -11.116  18.392  1.00  0.00    -0.203 F 
ATOM     91  F   UNL     1       0.978 -16.277  19.214  1.00  0.00    -0.200 F 
ATOM     92  C   UNL     1       1.848 -14.252  20.064  1.00  0.00     0.200 A 
ATOM     93  F   UNL     1       2.717 -12.209  20.868  1.00  0.00    -0.200 F 
ATOM     94  F   UNL     1       1.899 -14.775  21.296  1.00  0.00    -0.200 F 
ENDBRANCH  61  84
ENDBRANCH  35  36
ENDBRANCH  27  30
ENDBRANCH  25  26
ENDBRANCH  24  25
ENDBRANCH   1  24
TORSDOF 13
