REMARK SMILES C[C@@H]1CCCC[C@@H]1NC(=O)NCc1ccc(C(=O)NCCCCNC(=O)c2ccc(-c3c4nc(c(-c5c(F)c(F)c(F)c(F)c5F)c5ccc([nH]5)c(-c5c(F)c(F)c(F)c(F)c5F)c5nc(c(-c6c(F)c(F)c(F)c(F)c6F)c6ccc3[nH]6)C=C5)C=C4)cc2)o1
REMARK SMILES IDX 21 1 20 2 19 3 17 4 18 5 16 7 13 8 14 9 90 10 15 11 12 12
REMARK SMILES IDX 11 13 8 14 9 15 10 17 7 19 1 20 2 21 3 22 4 23 6 24 5 25
REMARK SMILES IDX 22 26 23 27 24 28 25 29 26 31 27 32 28 33 89 34 29 35 88 36
REMARK SMILES IDX 30 37 31 38 32 39 82 40 33 41 87 42 81 43 83 44 34 45 86 46
REMARK SMILES IDX 80 47 79 48 35 50 67 51 47 52 66 53 48 54 51 55 65 56 84 57
REMARK SMILES IDX 49 58 50 59 64 61 85 62 52 63 36 64 37 65 45 66 38 67 39 68
REMARK SMILES IDX 43 69 46 70 40 71 41 72 44 73 42 74 68 75 69 76 77 77 70 78
REMARK SMILES IDX 71 79 75 80 78 81 72 82 73 83 76 84 74 85 53 86 54 87 62 88
REMARK SMILES IDX 55 89 56 90 60 91 63 92 57 93 58 94 61 95 59 96
REMARK H PARENT 19 6 8 16 11 18 24 30 83 49 51 60
REMARK Flexibility Score: inf
ROOT
ATOM      1  C   UNL     1       3.134   4.808  -5.353  1.00  0.00     0.023 C 
ENDROOT
BRANCH   1   2
ATOM      2  C   UNL     1       3.726   4.373  -4.013  1.00  0.00     0.116 C 
BRANCH   2   3
ATOM      3  N   UNL     1       2.690   4.216  -3.020  1.00  0.00    -0.349 N 
ATOM      4  C   UNL     1       1.940   3.120  -2.659  1.00  0.00     0.286 C 
ATOM      5  O   UNL     1       1.127   3.337  -1.758  1.00  0.00    -0.266 OA
ATOM      6  H   UNL     1       2.485   5.034  -2.514  1.00  0.00     0.163 HD
BRANCH   4   7
ATOM      7  C   UNL     1       2.107   1.819  -3.293  1.00  0.00     0.191 A 
ATOM      8  C   UNL     1       1.792  -0.384  -3.400  1.00  0.00     0.124 A 
ATOM      9  C   UNL     1       2.557  -0.046  -4.493  1.00  0.00     0.048 A 
ATOM     10  O   UNL     1       1.509   0.737  -2.676  1.00  0.00    -0.454 OA
ATOM     11  C   UNL     1       2.734   1.357  -4.439  1.00  0.00     0.056 A 
BRANCH   8  12
ATOM     12  C   UNL     1       1.244  -1.681  -2.929  1.00  0.00     0.193 C 
BRANCH  12  13
ATOM     13  N   UNL     1       2.111  -2.240  -1.915  1.00  0.00    -0.331 N 
ATOM     14  N   UNL     1       0.872  -2.216   0.097  1.00  0.00    -0.335 N 
ATOM     15  C   UNL     1       1.888  -2.654  -0.662  1.00  0.00     0.315 C 
ATOM     16  H   UNL     1       0.615  -2.830   0.823  1.00  0.00     0.165 HD
ATOM     17  O   UNL     1       2.661  -3.483  -0.180  1.00  0.00    -0.249 OA
ATOM     18  H   UNL     1       3.047  -2.335  -2.203  1.00  0.00     0.165 HD
BRANCH  14  19
ATOM     19  C   UNL     1       0.082  -0.996   0.037  1.00  0.00     0.086 C 
ATOM     20  C   UNL     1       1.036  -0.004   2.224  1.00  0.00     0.010 C 
ATOM     21  C   UNL     1       0.773   0.197   0.728  1.00  0.00     0.008 C 
ATOM     22  C   UNL     1      -0.083   1.451   0.480  1.00  0.00     0.005 C 
ATOM     23  C   UNL     1      -1.549   1.292   0.891  1.00  0.00     0.000 C 
ATOM     24  C   UNL     1      -1.334  -1.218   0.575  1.00  0.00     0.025 C 
ATOM     25  C   UNL     1      -2.185   0.025   0.321  1.00  0.00     0.002 C 
ENDBRANCH  14  19
ENDBRANCH  12  13
ENDBRANCH   8  12
ENDBRANCH   4   7
ENDBRANCH   2   3
ENDBRANCH   1   2
BRANCH   1  26
ATOM     26  C   UNL     1       2.987   6.326  -5.507  1.00  0.00     0.023 C 
BRANCH  26  27
ATOM     27  C   UNL     1       4.293   7.113  -5.433  1.00  0.00     0.116 C 
BRANCH  27  28
ATOM     28  N   UNL     1       5.307   6.647  -6.364  1.00  0.00    -0.352 N 
ATOM     29  C   UNL     1       6.312   7.365  -6.970  1.00  0.00     0.251 C 
ATOM     30  H   UNL     1       5.270   5.690  -6.592  1.00  0.00     0.163 HD
ATOM     31  O   UNL     1       7.032   6.842  -7.806  1.00  0.00    -0.269 OA
BRANCH  29  32
ATOM     32  C   UNL     1       6.482   8.792  -6.628  1.00  0.00     0.039 A 
ATOM     33  C   UNL     1       6.571   9.723  -7.665  1.00  0.00     0.014 A 
ATOM     34  C   UNL     1       6.523   9.209  -5.295  1.00  0.00     0.014 A 
ATOM     35  C   UNL     1       6.637  11.084  -7.364  1.00  0.00     0.010 A 
ATOM     36  C   UNL     1       6.519  10.568  -4.999  1.00  0.00     0.010 A 
ATOM     37  C   UNL     1       6.576  11.518  -6.030  1.00  0.00    -0.014 A 
BRANCH  37  38
ATOM     38  C   UNL     1       6.577  12.962  -5.693  1.00  0.00     0.031 A 
ATOM     39  C   UNL     1       7.720  13.552  -4.917  1.00  0.00     0.074 A 
ATOM     40  C   UNL     1       5.518  13.725  -6.028  1.00  0.00     0.049 A 
ATOM     41  N   UNL     1       7.873  14.771  -4.465  1.00  0.00    -0.248 NA
ATOM     42  C   UNL     1       8.827  12.644  -4.577  1.00  0.00     0.031 C 
ATOM     43  C   UNL     1       4.325  13.253  -6.734  1.00  0.00     0.029 A 
ATOM     44  N   UNL     1       5.268  15.056  -5.807  1.00  0.00    -0.354 N 
ATOM     45  C   UNL     1       9.079  14.770  -3.777  1.00  0.00     0.074 A 
ATOM     46  C   UNL     1       9.593  13.419  -3.824  1.00  0.00     0.031 C 
ATOM     47  C   UNL     1       3.480  14.283  -6.906  1.00  0.00     0.029 A 
ATOM     48  C   UNL     1       4.055  15.477  -6.294  1.00  0.00     0.049 A 
ATOM     49  H   UNL     1       5.899  15.653  -5.344  1.00  0.00     0.167 HD
ATOM     50  C   UNL     1       9.711  15.808  -3.181  1.00  0.00     0.037 A 
ATOM     51  C   UNL     1       3.472  16.690  -6.247  1.00  0.00     0.037 A 
ATOM     52  C   UNL     1       9.212  17.157  -3.166  1.00  0.00     0.049 A 
ATOM     53  C   UNL     1       4.205  17.830  -5.591  1.00  0.00     0.074 A 
ATOM     54  C   UNL     1       9.807  18.292  -2.644  1.00  0.00     0.029 A 
ATOM     55  N   UNL     1       7.995  17.554  -3.702  1.00  0.00    -0.354 N 
ATOM     56  N   UNL     1       5.378  17.832  -5.006  1.00  0.00    -0.248 NA
ATOM     57  C   UNL     1       3.536  19.138  -5.598  1.00  0.00     0.031 C 
ATOM     58  C   UNL     1       8.932  19.368  -2.827  1.00  0.00     0.029 A 
ATOM     59  C   UNL     1       7.815  18.913  -3.508  1.00  0.00     0.049 A 
ATOM     60  H   UNL     1       7.355  16.957  -4.153  1.00  0.00     0.167 HD
ATOM     61  C   UNL     1       5.603  19.143  -4.607  1.00  0.00     0.074 A 
ATOM     62  C   UNL     1       4.449  19.911  -5.027  1.00  0.00     0.031 C 
ATOM     63  C   UNL     1       6.668  19.664  -3.950  1.00  0.00     0.037 A 
BRANCH  50  64
ATOM     64  C   UNL     1      11.021  15.529  -2.504  1.00  0.00     0.064 A 
ATOM     65  C   UNL     1      12.178  15.224  -3.237  1.00  0.00     0.173 A 
ATOM     66  C   UNL     1      11.132  15.610  -1.108  1.00  0.00     0.173 A 
ATOM     67  F   UNL     1      12.122  15.121  -4.574  1.00  0.00    -0.203 F 
ATOM     68  C   UNL     1      13.391  14.986  -2.597  1.00  0.00     0.198 A 
ATOM     69  C   UNL     1      12.354  15.401  -0.473  1.00  0.00     0.198 A 
ATOM     70  F   UNL     1      10.059  15.903  -0.359  1.00  0.00    -0.203 F 
ATOM     71  F   UNL     1      14.471  14.651  -3.316  1.00  0.00    -0.200 F 
ATOM     72  C   UNL     1      13.480  15.083  -1.217  1.00  0.00     0.200 A 
ATOM     73  F   UNL     1      12.441  15.508   0.861  1.00  0.00    -0.200 F 
ATOM     74  F   UNL     1      14.651  14.863  -0.603  1.00  0.00    -0.200 F 
ENDBRANCH  50  64
BRANCH  51  75
ATOM     75  C   UNL     1       2.135  16.901  -6.862  1.00  0.00     0.064 A 
ATOM     76  C   UNL     1       1.989  17.686  -8.014  1.00  0.00     0.173 A 
ATOM     77  C   UNL     1       0.978  16.339  -6.305  1.00  0.00     0.173 A 
ATOM     78  F   UNL     1       3.065  18.260  -8.573  1.00  0.00    -0.203 F 
ATOM     79  C   UNL     1       0.734  17.924  -8.570  1.00  0.00     0.198 A 
ATOM     80  C   UNL     1      -0.274  16.554  -6.878  1.00  0.00     0.198 A 
ATOM     81  F   UNL     1       1.063  15.575  -5.206  1.00  0.00    -0.203 F 
ATOM     82  F   UNL     1       0.618  18.721  -9.640  1.00  0.00    -0.200 F 
ATOM     83  C   UNL     1      -0.396  17.355  -8.004  1.00  0.00     0.200 A 
ATOM     84  F   UNL     1      -1.362  15.990  -6.336  1.00  0.00    -0.200 F 
ATOM     85  F   UNL     1      -1.604  17.584  -8.537  1.00  0.00    -0.200 F 
ENDBRANCH  51  75
BRANCH  63  86
ATOM     86  C   UNL     1       6.659  21.141  -3.687  1.00  0.00     0.064 A 
ATOM     87  C   UNL     1       5.808  21.716  -2.732  1.00  0.00     0.173 A 
ATOM     88  C   UNL     1       7.543  21.987  -4.374  1.00  0.00     0.173 A 
ATOM     89  F   UNL     1       4.934  20.951  -2.060  1.00  0.00    -0.203 F 
ATOM     90  C   UNL     1       5.825  23.087  -2.493  1.00  0.00     0.198 A 
ATOM     91  C   UNL     1       7.579  23.353  -4.110  1.00  0.00     0.198 A 
ATOM     92  F   UNL     1       8.383  21.485  -5.292  1.00  0.00    -0.203 F 
ATOM     93  F   UNL     1       4.969  23.622  -1.610  1.00  0.00    -0.200 F 
ATOM     94  C   UNL     1       6.715  23.903  -3.176  1.00  0.00     0.200 A 
ATOM     95  F   UNL     1       8.449  24.137  -4.761  1.00  0.00    -0.200 F 
ATOM     96  F   UNL     1       6.734  25.222  -2.938  1.00  0.00    -0.200 F 
ENDBRANCH  63  86
ENDBRANCH  37  38
ENDBRANCH  29  32
ENDBRANCH  27  28
ENDBRANCH  26  27
ENDBRANCH   1  26
TORSDOF 14
