REMARK SMILES NC(=O)C[C@H](NC(=O)[C@@H]1CC(=O)N(CC2CC2)C1)C(=O)NCCCCNC(=O)c1ccc(-c2c3nc(c(-c4c(F)c(F)c(F)c(F)c4F)c4ccc([nH]4)c(-c4c(F)c(F)c(F)c(F)c4F)c4nc(c(-c5c(F)c(F)c(F)c(F)c5F)c5ccc2[nH]5)C=C4)C=C3)cc1
REMARK SMILES IDX 22 1 21 2 19 3 20 4 5 6 4 7 2 8 1 9 3 12 6 13 7 14 8 16 9 17
REMARK SMILES IDX 10 18 18 19 11 20 13 21 12 22 14 23 15 24 16 25 17 26 23 27
REMARK SMILES IDX 24 28 25 29 26 30 27 31 28 33 29 34 30 35 91 36 31 37 90 38
REMARK SMILES IDX 32 39 33 40 34 41 84 42 35 43 89 44 83 45 85 46 36 47 88 48
REMARK SMILES IDX 82 49 81 50 37 52 69 53 49 54 68 55 50 56 53 57 67 58 86 59
REMARK SMILES IDX 51 60 52 61 66 63 87 64 54 65 38 66 39 67 47 68 40 69 41 70
REMARK SMILES IDX 45 71 48 72 42 73 43 74 46 75 44 76 70 77 71 78 79 79 72 80
REMARK SMILES IDX 73 81 77 82 80 83 74 84 75 85 78 86 76 87 55 88 56 89 64 90
REMARK SMILES IDX 57 91 58 92 62 93 65 94 59 95 60 96 63 97 61 98
REMARK H PARENT 21 5 1 10 1 11 6 15 26 32 85 51 53 62
REMARK Flexibility Score: inf
ROOT
ATOM      1  C   UNL     1       4.020   1.470  -3.341  1.00  0.00     0.116 C 
ENDROOT
BRANCH   1   2
ATOM      2  N   UNL     1       3.677   2.866  -3.338  1.00  0.00    -0.354 N 
ATOM      3  C   UNL     1       2.606   3.486  -2.783  1.00  0.00     0.243 C 
ATOM      4  O   UNL     1       2.554   4.715  -2.918  1.00  0.00    -0.273 OA
ATOM      5  H   UNL     1       4.311   3.457  -3.806  1.00  0.00     0.163 HD
BRANCH   3   6
ATOM      6  C   UNL     1       1.603   2.767  -1.846  1.00  0.00     0.180 C 
BRANCH   6   7
ATOM      7  C   UNL     1       1.903   3.212  -0.419  1.00  0.00     0.134 C 
BRANCH   7   8
ATOM      8  C   UNL     1       0.823   2.840   0.558  1.00  0.00     0.220 C 
ATOM      9  N   UNL     1       0.752   3.634   1.662  1.00  0.00    -0.370 N 
ATOM     10  H   UNL     1       0.072   3.459   2.352  1.00  0.00     0.159 HD
ATOM     11  H   UNL     1       1.381   4.384   1.770  1.00  0.00     0.159 HD
ATOM     12  O   UNL     1       0.084   1.871   0.444  1.00  0.00    -0.275 OA
ENDBRANCH   7   8
ENDBRANCH   6   7
BRANCH   6  13
ATOM     13  N   UNL     1       1.189   1.379  -2.150  1.00  0.00    -0.343 N 
ATOM     14  C   UNL     1       1.310   0.080  -1.833  1.00  0.00     0.226 C 
ATOM     15  H   UNL     1       0.557   1.430  -2.903  1.00  0.00     0.164 HD
ATOM     16  O   UNL     1       0.559  -0.629  -2.528  1.00  0.00    -0.275 OA
BRANCH  14  17
ATOM     17  C   UNL     1       2.322  -0.649  -0.947  1.00  0.00     0.107 C 
ATOM     18  C   UNL     1       1.672  -1.884  -0.296  1.00  0.00     0.115 C 
ATOM     19  C   UNL     1       3.051  -0.011   0.209  1.00  0.00     0.133 C 
ATOM     20  C   UNL     1       1.488  -1.472   1.140  1.00  0.00     0.223 C 
ATOM     21  N   UNL     1       2.363  -0.424   1.402  1.00  0.00    -0.342 N 
ATOM     22  O   UNL     1       0.734  -2.010   1.931  1.00  0.00    -0.275 OA
BRANCH  21  23
ATOM     23  C   UNL     1       2.308   0.307   2.659  1.00  0.00     0.123 C 
BRANCH  23  24
ATOM     24  C   UNL     1       3.580   0.759   3.309  1.00  0.00     0.008 C 
ATOM     25  C   UNL     1       4.964   0.257   2.991  1.00  0.00     0.006 C 
ATOM     26  C   UNL     1       4.583   1.674   2.650  1.00  0.00     0.006 C 
ENDBRANCH  23  24
ENDBRANCH  21  23
ENDBRANCH  14  17
ENDBRANCH   6  13
ENDBRANCH   3   6
ENDBRANCH   1   2
BRANCH   1  27
ATOM     27  C   UNL     1       3.415   0.748  -4.542  1.00  0.00     0.023 C 
BRANCH  27  28
ATOM     28  C   UNL     1       4.051   1.140  -5.875  1.00  0.00     0.023 C 
BRANCH  28  29
ATOM     29  C   UNL     1       5.556   0.929  -5.941  1.00  0.00     0.116 C 
BRANCH  29  30
ATOM     30  N   UNL     1       5.948  -0.459  -5.739  1.00  0.00    -0.352 N 
ATOM     31  C   UNL     1       6.947  -1.147  -6.386  1.00  0.00     0.251 C 
ATOM     32  H   UNL     1       5.439  -0.962  -5.062  1.00  0.00     0.163 HD
ATOM     33  O   UNL     1       7.109  -2.349  -6.220  1.00  0.00    -0.269 OA
BRANCH  31  34
ATOM     34  C   UNL     1       7.803  -0.394  -7.321  1.00  0.00     0.039 A 
ATOM     35  C   UNL     1       7.880  -0.800  -8.654  1.00  0.00     0.014 A 
ATOM     36  C   UNL     1       8.424   0.780  -6.888  1.00  0.00     0.014 A 
ATOM     37  C   UNL     1       8.530   0.018  -9.579  1.00  0.00     0.010 A 
ATOM     38  C   UNL     1       8.995   1.630  -7.824  1.00  0.00     0.010 A 
ATOM     39  C   UNL     1       9.056   1.257  -9.178  1.00  0.00    -0.014 A 
BRANCH  39  40
ATOM     40  C   UNL     1       9.709   2.184 -10.135  1.00  0.00     0.031 A 
ATOM     41  C   UNL     1      11.155   2.538  -9.935  1.00  0.00     0.074 A 
ATOM     42  C   UNL     1       8.989   2.781 -11.104  1.00  0.00     0.049 A 
ATOM     43  N   UNL     1      11.876   3.455 -10.527  1.00  0.00    -0.248 NA
ATOM     44  C   UNL     1      11.877   1.780  -8.900  1.00  0.00     0.031 C 
ATOM     45  C   UNL     1       7.574   2.537 -11.384  1.00  0.00     0.029 A 
ATOM     46  N   UNL     1       9.349   3.739 -12.021  1.00  0.00    -0.354 N 
ATOM     47  C   UNL     1      13.122   3.401  -9.918  1.00  0.00     0.074 A 
ATOM     48  C   UNL     1      13.044   2.404  -8.874  1.00  0.00     0.031 C 
ATOM     49  C   UNL     1       7.188   3.316 -12.408  1.00  0.00     0.029 A 
ATOM     50  C   UNL     1       8.311   4.152 -12.822  1.00  0.00     0.049 A 
ATOM     51  H   UNL     1      10.263   4.095 -12.097  1.00  0.00     0.167 HD
ATOM     52  C   UNL     1      14.237   4.107 -10.218  1.00  0.00     0.037 A 
ATOM     53  C   UNL     1       8.268   5.114 -13.765  1.00  0.00     0.037 A 
ATOM     54  C   UNL     1      14.312   5.078 -11.276  1.00  0.00     0.049 A 
ATOM     55  C   UNL     1       9.515   5.908 -14.060  1.00  0.00     0.074 A 
ATOM     56  C   UNL     1      15.406   5.814 -11.693  1.00  0.00     0.029 A 
ATOM     57  N   UNL     1      13.246   5.450 -12.082  1.00  0.00    -0.354 N 
ATOM     58  N   UNL     1      10.702   5.819 -13.511  1.00  0.00    -0.248 NA
ATOM     59  C   UNL     1       9.417   6.935 -15.107  1.00  0.00     0.031 C 
ATOM     60  C   UNL     1      14.989   6.672 -12.714  1.00  0.00     0.029 A 
ATOM     61  C   UNL     1      13.653   6.421 -12.981  1.00  0.00     0.049 A 
ATOM     62  H   UNL     1      12.336   5.078 -12.024  1.00  0.00     0.167 HD
ATOM     63  C   UNL     1      11.501   6.741 -14.175  1.00  0.00     0.074 A 
ATOM     64  C   UNL     1      10.664   7.383 -15.165  1.00  0.00     0.031 C 
ATOM     65  C   UNL     1      12.813   7.024 -13.985  1.00  0.00     0.037 A 
BRANCH  52  66
ATOM     66  C   UNL     1      15.462   3.859  -9.386  1.00  0.00     0.064 A 
ATOM     67  C   UNL     1      16.155   2.639  -9.436  1.00  0.00     0.173 A 
ATOM     68  C   UNL     1      15.966   4.864  -8.547  1.00  0.00     0.173 A 
ATOM     69  F   UNL     1      15.709   1.639 -10.211  1.00  0.00    -0.203 F 
ATOM     70  C   UNL     1      17.285   2.424  -8.651  1.00  0.00     0.198 A 
ATOM     71  C   UNL     1      17.118   4.659  -7.793  1.00  0.00     0.198 A 
ATOM     72  F   UNL     1      15.347   6.051  -8.464  1.00  0.00    -0.203 F 
ATOM     73  F   UNL     1      17.893   1.230  -8.670  1.00  0.00    -0.200 F 
ATOM     74  C   UNL     1      17.770   3.436  -7.837  1.00  0.00     0.200 A 
ATOM     75  F   UNL     1      17.594   5.643  -7.018  1.00  0.00    -0.200 F 
ATOM     76  F   UNL     1      18.862   3.230  -7.088  1.00  0.00    -0.200 F 
ENDBRANCH  52  66
BRANCH  53  77
ATOM     77  C   UNL     1       7.007   5.375 -14.509  1.00  0.00     0.064 A 
ATOM     78  C   UNL     1       6.905   5.085 -15.877  1.00  0.00     0.173 A 
ATOM     79  C   UNL     1       5.884   5.929 -13.877  1.00  0.00     0.173 A 
ATOM     80  F   UNL     1       7.958   4.572 -16.532  1.00  0.00    -0.203 F 
ATOM     81  C   UNL     1       5.740   5.362 -16.589  1.00  0.00     0.198 A 
ATOM     82  C   UNL     1       4.708   6.176 -14.583  1.00  0.00     0.198 A 
ATOM     83  F   UNL     1       5.924   6.221 -12.569  1.00  0.00    -0.203 F 
ATOM     84  F   UNL     1       5.690   5.124 -17.907  1.00  0.00    -0.200 F 
ATOM     85  C   UNL     1       4.640   5.903 -15.941  1.00  0.00     0.200 A 
ATOM     86  F   UNL     1       3.642   6.684 -13.949  1.00  0.00    -0.200 F 
ATOM     87  F   UNL     1       3.519   6.168 -16.625  1.00  0.00    -0.200 F 
ENDBRANCH  53  77
BRANCH  65  88
ATOM     88  C   UNL     1      13.459   8.016 -14.909  1.00  0.00     0.064 A 
ATOM     89  C   UNL     1      13.198   9.390 -14.826  1.00  0.00     0.173 A 
ATOM     90  C   UNL     1      14.424   7.584 -15.833  1.00  0.00     0.173 A 
ATOM     91  F   UNL     1      12.274   9.852 -13.969  1.00  0.00    -0.203 F 
ATOM     92  C   UNL     1      13.873  10.296 -15.642  1.00  0.00     0.198 A 
ATOM     93  C   UNL     1      15.120   8.494 -16.622  1.00  0.00     0.198 A 
ATOM     94  F   UNL     1      14.716   6.279 -15.945  1.00  0.00    -0.203 F 
ATOM     95  F   UNL     1      13.586  11.602 -15.569  1.00  0.00    -0.200 F 
ATOM     96  C   UNL     1      14.841   9.848 -16.529  1.00  0.00     0.200 A 
ATOM     97  F   UNL     1      16.068   8.060 -17.464  1.00  0.00    -0.200 F 
ATOM     98  F   UNL     1      15.507  10.724 -17.294  1.00  0.00    -0.200 F 
ENDBRANCH  65  88
ENDBRANCH  39  40
ENDBRANCH  31  34
ENDBRANCH  29  30
ENDBRANCH  28  29
ENDBRANCH  27  28
ENDBRANCH   1  27
TORSDOF 17
