REMARK SMILES Cc1ccc(Cl)c(Nc2ccccc2C(=O)N[C@@H](C)C(=O)NCCCCNC(=O)c2ccc(-c3c4nc(c(-c5c(F)c(F)c(F)c(F)c5F)c5ccc([nH]5)c(-c5c(F)c(F)c(F)c(F)c5F)c5nc(c(-c6c(F)c(F)c(F)c(F)c6F)c6ccc3[nH]6)C=C5)C=C4)cc2)c1Cl
REMARK SMILES IDX 23 1 22 2 20 3 21 4 18 6 19 7 17 8 15 9 16 10 14 12 9 13
REMARK SMILES IDX 10 14 11 15 13 16 12 17 8 18 7 20 1 21 2 22 3 23 93 24 4 25
REMARK SMILES IDX 94 26 5 27 6 28 24 29 25 30 26 31 27 32 28 33 29 35 30 36
REMARK SMILES IDX 31 37 92 38 32 39 91 40 33 41 34 42 35 43 85 44 36 45 90 46
REMARK SMILES IDX 84 47 86 48 37 49 89 50 83 51 82 52 38 54 70 55 50 56 69 57
REMARK SMILES IDX 51 58 54 59 68 60 87 61 52 62 53 63 67 65 88 66 55 67 39 68
REMARK SMILES IDX 40 69 48 70 41 71 42 72 46 73 49 74 43 75 44 76 47 77 45 78
REMARK SMILES IDX 71 79 72 80 80 81 73 82 74 83 78 84 81 85 75 86 76 87 79 88
REMARK SMILES IDX 77 89 56 90 57 91 65 92 58 93 59 94 63 95 66 96 60 97 61 98
REMARK SMILES IDX 64 99 62 100
REMARK H PARENT 22 5 17 11 8 19 27 34 86 53 54 64
REMARK Flexibility Score: inf
ROOT
ATOM      1  C   UNL     1      -1.554   1.595   3.363  1.00  0.00     0.116 C 
ENDROOT
BRANCH   1   2
ATOM      2  N   UNL     1      -1.586   1.123   1.993  1.00  0.00    -0.354 N 
ATOM      3  C   UNL     1      -0.673   0.169   1.650  1.00  0.00     0.242 C 
ATOM      4  O   UNL     1       0.435   0.569   1.298  1.00  0.00    -0.273 OA
ATOM      5  H   UNL     1      -2.236   1.474   1.342  1.00  0.00     0.163 HD
BRANCH   3   6
ATOM      6  C   UNL     1      -1.041  -1.329   1.774  1.00  0.00     0.168 C 
ATOM      7  C   UNL     1      -2.353  -1.640   2.478  1.00  0.00     0.041 C 
BRANCH   6   8
ATOM      8  N   UNL     1       0.109  -1.915   2.439  1.00  0.00    -0.340 N 
ATOM      9  C   UNL     1       1.304  -2.277   1.854  1.00  0.00     0.254 C 
ATOM     10  O   UNL     1       2.321  -2.016   2.504  1.00  0.00    -0.269 OA
ATOM     11  H   UNL     1       0.026  -2.071   3.407  1.00  0.00     0.164 HD
BRANCH   9  12
ATOM     12  C   UNL     1       1.414  -3.209   0.684  1.00  0.00     0.063 A 
ATOM     13  C   UNL     1       0.778  -3.200  -0.576  1.00  0.00     0.051 A 
ATOM     14  C   UNL     1       0.996  -4.305  -1.438  1.00  0.00     0.027 A 
ATOM     15  C   UNL     1       1.868  -5.345  -1.119  1.00  0.00     0.002 A 
ATOM     16  C   UNL     1       2.313  -4.269   0.972  1.00  0.00     0.016 A 
ATOM     17  C   UNL     1       2.550  -5.314   0.082  1.00  0.00     0.001 A 
BRANCH  13  18
ATOM     18  N   UNL     1       0.021  -2.168  -1.166  1.00  0.00    -0.352 N 
ATOM     19  H   UNL     1      -0.865  -2.471  -1.471  1.00  0.00     0.167 HD
BRANCH  18  20
ATOM     20  C   UNL     1       0.250  -0.789  -1.419  1.00  0.00     0.077 A 
ATOM     21  C   UNL     1       2.830   2.006  -0.929  1.00  0.00     0.046 C 
ATOM     22  C   UNL     1       1.562   1.286  -1.310  1.00  0.00    -0.030 A 
ATOM     23  C   UNL     1       0.408   2.043  -1.563  1.00  0.00     0.006 A 
ATOM     24  C   UNL     1       1.492  -0.129  -1.301  1.00  0.00     0.069 A 
ATOM     25  C   UNL     1      -0.809   1.410  -1.782  1.00  0.00     0.023 A 
ATOM     26  Cl  UNL     1       2.983  -1.017  -1.215  1.00  0.00    -0.082 Cl
ATOM     27  C   UNL     1      -0.885   0.019  -1.693  1.00  0.00     0.066 A 
ATOM     28  Cl  UNL     1      -2.460  -0.696  -1.866  1.00  0.00    -0.082 Cl
ENDBRANCH  18  20
ENDBRANCH  13  18
ENDBRANCH   9  12
ENDBRANCH   6   8
ENDBRANCH   3   6
ENDBRANCH   1   2
BRANCH   1  29
ATOM     29  C   UNL     1      -0.307   2.435   3.682  1.00  0.00     0.023 C 
BRANCH  29  30
ATOM     30  C   UNL     1      -0.141   3.707   2.846  1.00  0.00     0.023 C 
BRANCH  30  31
ATOM     31  C   UNL     1      -1.388   4.575   2.753  1.00  0.00     0.116 C 
BRANCH  31  32
ATOM     32  N   UNL     1      -2.009   4.798   4.050  1.00  0.00    -0.352 N 
ATOM     33  C   UNL     1      -2.447   5.958   4.631  1.00  0.00     0.251 C 
ATOM     34  H   UNL     1      -2.135   3.987   4.595  1.00  0.00     0.163 HD
ATOM     35  O   UNL     1      -2.825   5.965   5.791  1.00  0.00    -0.269 OA
BRANCH  33  36
ATOM     36  C   UNL     1      -2.430   7.202   3.845  1.00  0.00     0.039 A 
ATOM     37  C   UNL     1      -1.879   8.346   4.423  1.00  0.00     0.014 A 
ATOM     38  C   UNL     1      -2.941   7.229   2.545  1.00  0.00     0.014 A 
ATOM     39  C   UNL     1      -1.790   9.515   3.671  1.00  0.00     0.010 A 
ATOM     40  C   UNL     1      -2.781   8.371   1.773  1.00  0.00     0.010 A 
ATOM     41  C   UNL     1      -2.211   9.524   2.332  1.00  0.00    -0.014 A 
BRANCH  41  42
ATOM     42  C   UNL     1      -2.080  10.739   1.497  1.00  0.00     0.031 A 
ATOM     43  C   UNL     1      -3.313  11.417   0.976  1.00  0.00     0.074 A 
ATOM     44  C   UNL     1      -0.855  11.180   1.154  1.00  0.00     0.049 A 
ATOM     45  N   UNL     1      -3.417  12.424   0.147  1.00  0.00    -0.248 NA
ATOM     46  C   UNL     1      -4.605  10.870   1.422  1.00  0.00     0.031 C 
ATOM     47  C   UNL     1       0.410  10.575   1.574  1.00  0.00     0.029 A 
ATOM     48  N   UNL     1      -0.474  12.231   0.360  1.00  0.00    -0.354 N 
ATOM     49  C   UNL     1      -4.779  12.617  -0.039  1.00  0.00     0.074 A 
ATOM     50  C   UNL     1      -5.463  11.591   0.716  1.00  0.00     0.031 C 
ATOM     51  C   UNL     1       1.427  11.275   1.049  1.00  0.00     0.029 A 
ATOM     52  C   UNL     1       0.887  12.348   0.220  1.00  0.00     0.049 A 
ATOM     53  H   UNL     1      -1.115  12.843  -0.069  1.00  0.00     0.167 HD
ATOM     54  C   UNL     1      -5.401  13.582  -0.758  1.00  0.00     0.037 A 
ATOM     55  C   UNL     1       1.613  13.216  -0.509  1.00  0.00     0.037 A 
ATOM     56  C   UNL     1      -4.708  14.611  -1.487  1.00  0.00     0.049 A 
ATOM     57  C   UNL     1       0.896  14.267  -1.314  1.00  0.00     0.074 A 
ATOM     58  C   UNL     1      -5.240  15.665  -2.206  1.00  0.00     0.029 A 
ATOM     59  N   UNL     1      -3.327  14.711  -1.590  1.00  0.00    -0.354 N 
ATOM     60  N   UNL     1      -0.392  14.479  -1.438  1.00  0.00    -0.248 NA
ATOM     61  C   UNL     1       1.734  15.202  -2.075  1.00  0.00     0.031 C 
ATOM     62  C   UNL     1      -4.184  16.372  -2.789  1.00  0.00     0.029 A 
ATOM     63  C   UNL     1      -2.991  15.797  -2.381  1.00  0.00     0.049 A 
ATOM     64  H   UNL     1      -2.683  14.100  -1.164  1.00  0.00     0.167 HD
ATOM     65  C   UNL     1      -0.519  15.592  -2.258  1.00  0.00     0.074 A 
ATOM     66  C   UNL     1       0.825  16.015  -2.595  1.00  0.00     0.031 C 
ATOM     67  C   UNL     1      -1.645  16.211  -2.690  1.00  0.00     0.037 A 
BRANCH  54  68
ATOM     68  C   UNL     1      -6.902  13.565  -0.793  1.00  0.00     0.064 A 
ATOM     69  C   UNL     1      -7.671  13.855   0.345  1.00  0.00     0.173 A 
ATOM     70  C   UNL     1      -7.582  13.285  -1.988  1.00  0.00     0.173 A 
ATOM     71  F   UNL     1      -7.071  14.116   1.517  1.00  0.00    -0.203 F 
ATOM     72  C   UNL     1      -9.062  13.834   0.295  1.00  0.00     0.198 A 
ATOM     73  C   UNL     1      -8.973  13.299  -2.042  1.00  0.00     0.198 A 
ATOM     74  F   UNL     1      -6.897  13.003  -3.107  1.00  0.00    -0.203 F 
ATOM     75  F   UNL     1      -9.774  14.060   1.408  1.00  0.00    -0.200 F 
ATOM     76  C   UNL     1      -9.712  13.565  -0.899  1.00  0.00     0.200 A 
ATOM     77  F   UNL     1      -9.599  13.052  -3.201  1.00  0.00    -0.200 F 
ATOM     78  F   UNL     1     -11.051  13.553  -0.948  1.00  0.00    -0.200 F 
ENDBRANCH  54  68
BRANCH  55  79
ATOM     79  C   UNL     1       3.097  13.139  -0.496  1.00  0.00     0.064 A 
ATOM     80  C   UNL     1       3.865  14.149   0.100  1.00  0.00     0.173 A 
ATOM     81  C   UNL     1       3.779  12.061  -1.079  1.00  0.00     0.173 A 
ATOM     82  F   UNL     1       3.260  15.209   0.655  1.00  0.00    -0.203 F 
ATOM     83  C   UNL     1       5.257  14.097   0.090  1.00  0.00     0.198 A 
ATOM     84  C   UNL     1       5.170  11.994  -1.061  1.00  0.00     0.198 A 
ATOM     85  F   UNL     1       3.092  11.064  -1.656  1.00  0.00    -0.203 F 
ATOM     86  F   UNL     1       5.966  15.101   0.622  1.00  0.00    -0.200 F 
ATOM     87  C   UNL     1       5.909  13.017  -0.486  1.00  0.00     0.200 A 
ATOM     88  F   UNL     1       5.795  10.940  -1.604  1.00  0.00    -0.200 F 
ATOM     89  F   UNL     1       7.247  12.966  -0.493  1.00  0.00    -0.200 F 
ENDBRANCH  55  79
BRANCH  67  90
ATOM     90  C   UNL     1      -1.477  17.444  -3.529  1.00  0.00     0.064 A 
ATOM     91  C   UNL     1      -1.016  17.382  -4.852  1.00  0.00     0.173 A 
ATOM     92  C   UNL     1      -1.835  18.700  -3.015  1.00  0.00     0.173 A 
ATOM     93  F   UNL     1      -0.648  16.207  -5.385  1.00  0.00    -0.203 F 
ATOM     94  C   UNL     1      -0.897  18.536  -5.622  1.00  0.00     0.198 A 
ATOM     95  C   UNL     1      -1.747  19.846  -3.798  1.00  0.00     0.198 A 
ATOM     96  F   UNL     1      -2.289  18.812  -1.758  1.00  0.00    -0.203 F 
ATOM     97  F   UNL     1      -0.410  18.461  -6.868  1.00  0.00    -0.200 F 
ATOM     98  C   UNL     1      -1.272  19.765  -5.098  1.00  0.00     0.200 A 
ATOM     99  F   UNL     1      -2.126  21.030  -3.296  1.00  0.00    -0.200 F 
ATOM    100  F   UNL     1      -1.169  20.873  -5.845  1.00  0.00    -0.200 F 
ENDBRANCH  67  90
ENDBRANCH  41  42
ENDBRANCH  33  36
ENDBRANCH  31  32
ENDBRANCH  30  31
ENDBRANCH  29  30
ENDBRANCH   1  29
TORSDOF 15
