REMARK SMILES N#Cc1cccnc1N1CC[NH+]([C@@H](C(=O)NCCCCNC(=O)c2ccc(-c3c4nc(c(-c5c(F)c(F)c(F)c(F)c5F)c5ccc([nH]5)c(-c5c(F)c(F)c(F)c(F)c5F)c5nc(c(-c6c(F)c(F)c(F)c(F)c6F)c6ccc3[nH]6)C=C5)C=C4)cc2)c2c[nH]c3cc(CO)ccc23)CC1
REMARK SMILES IDX 18 1 17 2 16 3 14 4 15 5 13 7 12 8 9 9 10 10 99 11 11 12
REMARK SMILES IDX 98 13 8 15 3 16 4 17 5 18 7 19 6 20 2 21 1 22 87 23 88 24
REMARK SMILES IDX 97 25 89 26 90 27 96 28 91 30 95 31 92 32 93 33 94 34 19 36
REMARK SMILES IDX 20 37 21 38 22 39 23 41 24 42 25 43 86 44 26 45 85 46 27 47
REMARK SMILES IDX 28 48 29 49 79 50 30 51 84 52 78 53 80 54 31 55 83 56 77 57
REMARK SMILES IDX 76 58 32 60 64 61 44 62 63 63 45 64 48 65 62 66 81 67 46 68
REMARK SMILES IDX 47 69 61 71 82 72 49 73 33 74 34 75 42 76 35 77 36 78 40 79
REMARK SMILES IDX 43 80 37 81 38 82 41 83 39 84 65 85 66 86 74 87 67 88 68 89
REMARK SMILES IDX 72 90 75 91 69 92 70 93 73 94 71 95 50 96 51 97 59 98 52 99
REMARK SMILES IDX 53 100 57 101 60 102 54 103 55 104 58 105 56 106
REMARK H PARENT 16 6 12 14 89 29 94 35 21 40 80 59 48 70
REMARK Flexibility Score: inf
ROOT
ATOM      1  C   UNL     1       2.172  -3.379   3.104  1.00  0.00     0.023 C 
ENDROOT
BRANCH   1   2
ATOM      2  C   UNL     1       1.383  -4.676   2.762  1.00  0.00     0.116 C 
BRANCH   2   3
ATOM      3  N   UNL     1       0.112  -4.507   2.057  1.00  0.00    -0.351 N 
ATOM      4  C   UNL     1      -0.394  -4.803   0.812  1.00  0.00     0.283 C 
ATOM      5  O   UNL     1      -1.605  -4.569   0.719  1.00  0.00    -0.268 OA
ATOM      6  H   UNL     1      -0.559  -4.063   2.624  1.00  0.00     0.163 HD
BRANCH   4   7
ATOM      7  C   UNL     1       0.445  -5.413  -0.352  1.00  0.00     0.307 C 
BRANCH   7   8
ATOM      8  N   UNL     1       1.431  -4.497  -1.066  1.00  0.00    -0.318 N 
ATOM      9  N   UNL     1       0.667  -1.619  -1.060  1.00  0.00    -0.344 N 
ATOM     10  C   UNL     1       0.014  -2.586  -1.952  1.00  0.00     0.179 C 
ATOM     11  C   UNL     1       1.336  -2.228   0.103  1.00  0.00     0.179 C 
ATOM     12  C   UNL     1       1.001  -3.722  -2.251  1.00  0.00     0.284 C 
ATOM     13  C   UNL     1       2.135  -3.517  -0.243  1.00  0.00     0.284 C 
ATOM     14  H   UNL     1       2.024  -5.270  -1.368  1.00  0.00     0.349 HD
BRANCH   9  15
ATOM     15  C   UNL     1      -0.110  -0.496  -0.738  1.00  0.00     0.146 A 
ATOM     16  C   UNL     1       0.480   0.724  -0.386  1.00  0.00     0.095 A 
ATOM     17  C   UNL     1      -0.333   1.791   0.012  1.00  0.00     0.025 A 
ATOM     18  C   UNL     1      -1.712   1.629   0.046  1.00  0.00     0.022 A 
ATOM     19  N   UNL     1      -1.460  -0.636  -0.732  1.00  0.00    -0.238 NA
ATOM     20  C   UNL     1      -2.225   0.406  -0.339  1.00  0.00     0.113 A 
BRANCH  16  21
ATOM     21  C   UNL     1       1.904   0.912  -0.438  1.00  0.00     0.103 C 
ATOM     22  N   UNL     1       3.045   1.074  -0.437  1.00  0.00    -0.192 NA
ENDBRANCH  16  21
ENDBRANCH   9  15
ENDBRANCH   7   8
BRANCH   7  23
ATOM     23  C   UNL     1      -0.363  -6.179  -1.439  1.00  0.00     0.044 A 
ATOM     24  C   UNL     1       0.116  -7.278  -2.145  1.00  0.00     0.094 A 
ATOM     25  C   UNL     1      -1.472  -5.736  -2.249  1.00  0.00     0.009 A 
ATOM     26  N   UNL     1      -0.077  -6.937  -3.470  1.00  0.00    -0.361 N 
ATOM     27  C   UNL     1      -1.018  -5.936  -3.556  1.00  0.00     0.046 A 
ATOM     28  C   UNL     1      -2.625  -4.951  -2.075  1.00  0.00     0.011 A 
ATOM     29  H   UNL     1       0.388  -7.346  -4.235  1.00  0.00     0.166 HD
ATOM     30  C   UNL     1      -1.397  -5.089  -4.613  1.00  0.00     0.032 A 
ATOM     31  C   UNL     1      -3.115  -4.205  -3.152  1.00  0.00     0.007 A 
ATOM     32  C   UNL     1      -2.402  -4.141  -4.354  1.00  0.00    -0.021 A 
BRANCH  32  33
ATOM     33  C   UNL     1      -2.684  -3.024  -5.329  1.00  0.00     0.191 C 
BRANCH  33  34
ATOM     34  O   UNL     1      -2.706  -1.751  -4.679  1.00  0.00    -0.392 OA
ATOM     35  H   UNL     1      -3.410  -1.741  -4.011  1.00  0.00     0.211 HD
ENDBRANCH  33  34
ENDBRANCH  32  33
ENDBRANCH   7  23
ENDBRANCH   4   7
ENDBRANCH   2   3
ENDBRANCH   1   2
BRANCH   1  36
ATOM     36  C   UNL     1       1.363  -2.097   3.342  1.00  0.00     0.023 C 
BRANCH  36  37
ATOM     37  C   UNL     1       1.382  -1.611   4.775  1.00  0.00     0.116 C 
BRANCH  37  38
ATOM     38  N   UNL     1       2.669  -1.060   5.168  1.00  0.00    -0.352 N 
ATOM     39  C   UNL     1       2.941   0.032   5.959  1.00  0.00     0.251 C 
ATOM     40  H   UNL     1       3.457  -1.536   4.818  1.00  0.00     0.163 HD
ATOM     41  O   UNL     1       4.097   0.424   6.085  1.00  0.00    -0.269 OA
BRANCH  39  42
ATOM     42  C   UNL     1       1.839   0.759   6.635  1.00  0.00     0.039 A 
ATOM     43  C   UNL     1       1.915   2.151   6.745  1.00  0.00     0.014 A 
ATOM     44  C   UNL     1       0.737   0.082   7.162  1.00  0.00     0.014 A 
ATOM     45  C   UNL     1       0.868   2.859   7.339  1.00  0.00     0.010 A 
ATOM     46  C   UNL     1      -0.352   0.792   7.649  1.00  0.00     0.010 A 
ATOM     47  C   UNL     1      -0.286   2.185   7.770  1.00  0.00    -0.014 A 
BRANCH  47  48
ATOM     48  C   UNL     1      -1.419   2.911   8.392  1.00  0.00     0.031 A 
ATOM     49  C   UNL     1      -1.801   2.621   9.817  1.00  0.00     0.074 A 
ATOM     50  C   UNL     1      -2.137   3.779   7.655  1.00  0.00     0.049 A 
ATOM     51  N   UNL     1      -2.776   3.120  10.534  1.00  0.00    -0.248 NA
ATOM     52  C   UNL     1      -1.005   1.603  10.521  1.00  0.00     0.031 C 
ATOM     53  C   UNL     1      -1.897   4.089   6.244  1.00  0.00     0.029 A 
ATOM     54  N   UNL     1      -3.212   4.560   7.989  1.00  0.00    -0.354 N 
ATOM     55  C   UNL     1      -2.721   2.462  11.756  1.00  0.00     0.074 A 
ATOM     56  C   UNL     1      -1.665   1.479  11.661  1.00  0.00     0.031 C 
ATOM     57  C   UNL     1      -2.768   5.029   5.848  1.00  0.00     0.029 A 
ATOM     58  C   UNL     1      -3.648   5.362   6.963  1.00  0.00     0.049 A 
ATOM     59  H   UNL     1      -3.632   4.547   8.880  1.00  0.00     0.167 HD
ATOM     60  C   UNL     1      -3.464   2.678  12.867  1.00  0.00     0.037 A 
ATOM     61  C   UNL     1      -4.640   6.271   6.936  1.00  0.00     0.037 A 
ATOM     62  C   UNL     1      -4.488   3.685  12.958  1.00  0.00     0.049 A 
ATOM     63  C   UNL     1      -5.441   6.509   8.187  1.00  0.00     0.074 A 
ATOM     64  C   UNL     1      -5.247   4.051  14.055  1.00  0.00     0.029 A 
ATOM     65  N   UNL     1      -4.897   4.487  11.901  1.00  0.00    -0.354 N 
ATOM     66  N   UNL     1      -5.325   5.943   9.364  1.00  0.00    -0.248 NA
ATOM     67  C   UNL     1      -6.504   7.518   8.106  1.00  0.00     0.031 C 
ATOM     68  C   UNL     1      -6.151   5.039  13.647  1.00  0.00     0.029 A 
ATOM     69  C   UNL     1      -5.920   5.327  12.311  1.00  0.00     0.049 A 
ATOM     70  H   UNL     1      -4.517   4.462  10.993  1.00  0.00     0.167 HD
ATOM     71  C   UNL     1      -6.282   6.541  10.171  1.00  0.00     0.074 A 
ATOM     72  C   UNL     1      -6.957   7.528   9.352  1.00  0.00     0.031 C 
ATOM     73  C   UNL     1      -6.580   6.296  11.472  1.00  0.00     0.037 A 
BRANCH  60  74
ATOM     74  C   UNL     1      -3.193   1.806  14.061  1.00  0.00     0.064 A 
ATOM     75  C   UNL     1      -1.982   1.872  14.769  1.00  0.00     0.173 A 
ATOM     76  C   UNL     1      -4.154   0.883  14.500  1.00  0.00     0.173 A 
ATOM     77  F   UNL     1      -1.021   2.727  14.385  1.00  0.00    -0.203 F 
ATOM     78  C   UNL     1      -1.724   1.016  15.837  1.00  0.00     0.198 A 
ATOM     79  C   UNL     1      -3.908   0.053  15.592  1.00  0.00     0.198 A 
ATOM     80  F   UNL     1      -5.332   0.778  13.866  1.00  0.00    -0.203 F 
ATOM     81  F   UNL     1      -0.532   1.049  16.448  1.00  0.00    -0.200 F 
ATOM     82  C   UNL     1      -2.689   0.110  16.250  1.00  0.00     0.200 A 
ATOM     83  F   UNL     1      -4.846  -0.814  15.998  1.00  0.00    -0.200 F 
ATOM     84  F   UNL     1      -2.439  -0.716  17.275  1.00  0.00    -0.200 F 
ENDBRANCH  60  74
BRANCH  61  85
ATOM     85  C   UNL     1      -4.883   7.061   5.702  1.00  0.00     0.064 A 
ATOM     86  C   UNL     1      -4.563   8.426   5.654  1.00  0.00     0.173 A 
ATOM     87  C   UNL     1      -5.404   6.473   4.541  1.00  0.00     0.173 A 
ATOM     88  F   UNL     1      -4.076   9.037   6.743  1.00  0.00    -0.203 F 
ATOM     89  C   UNL     1      -4.767   9.174   4.496  1.00  0.00     0.198 A 
ATOM     90  C   UNL     1      -5.582   7.215   3.375  1.00  0.00     0.198 A 
ATOM     91  F   UNL     1      -5.715   5.168   4.530  1.00  0.00    -0.203 F 
ATOM     92  F   UNL     1      -4.482  10.483   4.488  1.00  0.00    -0.200 F 
ATOM     93  C   UNL     1      -5.269   8.566   3.355  1.00  0.00     0.200 A 
ATOM     94  F   UNL     1      -6.049   6.620   2.269  1.00  0.00    -0.200 F 
ATOM     95  F   UNL     1      -5.451   9.282   2.237  1.00  0.00    -0.200 F 
ENDBRANCH  61  85
BRANCH  73  96
ATOM     96  C   UNL     1      -7.669   7.125  12.088  1.00  0.00     0.064 A 
ATOM     97  C   UNL     1      -9.015   6.949  11.734  1.00  0.00     0.173 A 
ATOM     98  C   UNL     1      -7.365   8.089  13.061  1.00  0.00     0.173 A 
ATOM     99  F   UNL     1      -9.355   6.051  10.797  1.00  0.00    -0.203 F 
ATOM    100  C   UNL     1     -10.013   7.731  12.308  1.00  0.00     0.198 A 
ATOM    101  C   UNL     1      -8.370   8.845  13.657  1.00  0.00     0.198 A 
ATOM    102  F   UNL     1      -6.095   8.290  13.441  1.00  0.00    -0.203 F 
ATOM    103  F   UNL     1     -11.286   7.585  11.913  1.00  0.00    -0.200 F 
ATOM    104  C   UNL     1      -9.691   8.673  13.274  1.00  0.00     0.200 A 
ATOM    105  F   UNL     1      -8.058   9.745  14.601  1.00  0.00    -0.200 F 
ATOM    106  F   UNL     1     -10.654   9.422  13.828  1.00  0.00    -0.200 F 
ENDBRANCH  73  96
ENDBRANCH  47  48
ENDBRANCH  39  42
ENDBRANCH  37  38
ENDBRANCH  36  37
ENDBRANCH   1  36
TORSDOF 17
