REMARK SMILES C[NH+](C)CCc1nc(Nc2ccc(O)c(C(=O)NCCCCNC(=O)c3ccc(-c4c5nc(c(-c6c(F)c(F)c(F)c(F)c6F)c6ccc([nH]6)c(-c6c(F)c(F)c(F)c(F)c6F)c6nc(c(-c7c(F)c(F)c(F)c(F)c7F)c7ccc4[nH]7)C=C6)C=C5)cc3)c2)c2ccccc2n1
REMARK SMILES IDX 19 1 18 2 16 3 17 4 15 6 10 7 11 8 89 9 12 10 13 11 9 12
REMARK SMILES IDX 8 14 6 15 7 16 96 17 95 18 90 19 94 20 91 21 93 22 92 23
REMARK SMILES IDX 5 24 4 25 2 26 1 27 3 28 14 30 20 32 21 33 22 34 23 35 24 36
REMARK SMILES IDX 25 38 26 39 27 40 88 41 28 42 87 43 29 44 30 45 31 46 81 47
REMARK SMILES IDX 32 48 86 49 80 50 82 51 33 52 85 53 79 54 78 55 34 57 66 58
REMARK SMILES IDX 46 59 65 60 47 61 50 62 64 63 83 64 48 65 49 66 63 68 84 69
REMARK SMILES IDX 51 70 35 71 36 72 44 73 37 74 38 75 42 76 45 77 39 78 40 79
REMARK SMILES IDX 43 80 41 81 67 82 68 83 76 84 69 85 70 86 74 87 77 88 71 89
REMARK SMILES IDX 72 90 75 91 73 92 52 93 53 94 61 95 54 96 55 97 59 98 62 99
REMARK SMILES IDX 56 100 57 101 60 102 58 103
REMARK H PARENT 18 5 9 13 2 29 14 31 23 37 82 56 50 67
REMARK Flexibility Score: inf
ROOT
ATOM      1  C   UNL     1      -5.838   2.857  -6.746  1.00  0.00     0.116 C 
ENDROOT
BRANCH   1   2
ATOM      2  N   UNL     1      -4.796   3.830  -6.976  1.00  0.00    -0.352 N 
ATOM      3  C   UNL     1      -3.797   4.307  -6.171  1.00  0.00     0.255 C 
ATOM      4  O   UNL     1      -3.138   5.246  -6.632  1.00  0.00    -0.269 OA
ATOM      5  H   UNL     1      -4.806   4.223  -7.879  1.00  0.00     0.163 HD
BRANCH   3   6
ATOM      6  C   UNL     1      -3.382   3.729  -4.854  1.00  0.00     0.083 A 
ATOM      7  C   UNL     1      -1.412   3.397  -3.414  1.00  0.00     0.041 A 
ATOM      8  C   UNL     1      -2.211   2.721  -2.495  1.00  0.00     0.030 A 
ATOM      9  C   UNL     1      -2.004   3.876  -4.588  1.00  0.00     0.043 A 
ATOM     10  C   UNL     1      -3.580   2.595  -2.708  1.00  0.00     0.049 A 
ATOM     11  C   UNL     1      -4.166   3.119  -3.867  1.00  0.00     0.128 A 
BRANCH   7  12
ATOM     12  N   UNL     1      -0.030   3.543  -3.224  1.00  0.00    -0.340 N 
ATOM     13  H   UNL     1       0.346   4.436  -3.396  1.00  0.00     0.168 HD
BRANCH  12  14
ATOM     14  C   UNL     1       0.875   2.545  -2.813  1.00  0.00     0.142 A 
ATOM     15  C   UNL     1       1.363   0.313  -2.583  1.00  0.00     0.137 A 
ATOM     16  N   UNL     1       0.482   1.263  -2.913  1.00  0.00    -0.215 NA
ATOM     17  N   UNL     1       2.626   0.551  -2.196  1.00  0.00    -0.233 NA
ATOM     18  C   UNL     1       2.989   1.827  -2.035  1.00  0.00     0.076 A 
ATOM     19  C   UNL     1       2.136   2.901  -2.312  1.00  0.00     0.043 A 
ATOM     20  C   UNL     1       4.259   2.098  -1.543  1.00  0.00     0.029 A 
ATOM     21  C   UNL     1       2.571   4.227  -2.057  1.00  0.00     0.014 A 
ATOM     22  C   UNL     1       4.692   3.402  -1.292  1.00  0.00     0.002 A 
ATOM     23  C   UNL     1       3.842   4.471  -1.543  1.00  0.00     0.001 A 
BRANCH  15  24
ATOM     24  C   UNL     1       0.874  -1.105  -2.606  1.00  0.00     0.138 C 
BRANCH  24  25
ATOM     25  C   UNL     1       1.134  -1.882  -1.303  1.00  0.00     0.269 C 
BRANCH  25  26
ATOM     26  N   UNL     1       0.439  -1.504  -0.057  1.00  0.00    -0.339 N 
ATOM     27  C   UNL     1       0.937  -0.263   0.530  1.00  0.00     0.332 C 
ATOM     28  C   UNL     1      -1.012  -1.472  -0.191  1.00  0.00     0.332 C 
ATOM     29  H   UNL     1       0.663  -2.256   0.594  1.00  0.00     0.347 HD
ENDBRANCH  25  26
ENDBRANCH  24  25
ENDBRANCH  15  24
ENDBRANCH  12  14
ENDBRANCH   7  12
BRANCH  11  30
ATOM     30  O   UNL     1      -5.525   3.048  -3.942  1.00  0.00    -0.507 OA
ATOM     31  H   UNL     1      -6.010   2.631  -3.257  1.00  0.00     0.293 HD
ENDBRANCH  11  30
ENDBRANCH   3   6
ENDBRANCH   1   2
BRANCH   1  32
ATOM     32  C   UNL     1      -7.088   3.555  -6.200  1.00  0.00     0.023 C 
BRANCH  32  33
ATOM     33  C   UNL     1      -7.951   4.235  -7.261  1.00  0.00     0.023 C 
BRANCH  33  34
ATOM     34  C   UNL     1      -8.643   3.276  -8.219  1.00  0.00     0.116 C 
BRANCH  34  35
ATOM     35  N   UNL     1      -9.513   2.319  -7.550  1.00  0.00    -0.352 N 
ATOM     36  C   UNL     1     -10.686   1.764  -8.010  1.00  0.00     0.251 C 
ATOM     37  H   UNL     1      -9.225   2.032  -6.653  1.00  0.00     0.163 HD
ATOM     38  O   UNL     1     -11.360   1.034  -7.305  1.00  0.00    -0.269 OA
BRANCH  36  39
ATOM     39  C   UNL     1     -11.137   2.120  -9.370  1.00  0.00     0.039 A 
ATOM     40  C   UNL     1     -12.412   2.667  -9.530  1.00  0.00     0.014 A 
ATOM     41  C   UNL     1     -10.268   1.995 -10.456  1.00  0.00     0.014 A 
ATOM     42  C   UNL     1     -12.786   3.174 -10.774  1.00  0.00     0.010 A 
ATOM     43  C   UNL     1     -10.618   2.558 -11.676  1.00  0.00     0.010 A 
ATOM     44  C   UNL     1     -11.873   3.166 -11.841  1.00  0.00    -0.014 A 
BRANCH  44  45
ATOM     45  C   UNL     1     -12.189   3.815 -13.134  1.00  0.00     0.031 A 
ATOM     46  C   UNL     1     -12.303   2.985 -14.378  1.00  0.00     0.074 A 
ATOM     47  C   UNL     1     -12.269   5.158 -13.200  1.00  0.00     0.049 A 
ATOM     48  N   UNL     1     -12.442   3.371 -15.620  1.00  0.00    -0.248 NA
ATOM     49  C   UNL     1     -12.220   1.526 -14.205  1.00  0.00     0.031 C 
ATOM     50  C   UNL     1     -12.128   6.071 -12.064  1.00  0.00     0.029 A 
ATOM     51  N   UNL     1     -12.467   5.990 -14.272  1.00  0.00    -0.354 N 
ATOM     52  C   UNL     1     -12.442   2.208 -16.377  1.00  0.00     0.074 A 
ATOM     53  C   UNL     1     -12.248   1.104 -15.461  1.00  0.00     0.031 C 
ATOM     54  C   UNL     1     -12.254   7.335 -12.498  1.00  0.00     0.029 A 
ATOM     55  C   UNL     1     -12.443   7.324 -13.945  1.00  0.00     0.049 A 
ATOM     56  H   UNL     1     -12.612   5.663 -15.189  1.00  0.00     0.167 HD
ATOM     57  C   UNL     1     -12.607   2.075 -17.713  1.00  0.00     0.037 A 
ATOM     58  C   UNL     1     -12.545   8.414 -14.729  1.00  0.00     0.037 A 
ATOM     59  C   UNL     1     -12.833   3.174 -18.613  1.00  0.00     0.049 A 
ATOM     60  C   UNL     1     -12.718   8.237 -16.212  1.00  0.00     0.074 A 
ATOM     61  C   UNL     1     -13.098   3.136 -19.971  1.00  0.00     0.029 A 
ATOM     62  N   UNL     1     -12.817   4.511 -18.244  1.00  0.00    -0.354 N 
ATOM     63  N   UNL     1     -12.788   7.130 -16.910  1.00  0.00    -0.248 NA
ATOM     64  C   UNL     1     -12.822   9.462 -17.018  1.00  0.00     0.031 C 
ATOM     65  C   UNL     1     -13.203   4.453 -20.431  1.00  0.00     0.029 A 
ATOM     66  C   UNL     1     -13.041   5.309 -19.353  1.00  0.00     0.049 A 
ATOM     67  H   UNL     1     -12.669   4.843 -17.329  1.00  0.00     0.167 HD
ATOM     68  C   UNL     1     -12.962   7.520 -18.230  1.00  0.00     0.074 A 
ATOM     69  C   UNL     1     -13.002   8.968 -18.235  1.00  0.00     0.031 C 
ATOM     70  C   UNL     1     -13.078   6.749 -19.337  1.00  0.00     0.037 A 
BRANCH  57  71
ATOM     71  C   UNL     1     -12.554   0.689 -18.283  1.00  0.00     0.064 A 
ATOM     72  C   UNL     1     -13.589  -0.233 -18.068  1.00  0.00     0.173 A 
ATOM     73  C   UNL     1     -11.473   0.290 -19.082  1.00  0.00     0.173 A 
ATOM     74  F   UNL     1     -14.638   0.097 -17.300  1.00  0.00    -0.203 F 
ATOM     75  C   UNL     1     -13.531  -1.513 -18.611  1.00  0.00     0.198 A 
ATOM     76  C   UNL     1     -11.431  -0.982 -19.646  1.00  0.00     0.198 A 
ATOM     77  F   UNL     1     -10.459   1.136 -19.320  1.00  0.00    -0.203 F 
ATOM     78  F   UNL     1     -14.510  -2.392 -18.357  1.00  0.00    -0.200 F 
ATOM     79  C   UNL     1     -12.456  -1.884 -19.405  1.00  0.00     0.200 A 
ATOM     80  F   UNL     1     -10.396  -1.336 -20.421  1.00  0.00    -0.200 F 
ATOM     81  F   UNL     1     -12.405  -3.115 -19.933  1.00  0.00    -0.200 F 
ENDBRANCH  57  71
BRANCH  58  82
ATOM     82  C   UNL     1     -12.496   9.769 -14.124  1.00  0.00     0.064 A 
ATOM     83  C   UNL     1     -13.646  10.567 -14.059  1.00  0.00     0.173 A 
ATOM     84  C   UNL     1     -11.306  10.294 -13.600  1.00  0.00     0.173 A 
ATOM     85  F   UNL     1     -14.802  10.115 -14.568  1.00  0.00    -0.203 F 
ATOM     86  C   UNL     1     -13.606  11.845 -13.506  1.00  0.00     0.198 A 
ATOM     87  C   UNL     1     -11.272  11.563 -13.025  1.00  0.00     0.198 A 
ATOM     88  F   UNL     1     -10.179   9.569 -13.636  1.00  0.00    -0.203 F 
ATOM     89  F   UNL     1     -14.711  12.601 -13.492  1.00  0.00    -0.200 F 
ATOM     90  C   UNL     1     -12.420  12.340 -12.985  1.00  0.00     0.200 A 
ATOM     91  F   UNL     1     -10.127  12.034 -12.512  1.00  0.00    -0.200 F 
ATOM     92  F   UNL     1     -12.382  13.568 -12.450  1.00  0.00    -0.200 F 
ENDBRANCH  58  82
BRANCH  70  93
ATOM     93  C   UNL     1     -13.275   7.452 -20.646  1.00  0.00     0.064 A 
ATOM     94  C   UNL     1     -12.217   8.113 -21.287  1.00  0.00     0.173 A 
ATOM     95  C   UNL     1     -14.520   7.418 -21.292  1.00  0.00     0.173 A 
ATOM     96  F   UNL     1     -11.013   8.186 -20.699  1.00  0.00    -0.203 F 
ATOM     97  C   UNL     1     -12.402   8.726 -22.522  1.00  0.00     0.198 A 
ATOM     98  C   UNL     1     -14.695   8.011 -22.538  1.00  0.00     0.198 A 
ATOM     99  F   UNL     1     -15.561   6.795 -20.720  1.00  0.00    -0.203 F 
ATOM    100  F   UNL     1     -11.387   9.382 -23.102  1.00  0.00    -0.200 F 
ATOM    101  C   UNL     1     -13.638   8.668 -23.151  1.00  0.00     0.200 A 
ATOM    102  F   UNL     1     -15.886   7.945 -23.149  1.00  0.00    -0.200 F 
ATOM    103  F   UNL     1     -13.811   9.249 -24.345  1.00  0.00    -0.200 F 
ENDBRANCH  70  93
ENDBRANCH  44  45
ENDBRANCH  36  39
ENDBRANCH  34  35
ENDBRANCH  33  34
ENDBRANCH  32  33
ENDBRANCH   1  32
TORSDOF 17
