REMARK SMILES O=C(NCCCCNC(=O)c1ccn(CC(F)(F)F)c1)c1ccc(-c2c3nc(c(-c4c(F)c(F)c(F)c(F)c4F)c4ccc([nH]4)c(-c4c(F)c(F)c(F)c(F)c4F)c4nc(c(-c5c(F)c(F)c(F)c(F)c5F)c5ccc2[nH]5)C=C4)C=C3)cc1
REMARK SMILES IDX 5 1 4 2 3 3 1 4 2 5 21 7 22 8 83 9 23 10 82 11 24 12 25 13
REMARK SMILES IDX 26 14 76 15 27 16 81 17 75 18 77 19 28 20 80 21 74 22 73 23
REMARK SMILES IDX 29 25 61 26 41 27 60 28 42 29 45 30 59 31 78 32 43 33 44 34
REMARK SMILES IDX 58 36 79 37 46 38 30 39 31 40 39 41 32 42 33 43 37 44 40 45
REMARK SMILES IDX 34 46 35 47 38 48 36 49 62 50 63 51 71 52 64 53 65 54 69 55
REMARK SMILES IDX 72 56 66 57 67 58 70 59 68 60 47 61 48 62 56 63 49 64 50 65
REMARK SMILES IDX 54 66 57 67 51 68 52 69 55 70 53 71 6 72 7 73 8 74 9 75
REMARK SMILES IDX 10 77 11 78 12 79 20 80 13 81 14 82 15 83 16 84 17 85 18 86
REMARK SMILES IDX 19 87
REMARK H PARENT 3 6 77 24 45 35 8 76
REMARK Flexibility Score: inf
ROOT
ATOM      1  C   UNL     1       4.982  -1.936  -1.106  1.00  0.00     0.023 C 
ENDROOT
BRANCH   1   2
ATOM      2  C   UNL     1       4.736  -0.428  -1.193  1.00  0.00     0.116 C 
BRANCH   2   3
ATOM      3  N   UNL     1       3.346  -0.007  -1.144  1.00  0.00    -0.352 N 
ATOM      4  O   UNL     1       1.318   0.520  -0.362  1.00  0.00    -0.269 OA
ATOM      5  C   UNL     1       2.396  -0.035  -0.154  1.00  0.00     0.251 C 
ATOM      6  H   UNL     1       3.021   0.375  -1.990  1.00  0.00     0.163 HD
BRANCH   5   7
ATOM      7  C   UNL     1       2.587  -0.779   1.114  1.00  0.00     0.039 A 
ATOM      8  C   UNL     1       3.825  -0.917   1.740  1.00  0.00     0.014 A 
ATOM      9  C   UNL     1       1.453  -1.374   1.692  1.00  0.00     0.014 A 
ATOM     10  C   UNL     1       3.967  -1.757   2.833  1.00  0.00     0.010 A 
ATOM     11  C   UNL     1       1.574  -2.165   2.834  1.00  0.00     0.010 A 
ATOM     12  C   UNL     1       2.841  -2.373   3.386  1.00  0.00    -0.014 A 
BRANCH  12  13
ATOM     13  C   UNL     1       3.038  -3.050   4.685  1.00  0.00     0.031 A 
ATOM     14  C   UNL     1       3.212  -2.042   5.825  1.00  0.00     0.074 A 
ATOM     15  C   UNL     1       3.132  -4.411   4.676  1.00  0.00     0.049 A 
ATOM     16  N   UNL     1       3.859  -2.156   6.945  1.00  0.00    -0.248 NA
ATOM     17  C   UNL     1       2.653  -0.671   5.660  1.00  0.00     0.031 C 
ATOM     18  C   UNL     1       2.953  -5.242   3.472  1.00  0.00     0.029 A 
ATOM     19  N   UNL     1       3.410  -5.366   5.637  1.00  0.00    -0.354 N 
ATOM     20  C   UNL     1       3.617  -0.981   7.685  1.00  0.00     0.074 A 
ATOM     21  C   UNL     1       2.991  -0.055   6.793  1.00  0.00     0.031 C 
ATOM     22  C   UNL     1       3.189  -6.540   3.748  1.00  0.00     0.029 A 
ATOM     23  C   UNL     1       3.527  -6.695   5.151  1.00  0.00     0.049 A 
ATOM     24  H   UNL     1       3.519  -5.140   6.589  1.00  0.00     0.167 HD
ATOM     25  C   UNL     1       3.806  -0.897   9.034  1.00  0.00     0.037 A 
ATOM     26  C   UNL     1       3.899  -7.835   5.816  1.00  0.00     0.037 A 
ATOM     27  C   UNL     1       4.330  -2.119   9.539  1.00  0.00     0.049 A 
ATOM     28  C   UNL     1       3.980  -7.458   7.237  1.00  0.00     0.074 A 
ATOM     29  C   UNL     1       5.567  -2.700   9.474  1.00  0.00     0.029 A 
ATOM     30  N   UNL     1       3.421  -3.049   9.978  1.00  0.00    -0.354 N 
ATOM     31  N   UNL     1       2.952  -7.210   7.994  1.00  0.00    -0.248 NA
ATOM     32  C   UNL     1       5.301  -7.301   7.860  1.00  0.00     0.031 C 
ATOM     33  C   UNL     1       5.299  -4.084   9.494  1.00  0.00     0.029 A 
ATOM     34  C   UNL     1       3.928  -4.291   9.688  1.00  0.00     0.049 A 
ATOM     35  H   UNL     1       2.562  -2.860  10.420  1.00  0.00     0.167 HD
ATOM     36  C   UNL     1       3.523  -6.555   9.060  1.00  0.00     0.074 A 
ATOM     37  C   UNL     1       4.918  -6.930   9.079  1.00  0.00     0.031 C 
ATOM     38  C   UNL     1       2.993  -5.372   9.463  1.00  0.00     0.037 A 
BRANCH  25  39
ATOM     39  C   UNL     1       3.332   0.108  10.045  1.00  0.00     0.064 A 
ATOM     40  C   UNL     1       3.976   0.138  11.307  1.00  0.00     0.173 A 
ATOM     41  C   UNL     1       2.091   0.755   9.968  1.00  0.00     0.173 A 
ATOM     42  F   UNL     1       5.188  -0.417  11.472  1.00  0.00    -0.203 F 
ATOM     43  C   UNL     1       3.355   0.653  12.442  1.00  0.00     0.198 A 
ATOM     44  C   UNL     1       1.494   1.318  11.101  1.00  0.00     0.198 A 
ATOM     45  F   UNL     1       1.382   0.766   8.833  1.00  0.00    -0.203 F 
ATOM     46  F   UNL     1       3.942   0.526  13.641  1.00  0.00    -0.200 F 
ATOM     47  C   UNL     1       2.104   1.227  12.341  1.00  0.00     0.200 A 
ATOM     48  F   UNL     1       0.282   1.881  10.998  1.00  0.00    -0.200 F 
ATOM     49  F   UNL     1       1.470   1.659  13.440  1.00  0.00    -0.200 F 
ENDBRANCH  25  39
BRANCH  26  50
ATOM     50  C   UNL     1       4.272  -9.269   5.482  1.00  0.00     0.064 A 
ATOM     51  C   UNL     1       4.241  -9.860   4.212  1.00  0.00     0.173 A 
ATOM     52  C   UNL     1       4.798 -10.126   6.496  1.00  0.00     0.173 A 
ATOM     53  F   UNL     1       3.676  -9.247   3.170  1.00  0.00    -0.203 F 
ATOM     54  C   UNL     1       4.789 -11.132   3.959  1.00  0.00     0.198 A 
ATOM     55  C   UNL     1       5.386 -11.365   6.238  1.00  0.00     0.198 A 
ATOM     56  F   UNL     1       4.767  -9.787   7.792  1.00  0.00    -0.203 F 
ATOM     57  F   UNL     1       4.738 -11.639   2.719  1.00  0.00    -0.200 F 
ATOM     58  C   UNL     1       5.397 -11.865   4.961  1.00  0.00     0.200 A 
ATOM     59  F   UNL     1       5.957 -12.051   7.240  1.00  0.00    -0.200 F 
ATOM     60  F   UNL     1       5.975 -13.044   4.700  1.00  0.00    -0.200 F 
ENDBRANCH  26  50
BRANCH  38  61
ATOM     61  C   UNL     1       1.513  -5.240   9.152  1.00  0.00     0.064 A 
ATOM     62  C   UNL     1       0.590  -6.133   9.719  1.00  0.00     0.173 A 
ATOM     63  C   UNL     1       0.994  -4.345   8.203  1.00  0.00     0.173 A 
ATOM     64  F   UNL     1       0.995  -7.011  10.650  1.00  0.00    -0.203 F 
ATOM     65  C   UNL     1      -0.756  -6.141   9.338  1.00  0.00     0.198 A 
ATOM     66  C   UNL     1      -0.349  -4.344   7.822  1.00  0.00     0.198 A 
ATOM     67  F   UNL     1       1.781  -3.444   7.624  1.00  0.00    -0.203 F 
ATOM     68  F   UNL     1      -1.603  -7.015   9.898  1.00  0.00    -0.200 F 
ATOM     69  C   UNL     1      -1.224  -5.250   8.386  1.00  0.00     0.200 A 
ATOM     70  F   UNL     1      -0.787  -3.459   6.913  1.00  0.00    -0.200 F 
ATOM     71  F   UNL     1      -2.515  -5.253   8.025  1.00  0.00    -0.200 F 
ENDBRANCH  38  61
ENDBRANCH  12  13
ENDBRANCH   5   7
ENDBRANCH   2   3
ENDBRANCH   1   2
BRANCH   1  72
ATOM     72  C   UNL     1       4.451  -2.748  -2.284  1.00  0.00     0.023 C 
BRANCH  72  73
ATOM     73  C   UNL     1       4.902  -2.259  -3.655  1.00  0.00     0.116 C 
BRANCH  73  74
ATOM     74  N   UNL     1       6.350  -2.232  -3.776  1.00  0.00    -0.352 N 
ATOM     75  C   UNL     1       7.137  -2.818  -4.740  1.00  0.00     0.252 C 
ATOM     76  H   UNL     1       6.829  -1.728  -3.079  1.00  0.00     0.163 HD
ATOM     77  O   UNL     1       8.345  -2.864  -4.590  1.00  0.00    -0.269 OA
BRANCH  75  78
ATOM     78  C   UNL     1       6.457  -3.388  -5.891  1.00  0.00     0.057 A 
ATOM     79  C   UNL     1       5.522  -2.769  -6.771  1.00  0.00     0.033 A 
ATOM     80  C   UNL     1       6.618  -4.686  -6.338  1.00  0.00     0.099 A 
ATOM     81  C   UNL     1       5.099  -3.722  -7.669  1.00  0.00     0.087 A 
ATOM     82  N   UNL     1       5.744  -4.893  -7.371  1.00  0.00    -0.344 N 
BRANCH  82  83
ATOM     83  C   UNL     1       5.539  -6.156  -8.052  1.00  0.00     0.236 C 
BRANCH  83  84
ATOM     84  C   UNL     1       4.230  -6.814  -7.679  1.00  0.00     0.406 C 
ATOM     85  F   UNL     1       3.163  -6.077  -8.061  1.00  0.00    -0.169 F 
ATOM     86  F   UNL     1       4.123  -8.015  -8.296  1.00  0.00    -0.169 F 
ATOM     87  F   UNL     1       4.130  -7.039  -6.351  1.00  0.00    -0.169 F 
ENDBRANCH  83  84
ENDBRANCH  82  83
ENDBRANCH  75  78
ENDBRANCH  73  74
ENDBRANCH  72  73
ENDBRANCH   1  72
TORSDOF 13
