REMARK SMILES CC[C@@H]1CCC[C@](CCCCCO)(C(=O)NCCCCNC(=O)c2ccc(-c3c4nc(c(-c5c(F)c(F)c(F)c(F)c5F)c5ccc([nH]5)c(-c5c(F)c(F)c(F)c(F)c5F)c5nc(c(-c6c(F)c(F)c(F)c(F)c6F)c6ccc3[nH]6)C=C5)C=C4)cc2)C1
REMARK SMILES IDX 14 1 15 2 16 3 7 5 3 6 4 7 87 8 5 9 6 10 2 11 1 12 8 13 9 14
REMARK SMILES IDX 10 15 11 16 12 17 13 18 17 20 18 21 19 22 20 23 21 24 22 25
REMARK SMILES IDX 23 27 24 28 25 29 86 30 26 31 85 32 27 33 28 34 29 35 79 36
REMARK SMILES IDX 30 37 84 38 78 39 80 40 31 41 83 42 77 43 76 44 32 46 64 47
REMARK SMILES IDX 44 48 63 49 45 50 48 51 62 52 81 53 46 54 47 55 61 57 82 58
REMARK SMILES IDX 49 59 33 60 34 61 42 62 35 63 36 64 40 65 43 66 37 67 38 68
REMARK SMILES IDX 41 69 39 70 65 71 66 72 74 73 67 74 68 75 72 76 75 77 69 78
REMARK SMILES IDX 70 79 73 80 71 81 50 82 51 83 59 84 52 85 53 86 57 87 60 88
REMARK SMILES IDX 54 89 55 90 58 91 56 92
REMARK H PARENT 16 4 13 19 21 26 80 45 48 56
REMARK Flexibility Score: inf
ROOT
ATOM      1  C   UNL     1       4.235  -0.186  -4.290  1.00  0.00     0.226 C 
ATOM      2  O   UNL     1       5.142  -0.999  -4.441  1.00  0.00    -0.274 OA
ATOM      3  N   UNL     1       4.391   1.149  -4.597  1.00  0.00    -0.356 N 
ATOM      4  H   UNL     1       3.785   1.814  -4.199  1.00  0.00     0.163 HD
ENDROOT
BRANCH   1   5
ATOM      5  C   UNL     1       2.791  -0.586  -3.929  1.00  0.00     0.049 C 
ATOM      6  C   UNL     1       0.894  -0.184  -2.211  1.00  0.00    -0.010 C 
ATOM      7  C   UNL     1       0.846  -1.681  -1.882  1.00  0.00     0.003 C 
ATOM      8  C   UNL     1       2.298   0.235  -2.696  1.00  0.00     0.020 C 
ATOM      9  C   UNL     1       1.373  -2.546  -3.019  1.00  0.00     0.001 C 
ATOM     10  C   UNL     1       2.747  -2.078  -3.500  1.00  0.00     0.017 C 
BRANCH   6  11
ATOM     11  C   UNL     1       0.399   0.698  -1.046  1.00  0.00     0.000 C 
ATOM     12  C   UNL     1       1.017   0.403   0.314  1.00  0.00     0.004 C 
ENDBRANCH   6  11
BRANCH   5  13
ATOM     13  C   UNL     1       1.876  -0.290  -5.168  1.00  0.00     0.017 C 
BRANCH  13  14
ATOM     14  C   UNL     1       2.377  -0.442  -6.627  1.00  0.00     0.001 C 
BRANCH  14  15
ATOM     15  C   UNL     1       3.371  -1.553  -6.970  1.00  0.00     0.002 C 
BRANCH  15  16
ATOM     16  C   UNL     1       3.019  -2.358  -8.224  1.00  0.00     0.028 C 
BRANCH  16  17
ATOM     17  C   UNL     1       2.947  -1.559  -9.518  1.00  0.00     0.156 C 
BRANCH  17  18
ATOM     18  O   UNL     1       4.192  -0.939  -9.802  1.00  0.00    -0.396 OA
ATOM     19  H   UNL     1       4.421  -0.330  -9.082  1.00  0.00     0.210 HD
ENDBRANCH  17  18
ENDBRANCH  16  17
ENDBRANCH  15  16
ENDBRANCH  14  15
ENDBRANCH  13  14
ENDBRANCH   5  13
ENDBRANCH   1   5
BRANCH   3  20
ATOM     20  C   UNL     1       5.433   1.581  -5.496  1.00  0.00     0.116 C 
BRANCH  20  21
ATOM     21  C   UNL     1       5.155   2.994  -5.998  1.00  0.00     0.023 C 
BRANCH  21  22
ATOM     22  C   UNL     1       6.297   3.564  -6.832  1.00  0.00     0.023 C 
BRANCH  22  23
ATOM     23  C   UNL     1       6.657   2.763  -8.077  1.00  0.00     0.116 C 
BRANCH  23  24
ATOM     24  N   UNL     1       5.702   2.914  -9.164  1.00  0.00    -0.352 N 
ATOM     25  C   UNL     1       5.979   3.113 -10.505  1.00  0.00     0.251 C 
ATOM     26  H   UNL     1       4.750   2.869  -8.918  1.00  0.00     0.163 HD
ATOM     27  O   UNL     1       5.093   3.304 -11.315  1.00  0.00    -0.269 OA
BRANCH  25  28
ATOM     28  C   UNL     1       7.402   3.164 -10.914  1.00  0.00     0.039 A 
ATOM     29  C   UNL     1       7.900   4.352 -11.453  1.00  0.00     0.014 A 
ATOM     30  C   UNL     1       8.259   2.102 -10.611  1.00  0.00     0.014 A 
ATOM     31  C   UNL     1       9.280   4.518 -11.588  1.00  0.00     0.010 A 
ATOM     32  C   UNL     1       9.636   2.295 -10.686  1.00  0.00     0.010 A 
ATOM     33  C   UNL     1      10.160   3.515 -11.148  1.00  0.00    -0.014 A 
BRANCH  33  34
ATOM     34  C   UNL     1      11.629   3.743 -11.109  1.00  0.00     0.031 A 
ATOM     35  C   UNL     1      12.546   2.916 -11.963  1.00  0.00     0.074 A 
ATOM     36  C   UNL     1      12.143   4.633 -10.237  1.00  0.00     0.049 A 
ATOM     37  N   UNL     1      13.854   2.907 -12.003  1.00  0.00    -0.248 NA
ATOM     38  C   UNL     1      11.909   1.952 -12.872  1.00  0.00     0.031 C 
ATOM     39  C   UNL     1      11.366   5.456  -9.308  1.00  0.00     0.029 A 
ATOM     40  N   UNL     1      13.446   4.983  -9.975  1.00  0.00    -0.354 N 
ATOM     41  C   UNL     1      14.196   1.927 -12.924  1.00  0.00     0.074 A 
ATOM     42  C   UNL     1      12.960   1.333 -13.389  1.00  0.00     0.031 C 
ATOM     43  C   UNL     1      12.203   6.223  -8.591  1.00  0.00     0.029 A 
ATOM     44  C   UNL     1      13.577   5.924  -8.982  1.00  0.00     0.049 A 
ATOM     45  H   UNL     1      14.214   4.596 -10.455  1.00  0.00     0.167 HD
ATOM     46  C   UNL     1      15.427   1.568 -13.358  1.00  0.00     0.037 A 
ATOM     47  C   UNL     1      14.681   6.477  -8.442  1.00  0.00     0.037 A 
ATOM     48  C   UNL     1      16.654   2.182 -12.923  1.00  0.00     0.049 A 
ATOM     49  C   UNL     1      16.037   6.069  -8.952  1.00  0.00     0.074 A 
ATOM     50  C   UNL     1      17.942   1.944 -13.370  1.00  0.00     0.029 A 
ATOM     51  N   UNL     1      16.744   3.153 -11.938  1.00  0.00    -0.354 N 
ATOM     52  N   UNL     1      16.341   5.201  -9.884  1.00  0.00    -0.248 NA
ATOM     53  C   UNL     1      17.202   6.721  -8.336  1.00  0.00     0.031 C 
ATOM     54  C   UNL     1      18.817   2.744 -12.627  1.00  0.00     0.029 A 
ATOM     55  C   UNL     1      18.070   3.509 -11.746  1.00  0.00     0.049 A 
ATOM     56  H   UNL     1      15.980   3.533 -11.447  1.00  0.00     0.167 HD
ATOM     57  C   UNL     1      17.726   5.217  -9.983  1.00  0.00     0.074 A 
ATOM     58  C   UNL     1      18.203   6.192  -9.026  1.00  0.00     0.031 C 
ATOM     59  C   UNL     1      18.529   4.486 -10.794  1.00  0.00     0.037 A 
BRANCH  46  60
ATOM     60  C   UNL     1      15.510   0.462 -14.366  1.00  0.00     0.064 A 
ATOM     61  C   UNL     1      15.103   0.649 -15.695  1.00  0.00     0.173 A 
ATOM     62  C   UNL     1      16.039  -0.788 -14.010  1.00  0.00     0.173 A 
ATOM     63  F   UNL     1      14.582   1.823 -16.082  1.00  0.00    -0.203 F 
ATOM     64  C   UNL     1      15.199  -0.382 -16.625  1.00  0.00     0.198 A 
ATOM     65  C   UNL     1      16.158  -1.808 -14.949  1.00  0.00     0.198 A 
ATOM     66  F   UNL     1      16.448  -1.016 -12.753  1.00  0.00    -0.203 F 
ATOM     67  F   UNL     1      14.765  -0.193 -17.879  1.00  0.00    -0.200 F 
ATOM     68  C   UNL     1      15.732  -1.607 -16.254  1.00  0.00     0.200 A 
ATOM     69  F   UNL     1      16.684  -2.988 -14.592  1.00  0.00    -0.200 F 
ATOM     70  F   UNL     1      15.831  -2.596 -17.152  1.00  0.00    -0.200 F 
ENDBRANCH  46  60
BRANCH  47  71
ATOM     71  C   UNL     1      14.553   7.492  -7.364  1.00  0.00     0.064 A 
ATOM     72  C   UNL     1      14.857   8.839  -7.605  1.00  0.00     0.173 A 
ATOM     73  C   UNL     1      14.140   7.137  -6.071  1.00  0.00     0.173 A 
ATOM     74  F   UNL     1      15.278   9.222  -8.819  1.00  0.00    -0.203 F 
ATOM     75  C   UNL     1      14.771   9.790  -6.590  1.00  0.00     0.198 A 
ATOM     76  C   UNL     1      14.031   8.093  -5.064  1.00  0.00     0.198 A 
ATOM     77  F   UNL     1      13.836   5.862  -5.790  1.00  0.00    -0.203 F 
ATOM     78  F   UNL     1      15.110  11.062  -6.837  1.00  0.00    -0.200 F 
ATOM     79  C   UNL     1      14.354   9.417  -5.322  1.00  0.00     0.200 A 
ATOM     80  F   UNL     1      13.616   7.732  -3.842  1.00  0.00    -0.200 F 
ATOM     81  F   UNL     1      14.270  10.332  -4.346  1.00  0.00    -0.200 F 
ENDBRANCH  47  71
BRANCH  59  82
ATOM     82  C   UNL     1      20.006   4.727 -10.701  1.00  0.00     0.064 A 
ATOM     83  C   UNL     1      20.758   4.255  -9.615  1.00  0.00     0.173 A 
ATOM     84  C   UNL     1      20.684   5.391 -11.734  1.00  0.00     0.173 A 
ATOM     85  F   UNL     1      20.151   3.630  -8.595  1.00  0.00    -0.203 F 
ATOM     86  C   UNL     1      22.135   4.452  -9.561  1.00  0.00     0.198 A 
ATOM     87  C   UNL     1      22.065   5.564 -11.688  1.00  0.00     0.198 A 
ATOM     88  F   UNL     1      20.010   5.858 -12.795  1.00  0.00    -0.203 F 
ATOM     89  F   UNL     1      22.829   4.024  -8.497  1.00  0.00    -0.200 F 
ATOM     90  C   UNL     1      22.788   5.098 -10.600  1.00  0.00     0.200 A 
ATOM     91  F   UNL     1      22.696   6.179 -12.698  1.00  0.00    -0.200 F 
ATOM     92  F   UNL     1      24.115   5.277 -10.550  1.00  0.00    -0.200 F 
ENDBRANCH  59  82
ENDBRANCH  33  34
ENDBRANCH  25  28
ENDBRANCH  23  24
ENDBRANCH  22  23
ENDBRANCH  21  22
ENDBRANCH  20  21
ENDBRANCH   3  20
TORSDOF 18
