REMARK SMILES O=C(Cc1csc(SC[C@@H]2Cc3ccccc3S2)n1)NCCCCNC(=O)c1ccc(-c2c3nc(c(-c4c(F)c(F)c(F)c(F)c4F)c4ccc([nH]4)c(-c4c(F)c(F)c(F)c(F)c4F)c4nc(c(-c5c(F)c(F)c(F)c(F)c5F)c5ccc2[nH]5)C=C4)C=C3)cc1
REMARK SMILES IDX 21 1 20 2 1 3 2 4 3 6 4 7 5 8 19 9 6 10 7 11 8 12 9 13 10 14
REMARK SMILES IDX 11 15 18 16 12 17 17 18 13 19 16 20 14 21 15 22 22 23 23 24
REMARK SMILES IDX 24 25 25 26 26 27 27 29 28 30 29 31 90 32 30 33 89 34 31 35
REMARK SMILES IDX 32 36 33 37 83 38 34 39 88 40 82 41 84 42 35 43 87 44 81 45
REMARK SMILES IDX 80 46 36 48 68 49 48 50 67 51 49 52 52 53 66 54 85 55 50 56
REMARK SMILES IDX 51 57 65 59 86 60 53 61 37 62 38 63 46 64 39 65 40 66 44 67
REMARK SMILES IDX 47 68 41 69 42 70 45 71 43 72 69 73 70 74 78 75 71 76 72 77
REMARK SMILES IDX 76 78 79 79 73 80 74 81 77 82 75 83 54 84 55 85 63 86 56 87
REMARK SMILES IDX 57 88 61 89 64 90 58 91 59 92 62 93 60 94
REMARK H PARENT 20 5 25 28 84 47 52 58
REMARK Flexibility Score: inf
ROOT
ATOM      1  C   UNL     1      -1.903   7.006  -2.297  1.00  0.00     0.116 C 
ENDROOT
BRANCH   1   2
ATOM      2  N   UNL     1      -0.653   7.635  -2.656  1.00  0.00    -0.356 N 
ATOM      3  O   UNL     1      -0.443   8.857  -0.736  1.00  0.00    -0.275 OA
ATOM      4  C   UNL     1       0.021   8.492  -1.817  1.00  0.00     0.226 C 
ATOM      5  H   UNL     1      -0.265   7.441  -3.540  1.00  0.00     0.163 HD
BRANCH   4   6
ATOM      6  C   UNL     1       1.308   9.091  -2.364  1.00  0.00     0.157 C 
BRANCH   6   7
ATOM      7  C   UNL     1       2.214   8.183  -3.144  1.00  0.00     0.062 A 
ATOM      8  C   UNL     1       3.498   8.508  -3.546  1.00  0.00     0.092 A 
ATOM      9  N   UNL     1       1.801   6.914  -3.542  1.00  0.00    -0.234 NA
ATOM     10  S   UNL     1       4.236   7.172  -4.322  1.00  0.00    -0.116 S 
ATOM     11  C   UNL     1       2.811   6.256  -4.064  1.00  0.00     0.150 A 
BRANCH  11  12
ATOM     12  S   UNL     1       2.702   4.571  -4.508  1.00  0.00    -0.094 SA
BRANCH  12  13
ATOM     13  C   UNL     1       1.466   3.913  -3.330  1.00  0.00     0.092 C 
BRANCH  13  14
ATOM     14  C   UNL     1       2.002   3.713  -1.897  1.00  0.00     0.066 C 
ATOM     15  C   UNL     1       1.376   2.480  -1.198  1.00  0.00     0.052 C 
ATOM     16  S   UNL     1       1.605   5.145  -0.820  1.00  0.00    -0.121 SA
ATOM     17  C   UNL     1       0.271   2.940  -0.294  1.00  0.00    -0.033 A 
ATOM     18  C   UNL     1       0.271   4.307  -0.025  1.00  0.00     0.011 A 
ATOM     19  C   UNL     1      -0.645   2.103   0.337  1.00  0.00     0.005 A 
ATOM     20  C   UNL     1      -0.671   4.872   0.822  1.00  0.00     0.015 A 
ATOM     21  C   UNL     1      -1.586   2.659   1.207  1.00  0.00     0.000 A 
ATOM     22  C   UNL     1      -1.608   4.039   1.438  1.00  0.00     0.001 A 
ENDBRANCH  13  14
ENDBRANCH  12  13
ENDBRANCH  11  12
ENDBRANCH   6   7
ENDBRANCH   4   6
ENDBRANCH   1   2
BRANCH   1  23
ATOM     23  C   UNL     1      -3.126   7.830  -2.702  1.00  0.00     0.023 C 
BRANCH  23  24
ATOM     24  C   UNL     1      -3.199   8.208  -4.182  1.00  0.00     0.023 C 
BRANCH  24  25
ATOM     25  C   UNL     1      -3.065   7.056  -5.170  1.00  0.00     0.116 C 
BRANCH  25  26
ATOM     26  N   UNL     1      -4.163   6.102  -5.109  1.00  0.00    -0.352 N 
ATOM     27  C   UNL     1      -4.924   5.578  -6.130  1.00  0.00     0.251 C 
ATOM     28  H   UNL     1      -4.396   5.785  -4.206  1.00  0.00     0.163 HD
ATOM     29  O   UNL     1      -5.879   4.848  -5.879  1.00  0.00    -0.269 OA
BRANCH  27  30
ATOM     30  C   UNL     1      -4.624   5.933  -7.537  1.00  0.00     0.039 A 
ATOM     31  C   UNL     1      -3.314   5.922  -8.019  1.00  0.00     0.014 A 
ATOM     32  C   UNL     1      -5.673   6.321  -8.377  1.00  0.00     0.014 A 
ATOM     33  C   UNL     1      -3.034   6.473  -9.266  1.00  0.00     0.010 A 
ATOM     34  C   UNL     1      -5.397   6.799  -9.663  1.00  0.00     0.010 A 
ATOM     35  C   UNL     1      -4.069   6.937 -10.095  1.00  0.00    -0.014 A 
BRANCH  35  36
ATOM     36  C   UNL     1      -3.735   7.600 -11.385  1.00  0.00     0.031 A 
ATOM     37  C   UNL     1      -4.026   9.065 -11.590  1.00  0.00     0.074 A 
ATOM     38  C   UNL     1      -3.095   6.905 -12.345  1.00  0.00     0.049 A 
ATOM     39  N   UNL     1      -3.781   9.818 -12.635  1.00  0.00    -0.248 NA
ATOM     40  C   UNL     1      -4.675   9.782 -10.481  1.00  0.00     0.031 C 
ATOM     41  C   UNL     1      -2.733   5.490 -12.260  1.00  0.00     0.029 A 
ATOM     42  N   UNL     1      -2.607   7.300 -13.566  1.00  0.00    -0.354 N 
ATOM     43  C   UNL     1      -4.252  11.085 -12.313  1.00  0.00     0.074 A 
ATOM     44  C   UNL     1      -4.827  10.998 -10.989  1.00  0.00     0.031 C 
ATOM     45  C   UNL     1      -2.031   5.150 -13.352  1.00  0.00     0.029 A 
ATOM     46  C   UNL     1      -1.943   6.304 -14.241  1.00  0.00     0.049 A 
ATOM     47  H   UNL     1      -2.721   8.210 -13.924  1.00  0.00     0.167 HD
ATOM     48  C   UNL     1      -4.194  12.221 -13.047  1.00  0.00     0.037 A 
ATOM     49  C   UNL     1      -1.338   6.316 -15.444  1.00  0.00     0.037 A 
ATOM     50  C   UNL     1      -3.599  12.320 -14.354  1.00  0.00     0.049 A 
ATOM     51  C   UNL     1      -1.339   7.580 -16.258  1.00  0.00     0.074 A 
ATOM     52  C   UNL     1      -3.496  13.433 -15.172  1.00  0.00     0.029 A 
ATOM     53  N   UNL     1      -2.996  11.271 -15.029  1.00  0.00    -0.354 N 
ATOM     54  N   UNL     1      -1.800   8.765 -15.944  1.00  0.00    -0.248 NA
ATOM     55  C   UNL     1      -0.745   7.503 -17.600  1.00  0.00     0.031 C 
ATOM     56  C   UNL     1      -2.856  13.051 -16.354  1.00  0.00     0.029 A 
ATOM     57  C   UNL     1      -2.528  11.709 -16.258  1.00  0.00     0.049 A 
ATOM     58  H   UNL     1      -2.911  10.352 -14.686  1.00  0.00     0.167 HD
ATOM     59  C   UNL     1      -1.540   9.577 -17.039  1.00  0.00     0.074 A 
ATOM     60  C   UNL     1      -0.862   8.755 -18.020  1.00  0.00     0.031 C 
ATOM     61  C   UNL     1      -1.846  10.884 -17.218  1.00  0.00     0.037 A 
BRANCH  48  62
ATOM     62  C   UNL     1      -4.781  13.471 -12.460  1.00  0.00     0.064 A 
ATOM     63  C   UNL     1      -4.114  14.187 -11.457  1.00  0.00     0.173 A 
ATOM     64  C   UNL     1      -5.969  14.011 -12.976  1.00  0.00     0.173 A 
ATOM     65  F   UNL     1      -2.980  13.706 -10.926  1.00  0.00    -0.203 F 
ATOM     66  C   UNL     1      -4.616  15.398 -10.989  1.00  0.00     0.198 A 
ATOM     67  C   UNL     1      -6.457  15.233 -12.521  1.00  0.00     0.198 A 
ATOM     68  F   UNL     1      -6.640  13.367 -13.944  1.00  0.00    -0.203 F 
ATOM     69  F   UNL     1      -3.970  16.059 -10.018  1.00  0.00    -0.200 F 
ATOM     70  C   UNL     1      -5.780  15.926 -11.529  1.00  0.00     0.200 A 
ATOM     71  F   UNL     1      -7.574  15.748 -13.054  1.00  0.00    -0.200 F 
ATOM     72  F   UNL     1      -6.248  17.103 -11.093  1.00  0.00    -0.200 F 
ENDBRANCH  48  62
BRANCH  49  73
ATOM     73  C   UNL     1      -0.674   5.089 -15.952  1.00  0.00     0.064 A 
ATOM     74  C   UNL     1       0.720   5.027 -16.081  1.00  0.00     0.173 A 
ATOM     75  C   UNL     1      -1.416   3.958 -16.323  1.00  0.00     0.173 A 
ATOM     76  F   UNL     1       1.470   6.091 -15.761  1.00  0.00    -0.203 F 
ATOM     77  C   UNL     1       1.346   3.884 -16.573  1.00  0.00     0.198 A 
ATOM     78  C   UNL     1      -0.787   2.806 -16.789  1.00  0.00     0.198 A 
ATOM     79  F   UNL     1      -2.753   3.969 -16.220  1.00  0.00    -0.203 F 
ATOM     80  F   UNL     1       2.677   3.864 -16.724  1.00  0.00    -0.200 F 
ATOM     81  C   UNL     1       0.593   2.772 -16.920  1.00  0.00     0.200 A 
ATOM     82  F   UNL     1      -1.518   1.730 -17.112  1.00  0.00    -0.200 F 
ATOM     83  F   UNL     1       1.196   1.671 -17.388  1.00  0.00    -0.200 F 
ENDBRANCH  49  73
BRANCH  61  84
ATOM     84  C   UNL     1      -1.435  11.519 -18.512  1.00  0.00     0.064 A 
ATOM     85  C   UNL     1      -2.124  11.256 -19.704  1.00  0.00     0.173 A 
ATOM     86  C   UNL     1      -0.383  12.447 -18.548  1.00  0.00     0.173 A 
ATOM     87  F   UNL     1      -3.128  10.366 -19.721  1.00  0.00    -0.203 F 
ATOM     88  C   UNL     1      -1.766  11.890 -20.891  1.00  0.00     0.198 A 
ATOM     89  C   UNL     1      -0.044  13.096 -19.731  1.00  0.00     0.198 A 
ATOM     90  F   UNL     1       0.302  12.736 -17.432  1.00  0.00    -0.203 F 
ATOM     91  F   UNL     1      -2.418  11.601 -22.026  1.00  0.00    -0.200 F 
ATOM     92  C   UNL     1      -0.733  12.815 -20.902  1.00  0.00     0.200 A 
ATOM     93  F   UNL     1       0.948  13.998 -19.738  1.00  0.00    -0.200 F 
ATOM     94  F   UNL     1      -0.397  13.433 -22.043  1.00  0.00    -0.200 F 
ENDBRANCH  61  84
ENDBRANCH  35  36
ENDBRANCH  27  30
ENDBRANCH  25  26
ENDBRANCH  24  25
ENDBRANCH  23  24
ENDBRANCH   1  23
TORSDOF 15
