REMARK SMILES C[C@@H](C(=O)NCCCCNC(=O)c1ccc(-c2c3nc(c(-c4c(F)c(F)c(F)c(F)c4F)c4ccc([nH]4)c(-c4c(F)c(F)c(F)c(F)c4F)c4nc(c(-c5c(F)c(F)c(F)c(F)c5F)c5ccc2[nH]5)C=C4)C=C3)cc1)c1ccc(C[C@H]2CCCC2=O)cc1Br
REMARK SMILES IDX 7 1 6 2 5 3 3 4 4 5 2 7 1 8 76 9 77 10 88 11 78 12 87 13
REMARK SMILES IDX 89 14 79 15 80 16 81 17 82 18 85 19 83 20 84 21 86 22 8 23
REMARK SMILES IDX 9 24 10 25 11 26 12 28 13 29 14 30 75 31 15 32 74 33 16 34
REMARK SMILES IDX 17 35 18 36 68 37 19 38 73 39 67 40 69 41 20 42 72 43 66 44
REMARK SMILES IDX 65 45 21 47 53 48 33 49 52 50 34 51 37 52 51 53 70 54 35 55
REMARK SMILES IDX 36 56 50 58 71 59 38 60 22 61 23 62 31 63 24 64 25 65 29 66
REMARK SMILES IDX 32 67 26 68 27 69 30 70 28 71 54 72 55 73 63 74 56 75 57 76
REMARK SMILES IDX 61 77 64 78 58 79 59 80 62 81 60 82 39 83 40 84 48 85 41 86
REMARK SMILES IDX 42 87 46 88 49 89 43 90 44 91 47 92 45 93
REMARK H PARENT 5 6 10 27 69 46 37 57
REMARK Flexibility Score: inf
ROOT
ATOM      1  C   UNL     1       4.324  -0.874   0.977  1.00  0.00     0.023 C 
ENDROOT
BRANCH   1   2
ATOM      2  C   UNL     1       3.486  -1.956   0.286  1.00  0.00     0.116 C 
BRANCH   2   3
ATOM      3  N   UNL     1       2.390  -2.360   1.143  1.00  0.00    -0.356 N 
ATOM      4  C   UNL     1       1.094  -1.925   1.149  1.00  0.00     0.227 C 
ATOM      5  O   UNL     1       0.428  -2.162   2.159  1.00  0.00    -0.274 OA
ATOM      6  H   UNL     1       2.609  -3.046   1.815  1.00  0.00     0.163 HD
BRANCH   4   7
ATOM      7  C   UNL     1       0.526  -1.192  -0.085  1.00  0.00     0.106 C 
ATOM      8  C   UNL     1       1.038   0.258  -0.064  1.00  0.00     0.023 C 
BRANCH   7   9
ATOM      9  C   UNL     1      -1.004  -1.302  -0.168  1.00  0.00    -0.022 A 
ATOM     10  C   UNL     1      -1.800  -0.143  -0.232  1.00  0.00     0.006 A 
ATOM     11  C   UNL     1      -1.681  -2.538  -0.179  1.00  0.00     0.022 A 
ATOM     12  C   UNL     1      -3.192  -0.206  -0.222  1.00  0.00     0.004 A 
ATOM     13  C   UNL     1      -3.083  -2.596  -0.100  1.00  0.00     0.019 A 
ATOM     14  Br  UNL     1      -0.777  -4.207  -0.341  1.00  0.00    -0.051 Br
ATOM     15  C   UNL     1      -3.848  -1.426  -0.078  1.00  0.00    -0.046 A 
BRANCH  15  16
ATOM     16  C   UNL     1      -5.346  -1.467   0.103  1.00  0.00     0.047 C 
BRANCH  16  17
ATOM     17  C   UNL     1      -5.883  -0.933   1.442  1.00  0.00     0.060 C 
ATOM     18  C   UNL     1      -5.335  -1.601   2.707  1.00  0.00     0.012 C 
ATOM     19  C   UNL     1      -5.546   0.521   1.687  1.00  0.00     0.136 C 
ATOM     20  C   UNL     1      -4.219  -0.698   3.221  1.00  0.00     0.009 C 
ATOM     21  C   UNL     1      -4.656   0.720   2.886  1.00  0.00     0.076 C 
ATOM     22  O   UNL     1      -5.958   1.442   0.990  1.00  0.00    -0.299 OA
ENDBRANCH  16  17
ENDBRANCH  15  16
ENDBRANCH   7   9
ENDBRANCH   4   7
ENDBRANCH   2   3
ENDBRANCH   1   2
BRANCH   1  23
ATOM     23  C   UNL     1       5.133  -1.368   2.179  1.00  0.00     0.023 C 
BRANCH  23  24
ATOM     24  C   UNL     1       6.137  -2.470   1.869  1.00  0.00     0.116 C 
BRANCH  24  25
ATOM     25  N   UNL     1       7.085  -2.093   0.834  1.00  0.00    -0.352 N 
ATOM     26  C   UNL     1       8.425  -2.361   0.743  1.00  0.00     0.251 C 
ATOM     27  H   UNL     1       6.710  -1.569   0.090  1.00  0.00     0.163 HD
ATOM     28  O   UNL     1       9.092  -1.839  -0.151  1.00  0.00    -0.269 OA
BRANCH  26  29
ATOM     29  C   UNL     1       9.082  -3.242   1.730  1.00  0.00     0.039 A 
ATOM     30  C   UNL     1      10.336  -2.870   2.220  1.00  0.00     0.014 A 
ATOM     31  C   UNL     1       8.485  -4.429   2.165  1.00  0.00     0.014 A 
ATOM     32  C   UNL     1      10.966  -3.661   3.180  1.00  0.00     0.010 A 
ATOM     33  C   UNL     1       9.079  -5.178   3.179  1.00  0.00     0.010 A 
ATOM     34  C   UNL     1      10.329  -4.804   3.691  1.00  0.00    -0.014 A 
BRANCH  34  35
ATOM     35  C   UNL     1      10.972  -5.602   4.764  1.00  0.00     0.031 A 
ATOM     36  C   UNL     1      11.420  -7.013   4.508  1.00  0.00     0.074 A 
ATOM     37  C   UNL     1      11.133  -5.052   5.983  1.00  0.00     0.049 A 
ATOM     38  N   UNL     1      12.033  -7.844   5.314  1.00  0.00    -0.248 NA
ATOM     39  C   UNL     1      11.121  -7.575   3.182  1.00  0.00     0.031 C 
ATOM     40  C   UNL     1      10.673  -3.718   6.375  1.00  0.00     0.029 A 
ATOM     41  N   UNL     1      11.729  -5.543   7.117  1.00  0.00    -0.354 N 
ATOM     42  C   UNL     1      12.197  -9.019   4.593  1.00  0.00     0.074 A 
ATOM     43  C   UNL     1      11.560  -8.819   3.309  1.00  0.00     0.031 C 
ATOM     44  C   UNL     1      11.031  -3.485   7.647  1.00  0.00     0.029 A 
ATOM     45  C   UNL     1      11.725  -4.659   8.167  1.00  0.00     0.049 A 
ATOM     46  H   UNL     1      12.123  -6.444   7.172  1.00  0.00     0.167 HD
ATOM     47  C   UNL     1      12.848 -10.150   4.956  1.00  0.00     0.037 A 
ATOM     48  C   UNL     1      12.232  -4.779   9.409  1.00  0.00     0.037 A 
ATOM     49  C   UNL     1      13.488 -10.343   6.231  1.00  0.00     0.049 A 
ATOM     50  C   UNL     1      12.970  -6.037   9.778  1.00  0.00     0.074 A 
ATOM     51  C   UNL     1      14.204 -11.438   6.683  1.00  0.00     0.029 A 
ATOM     52  N   UNL     1      13.488  -9.414   7.262  1.00  0.00    -0.354 N 
ATOM     53  N   UNL     1      13.185  -7.112   9.059  1.00  0.00    -0.248 NA
ATOM     54  C   UNL     1      13.551  -6.089  11.126  1.00  0.00     0.031 C 
ATOM     55  C   UNL     1      14.604 -11.187   8.000  1.00  0.00     0.029 A 
ATOM     56  C   UNL     1      14.180  -9.916   8.352  1.00  0.00     0.049 A 
ATOM     57  H   UNL     1      13.059  -8.529   7.224  1.00  0.00     0.167 HD
ATOM     58  C   UNL     1      13.940  -7.960   9.858  1.00  0.00     0.074 A 
ATOM     59  C   UNL     1      14.172  -7.260  11.105  1.00  0.00     0.031 C 
ATOM     60  C   UNL     1      14.396  -9.208   9.588  1.00  0.00     0.037 A 
BRANCH  47  61
ATOM     61  C   UNL     1      12.917 -11.262   3.948  1.00  0.00     0.064 A 
ATOM     62  C   UNL     1      13.698 -11.148   2.787  1.00  0.00     0.173 A 
ATOM     63  C   UNL     1      12.232 -12.467   4.160  1.00  0.00     0.173 A 
ATOM     64  F   UNL     1      14.363 -10.011   2.530  1.00  0.00    -0.203 F 
ATOM     65  C   UNL     1      13.770 -12.188   1.865  1.00  0.00     0.198 A 
ATOM     66  C   UNL     1      12.330 -13.517   3.250  1.00  0.00     0.198 A 
ATOM     67  F   UNL     1      11.475 -12.632   5.255  1.00  0.00    -0.203 F 
ATOM     68  F   UNL     1      14.485 -12.037   0.741  1.00  0.00    -0.200 F 
ATOM     69  C   UNL     1      13.092 -13.374   2.100  1.00  0.00     0.200 A 
ATOM     70  F   UNL     1      11.684 -14.668   3.485  1.00  0.00    -0.200 F 
ATOM     71  F   UNL     1      13.169 -14.378   1.216  1.00  0.00    -0.200 F 
ENDBRANCH  47  61
BRANCH  48  72
ATOM     72  C   UNL     1      12.089  -3.664  10.380  1.00  0.00     0.064 A 
ATOM     73  C   UNL     1      13.199  -2.911  10.787  1.00  0.00     0.173 A 
ATOM     74  C   UNL     1      10.841  -3.333  10.926  1.00  0.00     0.173 A 
ATOM     75  F   UNL     1      14.417  -3.201  10.305  1.00  0.00    -0.203 F 
ATOM     76  C   UNL     1      13.072  -1.888  11.723  1.00  0.00     0.198 A 
ATOM     77  C   UNL     1      10.709  -2.289  11.840  1.00  0.00     0.198 A 
ATOM     78  F   UNL     1       9.745  -4.016  10.563  1.00  0.00    -0.203 F 
ATOM     79  F   UNL     1      14.158  -1.219  12.133  1.00  0.00    -0.200 F 
ATOM     80  C   UNL     1      11.826  -1.575  12.246  1.00  0.00     0.200 A 
ATOM     81  F   UNL     1       9.501  -1.979  12.330  1.00  0.00    -0.200 F 
ATOM     82  F   UNL     1      11.703  -0.590  13.145  1.00  0.00    -0.200 F 
ENDBRANCH  48  72
BRANCH  60  83
ATOM     83  C   UNL     1      15.203  -9.883  10.659  1.00  0.00     0.064 A 
ATOM     84  C   UNL     1      14.614 -10.329  11.851  1.00  0.00     0.173 A 
ATOM     85  C   UNL     1      16.579 -10.092  10.487  1.00  0.00     0.173 A 
ATOM     86  F   UNL     1      13.303 -10.140  12.069  1.00  0.00    -0.203 F 
ATOM     87  C   UNL     1      15.380 -10.925  12.849  1.00  0.00     0.198 A 
ATOM     88  C   UNL     1      17.337 -10.717  11.474  1.00  0.00     0.198 A 
ATOM     89  F   UNL     1      17.190  -9.692   9.362  1.00  0.00    -0.203 F 
ATOM     90  F   UNL     1      14.807 -11.286  14.006  1.00  0.00    -0.200 F 
ATOM     91  C   UNL     1      16.740 -11.122  12.658  1.00  0.00     0.200 A 
ATOM     92  F   UNL     1      18.648 -10.918  11.283  1.00  0.00    -0.200 F 
ATOM     93  F   UNL     1      17.477 -11.692  13.621  1.00  0.00    -0.200 F 
ENDBRANCH  60  83
ENDBRANCH  34  35
ENDBRANCH  26  29
ENDBRANCH  24  25
ENDBRANCH  23  24
ENDBRANCH   1  23
TORSDOF 14
