REMARK SMILES CC(=C\c1ccco1)/C=C1/SC(=S)N(CC(=O)NCCCCNC(=O)c2ccc(-c3c4nc(c(-c5c(F)c(F)c(F)c(F)c5F)c5ccc([nH]5)c(-c5c(F)c(F)c(F)c(F)c5F)c5nc(c(-c6c(F)c(F)c(F)c(F)c6F)c6ccc3[nH]6)C=C5)C=C4)cc2)C1=O
REMARK SMILES IDX 20 1 19 2 18 3 16 4 17 5 15 7 14 8 9 9 10 10 11 11 89 12
REMARK SMILES IDX 12 13 90 14 13 15 2 16 1 17 3 18 4 19 5 20 8 21 6 22 7 23
REMARK SMILES IDX 21 24 22 25 23 26 24 27 25 29 26 30 27 31 88 32 28 33 87 34
REMARK SMILES IDX 29 35 30 36 31 37 81 38 32 39 86 40 80 41 82 42 33 43 85 44
REMARK SMILES IDX 79 45 78 46 34 48 66 49 46 50 65 51 47 52 50 53 64 54 83 55
REMARK SMILES IDX 48 56 49 57 63 59 84 60 51 61 35 62 36 63 44 64 37 65 38 66
REMARK SMILES IDX 42 67 45 68 39 69 40 70 43 71 41 72 67 73 68 74 76 75 69 76
REMARK SMILES IDX 70 77 74 78 77 79 71 80 72 81 75 82 73 83 52 84 53 85 61 86
REMARK SMILES IDX 54 87 55 88 59 89 62 90 56 91 57 92 60 93 58 94
REMARK H PARENT 18 6 23 28 82 47 50 58
REMARK Flexibility Score: inf
ROOT
ATOM      1  C   UNL     1       3.631   3.599   2.603  1.00  0.00     0.023 C 
ENDROOT
BRANCH   1   2
ATOM      2  C   UNL     1       5.070   3.202   2.285  1.00  0.00     0.116 C 
BRANCH   2   3
ATOM      3  N   UNL     1       5.207   1.779   2.067  1.00  0.00    -0.355 N 
ATOM      4  C   UNL     1       5.558   1.102   0.934  1.00  0.00     0.240 C 
ATOM      5  O   UNL     1       5.867  -0.084   1.067  1.00  0.00    -0.273 OA
ATOM      6  H   UNL     1       5.019   1.215   2.852  1.00  0.00     0.163 HD
BRANCH   4   7
ATOM      7  C   UNL     1       5.697   1.817  -0.421  1.00  0.00     0.227 C 
BRANCH   7   8
ATOM      8  N   UNL     1       4.467   2.504  -0.819  1.00  0.00    -0.283 N 
ATOM      9  C   UNL     1       0.875   2.167  -1.235  1.00  0.00     0.024 C 
ATOM     10  C   UNL     1       2.156   2.563  -1.265  1.00  0.00     0.080 C 
ATOM     11  S   UNL     1       2.643   4.204  -1.465  1.00  0.00    -0.054 SA
ATOM     12  C   UNL     1       3.362   1.714  -1.077  1.00  0.00     0.266 C 
ATOM     13  C   UNL     1       4.334   3.838  -1.128  1.00  0.00     0.148 C 
ATOM     14  O   UNL     1       3.378   0.494  -1.165  1.00  0.00    -0.268 OA
ATOM     15  S   UNL     1       5.519   5.010  -1.208  1.00  0.00    -0.052 S 
BRANCH   9  16
ATOM     16  C   UNL     1       0.400   0.807  -0.996  1.00  0.00    -0.046 C 
ATOM     17  C   UNL     1       0.718   0.229   0.363  1.00  0.00     0.044 C 
ATOM     18  C   UNL     1      -0.218   0.165  -2.007  1.00  0.00     0.050 C 
BRANCH  18  19
ATOM     19  C   UNL     1      -0.661  -1.185  -1.950  1.00  0.00     0.126 A 
ATOM     20  C   UNL     1      -1.355  -1.885  -0.968  1.00  0.00     0.050 A 
ATOM     21  O   UNL     1      -0.439  -2.058  -2.992  1.00  0.00    -0.465 OA
ATOM     22  C   UNL     1      -1.474  -3.229  -1.391  1.00  0.00     0.042 A 
ATOM     23  C   UNL     1      -0.898  -3.281  -2.633  1.00  0.00     0.195 A 
ENDBRANCH  18  19
ENDBRANCH   9  16
ENDBRANCH   7   8
ENDBRANCH   4   7
ENDBRANCH   2   3
ENDBRANCH   1   2
BRANCH   1  24
ATOM     24  C   UNL     1       3.150   3.175   3.994  1.00  0.00     0.023 C 
BRANCH  24  25
ATOM     25  C   UNL     1       3.992   3.682   5.161  1.00  0.00     0.116 C 
BRANCH  25  26
ATOM     26  N   UNL     1       4.102   5.131   5.200  1.00  0.00    -0.352 N 
ATOM     27  C   UNL     1       4.027   5.981   6.276  1.00  0.00     0.251 C 
ATOM     28  H   UNL     1       4.252   5.566   4.330  1.00  0.00     0.163 HD
ATOM     29  O   UNL     1       4.008   7.195   6.097  1.00  0.00    -0.269 OA
BRANCH  27  30
ATOM     30  C   UNL     1       3.936   5.439   7.649  1.00  0.00     0.039 A 
ATOM     31  C   UNL     1       3.036   6.026   8.542  1.00  0.00     0.014 A 
ATOM     32  C   UNL     1       4.734   4.369   8.064  1.00  0.00     0.014 A 
ATOM     33  C   UNL     1       2.899   5.507   9.831  1.00  0.00     0.010 A 
ATOM     34  C   UNL     1       4.537   3.801   9.320  1.00  0.00     0.010 A 
ATOM     35  C   UNL     1       3.626   4.370  10.222  1.00  0.00    -0.014 A 
BRANCH  35  36
ATOM     36  C   UNL     1       3.444   3.779  11.573  1.00  0.00     0.031 A 
ATOM     37  C   UNL     1       4.585   3.748  12.551  1.00  0.00     0.074 A 
ATOM     38  C   UNL     1       2.256   3.237  11.906  1.00  0.00     0.049 A 
ATOM     39  N   UNL     1       4.619   3.271  13.771  1.00  0.00    -0.248 NA
ATOM     40  C   UNL     1       5.868   4.303  12.092  1.00  0.00     0.031 C 
ATOM     41  C   UNL     1       1.088   3.155  11.028  1.00  0.00     0.029 A 
ATOM     42  N   UNL     1       1.833   2.653  13.074  1.00  0.00    -0.354 N 
ATOM     43  C   UNL     1       5.920   3.463  14.217  1.00  0.00     0.074 A 
ATOM     44  C   UNL     1       6.663   4.039  13.118  1.00  0.00     0.031 C 
ATOM     45  C   UNL     1       0.072   2.588  11.697  1.00  0.00     0.029 A 
ATOM     46  C   UNL     1       0.526   2.232  13.038  1.00  0.00     0.049 A 
ATOM     47  H   UNL     1       2.412   2.546  13.863  1.00  0.00     0.167 HD
ATOM     48  C   UNL     1       6.441   3.209  15.442  1.00  0.00     0.037 A 
ATOM     49  C   UNL     1      -0.221   1.625  13.980  1.00  0.00     0.037 A 
ATOM     50  C   UNL     1       5.695   2.649  16.539  1.00  0.00     0.049 A 
ATOM     51  C   UNL     1       0.386   1.346  15.329  1.00  0.00     0.074 A 
ATOM     52  C   UNL     1       6.116   2.404  17.834  1.00  0.00     0.029 A 
ATOM     53  N   UNL     1       4.371   2.239  16.466  1.00  0.00    -0.354 N 
ATOM     54  N   UNL     1       1.595   1.605  15.765  1.00  0.00    -0.248 NA
ATOM     55  C   UNL     1      -0.484   0.700  16.321  1.00  0.00     0.031 C 
ATOM     56  C   UNL     1       5.067   1.792  18.528  1.00  0.00     0.029 A 
ATOM     57  C   UNL     1       3.969   1.718  17.686  1.00  0.00     0.049 A 
ATOM     58  H   UNL     1       3.801   2.309  15.666  1.00  0.00     0.167 HD
ATOM     59  C   UNL     1       1.622   1.183  17.087  1.00  0.00     0.074 A 
ATOM     60  C   UNL     1       0.301   0.673  17.388  1.00  0.00     0.031 C 
ATOM     61  C   UNL     1       2.649   1.213  17.973  1.00  0.00     0.037 A 
BRANCH  48  62
ATOM     62  C   UNL     1       7.893   3.534  15.660  1.00  0.00     0.064 A 
ATOM     63  C   UNL     1       8.358   4.859  15.679  1.00  0.00     0.173 A 
ATOM     64  C   UNL     1       8.826   2.512  15.888  1.00  0.00     0.173 A 
ATOM     65  F   UNL     1       7.511   5.876  15.456  1.00  0.00    -0.203 F 
ATOM     66  C   UNL     1       9.706   5.145  15.882  1.00  0.00     0.198 A 
ATOM     67  C   UNL     1      10.167   2.803  16.126  1.00  0.00     0.198 A 
ATOM     68  F   UNL     1       8.438   1.228  15.887  1.00  0.00    -0.203 F 
ATOM     69  F   UNL     1      10.134   6.414  15.839  1.00  0.00    -0.200 F 
ATOM     70  C   UNL     1      10.607   4.118  16.114  1.00  0.00     0.200 A 
ATOM     71  F   UNL     1      11.035   1.810  16.366  1.00  0.00    -0.200 F 
ATOM     72  F   UNL     1      11.903   4.395  16.318  1.00  0.00    -0.200 F 
ENDBRANCH  48  62
BRANCH  49  73
ATOM     73  C   UNL     1      -1.635   1.264  13.691  1.00  0.00     0.064 A 
ATOM     74  C   UNL     1      -2.694   1.909  14.347  1.00  0.00     0.173 A 
ATOM     75  C   UNL     1      -1.958   0.261  12.766  1.00  0.00     0.173 A 
ATOM     76  F   UNL     1      -2.437   2.862  15.255  1.00  0.00    -0.203 F 
ATOM     77  C   UNL     1      -4.018   1.544  14.110  1.00  0.00     0.198 A 
ATOM     78  C   UNL     1      -3.283  -0.079  12.504  1.00  0.00     0.198 A 
ATOM     79  F   UNL     1      -0.984  -0.382  12.105  1.00  0.00    -0.203 F 
ATOM     80  F   UNL     1      -5.006   2.138  14.793  1.00  0.00    -0.200 F 
ATOM     81  C   UNL     1      -4.311   0.554  13.185  1.00  0.00     0.200 A 
ATOM     82  F   UNL     1      -3.563  -1.024  11.596  1.00  0.00    -0.200 F 
ATOM     83  F   UNL     1      -5.585   0.206  12.955  1.00  0.00    -0.200 F 
ENDBRANCH  49  73
BRANCH  61  84
ATOM     84  C   UNL     1       2.371   0.713  19.363  1.00  0.00     0.064 A 
ATOM     85  C   UNL     1       2.125  -0.643  19.628  1.00  0.00     0.173 A 
ATOM     86  C   UNL     1       2.364   1.603  20.449  1.00  0.00     0.173 A 
ATOM     87  F   UNL     1       2.107  -1.534  18.625  1.00  0.00    -0.203 F 
ATOM     88  C   UNL     1       1.840  -1.081  20.919  1.00  0.00     0.198 A 
ATOM     89  C   UNL     1       2.117   1.155  21.743  1.00  0.00     0.198 A 
ATOM     90  F   UNL     1       2.603   2.909  20.255  1.00  0.00    -0.203 F 
ATOM     91  F   UNL     1       1.541  -2.369  21.136  1.00  0.00    -0.200 F 
ATOM     92  C   UNL     1       1.842  -0.183  21.976  1.00  0.00     0.200 A 
ATOM     93  F   UNL     1       2.137   2.022  22.766  1.00  0.00    -0.200 F 
ATOM     94  F   UNL     1       1.569  -0.607  23.217  1.00  0.00    -0.200 F 
ENDBRANCH  61  84
ENDBRANCH  35  36
ENDBRANCH  27  30
ENDBRANCH  25  26
ENDBRANCH  24  25
ENDBRANCH   1  24
TORSDOF 14
