REMARK SMILES CSc1nc2nnc(C(=O)NCCCCNC(=O)c3ccc(-c4c5nc(c(-c6c(F)c(F)c(F)c(F)c6F)c6ccc([nH]6)c(-c6c(F)c(F)c(F)c(F)c6F)c6nc(c(-c7c(F)c(F)c(F)c(F)c7F)c7ccc4[nH]7)C=C6)C=C5)cc3)c(O)n2n1
REMARK SMILES IDX 14 1 13 2 12 3 11 4 9 5 10 6 8 8 3 9 4 10 85 11 5 12 84 13
REMARK SMILES IDX 6 14 82 15 7 16 2 17 1 18 83 19 15 21 16 22 17 23 18 25
REMARK SMILES IDX 19 26 20 27 81 28 21 29 80 30 22 31 23 32 24 33 74 34 25 35
REMARK SMILES IDX 79 36 73 37 75 38 26 39 78 40 72 41 71 42 27 44 59 45 39 46
REMARK SMILES IDX 58 47 40 48 43 49 57 50 76 51 41 52 42 53 56 55 77 56 44 57
REMARK SMILES IDX 28 58 29 59 37 60 30 61 31 62 35 63 38 64 32 65 33 66 36 67
REMARK SMILES IDX 34 68 60 69 61 70 69 71 62 72 63 73 67 74 70 75 64 76 65 77
REMARK SMILES IDX 68 78 66 79 45 80 46 81 54 82 47 83 48 84 52 85 55 86 49 87
REMARK SMILES IDX 50 88 53 89 51 90
REMARK H PARENT 11 7 83 20 16 24 75 43 43 54
REMARK Flexibility Score: inf
ROOT
ATOM      1  C   UNL     1       5.627   9.999  -4.386  1.00  0.00     0.023 C 
ENDROOT
BRANCH   1   2
ATOM      2  C   UNL     1       4.451   9.240  -3.748  1.00  0.00     0.023 C 
BRANCH   2   3
ATOM      3  C   UNL     1       3.551   8.450  -4.705  1.00  0.00     0.116 C 
BRANCH   3   4
ATOM      4  N   UNL     1       4.245   7.331  -5.328  1.00  0.00    -0.350 N 
ATOM      5  C   UNL     1       4.179   5.980  -5.166  1.00  0.00     0.277 C 
ATOM      6  O   UNL     1       4.932   5.301  -5.876  1.00  0.00    -0.267 OA
ATOM      7  H   UNL     1       4.900   7.610  -6.008  1.00  0.00     0.163 HD
BRANCH   5   8
ATOM      8  C   UNL     1       3.249   5.290  -4.203  1.00  0.00     0.212 A 
ATOM      9  C   UNL     1       1.052   2.109  -2.190  1.00  0.00     0.210 A 
ATOM     10  N   UNL     1       0.671   3.365  -1.831  1.00  0.00    -0.182 NA
ATOM     11  N   UNL     1       2.081   2.033  -3.032  1.00  0.00    -0.134 NA
ATOM     12  C   UNL     1       1.480   4.132  -2.531  1.00  0.00     0.275 A 
ATOM     13  N   UNL     1       2.339   3.341  -3.284  1.00  0.00    -0.159 N 
ATOM     14  N   UNL     1       1.564   5.490  -2.624  1.00  0.00    -0.108 NA
ATOM     15  C   UNL     1       3.261   3.934  -4.153  1.00  0.00     0.249 A 
ATOM     16  N   UNL     1       2.394   6.027  -3.406  1.00  0.00    -0.136 NA
BRANCH   9  17
ATOM     17  S   UNL     1       0.210   0.682  -1.658  1.00  0.00    -0.088 SA
ATOM     18  C   UNL     1       1.085   0.371  -0.114  1.00  0.00     0.094 C 
ENDBRANCH   9  17
BRANCH  15  19
ATOM     19  O   UNL     1       4.089   3.106  -4.901  1.00  0.00    -0.491 OA
ATOM     20  H   UNL     1       4.715   3.479  -5.490  1.00  0.00     0.295 HD
ENDBRANCH  15  19
ENDBRANCH   5   8
ENDBRANCH   3   4
ENDBRANCH   2   3
ENDBRANCH   1   2
BRANCH   1  21
ATOM     21  C   UNL     1       5.238  11.015  -5.451  1.00  0.00     0.116 C 
BRANCH  21  22
ATOM     22  N   UNL     1       4.386  12.099  -4.957  1.00  0.00    -0.352 N 
ATOM     23  C   UNL     1       3.851  13.150  -5.681  1.00  0.00     0.251 C 
ATOM     24  H   UNL     1       4.168  12.077  -3.998  1.00  0.00     0.163 HD
ATOM     25  O   UNL     1       3.484  14.185  -5.123  1.00  0.00    -0.269 OA
BRANCH  23  26
ATOM     26  C   UNL     1       3.721  13.012  -7.141  1.00  0.00     0.039 A 
ATOM     27  C   UNL     1       3.972  14.068  -8.020  1.00  0.00     0.014 A 
ATOM     28  C   UNL     1       3.368  11.758  -7.627  1.00  0.00     0.014 A 
ATOM     29  C   UNL     1       3.941  13.814  -9.390  1.00  0.00     0.010 A 
ATOM     30  C   UNL     1       3.551  11.462  -8.950  1.00  0.00     0.010 A 
ATOM     31  C   UNL     1       3.751  12.497  -9.847  1.00  0.00    -0.014 A 
BRANCH  31  32
ATOM     32  C   UNL     1       3.826  12.162 -11.262  1.00  0.00     0.031 A 
ATOM     33  C   UNL     1       5.045  12.661 -11.944  1.00  0.00     0.074 A 
ATOM     34  C   UNL     1       2.953  11.340 -11.886  1.00  0.00     0.049 A 
ATOM     35  N   UNL     1       5.110  13.618 -12.806  1.00  0.00    -0.248 NA
ATOM     36  C   UNL     1       6.356  12.145 -11.522  1.00  0.00     0.031 C 
ATOM     37  C   UNL     1       1.863  10.536 -11.319  1.00  0.00     0.029 A 
ATOM     38  N   UNL     1       2.908  11.005 -13.204  1.00  0.00    -0.354 N 
ATOM     39  C   UNL     1       6.445  13.713 -13.182  1.00  0.00     0.074 A 
ATOM     40  C   UNL     1       7.183  12.903 -12.248  1.00  0.00     0.031 C 
ATOM     41  C   UNL     1       1.412   9.656 -12.242  1.00  0.00     0.029 A 
ATOM     42  C   UNL     1       2.044   9.960 -13.511  1.00  0.00     0.049 A 
ATOM     43  H   UNL     1       3.445  11.467 -13.887  1.00  0.00     0.167 HD
ATOM     44  C   UNL     1       6.784  14.274 -14.376  1.00  0.00     0.037 A 
ATOM     45  C   UNL     1       1.853   9.399 -14.730  1.00  0.00     0.037 A 
ATOM     46  C   UNL     1       5.689  15.052 -14.905  1.00  0.00     0.049 A 
ATOM     47  C   UNL     1       2.290  10.400 -15.733  1.00  0.00     0.074 A 
ATOM     48  C   UNL     1       4.989  16.162 -14.471  1.00  0.00     0.029 A 
ATOM     49  N   UNL     1       4.898  14.472 -15.867  1.00  0.00    -0.354 N 
ATOM     50  N   UNL     1       1.675  11.531 -15.939  1.00  0.00    -0.248 NA
ATOM     51  C   UNL     1       3.674  10.346 -16.176  1.00  0.00     0.031 C 
ATOM     52  C   UNL     1       3.631  15.907 -14.829  1.00  0.00     0.029 A 
ATOM     53  C   UNL     1       3.590  14.697 -15.524  1.00  0.00     0.049 A 
ATOM     54  H   UNL     1       5.214  13.982 -16.660  1.00  0.00     0.167 HD
ATOM     55  C   UNL     1       2.694  12.453 -16.122  1.00  0.00     0.074 A 
ATOM     56  C   UNL     1       3.897  11.652 -16.341  1.00  0.00     0.031 C 
ATOM     57  C   UNL     1       2.519  13.767 -15.796  1.00  0.00     0.037 A 
BRANCH  44  58
ATOM     58  C   UNL     1       7.933  13.819 -15.244  1.00  0.00     0.064 A 
ATOM     59  C   UNL     1       8.211  14.528 -16.432  1.00  0.00     0.173 A 
ATOM     60  C   UNL     1       8.561  12.560 -15.130  1.00  0.00     0.173 A 
ATOM     61  F   UNL     1       7.663  15.732 -16.654  1.00  0.00    -0.203 F 
ATOM     62  C   UNL     1       8.974  13.974 -17.462  1.00  0.00     0.198 A 
ATOM     63  C   UNL     1       9.365  12.034 -16.140  1.00  0.00     0.198 A 
ATOM     64  F   UNL     1       8.339  11.738 -14.099  1.00  0.00    -0.203 F 
ATOM     65  F   UNL     1       9.094  14.629 -18.625  1.00  0.00    -0.200 F 
ATOM     66  C   UNL     1       9.543  12.723 -17.320  1.00  0.00     0.200 A 
ATOM     67  F   UNL     1       9.893  10.811 -15.988  1.00  0.00    -0.200 F 
ATOM     68  F   UNL     1      10.217  12.161 -18.331  1.00  0.00    -0.200 F 
ENDBRANCH  44  58
BRANCH  45  69
ATOM     69  C   UNL     1       1.663   7.969 -15.075  1.00  0.00     0.064 A 
ATOM     70  C   UNL     1       1.266   7.590 -16.369  1.00  0.00     0.173 A 
ATOM     71  C   UNL     1       2.172   6.946 -14.252  1.00  0.00     0.173 A 
ATOM     72  F   UNL     1       0.804   8.511 -17.228  1.00  0.00    -0.203 F 
ATOM     73  C   UNL     1       1.418   6.278 -16.831  1.00  0.00     0.198 A 
ATOM     74  C   UNL     1       2.320   5.636 -14.713  1.00  0.00     0.198 A 
ATOM     75  F   UNL     1       2.632   7.218 -13.023  1.00  0.00    -0.203 F 
ATOM     76  F   UNL     1       1.101   5.974 -18.097  1.00  0.00    -0.200 F 
ATOM     77  C   UNL     1       1.961   5.306 -16.008  1.00  0.00     0.200 A 
ATOM     78  F   UNL     1       2.882   4.712 -13.920  1.00  0.00    -0.200 F 
ATOM     79  F   UNL     1       2.179   4.069 -16.473  1.00  0.00    -0.200 F 
ENDBRANCH  45  69
BRANCH  57  80
ATOM     80  C   UNL     1       1.122  14.234 -15.483  1.00  0.00     0.064 A 
ATOM     81  C   UNL     1       0.366  13.791 -14.383  1.00  0.00     0.173 A 
ATOM     82  C   UNL     1       0.594  15.288 -16.241  1.00  0.00     0.173 A 
ATOM     83  F   UNL     1       0.835  12.849 -13.556  1.00  0.00    -0.203 F 
ATOM     84  C   UNL     1      -0.870  14.360 -14.076  1.00  0.00     0.198 A 
ATOM     85  C   UNL     1      -0.623  15.878 -15.912  1.00  0.00     0.198 A 
ATOM     86  F   UNL     1       1.292  15.784 -17.275  1.00  0.00    -0.203 F 
ATOM     87  F   UNL     1      -1.572  13.918 -13.022  1.00  0.00    -0.200 F 
ATOM     88  C   UNL     1      -1.358  15.410 -14.835  1.00  0.00     0.200 A 
ATOM     89  F   UNL     1      -1.068  16.923 -16.623  1.00  0.00    -0.200 F 
ATOM     90  F   UNL     1      -2.523  15.990 -14.514  1.00  0.00    -0.200 F 
ENDBRANCH  57  80
ENDBRANCH  31  32
ENDBRANCH  23  26
ENDBRANCH  21  22
ENDBRANCH   1  21
TORSDOF 13
