REMARK SMILES Cc1noc(C)c1[C@H](C)NC(=O)NCC(=O)NCC(=O)NCCCCNC(=O)c1ccc(-c2c3nc(c(-c4c(F)c(F)c(F)c(F)c4F)c4ccc([nH]4)c(-c4c(F)c(F)c(F)c(F)c4F)c4nc(c(-c5c(F)c(F)c(F)c(F)c5F)c5ccc2[nH]5)C=C4)C=C3)cc1
REMARK SMILES IDX 22 1 21 2 19 3 20 4 18 6 17 7 15 8 16 9 14 11 13 12 10 13
REMARK SMILES IDX 11 14 12 16 8 18 9 19 7 20 1 21 2 22 3 23 4 24 5 25 6 26
REMARK SMILES IDX 23 27 24 28 25 29 26 30 27 31 28 33 29 34 30 35 91 36 31 37
REMARK SMILES IDX 90 38 32 39 33 40 34 41 84 42 35 43 89 44 83 45 85 46 36 47
REMARK SMILES IDX 88 48 82 49 81 50 37 52 69 53 49 54 68 55 50 56 53 57 67 58
REMARK SMILES IDX 86 59 51 60 52 61 66 63 87 64 54 65 38 66 39 67 47 68 40 69
REMARK SMILES IDX 41 70 45 71 48 72 42 73 43 74 46 75 44 76 70 77 71 78 79 79
REMARK SMILES IDX 72 80 73 81 77 82 80 83 74 84 75 85 78 86 76 87 55 88 56 89
REMARK SMILES IDX 64 90 57 91 58 92 62 93 65 94 59 95 60 96 63 97 61 98
REMARK H PARENT 21 5 17 10 10 15 13 17 26 32 85 51 53 62
REMARK Flexibility Score: inf
ROOT
ATOM      1  C   UNL     1       1.397   6.986   2.846  1.00  0.00     0.116 C 
ENDROOT
BRANCH   1   2
ATOM      2  N   UNL     1       0.320   7.704   2.221  1.00  0.00    -0.355 N 
ATOM      3  C   UNL     1      -0.131   7.588   0.944  1.00  0.00     0.239 C 
ATOM      4  O   UNL     1      -1.127   8.243   0.628  1.00  0.00    -0.273 OA
ATOM      5  H   UNL     1      -0.148   8.359   2.788  1.00  0.00     0.163 HD
BRANCH   3   6
ATOM      6  C   UNL     1       0.457   6.547  -0.021  1.00  0.00     0.216 C 
BRANCH   6   7
ATOM      7  N   UNL     1       1.897   6.357  -0.100  1.00  0.00    -0.346 N 
ATOM      8  C   UNL     1       2.721   5.300   0.101  1.00  0.00     0.239 C 
ATOM      9  O   UNL     1       3.884   5.453  -0.296  1.00  0.00    -0.273 OA
ATOM     10  H   UNL     1       2.380   7.176  -0.357  1.00  0.00     0.164 HD
BRANCH   8  11
ATOM     11  C   UNL     1       2.320   3.925   0.680  1.00  0.00     0.217 C 
BRANCH  11  12
ATOM     12  N   UNL     1       1.183   3.773   1.572  1.00  0.00    -0.329 N 
ATOM     13  N   UNL     1      -0.684   3.068   0.314  1.00  0.00    -0.331 N 
ATOM     14  C   UNL     1      -0.118   3.509   1.443  1.00  0.00     0.315 C 
ATOM     15  H   UNL     1      -1.643   3.272   0.232  1.00  0.00     0.165 HD
ATOM     16  O   UNL     1      -0.836   3.721   2.421  1.00  0.00    -0.249 OA
ATOM     17  H   UNL     1       1.439   3.898   2.515  1.00  0.00     0.165 HD
BRANCH  13  18
ATOM     18  C   UNL     1      -0.125   2.341  -0.810  1.00  0.00     0.116 C 
ATOM     19  C   UNL     1       0.251   0.931  -0.361  1.00  0.00     0.036 C 
BRANCH  18  20
ATOM     20  C   UNL     1      -1.090   2.423  -1.955  1.00  0.00     0.040 A 
ATOM     21  C   UNL     1      -0.721   4.915  -2.699  1.00  0.00     0.071 C 
ATOM     22  C   UNL     1      -1.327   3.570  -2.778  1.00  0.00     0.086 A 
ATOM     23  N   UNL     1      -2.238   3.326  -3.722  1.00  0.00    -0.085 NA
ATOM     24  O   UNL     1      -2.602   2.012  -3.558  1.00  0.00    -0.361 OA
ATOM     25  C   UNL     1      -1.916   1.468  -2.519  1.00  0.00     0.139 A 
ATOM     26  C   UNL     1      -2.197   0.042  -2.273  1.00  0.00     0.091 C 
ENDBRANCH  18  20
ENDBRANCH  13  18
ENDBRANCH  11  12
ENDBRANCH   8  11
ENDBRANCH   6   7
ENDBRANCH   3   6
ENDBRANCH   1   2
BRANCH   1  27
ATOM     27  C   UNL     1       2.719   7.735   2.736  1.00  0.00     0.023 C 
BRANCH  27  28
ATOM     28  C   UNL     1       2.800   8.968   3.631  1.00  0.00     0.023 C 
BRANCH  28  29
ATOM     29  C   UNL     1       2.408   8.714   5.078  1.00  0.00     0.116 C 
BRANCH  29  30
ATOM     30  N   UNL     1       3.100   7.579   5.673  1.00  0.00    -0.352 N 
ATOM     31  C   UNL     1       3.372   7.364   6.999  1.00  0.00     0.251 C 
ATOM     32  H   UNL     1       3.410   6.884   5.048  1.00  0.00     0.163 HD
ATOM     33  O   UNL     1       4.034   6.400   7.363  1.00  0.00    -0.269 OA
BRANCH  31  34
ATOM     34  C   UNL     1       2.894   8.360   7.971  1.00  0.00     0.039 A 
ATOM     35  C   UNL     1       3.829   8.983   8.796  1.00  0.00     0.014 A 
ATOM     36  C   UNL     1       1.549   8.743   7.983  1.00  0.00     0.014 A 
ATOM     37  C   UNL     1       3.420  10.040   9.603  1.00  0.00     0.010 A 
ATOM     38  C   UNL     1       1.162   9.849   8.726  1.00  0.00     0.010 A 
ATOM     39  C   UNL     1       2.092  10.501   9.549  1.00  0.00    -0.014 A 
BRANCH  39  40
ATOM     40  C   UNL     1       1.681  11.672  10.354  1.00  0.00     0.031 A 
ATOM     41  C   UNL     1       0.693  11.513  11.470  1.00  0.00     0.074 A 
ATOM     42  C   UNL     1       2.184  12.884  10.054  1.00  0.00     0.049 A 
ATOM     43  N   UNL     1       0.274  12.401  12.335  1.00  0.00    -0.248 NA
ATOM     44  C   UNL     1       0.065  10.190  11.618  1.00  0.00     0.031 C 
ATOM     45  C   UNL     1       3.077  13.174   8.930  1.00  0.00     0.029 A 
ATOM     46  N   UNL     1       2.022  14.097  10.672  1.00  0.00    -0.354 N 
ATOM     47  C   UNL     1      -0.666  11.748  13.119  1.00  0.00     0.074 A 
ATOM     48  C   UNL     1      -0.808  10.411  12.588  1.00  0.00     0.031 C 
ATOM     49  C   UNL     1       3.415  14.472   8.961  1.00  0.00     0.029 A 
ATOM     50  C   UNL     1       2.754  15.107  10.097  1.00  0.00     0.049 A 
ATOM     51  H   UNL     1       1.437  14.232  11.452  1.00  0.00     0.167 HD
ATOM     52  C   UNL     1      -1.329  12.216  14.203  1.00  0.00     0.037 A 
ATOM     53  C   UNL     1       2.892  16.395  10.463  1.00  0.00     0.037 A 
ATOM     54  C   UNL     1      -1.161  13.541  14.736  1.00  0.00     0.049 A 
ATOM     55  C   UNL     1       2.201  16.872  11.710  1.00  0.00     0.074 A 
ATOM     56  C   UNL     1      -1.719  14.093  15.875  1.00  0.00     0.029 A 
ATOM     57  N   UNL     1      -0.375  14.528  14.156  1.00  0.00    -0.354 N 
ATOM     58  N   UNL     1       1.402  16.216  12.517  1.00  0.00    -0.248 NA
ATOM     59  C   UNL     1       2.451  18.262  12.113  1.00  0.00     0.031 C 
ATOM     60  C   UNL     1      -1.306  15.428  15.959  1.00  0.00     0.029 A 
ATOM     61  C   UNL     1      -0.449  15.692  14.902  1.00  0.00     0.049 A 
ATOM     62  H   UNL     1       0.157  14.416  13.335  1.00  0.00     0.167 HD
ATOM     63  C   UNL     1       1.071  17.102  13.532  1.00  0.00     0.074 A 
ATOM     64  C   UNL     1       1.775  18.337  13.251  1.00  0.00     0.031 C 
ATOM     65  C   UNL     1       0.257  16.912  14.600  1.00  0.00     0.037 A 
BRANCH  52  66
ATOM     66  C   UNL     1      -2.290  11.281  14.879  1.00  0.00     0.064 A 
ATOM     67  C   UNL     1      -1.848  10.145  15.576  1.00  0.00     0.173 A 
ATOM     68  C   UNL     1      -3.670  11.527  14.838  1.00  0.00     0.173 A 
ATOM     69  F   UNL     1      -0.539   9.855  15.633  1.00  0.00    -0.203 F 
ATOM     70  C   UNL     1      -2.753   9.272  16.174  1.00  0.00     0.198 A 
ATOM     71  C   UNL     1      -4.571  10.669  15.465  1.00  0.00     0.198 A 
ATOM     72  F   UNL     1      -4.147  12.599  14.188  1.00  0.00    -0.203 F 
ATOM     73  F   UNL     1      -2.310   8.163  16.782  1.00  0.00    -0.200 F 
ATOM     74  C   UNL     1      -4.112   9.538  16.123  1.00  0.00     0.200 A 
ATOM     75  F   UNL     1      -5.884  10.933  15.425  1.00  0.00    -0.200 F 
ATOM     76  F   UNL     1      -4.983   8.698  16.701  1.00  0.00    -0.200 F 
ENDBRANCH  52  66
BRANCH  53  77
ATOM     77  C   UNL     1       3.771  17.293   9.673  1.00  0.00     0.064 A 
ATOM     78  C   UNL     1       5.007  17.721  10.177  1.00  0.00     0.173 A 
ATOM     79  C   UNL     1       3.407  17.719   8.388  1.00  0.00     0.173 A 
ATOM     80  F   UNL     1       5.392  17.351  11.407  1.00  0.00    -0.203 F 
ATOM     81  C   UNL     1       5.838  18.555   9.432  1.00  0.00     0.198 A 
ATOM     82  C   UNL     1       4.251  18.532   7.633  1.00  0.00     0.198 A 
ATOM     83  F   UNL     1       2.240  17.328   7.856  1.00  0.00    -0.203 F 
ATOM     84  F   UNL     1       6.999  18.978   9.952  1.00  0.00    -0.200 F 
ATOM     85  C   UNL     1       5.463  18.954   8.159  1.00  0.00     0.200 A 
ATOM     86  F   UNL     1       3.892  18.901   6.396  1.00  0.00    -0.200 F 
ATOM     87  F   UNL     1       6.268  19.747   7.438  1.00  0.00    -0.200 F 
ENDBRANCH  53  77
BRANCH  65  88
ATOM     88  C   UNL     1       0.105  18.063  15.552  1.00  0.00     0.064 A 
ATOM     89  C   UNL     1      -0.604  19.221  15.200  1.00  0.00     0.173 A 
ATOM     90  C   UNL     1       0.659  17.996  16.839  1.00  0.00     0.173 A 
ATOM     91  F   UNL     1      -1.142  19.337  13.976  1.00  0.00    -0.203 F 
ATOM     92  C   UNL     1      -0.721  20.285  16.090  1.00  0.00     0.198 A 
ATOM     93  C   UNL     1       0.513  19.050  17.737  1.00  0.00     0.198 A 
ATOM     94  F   UNL     1       1.340  16.907  17.228  1.00  0.00    -0.203 F 
ATOM     95  F   UNL     1      -1.353  21.405  15.711  1.00  0.00    -0.200 F 
ATOM     96  C   UNL     1      -0.168  20.197  17.358  1.00  0.00     0.200 A 
ATOM     97  F   UNL     1       1.037  18.957  18.967  1.00  0.00    -0.200 F 
ATOM     98  F   UNL     1      -0.281  21.223  18.213  1.00  0.00    -0.200 F 
ENDBRANCH  65  88
ENDBRANCH  39  40
ENDBRANCH  31  34
ENDBRANCH  29  30
ENDBRANCH  28  29
ENDBRANCH  27  28
ENDBRANCH   1  27
TORSDOF 16
