REMARK SMILES O=C(CC[NH+]1CCC([N@H+]2CCC[C@H](C(=O)NCc3cccnc3)C2)CC1)NCCCCNC(=O)c1ccc(-c2c3nc(c(-c4c(F)c(F)c(F)c(F)c4F)c4ccc([nH]4)c(-c4c(F)c(F)c(F)c(F)c4F)c4nc(c(-c5c(F)c(F)c(F)c(F)c5F)c5ccc2[nH]5)C=C4)C=C3)cc1
REMARK SMILES IDX 1 1 2 2 27 3 3 5 4 6 5 7 6 8 26 9 7 11 25 12 8 13 9 14 10 15
REMARK SMILES IDX 24 16 11 18 13 19 12 20 14 21 15 22 16 23 17 25 18 26 19 27
REMARK SMILES IDX 23 28 20 29 22 30 21 31 28 32 29 33 30 34 31 35 32 36 33 37
REMARK SMILES IDX 34 39 35 40 36 41 97 42 37 43 96 44 38 45 39 46 40 47 90 48
REMARK SMILES IDX 41 49 95 50 89 51 91 52 42 53 94 54 88 55 87 56 43 58 75 59
REMARK SMILES IDX 55 60 74 61 56 62 59 63 73 64 92 65 57 66 58 67 72 69 93 70
REMARK SMILES IDX 60 71 44 72 45 73 53 74 46 75 47 76 51 77 54 78 48 79 49 80
REMARK SMILES IDX 52 81 50 82 76 83 77 84 85 85 78 86 79 87 83 88 86 89 80 90
REMARK SMILES IDX 81 91 84 92 82 93 61 94 62 95 70 96 63 97 64 98 68 99 71 100
REMARK SMILES IDX 65 101 66 102 69 103 67 104
REMARK H PARENT 27 4 5 10 9 17 16 24 32 38 91 57 59 68
REMARK Flexibility Score: inf
ROOT
ATOM      1  O   UNL     1       1.002  -0.521  -1.159  1.00  0.00    -0.275 OA
ATOM      2  C   UNL     1       1.783   0.218  -0.569  1.00  0.00     0.225 C 
ATOM      3  N   UNL     1       2.198   1.436  -1.085  1.00  0.00    -0.356 N 
ATOM      4  H   UNL     1       2.758   2.032  -0.537  1.00  0.00     0.163 HD
ENDROOT
BRANCH   2   5
ATOM      5  C   UNL     1       2.400  -0.166   0.768  1.00  0.00     0.161 C 
BRANCH   5   6
ATOM      6  C   UNL     1       3.195  -1.486   0.665  1.00  0.00     0.272 C 
BRANCH   6   7
ATOM      7  N   UNL     1       4.542  -1.490   0.039  1.00  0.00    -0.334 N 
ATOM      8  C   UNL     1       4.654  -2.580  -0.953  1.00  0.00     0.268 C 
ATOM      9  C   UNL     1       4.961  -0.196  -0.484  1.00  0.00     0.268 C 
ATOM     10  H   UNL     1       5.210  -1.679   0.786  1.00  0.00     0.348 HD
ATOM     11  C   UNL     1       5.997  -2.615  -1.706  1.00  0.00     0.126 C 
ATOM     12  C   UNL     1       6.327  -0.230  -1.139  1.00  0.00     0.126 C 
ATOM     13  C   UNL     1       6.276  -1.234  -2.292  1.00  0.00     0.195 C 
BRANCH  13  14
ATOM     14  N   UNL     1       7.449  -1.063  -3.138  1.00  0.00    -0.331 N 
ATOM     15  C   UNL     1       8.731  -1.582  -2.673  1.00  0.00     0.262 C 
ATOM     16  C   UNL     1       7.215  -1.411  -4.533  1.00  0.00     0.275 C 
ATOM     17  H   UNL     1       7.574  -0.054  -3.057  1.00  0.00     0.348 HD
ATOM     18  C   UNL     1       9.879  -0.905  -3.439  1.00  0.00     0.062 C 
ATOM     19  C   UNL     1       8.202  -0.634  -5.386  1.00  0.00     0.133 C 
ATOM     20  C   UNL     1       9.659  -0.776  -4.947  1.00  0.00     0.025 C 
BRANCH  19  21
ATOM     21  C   UNL     1       7.681   0.767  -5.684  1.00  0.00     0.229 C 
ATOM     22  O   UNL     1       6.940   0.904  -6.665  1.00  0.00    -0.275 OA
ATOM     23  N   UNL     1       7.979   1.882  -4.958  1.00  0.00    -0.352 N 
ATOM     24  H   UNL     1       8.284   2.674  -5.458  1.00  0.00     0.163 HD
BRANCH  23  25
ATOM     25  C   UNL     1       7.888   2.007  -3.526  1.00  0.00     0.153 C 
BRANCH  25  26
ATOM     26  C   UNL     1       8.471   3.262  -2.947  1.00  0.00    -0.010 A 
ATOM     27  C   UNL     1       7.793   4.484  -2.962  1.00  0.00     0.009 A 
ATOM     28  C   UNL     1       9.683   3.219  -2.262  1.00  0.00     0.116 A 
ATOM     29  C   UNL     1       8.320   5.575  -2.271  1.00  0.00     0.020 A 
ATOM     30  N   UNL     1      10.212   4.259  -1.580  1.00  0.00    -0.264 NA
ATOM     31  C   UNL     1       9.515   5.410  -1.591  1.00  0.00     0.111 A 
ENDBRANCH  25  26
ENDBRANCH  23  25
ENDBRANCH  19  21
ENDBRANCH  13  14
ENDBRANCH   6   7
ENDBRANCH   5   6
ENDBRANCH   2   5
BRANCH   3  32
ATOM     32  C   UNL     1       1.814   1.841  -2.429  1.00  0.00     0.116 C 
BRANCH  32  33
ATOM     33  C   UNL     1       2.365   3.210  -2.853  1.00  0.00     0.023 C 
BRANCH  33  34
ATOM     34  C   UNL     1       3.844   3.229  -3.296  1.00  0.00     0.023 C 
BRANCH  34  35
ATOM     35  C   UNL     1       4.116   2.905  -4.783  1.00  0.00     0.116 C 
BRANCH  35  36
ATOM     36  N   UNL     1       3.620   3.934  -5.691  1.00  0.00    -0.352 N 
ATOM     37  C   UNL     1       4.247   4.721  -6.633  1.00  0.00     0.251 C 
ATOM     38  H   UNL     1       2.652   4.098  -5.616  1.00  0.00     0.163 HD
ATOM     39  O   UNL     1       3.594   5.568  -7.238  1.00  0.00    -0.269 OA
BRANCH  37  40
ATOM     40  C   UNL     1       5.696   4.618  -6.918  1.00  0.00     0.039 A 
ATOM     41  C   UNL     1       6.528   5.702  -6.680  1.00  0.00     0.014 A 
ATOM     42  C   UNL     1       6.235   3.566  -7.638  1.00  0.00     0.014 A 
ATOM     43  C   UNL     1       7.915   5.602  -6.935  1.00  0.00     0.010 A 
ATOM     44  C   UNL     1       7.636   3.494  -7.869  1.00  0.00     0.010 A 
ATOM     45  C   UNL     1       8.548   4.403  -7.315  1.00  0.00    -0.014 A 
BRANCH  45  46
ATOM     46  C   UNL     1      10.065   4.157  -7.081  1.00  0.00     0.031 A 
ATOM     47  C   UNL     1      10.879   2.970  -7.634  1.00  0.00     0.074 A 
ATOM     48  C   UNL     1      10.789   4.861  -6.160  1.00  0.00     0.049 A 
ATOM     49  N   UNL     1      12.188   2.863  -7.794  1.00  0.00    -0.248 NA
ATOM     50  C   UNL     1      10.182   1.727  -7.978  1.00  0.00     0.031 C 
ATOM     51  C   UNL     1      10.274   5.841  -5.207  1.00  0.00     0.029 A 
ATOM     52  N   UNL     1      12.143   4.828  -5.843  1.00  0.00    -0.354 N 
ATOM     53  C   UNL     1      12.426   1.613  -8.363  1.00  0.00     0.074 A 
ATOM     54  C   UNL     1      11.146   0.958  -8.462  1.00  0.00     0.031 C 
ATOM     55  C   UNL     1      11.269   6.353  -4.476  1.00  0.00     0.029 A 
ATOM     56  C   UNL     1      12.515   5.710  -4.851  1.00  0.00     0.049 A 
ATOM     57  H   UNL     1      12.781   4.225  -6.288  1.00  0.00     0.167 HD
ATOM     58  C   UNL     1      13.584   1.022  -8.752  1.00  0.00     0.037 A 
ATOM     59  C   UNL     1      13.693   6.010  -4.266  1.00  0.00     0.037 A 
ATOM     60  C   UNL     1      14.913   1.499  -8.479  1.00  0.00     0.049 A 
ATOM     61  C   UNL     1      14.974   5.366  -4.684  1.00  0.00     0.074 A 
ATOM     62  C   UNL     1      16.120   1.051  -8.995  1.00  0.00     0.029 A 
ATOM     63  N   UNL     1      15.222   2.434  -7.511  1.00  0.00    -0.354 N 
ATOM     64  N   UNL     1      15.173   4.427  -5.566  1.00  0.00    -0.248 NA
ATOM     65  C   UNL     1      16.204   5.853  -4.034  1.00  0.00     0.031 C 
ATOM     66  C   UNL     1      17.162   1.660  -8.281  1.00  0.00     0.029 A 
ATOM     67  C   UNL     1      16.599   2.529  -7.366  1.00  0.00     0.049 A 
ATOM     68  H   UNL     1      14.562   2.956  -7.000  1.00  0.00     0.167 HD
ATOM     69  C   UNL     1      16.547   4.236  -5.610  1.00  0.00     0.074 A 
ATOM     70  C   UNL     1      17.137   5.143  -4.652  1.00  0.00     0.031 C 
ATOM     71  C   UNL     1      17.238   3.393  -6.411  1.00  0.00     0.037 A 
BRANCH  58  72
ATOM     72  C   UNL     1      13.478  -0.229  -9.577  1.00  0.00     0.064 A 
ATOM     73  C   UNL     1      13.094  -0.148 -10.925  1.00  0.00     0.173 A 
ATOM     74  C   UNL     1      13.870  -1.478  -9.077  1.00  0.00     0.173 A 
ATOM     75  F   UNL     1      12.720   1.028 -11.450  1.00  0.00    -0.203 F 
ATOM     76  C   UNL     1      13.105  -1.274 -11.742  1.00  0.00     0.198 A 
ATOM     77  C   UNL     1      13.892  -2.601  -9.902  1.00  0.00     0.198 A 
ATOM     78  F   UNL     1      14.249  -1.607  -7.797  1.00  0.00    -0.203 F 
ATOM     79  F   UNL     1      12.732  -1.172 -13.026  1.00  0.00    -0.200 F 
ATOM     80  C   UNL     1      13.512  -2.497 -11.233  1.00  0.00     0.200 A 
ATOM     81  F   UNL     1      14.293  -3.783  -9.414  1.00  0.00    -0.200 F 
ATOM     82  F   UNL     1      13.540  -3.577 -12.026  1.00  0.00    -0.200 F 
ENDBRANCH  58  72
BRANCH  59  83
ATOM     83  C   UNL     1      13.724   7.046  -3.201  1.00  0.00     0.064 A 
ATOM     84  C   UNL     1      14.050   8.373  -3.506  1.00  0.00     0.173 A 
ATOM     85  C   UNL     1      13.426   6.724  -1.872  1.00  0.00     0.173 A 
ATOM     86  F   UNL     1      14.371   8.713  -4.763  1.00  0.00    -0.203 F 
ATOM     87  C   UNL     1      14.073   9.348  -2.513  1.00  0.00     0.198 A 
ATOM     88  C   UNL     1      13.430   7.704  -0.883  1.00  0.00     0.198 A 
ATOM     89  F   UNL     1      13.139   5.459  -1.536  1.00  0.00    -0.203 F 
ATOM     90  F   UNL     1      14.409  10.608  -2.820  1.00  0.00    -0.200 F 
ATOM     91  C   UNL     1      13.755   9.014  -1.204  1.00  0.00     0.200 A 
ATOM     92  F   UNL     1      13.119   7.383   0.380  1.00  0.00    -0.200 F 
ATOM     93  F   UNL     1      13.770   9.954  -0.250  1.00  0.00    -0.200 F 
ENDBRANCH  59  83
BRANCH  71  94
ATOM     94  C   UNL     1      18.734   3.430  -6.337  1.00  0.00     0.064 A 
ATOM     95  C   UNL     1      19.439   2.920  -5.237  1.00  0.00     0.173 A 
ATOM     96  C   UNL     1      19.475   3.994  -7.386  1.00  0.00     0.173 A 
ATOM     97  F   UNL     1      18.777   2.391  -4.197  1.00  0.00    -0.203 F 
ATOM     98  C   UNL     1      20.830   2.997  -5.180  1.00  0.00     0.198 A 
ATOM     99  C   UNL     1      20.865   4.048  -7.337  1.00  0.00     0.198 A 
ATOM    100  F   UNL     1      18.850   4.501  -8.459  1.00  0.00    -0.203 F 
ATOM    101  F   UNL     1      21.480   2.548  -4.098  1.00  0.00    -0.200 F 
ATOM    102  C   UNL     1      21.541   3.556  -6.231  1.00  0.00     0.200 A 
ATOM    103  F   UNL     1      21.550   4.586  -8.356  1.00  0.00    -0.200 F 
ATOM    104  F   UNL     1      22.878   3.633  -6.172  1.00  0.00    -0.200 F 
ENDBRANCH  71  94
ENDBRANCH  45  46
ENDBRANCH  37  40
ENDBRANCH  35  36
ENDBRANCH  34  35
ENDBRANCH  33  34
ENDBRANCH  32  33
ENDBRANCH   3  32
TORSDOF 17
