REMARK SMILES CN(Cc1ncc(C(=O)NCCCCNC(=O)c2ccc(-c3c4nc(c(-c5c(F)c(F)c(F)c(F)c5F)c5ccc([nH]5)c(-c5c(F)c(F)c(F)c(F)c5F)c5nc(c(-c6c(F)c(F)c(F)c(F)c6F)c6ccc3[nH]6)C=C5)C=C4)cc2)cn1)S(=O)(=O)c1ccc(Cl)cc1
REMARK SMILES IDX 11 1 10 2 8 3 9 4 7 6 4 7 5 8 82 9 6 10 81 11 3 12 2 13 1 14
REMARK SMILES IDX 83 15 84 16 85 17 86 18 87 19 92 20 88 21 91 22 89 23 90 24
REMARK SMILES IDX 12 25 13 26 14 27 15 28 16 29 17 31 18 32 19 33 80 34 20 35
REMARK SMILES IDX 79 36 21 37 22 38 23 39 73 40 24 41 78 42 72 43 74 44 25 45
REMARK SMILES IDX 77 46 71 47 70 48 26 50 58 51 38 52 57 53 39 54 42 55 56 56
REMARK SMILES IDX 75 57 40 58 41 59 55 61 76 62 43 63 27 64 28 65 36 66 29 67
REMARK SMILES IDX 30 68 34 69 37 70 31 71 32 72 35 73 33 74 59 75 60 76 68 77
REMARK SMILES IDX 61 78 62 79 66 80 69 81 63 82 64 83 67 84 65 85 44 86 45 87
REMARK SMILES IDX 53 88 46 89 47 90 51 91 54 92 48 93 49 94 52 95 50 96
REMARK H PARENT 10 5 15 30 74 49 42 60
REMARK Flexibility Score: inf
ROOT
ATOM      1  C   UNL     1      -3.777   3.349   3.640  1.00  0.00     0.116 C 
ENDROOT
BRANCH   1   2
ATOM      2  N   UNL     1      -3.127   4.485   3.015  1.00  0.00    -0.352 N 
ATOM      3  C   UNL     1      -2.450   4.592   1.827  1.00  0.00     0.254 C 
ATOM      4  O   UNL     1      -2.101   5.708   1.451  1.00  0.00    -0.269 OA
ATOM      5  H   UNL     1      -3.182   5.322   3.531  1.00  0.00     0.163 HD
BRANCH   3   6
ATOM      6  C   UNL     1      -2.155   3.431   0.975  1.00  0.00     0.076 A 
ATOM      7  C   UNL     1      -1.485   1.393  -0.694  1.00  0.00     0.143 A 
ATOM      8  N   UNL     1      -1.562   1.125   0.624  1.00  0.00    -0.239 NA
ATOM      9  N   UNL     1      -1.756   2.590  -1.250  1.00  0.00    -0.239 NA
ATOM     10  C   UNL     1      -1.875   2.163   1.425  1.00  0.00     0.128 A 
ATOM     11  C   UNL     1      -2.059   3.592  -0.392  1.00  0.00     0.128 A 
BRANCH   7  12
ATOM     12  C   UNL     1      -0.911   0.306  -1.575  1.00  0.00     0.179 C 
BRANCH  12  13
ATOM     13  N   UNL     1       0.586   0.193  -1.615  1.00  0.00    -0.193 NA
ATOM     14  C   UNL     1       1.143  -0.206  -0.295  1.00  0.00     0.125 C 
BRANCH  13  15
ATOM     15  S   UNL     1       1.444   1.512  -2.288  1.00  0.00     0.243 S 
ATOM     16  O   UNL     1       1.220   2.669  -1.450  1.00  0.00    -0.207 OA
ATOM     17  O   UNL     1       2.791   1.054  -2.558  1.00  0.00    -0.207 OA
BRANCH  15  18
ATOM     18  C   UNL     1       0.675   1.787  -3.864  1.00  0.00     0.082 A 
ATOM     19  C   UNL     1       0.326   3.086  -4.246  1.00  0.00     0.023 A 
ATOM     20  C   UNL     1       0.394   0.695  -4.692  1.00  0.00     0.023 A 
ATOM     21  C   UNL     1      -0.321   3.291  -5.466  1.00  0.00     0.022 A 
ATOM     22  C   UNL     1      -0.274   0.904  -5.900  1.00  0.00     0.022 A 
ATOM     23  C   UNL     1      -0.627   2.200  -6.282  1.00  0.00     0.041 A 
ATOM     24  Cl  UNL     1      -1.454   2.453  -7.769  1.00  0.00    -0.084 Cl
ENDBRANCH  15  18
ENDBRANCH  13  15
ENDBRANCH  12  13
ENDBRANCH   7  12
ENDBRANCH   3   6
ENDBRANCH   1   2
BRANCH   1  25
ATOM     25  C   UNL     1      -2.931   2.795   4.788  1.00  0.00     0.023 C 
BRANCH  25  26
ATOM     26  C   UNL     1      -2.989   3.622   6.075  1.00  0.00     0.023 C 
BRANCH  26  27
ATOM     27  C   UNL     1      -4.383   3.792   6.667  1.00  0.00     0.116 C 
BRANCH  27  28
ATOM     28  N   UNL     1      -5.068   2.531   6.900  1.00  0.00    -0.352 N 
ATOM     29  C   UNL     1      -6.024   2.237   7.840  1.00  0.00     0.251 C 
ATOM     30  H   UNL     1      -4.812   1.790   6.304  1.00  0.00     0.163 HD
ATOM     31  O   UNL     1      -6.425   1.085   7.974  1.00  0.00    -0.269 OA
BRANCH  29  32
ATOM     32  C   UNL     1      -6.532   3.307   8.721  1.00  0.00     0.039 A 
ATOM     33  C   UNL     1      -6.607   3.059  10.093  1.00  0.00     0.014 A 
ATOM     34  C   UNL     1      -6.907   4.551   8.206  1.00  0.00     0.014 A 
ATOM     35  C   UNL     1      -7.005   4.080  10.955  1.00  0.00     0.010 A 
ATOM     36  C   UNL     1      -7.228   5.590   9.074  1.00  0.00     0.010 A 
ATOM     37  C   UNL     1      -7.285   5.364  10.456  1.00  0.00    -0.014 A 
BRANCH  37  38
ATOM     38  C   UNL     1      -7.620   6.471  11.384  1.00  0.00     0.031 A 
ATOM     39  C   UNL     1      -8.979   7.112  11.352  1.00  0.00     0.074 A 
ATOM     40  C   UNL     1      -6.680   6.918  12.239  1.00  0.00     0.049 A 
ATOM     41  N   UNL     1      -9.464   8.058  12.117  1.00  0.00    -0.248 NA
ATOM     42  C   UNL     1      -9.907   6.652  10.307  1.00  0.00     0.031 C 
ATOM     43  C   UNL     1      -5.302   6.428  12.309  1.00  0.00     0.029 A 
ATOM     44  N   UNL     1      -6.742   7.877  13.217  1.00  0.00    -0.354 N 
ATOM     45  C   UNL     1     -10.746   8.305  11.646  1.00  0.00     0.074 A 
ATOM     46  C   UNL     1     -10.942   7.459  10.489  1.00  0.00     0.031 C 
ATOM     47  C   UNL     1      -4.662   7.058  13.306  1.00  0.00     0.029 A 
ATOM     48  C   UNL     1      -5.574   8.013  13.927  1.00  0.00     0.049 A 
ATOM     49  H   UNL     1      -7.545   8.418  13.393  1.00  0.00     0.167 HD
ATOM     50  C   UNL     1     -11.686   9.140  12.151  1.00  0.00     0.037 A 
ATOM     51  C   UNL     1      -5.279   8.808  14.972  1.00  0.00     0.037 A 
ATOM     52  C   UNL     1     -11.491   9.967  13.313  1.00  0.00     0.049 A 
ATOM     53  C   UNL     1      -6.350   9.703  15.532  1.00  0.00     0.074 A 
ATOM     54  C   UNL     1     -12.396  10.807  13.939  1.00  0.00     0.029 A 
ATOM     55  N   UNL     1     -10.302  10.062  14.023  1.00  0.00    -0.354 N 
ATOM     56  N   UNL     1      -7.589   9.862  15.135  1.00  0.00    -0.248 NA
ATOM     57  C   UNL     1      -5.985  10.514  16.701  1.00  0.00     0.031 C 
ATOM     58  C   UNL     1     -11.741  11.443  15.000  1.00  0.00     0.029 A 
ATOM     59  C   UNL     1     -10.445  10.959  15.070  1.00  0.00     0.049 A 
ATOM     60  H   UNL     1      -9.478   9.565  13.813  1.00  0.00     0.167 HD
ATOM     61  C   UNL     1      -8.160  10.769  16.018  1.00  0.00     0.074 A 
ATOM     62  C   UNL     1      -7.136  11.103  16.987  1.00  0.00     0.031 C 
ATOM     63  C   UNL     1      -9.415  11.281  16.025  1.00  0.00     0.037 A 
BRANCH  50  64
ATOM     64  C   UNL     1     -13.015   9.191  11.452  1.00  0.00     0.064 A 
ATOM     65  C   UNL     1     -13.903   8.103  11.480  1.00  0.00     0.173 A 
ATOM     66  C   UNL     1     -13.422  10.349  10.773  1.00  0.00     0.173 A 
ATOM     67  F   UNL     1     -13.559   6.966  12.103  1.00  0.00    -0.203 F 
ATOM     68  C   UNL     1     -15.132   8.163  10.829  1.00  0.00     0.198 A 
ATOM     69  C   UNL     1     -14.666  10.417  10.151  1.00  0.00     0.198 A 
ATOM     70  F   UNL     1     -12.616  11.420  10.718  1.00  0.00    -0.203 F 
ATOM     71  F   UNL     1     -15.939   7.092  10.824  1.00  0.00    -0.200 F 
ATOM     72  C   UNL     1     -15.516   9.321  10.171  1.00  0.00     0.200 A 
ATOM     73  F   UNL     1     -15.041  11.542   9.527  1.00  0.00    -0.200 F 
ATOM     74  F   UNL     1     -16.703   9.380   9.551  1.00  0.00    -0.200 F 
ENDBRANCH  50  64
BRANCH  51  75
ATOM     75  C   UNL     1      -3.928   8.753  15.590  1.00  0.00     0.064 A 
ATOM     76  C   UNL     1      -3.744   8.219  16.873  1.00  0.00     0.173 A 
ATOM     77  C   UNL     1      -2.797   9.235  14.916  1.00  0.00     0.173 A 
ATOM     78  F   UNL     1      -4.798   7.760  17.565  1.00  0.00    -0.203 F 
ATOM     79  C   UNL     1      -2.486   8.194  17.470  1.00  0.00     0.198 A 
ATOM     80  C   UNL     1      -1.534   9.181  15.501  1.00  0.00     0.198 A 
ATOM     81  F   UNL     1      -2.918   9.747  13.682  1.00  0.00    -0.203 F 
ATOM     82  F   UNL     1      -2.347   7.724  18.717  1.00  0.00    -0.200 F 
ATOM     83  C   UNL     1      -1.381   8.670  16.781  1.00  0.00     0.200 A 
ATOM     84  F   UNL     1      -0.466   9.627  14.826  1.00  0.00    -0.200 F 
ATOM     85  F   UNL     1      -0.169   8.643  17.353  1.00  0.00    -0.200 F 
ENDBRANCH  51  75
BRANCH  63  86
ATOM     86  C   UNL     1      -9.754  12.233  17.137  1.00  0.00     0.064 A 
ATOM     87  C   UNL     1      -9.189  13.515  17.211  1.00  0.00     0.173 A 
ATOM     88  C   UNL     1     -10.657  11.855  18.143  1.00  0.00     0.173 A 
ATOM     89  F   UNL     1      -8.309  13.919  16.281  1.00  0.00    -0.203 F 
ATOM     90  C   UNL     1      -9.478  14.365  18.274  1.00  0.00     0.198 A 
ATOM     91  C   UNL     1     -10.971  12.722  19.186  1.00  0.00     0.198 A 
ATOM     92  F   UNL     1     -11.234  10.645  18.116  1.00  0.00    -0.203 F 
ATOM     93  F   UNL     1      -8.872  15.557  18.360  1.00  0.00    -0.200 F 
ATOM     94  C   UNL     1     -10.372  13.970  19.258  1.00  0.00     0.200 A 
ATOM     95  F   UNL     1     -11.847  12.344  20.128  1.00  0.00    -0.200 F 
ATOM     96  F   UNL     1     -10.646  14.788  20.284  1.00  0.00    -0.200 F 
ENDBRANCH  63  86
ENDBRANCH  37  38
ENDBRANCH  29  32
ENDBRANCH  27  28
ENDBRANCH  26  27
ENDBRANCH  25  26
ENDBRANCH   1  25
TORSDOF 15
