REMARK SMILES CCn1cc(S(=O)(=O)Nc2c(C)cc(C)cc2C(=O)NCCCCNC(=O)c2ccc(-c3c4nc(c(-c5c(F)c(F)c(F)c(F)c5F)c5ccc([nH]5)c(-c5c(F)c(F)c(F)c(F)c5F)c5nc(c(-c6c(F)c(F)c(F)c(F)c6F)c6ccc3[nH]6)C=C5)C=C4)cc2)cn1
REMARK SMILES IDX 21 1 20 2 18 3 19 4 17 6 10 7 11 8 12 9 13 10 16 11 14 12
REMARK SMILES IDX 15 13 9 14 6 16 7 17 8 18 5 19 3 20 4 21 92 22 91 23 2 24
REMARK SMILES IDX 1 25 22 26 23 27 24 28 25 29 26 30 27 32 28 33 29 34 90 35
REMARK SMILES IDX 30 36 89 37 31 38 32 39 33 40 83 41 34 42 88 43 82 44 84 45
REMARK SMILES IDX 35 46 87 47 81 48 80 49 36 51 68 52 48 53 67 54 49 55 52 56
REMARK SMILES IDX 66 57 85 58 50 59 51 60 65 62 86 63 53 64 37 65 38 66 46 67
REMARK SMILES IDX 39 68 40 69 44 70 47 71 41 72 42 73 45 74 43 75 69 76 70 77
REMARK SMILES IDX 78 78 71 79 72 80 76 81 79 82 73 83 74 84 77 85 75 86 54 87
REMARK SMILES IDX 55 88 63 89 56 90 57 91 61 92 64 93 58 94 59 95 62 96 60 97
REMARK H PARENT 20 5 9 15 25 31 84 50 52 61
REMARK Flexibility Score: inf
ROOT
ATOM      1  C   UNL     1       5.886  -4.970   1.105  1.00  0.00     0.116 C 
ENDROOT
BRANCH   1   2
ATOM      2  N   UNL     1       6.750  -3.905   1.523  1.00  0.00    -0.352 N 
ATOM      3  C   UNL     1       6.428  -2.622   1.905  1.00  0.00     0.253 C 
ATOM      4  O   UNL     1       7.399  -1.913   2.198  1.00  0.00    -0.269 OA
ATOM      5  H   UNL     1       7.710  -4.122   1.541  1.00  0.00     0.163 HD
BRANCH   3   6
ATOM      6  C   UNL     1       5.049  -1.986   1.977  1.00  0.00     0.064 A 
ATOM      7  C   UNL     1       3.788  -2.540   2.337  1.00  0.00     0.065 A 
ATOM      8  C   UNL     1       2.722  -1.668   2.705  1.00  0.00    -0.026 A 
ATOM      9  C   UNL     1       1.400  -2.127   3.272  1.00  0.00     0.046 C 
ATOM     10  C   UNL     1       2.849  -0.282   2.515  1.00  0.00     0.009 A 
ATOM     11  C   UNL     1       5.115  -0.576   1.800  1.00  0.00     0.019 A 
ATOM     12  C   UNL     1       4.030   0.274   2.039  1.00  0.00    -0.050 A 
ATOM     13  C   UNL     1       4.121   1.753   1.802  1.00  0.00     0.044 C 
BRANCH   7  14
ATOM     14  N   UNL     1       3.566  -3.957   2.431  1.00  0.00    -0.278 N 
ATOM     15  H   UNL     1       4.078  -4.485   3.085  1.00  0.00     0.180 HD
BRANCH  14  16
ATOM     16  S   UNL     1       2.422  -4.744   1.422  1.00  0.00     0.265 S 
ATOM     17  O   UNL     1       1.388  -5.207   2.323  1.00  0.00    -0.201 OA
ATOM     18  O   UNL     1       3.120  -5.691   0.581  1.00  0.00    -0.201 OA
BRANCH  16  19
ATOM     19  C   UNL     1       1.577  -3.772   0.297  1.00  0.00     0.125 A 
ATOM     20  N   UNL     1       0.731  -2.176  -0.928  1.00  0.00    -0.272 N 
ATOM     21  C   UNL     1       1.878  -2.557  -0.280  1.00  0.00     0.131 A 
ATOM     22  N   UNL     1      -0.183  -3.161  -1.005  1.00  0.00    -0.180 NA
ATOM     23  C   UNL     1       0.336  -4.134  -0.251  1.00  0.00     0.157 A 
BRANCH  20  24
ATOM     24  C   UNL     1       0.389  -0.854  -1.423  1.00  0.00     0.141 C 
ATOM     25  C   UNL     1       0.697   0.257  -0.430  1.00  0.00     0.029 C 
ENDBRANCH  20  24
ENDBRANCH  16  19
ENDBRANCH  14  16
ENDBRANCH   7  14
ENDBRANCH   3   6
ENDBRANCH   1   2
BRANCH   1  26
ATOM     26  C   UNL     1       6.408  -5.936   0.045  1.00  0.00     0.023 C 
BRANCH  26  27
ATOM     27  C   UNL     1       7.514  -6.921   0.417  1.00  0.00     0.023 C 
BRANCH  27  28
ATOM     28  C   UNL     1       7.275  -7.758   1.666  1.00  0.00     0.116 C 
BRANCH  28  29
ATOM     29  N   UNL     1       6.102  -8.626   1.626  1.00  0.00    -0.352 N 
ATOM     30  C   UNL     1       5.730  -9.555   2.589  1.00  0.00     0.251 C 
ATOM     31  H   UNL     1       5.516  -8.545   0.838  1.00  0.00     0.163 HD
ATOM     32  O   UNL     1       4.893 -10.413   2.385  1.00  0.00    -0.269 OA
BRANCH  30  33
ATOM     33  C   UNL     1       6.419  -9.476   3.893  1.00  0.00     0.039 A 
ATOM     34  C   UNL     1       7.147 -10.561   4.383  1.00  0.00     0.014 A 
ATOM     35  C   UNL     1       6.465  -8.234   4.520  1.00  0.00     0.014 A 
ATOM     36  C   UNL     1       8.035 -10.352   5.438  1.00  0.00     0.010 A 
ATOM     37  C   UNL     1       7.430  -8.005   5.476  1.00  0.00     0.010 A 
ATOM     38  C   UNL     1       8.216  -9.058   5.953  1.00  0.00    -0.014 A 
BRANCH  38  39
ATOM     39  C   UNL     1       9.327  -8.780   6.873  1.00  0.00     0.031 A 
ATOM     40  C   UNL     1      10.690  -9.229   6.439  1.00  0.00     0.074 A 
ATOM     41  C   UNL     1       9.220  -7.946   7.931  1.00  0.00     0.049 A 
ATOM     42  N   UNL     1      11.531  -9.972   7.086  1.00  0.00    -0.248 NA
ATOM     43  C   UNL     1      11.165  -8.828   5.105  1.00  0.00     0.031 C 
ATOM     44  C   UNL     1       8.059  -7.149   8.342  1.00  0.00     0.029 A 
ATOM     45  N   UNL     1      10.193  -7.529   8.793  1.00  0.00    -0.354 N 
ATOM     46  C   UNL     1      12.695 -10.022   6.316  1.00  0.00     0.074 A 
ATOM     47  C   UNL     1      12.376  -9.388   5.063  1.00  0.00     0.031 C 
ATOM     48  C   UNL     1       8.457  -6.178   9.190  1.00  0.00     0.029 A 
ATOM     49  C   UNL     1       9.852  -6.398   9.521  1.00  0.00     0.049 A 
ATOM     50  H   UNL     1      11.057  -7.989   8.890  1.00  0.00     0.167 HD
ATOM     51  C   UNL     1      13.889 -10.426   6.841  1.00  0.00     0.037 A 
ATOM     52  C   UNL     1      10.660  -5.665  10.321  1.00  0.00     0.037 A 
ATOM     53  C   UNL     1      13.704 -11.151   8.070  1.00  0.00     0.049 A 
ATOM     54  C   UNL     1      11.814  -6.513  10.695  1.00  0.00     0.074 A 
ATOM     55  C   UNL     1      13.046 -12.310   8.432  1.00  0.00     0.029 A 
ATOM     56  N   UNL     1      13.992 -10.514   9.250  1.00  0.00    -0.354 N 
ATOM     57  N   UNL     1      11.734  -7.556  11.472  1.00  0.00    -0.248 NA
ATOM     58  C   UNL     1      13.022  -6.423   9.892  1.00  0.00     0.031 C 
ATOM     59  C   UNL     1      12.535 -12.051   9.739  1.00  0.00     0.029 A 
ATOM     60  C   UNL     1      12.955 -10.772  10.106  1.00  0.00     0.049 A 
ATOM     61  H   UNL     1      14.792  -9.974   9.444  1.00  0.00     0.167 HD
ATOM     62  C   UNL     1      12.639  -8.457  10.937  1.00  0.00     0.074 A 
ATOM     63  C   UNL     1      13.492  -7.661  10.060  1.00  0.00     0.031 C 
ATOM     64  C   UNL     1      12.430  -9.802  11.036  1.00  0.00     0.037 A 
BRANCH  51  65
ATOM     65  C   UNL     1      15.248  -9.894   6.437  1.00  0.00     0.064 A 
ATOM     66  C   UNL     1      16.411 -10.487   6.977  1.00  0.00     0.173 A 
ATOM     67  C   UNL     1      15.442  -8.647   5.809  1.00  0.00     0.173 A 
ATOM     68  F   UNL     1      16.348 -11.671   7.606  1.00  0.00    -0.203 F 
ATOM     69  C   UNL     1      17.647  -9.834   6.974  1.00  0.00     0.198 A 
ATOM     70  C   UNL     1      16.690  -8.022   5.761  1.00  0.00     0.198 A 
ATOM     71  F   UNL     1      14.423  -7.932   5.320  1.00  0.00    -0.203 F 
ATOM     72  F   UNL     1      18.689 -10.375   7.622  1.00  0.00    -0.200 F 
ATOM     73  C   UNL     1      17.783  -8.596   6.375  1.00  0.00     0.200 A 
ATOM     74  F   UNL     1      16.800  -6.815   5.188  1.00  0.00    -0.200 F 
ATOM     75  F   UNL     1      18.947  -7.936   6.432  1.00  0.00    -0.200 F 
ENDBRANCH  51  65
BRANCH  52  76
ATOM     76  C   UNL     1      10.609  -4.213  10.595  1.00  0.00     0.064 A 
ATOM     77  C   UNL     1      11.253  -3.663  11.713  1.00  0.00     0.173 A 
ATOM     78  C   UNL     1      10.151  -3.304   9.621  1.00  0.00     0.173 A 
ATOM     79  F   UNL     1      11.752  -4.464  12.666  1.00  0.00    -0.203 F 
ATOM     80  C   UNL     1      11.454  -2.286  11.837  1.00  0.00     0.198 A 
ATOM     81  C   UNL     1      10.343  -1.929   9.750  1.00  0.00     0.198 A 
ATOM     82  F   UNL     1       9.592  -3.739   8.483  1.00  0.00    -0.203 F 
ATOM     83  F   UNL     1      12.130  -1.801  12.887  1.00  0.00    -0.200 F 
ATOM     84  C   UNL     1      11.009  -1.421  10.850  1.00  0.00     0.200 A 
ATOM     85  F   UNL     1       9.934  -1.105   8.774  1.00  0.00    -0.200 F 
ATOM     86  F   UNL     1      11.255  -0.107  10.939  1.00  0.00    -0.200 F 
ENDBRANCH  52  76
BRANCH  64  87
ATOM     87  C   UNL     1      11.388 -10.281  12.007  1.00  0.00     0.064 A 
ATOM     88  C   UNL     1      10.023  -9.955  11.927  1.00  0.00     0.173 A 
ATOM     89  C   UNL     1      11.772 -11.204  12.989  1.00  0.00     0.173 A 
ATOM     90  F   UNL     1       9.555  -9.169  10.950  1.00  0.00    -0.203 F 
ATOM     91  C   UNL     1       9.100 -10.480  12.829  1.00  0.00     0.198 A 
ATOM     92  C   UNL     1      10.842 -11.759  13.863  1.00  0.00     0.198 A 
ATOM     93  F   UNL     1      13.052 -11.601  13.075  1.00  0.00    -0.203 F 
ATOM     94  F   UNL     1       7.807 -10.132  12.747  1.00  0.00    -0.200 F 
ATOM     95  C   UNL     1       9.510 -11.385  13.793  1.00  0.00     0.200 A 
ATOM     96  F   UNL     1      11.235 -12.673  14.761  1.00  0.00    -0.200 F 
ATOM     97  F   UNL     1       8.617 -11.917  14.640  1.00  0.00    -0.200 F 
ENDBRANCH  64  87
ENDBRANCH  38  39
ENDBRANCH  30  33
ENDBRANCH  28  29
ENDBRANCH  27  28
ENDBRANCH  26  27
ENDBRANCH   1  26
TORSDOF 15
