REMARK SMILES Cc1nnc(SCC[C@H]2CCC[C@]2([NH2+]C(C)C)C(=O)NCCCCNC(=O)c2ccc(-c3c4nc(c(-c5c(F)c(F)c(F)c(F)c5F)c5ccc([nH]5)c(-c5c(F)c(F)c(F)c(F)c5F)c5nc(c(-c6c(F)c(F)c(F)c(F)c6F)c6ccc3[nH]6)C=C5)C=C4)cc2)o1
REMARK SMILES IDX 21 1 20 2 18 3 19 4 13 6 9 7 10 8 11 9 12 10 8 11 7 12 6 13
REMARK SMILES IDX 5 14 1 15 2 16 3 17 91 18 4 19 14 20 15 23 16 24 17 25 22 26
REMARK SMILES IDX 23 27 24 28 25 29 26 30 27 32 28 33 29 34 90 35 30 36 89 37
REMARK SMILES IDX 31 38 32 39 33 40 83 41 34 42 88 43 82 44 84 45 35 46 87 47
REMARK SMILES IDX 81 48 80 49 36 51 68 52 48 53 67 54 49 55 52 56 66 57 85 58
REMARK SMILES IDX 50 59 51 60 65 62 86 63 53 64 37 65 38 66 46 67 39 68 40 69
REMARK SMILES IDX 44 70 47 71 41 72 42 73 45 74 43 75 69 76 70 77 78 78 71 79
REMARK SMILES IDX 72 80 76 81 79 82 73 83 74 84 77 85 75 86 54 87 55 88 63 89
REMARK SMILES IDX 56 90 57 91 61 92 64 93 58 94 59 95 62 96 60 97
REMARK H PARENT 20 5 14 21 14 22 25 31 84 50 52 61
REMARK Flexibility Score: inf
ROOT
ATOM      1  C   UNL     1       4.159   2.166   0.154  1.00  0.00     0.116 C 
ENDROOT
BRANCH   1   2
ATOM      2  N   UNL     1       3.851   1.388  -1.012  1.00  0.00    -0.351 N 
ATOM      3  C   UNL     1       3.252   0.184  -1.119  1.00  0.00     0.281 C 
ATOM      4  O   UNL     1       3.413  -0.360  -2.220  1.00  0.00    -0.268 OA
ATOM      5  H   UNL     1       4.119   1.797  -1.867  1.00  0.00     0.163 HD
BRANCH   3   6
ATOM      6  C   UNL     1       2.331  -0.434   0.010  1.00  0.00     0.178 C 
ATOM      7  C   UNL     1       3.000  -0.794   1.375  1.00  0.00     0.061 C 
ATOM      8  C   UNL     1       4.014  -1.856   0.969  1.00  0.00     0.011 C 
ATOM      9  C   UNL     1       3.287  -2.669  -0.084  1.00  0.00     0.008 C 
ATOM     10  C   UNL     1       2.047  -1.851  -0.505  1.00  0.00     0.079 C 
BRANCH   7  11
ATOM     11  C   UNL     1       2.090  -1.294   2.570  1.00  0.00     0.022 C 
BRANCH  11  12
ATOM     12  C   UNL     1       0.788  -2.139   2.425  1.00  0.00     0.080 C 
BRANCH  12  13
ATOM     13  S   UNL     1       0.926  -3.964   2.532  1.00  0.00    -0.065 SA
BRANCH  13  14
ATOM     14  C   UNL     1       0.669  -4.530   0.901  1.00  0.00     0.276 A 
ATOM     15  C   UNL     1       2.196  -5.766  -2.021  1.00  0.00     0.113 C 
ATOM     16  C   UNL     1       1.222  -5.260  -1.031  1.00  0.00     0.214 A 
ATOM     17  N   UNL     1       0.113  -4.571  -1.201  1.00  0.00    -0.112 NA
ATOM     18  O   UNL     1       1.578  -5.358   0.286  1.00  0.00    -0.416 OA
ATOM     19  N   UNL     1      -0.259  -4.115   0.059  1.00  0.00    -0.101 NA
ENDBRANCH  13  14
ENDBRANCH  12  13
ENDBRANCH  11  12
ENDBRANCH   7  11
BRANCH   6  20
ATOM     20  N   UNL     1       1.214   0.496   0.263  1.00  0.00    -0.331 N 
ATOM     21  H   UNL     1       1.614   1.351   0.650  1.00  0.00     0.347 HD
ATOM     22  H   UNL     1       0.588  -0.018   0.881  1.00  0.00     0.347 HD
BRANCH  20  23
ATOM     23  C   UNL     1       0.373   0.884  -0.872  1.00  0.00     0.176 C 
ATOM     24  C   UNL     1      -0.759  -0.113  -1.108  1.00  0.00     0.075 C 
ATOM     25  C   UNL     1      -0.217   2.258  -0.532  1.00  0.00     0.075 C 
ENDBRANCH  20  23
ENDBRANCH   6  20
ENDBRANCH   3   6
ENDBRANCH   1   2
BRANCH   1  26
ATOM     26  C   UNL     1       5.597   1.873   0.587  1.00  0.00     0.023 C 
BRANCH  26  27
ATOM     27  C   UNL     1       6.645   2.123  -0.507  1.00  0.00     0.023 C 
BRANCH  27  28
ATOM     28  C   UNL     1       6.525   3.472  -1.203  1.00  0.00     0.116 C 
BRANCH  28  29
ATOM     29  N   UNL     1       6.512   4.578  -0.261  1.00  0.00    -0.352 N 
ATOM     30  C   UNL     1       7.172   5.779  -0.335  1.00  0.00     0.251 C 
ATOM     31  H   UNL     1       5.954   4.448   0.540  1.00  0.00     0.163 HD
ATOM     32  O   UNL     1       7.180   6.551   0.607  1.00  0.00    -0.269 OA
BRANCH  30  33
ATOM     33  C   UNL     1       7.902   6.099  -1.576  1.00  0.00     0.039 A 
ATOM     34  C   UNL     1       9.238   6.490  -1.484  1.00  0.00     0.014 A 
ATOM     35  C   UNL     1       7.279   5.955  -2.818  1.00  0.00     0.014 A 
ATOM     36  C   UNL     1       9.972   6.685  -2.652  1.00  0.00     0.010 A 
ATOM     37  C   UNL     1       8.033   6.072  -3.978  1.00  0.00     0.010 A 
ATOM     38  C   UNL     1       9.385   6.443  -3.905  1.00  0.00    -0.014 A 
BRANCH  38  39
ATOM     39  C   UNL     1      10.168   6.581  -5.156  1.00  0.00     0.031 A 
ATOM     40  C   UNL     1       9.784   7.625  -6.166  1.00  0.00     0.074 A 
ATOM     41  C   UNL     1      11.184   5.733  -5.403  1.00  0.00     0.049 A 
ATOM     42  N   UNL     1      10.299   7.865  -7.345  1.00  0.00    -0.248 NA
ATOM     43  C   UNL     1       8.652   8.498  -5.816  1.00  0.00     0.031 C 
ATOM     44  C   UNL     1      11.620   4.653  -4.515  1.00  0.00     0.029 A 
ATOM     45  N   UNL     1      12.031   5.641  -6.478  1.00  0.00    -0.354 N 
ATOM     46  C   UNL     1       9.551   8.906  -7.876  1.00  0.00     0.074 A 
ATOM     47  C   UNL     1       8.506   9.209  -6.923  1.00  0.00     0.031 C 
ATOM     48  C   UNL     1      12.671   4.026  -5.069  1.00  0.00     0.029 A 
ATOM     49  C   UNL     1      12.954   4.630  -6.367  1.00  0.00     0.049 A 
ATOM     50  H   UNL     1      11.982   6.243  -7.256  1.00  0.00     0.167 HD
ATOM     51  C   UNL     1       9.738   9.570  -9.041  1.00  0.00     0.037 A 
ATOM     52  C   UNL     1      13.914   4.232  -7.223  1.00  0.00     0.037 A 
ATOM     53  C   UNL     1      10.789   9.273  -9.977  1.00  0.00     0.049 A 
ATOM     54  C   UNL     1      14.079   4.967  -8.527  1.00  0.00     0.074 A 
ATOM     55  C   UNL     1      11.092   9.912 -11.166  1.00  0.00     0.029 A 
ATOM     56  N   UNL     1      11.708   8.243  -9.829  1.00  0.00    -0.354 N 
ATOM     57  N   UNL     1      13.409   5.995  -8.989  1.00  0.00    -0.248 NA
ATOM     58  C   UNL     1      15.139   4.489  -9.425  1.00  0.00     0.031 C 
ATOM     59  C   UNL     1      12.162   9.237 -11.763  1.00  0.00     0.029 A 
ATOM     60  C   UNL     1      12.565   8.216 -10.918  1.00  0.00     0.049 A 
ATOM     61  H   UNL     1      11.746   7.625  -9.064  1.00  0.00     0.167 HD
ATOM     62  C   UNL     1      13.987   6.308 -10.213  1.00  0.00     0.074 A 
ATOM     63  C   UNL     1      15.072   5.370 -10.413  1.00  0.00     0.031 C 
ATOM     64  C   UNL     1      13.650   7.283 -11.092  1.00  0.00     0.037 A 
BRANCH  51  65
ATOM     65  C   UNL     1       8.787  10.687  -9.363  1.00  0.00     0.064 A 
ATOM     66  C   UNL     1       8.780  11.882  -8.627  1.00  0.00     0.173 A 
ATOM     67  C   UNL     1       7.894  10.577 -10.440  1.00  0.00     0.173 A 
ATOM     68  F   UNL     1       9.604  12.035  -7.579  1.00  0.00    -0.203 F 
ATOM     69  C   UNL     1       7.894  12.911  -8.936  1.00  0.00     0.198 A 
ATOM     70  C   UNL     1       7.034  11.622 -10.767  1.00  0.00     0.198 A 
ATOM     71  F   UNL     1       7.861   9.459 -11.180  1.00  0.00    -0.203 F 
ATOM     72  F   UNL     1       7.870  14.020  -8.184  1.00  0.00    -0.200 F 
ATOM     73  C   UNL     1       7.028  12.783 -10.011  1.00  0.00     0.200 A 
ATOM     74  F   UNL     1       6.207  11.503 -11.816  1.00  0.00    -0.200 F 
ATOM     75  F   UNL     1       6.182  13.778 -10.313  1.00  0.00    -0.200 F 
ENDBRANCH  51  65
BRANCH  52  76
ATOM     76  C   UNL     1      14.809   3.098  -6.870  1.00  0.00     0.064 A 
ATOM     77  C   UNL     1      16.175   3.306  -6.633  1.00  0.00     0.173 A 
ATOM     78  C   UNL     1      14.327   1.783  -6.783  1.00  0.00     0.173 A 
ATOM     79  F   UNL     1      16.689   4.542  -6.723  1.00  0.00    -0.203 F 
ATOM     80  C   UNL     1      17.029   2.242  -6.352  1.00  0.00     0.198 A 
ATOM     81  C   UNL     1      15.176   0.724  -6.470  1.00  0.00     0.198 A 
ATOM     82  F   UNL     1      13.027   1.529  -6.994  1.00  0.00    -0.203 F 
ATOM     83  F   UNL     1      18.340   2.464  -6.186  1.00  0.00    -0.200 F 
ATOM     84  C   UNL     1      16.528   0.952  -6.266  1.00  0.00     0.200 A 
ATOM     85  F   UNL     1      14.685  -0.519  -6.371  1.00  0.00    -0.200 F 
ATOM     86  F   UNL     1      17.350  -0.071  -5.996  1.00  0.00    -0.200 F 
ENDBRANCH  52  76
BRANCH  64  87
ATOM     87  C   UNL     1      14.491   7.418 -12.328  1.00  0.00     0.064 A 
ATOM     88  C   UNL     1      14.449   6.469 -13.360  1.00  0.00     0.173 A 
ATOM     89  C   UNL     1      15.320   8.539 -12.500  1.00  0.00     0.173 A 
ATOM     90  F   UNL     1      13.684   5.373 -13.237  1.00  0.00    -0.203 F 
ATOM     91  C   UNL     1      15.225   6.622 -14.505  1.00  0.00     0.198 A 
ATOM     92  C   UNL     1      16.067   8.706 -13.662  1.00  0.00     0.198 A 
ATOM     93  F   UNL     1      15.391   9.480 -11.547  1.00  0.00    -0.203 F 
ATOM     94  F   UNL     1      15.207   5.677 -15.455  1.00  0.00    -0.200 F 
ATOM     95  C   UNL     1      16.026   7.744 -14.659  1.00  0.00     0.200 A 
ATOM     96  F   UNL     1      16.828   9.799 -13.816  1.00  0.00    -0.200 F 
ATOM     97  F   UNL     1      16.764   7.894 -15.768  1.00  0.00    -0.200 F 
ENDBRANCH  64  87
ENDBRANCH  38  39
ENDBRANCH  30  33
ENDBRANCH  28  29
ENDBRANCH  27  28
ENDBRANCH  26  27
ENDBRANCH   1  26
TORSDOF 17
